158

Mg 45.31400 3.35900 48.49700
C  43.06300 5.98700 47.54500
C  42.63500 1.17000 47.67500
C  47.43100 0.83800 48.35100
C  47.89000 5.66200 47.98700
N  43.08500 3.59000 47.76900
C  42.41100 4.75000 47.45900
C  40.97500 4.51000 47.04800
C  40.91100 2.94300 47.15800
C  42.25400 2.50500 47.56300
C  39.64000 2.47100 48.01000
C  40.65500 4.98800 45.61400
C  39.45800 5.89200 45.54500
H  38.78600 5.86900 44.16800
N  45.06000 1.21500 48.21400
C  43.88800 0.60800 47.90800
C  44.10900 -0.82900 47.92400
C  45.52600 -1.02200 48.05000
C  46.09800 0.36100 48.12800
C  42.96600 -1.79800 47.69800
C  46.22400 -2.42400 48.05800
O  45.60700 -3.45500 48.03300
C  47.74900 -2.47300 48.17300
N  47.36900 3.27100 48.16200
C  48.02100 2.08100 48.38900
C  49.51200 2.25500 48.55700
C  49.70700 3.80300 48.36300
C  48.26500 4.27000 48.12100
C  50.20300 1.65800 49.83600
C  50.64700 4.21700 47.24100
C  52.00400 4.93500 47.57900
N  45.47500 5.44600 48.04300
C  46.58600 6.30100 47.86900
C  46.12900 7.65900 47.72300
C  44.73300 7.59900 47.65600
C  44.41300 6.20500 47.79900
C  47.08100 8.87300 47.53700
C  43.50800 8.34000 47.54900
O  43.41800 9.55500 47.51400
C  42.34300 7.35600 47.45700
C  41.43600 7.66400 48.69400
O  41.73200 7.43200 49.87700
O  40.28100 8.34900 48.30700
C  39.42900 8.74200 49.38900
H  41.90200 0.41300 47.38800
H  48.15100 0.03400 48.51700
H  48.79100 6.27800 47.95000
H  40.39500 4.93500 47.86700
H  40.73200 2.59400 46.14100
H  38.86700 3.23600 48.08500
H  40.00700 2.18700 48.99600
H  39.24600 1.55500 47.56800
H  40.43700 4.19700 44.89700
H  41.47100 5.54900 45.15800
H  39.84300 6.91100 45.55400
H  38.76700 5.75500 46.37700
H  43.25900 -2.84800 47.70400
H  42.48100 -1.68500 46.72900
H  42.11300 -1.69100 48.36800
H  48.16200 -1.91800 47.33000
H  48.00200 -3.53200 48.12700
H  48.09900 -2.01100 49.09600
H  49.92800 1.70600 47.71100
H  50.20000 4.21600 49.24300
H  50.85200 0.83900 49.52400
H  49.36100 1.42500 50.48800
H  50.81900 2.40100 50.34100
H  50.05900 4.99400 46.75300
H  50.85400 3.42400 46.52200
H  52.04400 5.90900 47.09200
H  52.87800 4.37600 47.24500
H  52.26900 5.03000 48.63200
H  47.55400 9.13100 48.48400
H  46.57400 9.68000 47.00800
H  47.95400 8.64100 46.92700
H  41.75600 7.50400 46.55000
H  38.90900 9.62400 49.01500
H  39.97300 9.03600 50.28700
H  38.78800 7.91100 49.68500
Mg -11.22000 38.30400 41.60600
C  -8.70700 36.06500 40.99400
C  -9.57500 40.65700 39.72700
C  -14.07900 40.22900 41.38400
C  -13.19400 35.73300 42.98300
N  -9.42100 38.27100 40.44700
C  -8.48100 37.27200 40.40400
C  -7.23300 37.71400 39.63100
C  -7.62500 39.06600 39.00000
C  -8.93800 39.37800 39.82400
C  -6.47100 40.14200 38.89400
C  -6.66200 36.73800 38.65000
C  -5.13800 36.31200 38.75500
H  -4.29100 36.89100 37.62100
N  -11.67700 40.27600 40.99000
C  -10.79100 41.01700 40.19100
C  -11.40900 42.28000 40.02500
C  -12.73400 42.17800 40.53700
C  -12.90300 40.83600 40.99900
C  -10.72700 43.44400 39.23600
C  -13.76500 43.26400 40.50800
O  -13.54000 44.34600 39.95100
C  -15.14600 43.16700 41.19100
N  -13.45100 37.88000 41.86200
C  -14.32600 38.93300 41.91500
C  -15.65700 38.57500 42.60800
C  -15.36000 37.11300 43.04100
C  -13.88600 36.92000 42.67600
C  -16.06900 39.58600 43.75000
C  -16.42300 36.04400 42.55700
C  -16.19500 35.51100 41.16200
N  -11.11400 36.21900 41.94800
C  -11.91700 35.40200 42.64100
C  -11.13700 34.26100 43.04000
C  -9.91200 34.39200 42.30500
C  -9.98200 35.62700 41.62000
C  -11.50300 33.21600 44.10200
C  -8.59200 33.79700 42.13600
O  -8.14900 32.78600 42.61200
C  -7.81000 34.79200 41.12800
C  -6.38600 34.88000 41.64700
O  -5.58400 33.95300 41.68900
O  -6.25500 36.14000 42.22100
C  -4.90700 36.40600 42.74300
H  -8.98200 41.42400 39.22400
H  -15.01200 40.78100 41.51300
H  -13.87100 35.01500 43.44900
H  -6.42900 37.95900 40.32500
H  -8.01400 38.92100 37.99200
H  -6.65300 41.01300 39.52200
H  -6.37900 40.38600 37.83600
H  -5.51500 39.73400 39.22300
H  -6.62000 37.27900 37.70500
H  -7.31800 35.88000 38.50200
H  -4.95800 35.23700 38.77000
H  -4.73500 36.61800 39.72000
H  -11.30500 43.83300 38.39800
H  -9.76300 43.18500 38.79900
H  -10.60500 44.25500 39.95300
H  -15.15400 42.80900 42.22100
H  -15.75900 42.61000 40.48200
H  -15.63300 44.14100 41.23400
H  -16.49800 38.65300 41.91900
H  -15.36600 36.99900 44.12500
H  -16.84400 40.32300 43.53900
H  -15.16000 40.12700 44.01500
H  -16.44800 39.04600 44.61700
H  -17.46000 36.37400 42.62900
H  -16.19800 35.17300 43.17300
H  -17.10500 35.30100 40.59800
H  -15.59300 34.60400 41.21100
H  -15.56500 36.20400 40.60500
H  -10.66700 32.51900 44.16600
H  -12.42600 32.78600 43.71500
H  -11.58300 33.75200 45.04800
H  -7.62500 34.40300 40.12700
H  -4.18100 36.18700 41.96100
H  -4.83300 35.75200 43.61200
H  -4.72300 37.42500 43.08600

