158

Mg 47.94100 15.30100 28.53100
C  45.91900 14.94800 31.31200
C  49.88400 17.49700 30.35200
C  49.66500 16.06600 25.74400
C  45.67100 13.31400 26.75600
N  47.86400 16.10500 30.66200
C  46.98200 15.74300 31.61000
C  47.26500 16.54300 32.92700
C  48.54000 17.39200 32.56700
C  48.76200 17.00100 31.05200
C  48.46700 18.81100 32.90000
C  47.36300 15.61800 34.18200
C  46.87800 16.24500 35.49300
H  47.87500 16.15500 36.69200
N  49.57600 16.59600 28.10900
C  50.23300 17.38700 29.01700
C  51.35400 17.93200 28.37500
C  51.43600 17.48900 27.04000
C  50.20900 16.65700 26.89700
C  52.46500 18.70300 29.15800
C  52.52500 17.54400 25.98200
O  52.38500 16.95400 24.89300
C  53.88000 18.14100 26.22900
N  47.63100 14.84900 26.51500
C  48.57000 15.12600 25.56700
C  48.33800 14.30500 24.26800
C  47.19000 13.35700 24.71300
C  46.77300 13.86200 26.07400
C  48.00100 15.25800 23.09300
C  47.62600 11.83500 24.48900
C  48.11700 11.05900 25.72300
N  46.20000 14.21800 28.89700
C  45.30700 13.52500 28.10600
C  44.06000 13.17100 28.84800
C  44.29700 13.70000 30.10600
C  45.59300 14.31000 30.06200
C  42.89700 12.42200 28.32100
C  43.80200 13.71900 31.43500
O  42.83200 13.15300 31.85600
C  44.73500 14.53500 32.26300
C  43.92200 15.71000 32.66300
O  43.74500 16.77600 32.11200
O  43.47300 15.44400 33.91700
C  42.47600 16.39700 34.43100
H  50.51600 18.01500 31.07600
H  50.17800 16.28000 24.80400
H  44.98800 12.72400 26.14000
H  46.46800 17.26400 33.11400
H  49.40000 16.93900 33.06100
H  47.62200 18.86600 33.58600
H  48.17700 19.44300 32.06100
H  49.43200 19.13500 33.29000
H  48.42400 15.40100 34.30000
H  46.84100 14.69100 33.94700
H  45.95000 15.70900 35.69200
H  46.57400 17.29100 35.44200
H  52.41200 18.69500 30.24700
H  52.50600 19.75200 28.86200
H  53.39200 18.18600 28.91300
H  54.29800 17.47100 26.98000
H  53.60600 19.12800 26.60400
H  54.48600 18.15400 25.32300
H  49.27500 13.80300 24.02500
H  46.30700 13.50200 24.08900
H  47.39600 14.76100 22.33500
H  48.90900 15.50500 22.54400
H  47.42400 16.12000 23.42700
H  48.45000 11.77800 23.77800
H  46.87800 11.25100 23.95200
H  47.80300 11.67700 26.56400
H  49.18800 10.87600 25.64600
H  47.55600 10.15100 25.94800
H  42.92000 11.46400 28.84100
H  42.89200 12.27500 27.24100
H  41.99900 12.97900 28.58600
H  44.96900 13.87500 33.09800
H  43.02900 17.12900 35.01900
H  41.91400 15.72100 35.07600
H  41.70400 16.79300 33.77000
Mg 16.53900 51.39000 24.89700
C  18.05200 50.42000 27.88600
C  13.76600 52.37300 26.70800
C  14.99700 51.96100 21.98900
C  19.45500 50.40300 23.22500
N  16.03400 51.44100 27.02000
C  16.84900 51.04100 28.04600
C  16.19500 51.37800 29.42100
C  14.79000 51.92100 29.02800
C  14.86300 51.93200 27.50900
C  13.52300 51.13900 29.50900
C  17.16900 52.34800 30.27200
C  17.52500 51.87400 31.65400
H  16.39300 51.21700 32.51000
N  14.68100 52.19000 24.42500
C  13.61400 52.45700 25.31200
C  12.48900 52.88200 24.56300
C  12.83000 52.72200 23.15800
C  14.25400 52.31600 23.15500
C  11.20900 53.39500 25.19100
C  12.06100 53.02800 21.97000
O  12.45800 52.91500 20.78900
C  10.82200 53.79100 22.18200
N  17.10000 51.02700 22.90400
C  16.22800 51.41700 21.86500
C  16.90100 51.15800 20.51500
C  18.34700 50.80900 20.91300
C  18.36600 50.88000 22.45900
C  16.15300 49.98200 19.74100
C  19.47500 51.62500 20.22400
C  20.03200 50.98900 18.88600
N  18.33300 50.43800 25.35000
C  19.42700 50.11400 24.57300
C  20.49700 49.51000 25.42300
C  19.98500 49.66000 26.71700
C  18.71200 50.23200 26.64400
C  21.66900 48.77400 24.92700
C  20.35200 49.49700 28.11100
O  21.33500 49.05500 28.65600
C  19.09400 49.92000 28.93800
C  18.63000 48.71800 29.64800
O  17.92400 47.80500 29.13400
O  19.10200 48.83500 30.93600
C  18.87700 47.68200 31.76300
H  12.99800 52.83300 27.33400
H  14.51300 52.07400 21.01600
H  20.31400 50.06300 22.64200
H  16.19800 50.38000 29.85900
H  14.68600 52.94900 29.37300
H  12.95800 50.70100 28.68600
H  12.78700 51.74800 30.03300
H  13.82900 50.37300 30.22100
H  16.66300 53.30200 30.42300
H  18.13800 52.52400 29.80600
H  17.87700 52.76700 32.17100
H  18.35400 51.17400 31.55300
H  11.17300 53.10200 26.24000
H  10.27100 52.96800 24.83800
H  11.18500 54.47700 25.31200
H  9.94700 53.32600 22.63600
H  10.44500 54.03000 21.18700
H  11.12600 54.69900 22.70100
H  16.88300 52.03200 19.86500
H  18.55200 49.79500 20.57000
H  15.23300 49.59900 20.18200
H  16.80500 49.12900 19.55600
H  16.03600 50.41100 18.74600
H  20.14700 52.07900 20.95200
H  19.06100 52.56700 19.86400
H  19.63800 51.50200 18.00900
H  19.81200 49.92400 18.81200
H  21.11500 51.11000 18.86400
H  21.46900 47.78400 25.33900
H  22.53900 49.36600 25.21000
H  21.62000 48.65200 23.84500
H  19.42100 50.67200 29.65600
H  19.62800 47.69400 32.55300
H  18.89400 46.74500 31.20600
H  17.87600 47.79900 32.17900

