158

Mg -2.61900 17.27200 27.03300
C  -3.13900 15.26000 29.91700
C  -3.02200 20.13000 29.05000
C  -2.60400 19.22300 24.40600
C  -2.45500 14.39100 25.17700
N  -3.03300 17.62600 29.24200
C  -3.13600 16.65700 30.20300
C  -3.46600 17.32100 31.59300
C  -3.30900 18.87000 31.30000
C  -3.10900 18.87500 29.76900
C  -4.47300 19.71300 31.79500
C  -2.64100 16.74300 32.76900
C  -2.31300 17.66300 33.94300
H  -2.06700 17.03600 35.30800
N  -2.72000 19.42900 26.75300
C  -2.86400 20.38300 27.71300
C  -2.99200 21.64300 27.05300
C  -2.88700 21.45700 25.62500
C  -2.72900 19.97100 25.56700
C  -3.16400 22.97100 27.78600
C  -2.82800 22.46800 24.48600
O  -2.79300 22.14500 23.33700
C  -2.92600 23.89500 24.86100
N  -2.45400 16.82900 25.14600
C  -2.48300 17.82500 24.16300
C  -2.51200 17.25400 22.74800
C  -2.13900 15.70000 23.02900
C  -2.29300 15.63000 24.55500
C  -3.70700 17.45900 21.80400
C  -0.75700 15.21600 22.50700
C  0.48200 15.86800 23.17300
N  -2.71000 15.22100 27.42100
C  -2.64000 14.18600 26.57100
C  -2.76700 12.91100 27.23500
C  -3.01800 13.26800 28.58800
C  -2.92700 14.75300 28.65300
C  -2.65200 11.47600 26.70000
C  -3.25700 12.74600 29.91800
O  -3.33300 11.56600 30.31600
C  -3.39400 14.02900 30.82800
C  -2.14500 13.85900 31.66700
O  -0.97900 14.17300 31.38400
O  -2.42800 13.26200 32.94800
C  -1.37400 13.22900 33.88500
H  -3.08700 20.97400 29.74000
H  -2.67900 19.77900 23.46900
H  -2.49500 13.52000 24.52000
H  -4.49800 17.02300 31.78100
H  -2.40500 19.32700 31.70200
H  -5.06000 19.04100 32.42000
H  -4.99300 20.07300 30.90700
H  -4.29800 20.60400 32.39800
H  -1.69500 16.38600 32.36300
H  -3.13900 15.87700 33.20500
H  -3.19300 18.30200 34.01300
H  -1.33700 18.07800 33.69100
H  -2.28600 23.60000 27.64000
H  -3.42400 23.01500 28.84400
H  -4.01100 23.49500 27.34500
H  -3.88400 24.14200 25.31900
H  -2.96000 24.29300 23.84700
H  -2.17100 24.45100 25.41600
H  -1.57500 17.53200 22.26500
H  -2.97700 15.21800 22.52500
H  -4.40700 16.62400 21.82800
H  -3.30900 17.83100 20.86000
H  -4.31400 18.24500 22.25300
H  -0.73800 15.46300 21.44600
H  -0.80900 14.12900 22.57500
H  0.75900 16.78200 22.64700
H  1.33300 15.22400 22.94900
H  0.49900 15.95100 24.26000
H  -2.08600 11.46000 25.76900
H  -3.65800 11.15500 26.43200
H  -2.14100 10.87200 27.45000
H  -4.28900 14.08400 31.44700
H  -1.62600 13.56500 34.89100
H  -0.46400 13.72500 33.54500
H  -1.00800 12.20300 33.86600
Mg -6.47500 25.53200 26.02400
C  -4.64900 26.34600 28.83700
C  -8.32900 23.41900 27.86400
C  -7.34900 23.89600 23.09400
C  -4.01700 27.30100 24.11700
N  -6.40900 24.97800 28.06600
C  -5.78000 25.52300 29.04300
C  -6.24600 25.03900 30.39900
C  -7.31200 23.91800 30.12300
C  -7.35200 24.07400 28.58800
C  -6.78200 22.53000 30.38200
C  -6.89600 26.22200 31.16600
C  -6.96200 26.21500 32.65700
H  -6.35500 25.12300 33.49000
N  -7.72300 23.92000 25.56500
C  -8.43800 23.22000 26.49900
C  -9.25100 22.23800 25.75000
C  -9.03600 22.40300 24.38800
C  -7.94000 23.44000 24.32800
C  -10.00800 21.16000 26.46500
C  -9.54800 21.59700 23.14100
O  -9.06000 21.86600 22.03100
C  -10.50700 20.39900 23.25300
N  -5.64700 25.44400 23.92000
C  -6.30200 24.80300 22.93100
C  -5.74600 25.23100 21.60100
C  -4.71600 26.28500 21.92400
C  -4.76200 26.42400 23.42800
C  -5.12500 23.89300 20.92200
C  -4.85700 27.76100 21.22100
C  -3.69100 28.26600 20.30100
N  -4.78700 26.82200 26.37500
C  -3.96300 27.48100 25.53300
C  -3.04800 28.23000 26.32700
C  -3.18300 27.80600 27.65100
C  -4.25100 26.94700 27.58500
C  -1.94800 29.16300 25.74700
C  -2.69300 27.87400 29.03200
O  -1.71500 28.45900 29.58500
C  -3.67100 26.98400 29.86000
C  -2.84100 26.08100 30.72500
O  -2.33800 24.98800 30.41300
O  -2.75900 26.63200 31.94900
C  -1.93800 26.00000 32.97600
H  -9.06300 22.85500 28.44300
H  -7.73300 23.67100 22.09700
H  -3.41200 28.02200 23.56400
H  -5.43300 24.71400 31.04900
H  -8.30100 24.11700 30.53700
H  -5.88600 22.53700 31.00300
H  -6.49200 22.18800 29.38800
H  -7.44600 21.88600 30.95900
H  -7.94900 26.09500 30.91300
H  -6.59400 27.18100 30.74600
H  -8.02600 26.12700 32.87600
H  -6.59100 27.16400 33.04300
H  -10.92500 21.13100 25.87700
H  -10.27800 21.36200 27.50100
H  -9.53600 20.19400 26.28400
H  -10.10500 19.46000 23.63300
H  -10.75500 20.09200 22.23700
H  -11.31600 20.82700 23.84500
H  -6.54200 25.55100 20.92900
H  -3.76300 25.84500 21.63100
H  -5.73100 23.64300 20.05100
H  -5.27500 23.05700 21.60600
H  -4.09400 23.97800 20.57900
H  -5.01400 28.48200 22.02300
H  -5.79800 27.76800 20.67100
H  -4.17500 28.33900 19.32700
H  -3.01600 27.46600 19.99800
H  -3.16800 29.17800 20.59100
H  -2.26900 29.59900 24.80100
H  -1.03700 28.60700 25.52400
H  -1.77600 29.96600 26.46400
H  -4.18700 27.66900 30.53200
H  -0.92400 26.36800 32.82000
H  -1.95700 24.91300 32.90200
H  -2.21900 26.25800 33.99700

