158

Mg 0.17700 43.47400 25.51700
C  2.37400 43.05500 28.22600
C  -2.51400 42.91100 27.70300
C  -2.01600 43.36100 22.98800
C  2.81900 43.92900 23.40300
N  0.03500 43.09300 27.64400
C  0.98500 43.10000 28.56900
C  0.43700 42.97700 30.00700
C  -0.99500 42.54900 29.76700
C  -1.19100 42.94000 28.30900
C  -1.31800 41.02800 30.01300
C  0.44600 44.29500 30.87500
C  -0.14100 44.22800 32.32000
H  -0.14500 42.74900 32.93300
N  -1.98300 43.07800 25.35700
C  -2.88400 42.87600 26.37900
C  -4.25500 42.78600 25.86300
C  -4.12900 42.87000 24.44600
C  -2.69300 43.09600 24.18400
C  -5.43200 42.47900 26.72100
C  -5.22100 42.75600 23.43800
O  -5.00400 43.00600 22.26600
C  -6.63500 42.41600 23.86000
N  0.37500 43.54500 23.50300
C  -0.70000 43.52200 22.66400
C  -0.12500 43.55600 21.26400
C  1.31300 43.97500 21.38200
C  1.53800 43.73500 22.83900
C  -0.36400 42.12100 20.64800
C  1.63100 45.42000 20.93900
C  1.01800 46.58800 21.71700
N  2.21300 43.44800 25.72900
C  3.20400 43.70200 24.78200
C  4.55700 43.46200 25.40300
C  4.21800 43.29400 26.76300
C  2.79300 43.36100 26.90200
C  5.89900 43.31400 24.79200
C  4.76400 42.99300 28.02800
O  5.94100 42.71300 28.37700
C  3.66100 43.04300 29.05200
C  3.65600 41.86900 29.89300
O  3.59600 40.71200 29.51900
O  3.93300 42.34500 31.15700
C  4.23700 41.27400 32.09900
H  -3.26700 42.74900 28.47700
H  -2.61800 43.23400 22.08600
H  3.64900 44.13200 22.72300
H  0.97000 42.20200 30.55800
H  -1.71600 43.20300 30.25800
H  -1.53600 40.50500 29.08200
H  -2.14700 40.89700 30.70800
H  -0.38300 40.59700 30.37200
H  -0.03100 45.10700 30.32600
H  1.44400 44.72300 30.96200
H  -1.09800 44.74400 32.39700
H  0.42500 44.85500 33.00900
H  -5.92400 43.35000 27.15400
H  -4.97200 41.90700 27.52600
H  -6.03600 41.67100 26.30700
H  -7.04400 43.01900 24.67100
H  -6.60600 41.38200 24.20500
H  -7.30000 42.52200 23.00300
H  -0.73500 44.27100 20.71300
H  1.99800 43.28000 20.89700
H  0.57500 41.57200 20.57700
H  -0.82000 42.24100 19.66500
H  -0.97800 41.59100 21.37600
H  1.27500 45.39700 19.90900
H  2.71400 45.53300 20.98800
H  1.83200 47.30900 21.78300
H  0.50900 46.39700 22.66200
H  0.35300 47.12800 21.04400
H  5.80800 42.81100 23.82900
H  6.56600 42.81800 25.49700
H  6.28200 44.31800 24.61000
H  3.70100 44.00300 29.56600
H  4.64200 41.73000 33.00200
H  4.94600 40.61200 31.60300
H  3.31000 40.74200 32.31500
Mg -9.40900 18.68500 42.49800
C  -6.03900 17.99600 42.58100
C  -8.70500 22.05000 41.84200
C  -12.59100 19.31700 42.38900
C  -9.98600 15.20800 42.48300
N  -7.58100 19.79300 41.97100
C  -6.30200 19.26300 42.20100
C  -5.24400 20.36700 42.13100
C  -6.13700 21.69700 42.11700
C  -7.55600 21.15800 41.98700
C  -5.99800 22.58100 43.34100
C  -4.15100 20.26800 40.98200
C  -4.42000 19.55000 39.67600
H  -3.98600 20.19300 38.33200
N  -10.53700 20.40700 42.02700
C  -10.04700 21.66400 41.84300
C  -11.13100 22.57800 41.62500
C  -12.30600 21.81400 41.86400
C  -11.86900 20.50200 42.10500
C  -10.99300 24.04600 41.26700
C  -13.70300 22.34900 41.74800
O  -14.00900 23.50000 41.35000
C  -14.86100 21.44800 41.88300
N  -11.07400 17.41400 42.24600
C  -12.29200 17.90800 42.48000
C  -13.33700 16.86100 42.82600
C  -12.50000 15.48800 42.79000
C  -11.09200 16.05900 42.43200
C  -13.95400 17.21600 44.23400
C  -12.98400 14.43400 41.80500
C  -13.72800 13.25900 42.49400
N  -8.25800 16.93500 42.49100
C  -8.64700 15.62800 42.65900
C  -7.49100 14.83000 42.91200
C  -6.44800 15.73000 42.92500
C  -6.97100 16.98300 42.64700
C  -7.45800 13.35300 43.23700
C  -5.02300 15.84400 43.15600
O  -4.17100 15.00800 43.34000
C  -4.65300 17.34900 42.95400
C  -4.11900 17.90800 44.22700
O  -2.98200 18.32800 44.36000
O  -5.12000 18.06600 45.13400
C  -4.71900 18.74900 46.33700
H  -8.59200 23.13500 41.80300
H  -13.66500 19.48900 42.49000
H  -10.26300 14.15900 42.60700
H  -4.71200 20.34200 43.08200
H  -5.78200 22.34100 41.31200
H  -6.89300 22.86000 43.89600
H  -5.43000 23.47700 43.08800
H  -5.32300 22.17100 44.09200
H  -3.21800 19.87500 41.38400
H  -3.72300 21.24700 40.76500
H  -5.49400 19.38200 39.59100
H  -3.84700 18.62500 39.73200
H  -10.23800 24.54000 41.87800
H  -11.84500 24.72600 41.23100
H  -10.60800 24.11900 40.25000
H  -14.99400 21.11700 42.91300
H  -14.80400 20.67000 41.12200
H  -15.77500 22.02800 41.74900
H  -14.09600 16.83800 42.04400
H  -12.44600 15.09400 43.80400
H  -14.77700 17.90300 44.03500
H  -13.24000 17.68800 44.90900
H  -14.42800 16.32400 44.64200
H  -12.04700 14.06000 41.39200
H  -13.61000 14.68100 40.94700
H  -13.15000 12.34000 42.58800
H  -14.66200 13.05100 41.97200
H  -13.88000 13.40900 43.56200
H  -6.46900 13.09900 42.85600
H  -8.32300 12.82000 42.84200
H  -7.41100 13.21500 44.31700
H  -3.81600 17.65300 42.32500
H  -5.60000 18.89900 46.96000
H  -4.26000 19.71200 46.11700
H  -3.93000 18.20000 46.85200

