158

Mg 47.64500 34.94700 28.06300
C  45.95500 33.31500 30.64500
C  47.81500 37.75800 30.04700
C  48.69700 36.70500 25.42000
C  46.84800 32.24300 25.87500
N  46.95800 35.38700 30.06100
C  46.47400 34.48600 31.01600
C  46.43200 35.21700 32.42200
C  46.65300 36.68500 31.96100
C  47.17000 36.62600 30.56000
C  45.27100 37.48500 32.11000
C  47.53500 34.45800 33.38100
C  48.75400 35.18200 33.84700
H  48.52600 36.16400 35.05500
N  48.35600 36.85200 27.76000
C  48.31700 37.91200 28.68600
C  48.89900 39.14900 28.15300
C  49.16000 38.80200 26.73500
C  48.75800 37.42500 26.58100
C  48.89100 40.48900 28.84900
C  49.61100 39.77600 25.67700
O  49.54100 39.57200 24.47900
C  50.23300 41.11000 25.96000
N  47.91000 34.43200 26.00000
C  48.18100 35.40100 25.10900
C  48.14700 34.93900 23.62700
C  47.89900 33.40500 23.83600
C  47.44500 33.36900 25.30200
C  47.05200 35.64400 22.79600
C  49.14700 32.55800 23.54300
C  50.25600 32.38800 24.61400
N  46.57400 33.07200 28.17900
C  46.43300 32.10500 27.23000
C  45.61600 31.08000 27.87900
C  45.40500 31.49100 29.21000
C  45.97900 32.72200 29.36700
C  45.13600 29.83700 27.12400
C  44.84600 31.08700 30.48400
O  44.27400 30.10600 30.95000
C  44.99100 32.38800 31.33100
C  45.18900 32.11600 32.86900
O  46.15400 31.49400 33.32000
O  44.19100 32.65900 33.58200
C  44.28700 32.59700 35.05800
H  47.70800 38.60100 30.73300
H  49.11800 37.19900 24.54100
H  46.58100 31.45400 25.16900
H  45.50800 35.04200 32.97500
H  47.47200 37.11100 32.54100
H  44.76500 37.47300 33.07500
H  44.64400 37.21200 31.26100
H  45.52600 38.54000 32.00900
H  47.87600 33.62200 32.77000
H  47.01000 34.10700 34.27000
H  49.30200 35.76500 33.10800
H  49.52300 34.44900 34.08900
H  47.94900 40.98100 28.60300
H  49.77700 41.12200 28.80400
H  49.07100 40.28000 29.90300
H  49.44100 41.84100 26.12300
H  50.62500 41.43600 24.99600
H  51.03100 41.06400 26.70100
H  49.12300 35.29600 23.29700
H  47.07300 32.99200 23.25700
H  47.51300 35.96000 21.86000
H  46.72300 36.57400 23.26100
H  46.17500 35.00700 22.69100
H  49.55900 33.00000 22.63600
H  48.73000 31.60300 23.22300
H  49.99200 32.89800 25.54000
H  51.24300 32.71100 24.28300
H  50.46100 31.33300 24.80000
H  45.97300 29.14600 27.02300
H  44.85300 30.22300 26.14400
H  44.23300 29.37000 27.51700
H  44.00900 32.86200 31.32200
H  45.26800 32.89600 35.42500
H  44.02300 31.61200 35.44500
H  43.55200 33.25600 35.52000
Mg 0.73200 43.12800 26.13800
C  2.87400 43.43600 28.80300
C  -1.89400 42.46500 28.26500
C  -1.11000 42.56700 23.51600
C  3.62500 43.33300 23.98800
N  0.58500 42.97400 28.28700
C  1.58100 43.18300 29.15300
C  1.01600 43.15700 30.59500
C  -0.42200 42.60100 30.48200
C  -0.63300 42.73200 28.93700
C  -0.67400 41.23700 31.15500
C  1.02500 44.54100 31.32700
C  1.24200 44.52100 32.83400
H  0.93700 43.20400 33.67700
N  -1.23300 42.59500 25.90400
C  -2.15400 42.39600 26.89700
C  -3.41400 42.03900 26.32900
C  -3.20000 42.01000 24.88900
C  -1.76600 42.35800 24.73400
C  -4.69500 41.79400 27.08900
C  -4.15400 41.65800 23.78100
O  -3.93100 41.52700 22.58500
C  -5.59200 41.39700 24.10400
N  1.17700 43.10800 24.00500
C  0.19100 42.90800 23.16600
C  0.67900 43.01400 21.71200
C  2.18200 43.39100 21.84300
C  2.36300 43.28600 23.35800
C  0.40000 41.74800 20.88300
C  2.52100 44.74300 21.15800
C  2.26900 45.99000 22.11100
N  2.87700 43.27200 26.37700
C  3.86400 43.34600 25.39600
C  5.13100 43.54800 26.05800
C  4.82300 43.60100 27.43000
C  3.38600 43.45200 27.47800
C  6.41700 43.69600 25.34200
C  5.40000 43.77300 28.74900
O  6.54600 43.93700 29.12900
C  4.12700 43.61200 29.72400
C  4.43900 42.44100 30.55300
O  4.71000 41.34400 30.14600
O  4.46400 42.80000 31.92400
C  4.99400 41.80200 32.80200
H  -2.80300 42.23900 28.82700
H  -1.68100 42.40100 22.60100
H  4.43500 43.45900 23.26600
H  1.58500 42.46600 31.21600
H  -1.08800 43.33900 30.92700
H  -1.40600 41.25400 31.96200
H  0.23800 40.77000 31.53000
H  -1.19000 40.59600 30.44000
H  0.11300 45.05900 31.03100
H  1.86800 45.17800 31.06200
H  0.56900 45.28400 33.22400
H  2.18800 44.95800 33.15400
H  -5.43900 42.53600 26.79900
H  -4.65900 41.82900 28.17800
H  -4.96900 40.75300 26.91700
H  -5.68700 40.63800 24.88100
H  -6.00600 40.88400 23.23500
H  -6.02400 42.38000 24.28700
H  0.13100 43.89600 21.38100
H  2.81400 42.56700 21.51300
H  1.28700 41.38100 20.36600
H  -0.30900 41.89800 20.06900
H  0.11300 40.99900 21.62100
H  1.99500 44.89600 20.21600
H  3.57800 44.63300 20.91700
H  1.70100 46.74300 21.56400
H  3.19100 46.47700 22.42600
H  1.76600 45.85000 23.06800
H  6.39500 43.67800 24.25300
H  7.01500 42.82900 25.62300
H  6.79900 44.65000 25.70600
H  4.10600 44.46300 30.40400
H  4.14500 41.41300 33.36400
H  5.71400 42.21600 33.50800
H  5.42800 40.95100 32.27800

