158

Mg 41.44400 8.79900 30.11200
C  43.30900 10.13800 32.76800
C  39.11300 7.65400 32.49000
C  39.51000 7.67100 27.57600
C  43.96900 9.62600 27.89700
N  41.24700 8.74900 32.34400
C  42.12100 9.43700 33.22800
C  41.68600 9.29800 34.69700
C  40.42800 8.46800 34.57000
C  40.25200 8.24300 33.06100
C  40.39800 7.09900 35.45800
C  41.46800 10.71700 35.33500
C  40.39600 10.90500 36.36500
H  40.77400 11.99800 37.32800
N  39.50800 8.05600 30.00300
C  38.69300 7.54100 31.07000
C  37.48600 6.99200 30.59500
C  37.56700 7.15000 29.14400
C  38.88700 7.59800 28.82300
C  36.38000 6.28700 31.42500
C  36.49900 6.88100 28.09500
O  36.63000 6.94300 26.87800
C  35.11300 6.63200 28.54900
N  41.72500 8.53000 27.95600
C  40.83100 7.93000 27.13500
C  41.43500 7.91200 25.70900
C  42.69900 8.82100 25.76900
C  42.86400 8.90800 27.30700
C  41.65600 6.45000 25.23700
C  42.54700 10.20500 25.07000
C  41.27400 10.94800 25.39300
N  43.26400 9.58800 30.22700
C  44.23600 9.87300 29.27200
C  45.19500 10.77300 29.81700
C  44.89700 10.86500 31.14400
C  43.73300 10.14600 31.40000
C  46.38500 11.32000 29.01200
C  45.28500 11.60800 32.37200
O  46.15800 12.42200 32.52100
C  44.38100 11.06700 33.46800
C  45.17300 10.39000 34.47500
O  45.80100 9.37100 34.41500
O  45.11600 11.10500 35.61500
C  46.02400 10.80400 36.65900
H  38.24800 7.43900 33.12100
H  38.91100 7.27000 26.75600
H  44.71400 9.95700 27.17100
H  42.49700 8.87800 35.29200
H  39.57900 9.05300 34.92400
H  39.96400 7.37000 36.42000
H  41.39500 6.72700 35.69200
H  39.89800 6.29900 34.91300
H  41.31100 11.42500 34.52200
H  42.41300 10.95100 35.82500
H  40.18300 9.95100 36.84700
H  39.50200 11.24200 35.84000
H  36.75700 6.08700 32.42800
H  36.21600 5.30200 30.98800
H  35.42100 6.80300 31.47600
H  35.06500 5.63800 28.99200
H  34.29000 6.78500 27.85100
H  34.86600 7.40800 29.27400
H  40.72400 8.29200 24.97500
H  43.57400 8.37100 25.29900
H  40.86800 5.83100 25.66600
H  42.60500 6.02300 25.56200
H  41.50600 6.41000 24.15800
H  42.78100 10.17500 24.00500
H  43.33100 10.87500 25.42100
H  40.77100 10.41400 26.19900
H  40.67600 11.03100 24.48600
H  41.48400 11.92000 25.84000
H  46.79200 12.20300 29.50400
H  46.09100 11.53300 27.98400
H  47.15300 10.56900 28.82900
H  43.97500 12.02500 33.79000
H  45.57100 10.16900 37.42100
H  46.46300 11.62600 37.22400
H  46.91800 10.27600 36.32800
Mg -2.63700 34.40100 26.54600
C  -4.52000 32.90800 29.14500
C  -1.66800 36.85500 28.94600
C  -1.03600 36.09100 24.17000
C  -4.25200 32.36700 24.27100
N  -3.18600 34.82300 28.70900
C  -3.80500 33.99700 29.60000
C  -3.78300 34.49900 31.08200
C  -3.06100 35.93200 30.90900
C  -2.52700 35.81100 29.44800
C  -3.95800 37.16600 31.21600
C  -3.05700 33.58300 32.11800
C  -3.62100 33.44200 33.53700
H  -2.71400 33.84400 34.71100
N  -1.39600 36.19300 26.52600
C  -1.10100 37.04100 27.64700
C  -0.19600 38.08500 27.24000
C  0.05400 37.83600 25.84400
C  -0.81100 36.64200 25.43600
C  0.27700 39.16700 28.11500
C  0.91900 38.57300 24.87000
O  1.11000 38.17400 23.74400
C  1.69100 39.82600 25.31000
N  -2.77700 34.35900 24.49600
C  -1.91100 35.08500 23.71700
C  -1.95600 34.60500 22.23000
C  -2.79500 33.31500 22.36200
C  -3.36700 33.34600 23.76500
C  -2.41500 35.69900 21.25000
C  -2.13700 31.98200 21.98300
C  -3.02800 30.93500 21.28200
N  -4.05300 32.92800 26.67000
C  -4.62700 32.18400 25.63800
C  -5.50100 31.16900 26.20500
C  -5.42300 31.44000 27.53000
C  -4.60900 32.53900 27.80700
C  -6.39000 30.19800 25.44900
C  -5.85100 30.88600 28.81500
O  -6.46700 29.85200 29.10200
C  -5.37400 31.90400 29.89500
C  -6.50200 32.50100 30.54900
O  -7.27200 33.28000 30.01000
O  -6.60800 32.16100 31.86900
C  -7.63700 32.82700 32.66800
H  -1.34800 37.61700 29.66000
H  -0.40200 36.47800 23.37000
H  -4.75300 31.71400 23.55400
H  -4.79700 34.68300 31.43700
H  -2.19500 36.14200 31.53600
H  -4.08600 37.27300 32.29300
H  -4.92200 36.94800 30.75700
H  -3.56600 38.09900 30.81100
H  -1.99500 33.82300 32.08000
H  -3.10200 32.58000 31.69400
H  -3.73000 32.36400 33.65300
H  -4.53100 34.03200 33.64800
H  1.36000 39.25500 28.19700
H  -0.10200 39.12300 29.13600
H  -0.10400 40.11400 27.73300
H  0.99500 40.36700 25.95100
H  2.06100 40.34900 24.42800
H  2.59900 39.52700 25.83300
H  -0.90300 34.43000 22.01000
H  -3.64300 33.50700 21.70400
H  -2.44400 36.57600 21.89600
H  -3.29100 35.47900 20.64000
H  -1.70000 35.95900 20.46900
H  -1.58900 31.42400 22.74200
H  -1.38700 32.27500 21.24900
H  -3.20900 30.09600 21.95400
H  -2.41500 30.58100 20.45300
H  -3.99400 31.34500 20.98900
H  -6.80100 30.47500 24.47800
H  -7.31900 30.00000 25.98500
H  -5.82400 29.29900 25.20700
H  -4.77800 31.36400 30.63100
H  -7.14700 33.65000 33.18900
H  -8.06600 32.15400 33.41000
H  -8.39100 33.17300 31.96200

