158

Mg 49.85900 46.63300 42.63200
C  46.74700 47.56400 41.43700
C  49.55900 43.68000 40.67700
C  53.19900 45.92500 43.11100
C  50.27500 49.68600 43.97500
N  48.35700 45.84900 41.07900
C  47.11500 46.31100 40.93300
C  46.22900 45.43900 40.06700
C  47.06700 44.07100 40.18600
C  48.47800 44.57000 40.53700
C  46.45200 43.09400 41.07600
C  46.08700 46.01200 38.62700
C  44.85600 45.61600 37.81000
H  45.06800 44.33400 36.99000
N  51.11500 44.99700 42.11200
C  50.83000 43.87000 41.36600
C  51.92000 42.99500 41.37600
C  52.95700 43.54400 42.10500
C  52.44300 44.94100 42.46300
C  51.86200 41.65700 40.82000
C  54.30500 42.92500 42.42600
O  54.68400 41.86800 41.93600
C  55.21800 43.51700 43.41400
N  51.55600 47.68800 43.26500
C  52.79700 47.16900 43.48800
C  53.72400 48.25900 44.00900
C  52.74300 49.38600 44.41000
C  51.41400 48.88700 43.83300
C  54.68700 47.83100 45.18400
C  53.11800 50.80800 43.91900
C  52.97000 51.96400 44.94200
N  48.81200 48.33700 42.68200
C  49.02500 49.54400 43.37000
C  47.91200 50.40100 43.25100
C  46.98200 49.68300 42.46800
C  47.58900 48.43200 42.18200
C  47.75500 51.74100 43.95300
C  45.65500 49.67600 41.96600
O  44.70200 50.46400 42.16900
C  45.49400 48.36900 41.13500
C  44.15600 47.78100 41.41800
O  43.25100 47.69000 40.56500
O  44.16900 47.05600 42.54400
C  43.00500 46.24000 42.90500
H  49.34900 42.74900 40.14700
H  54.27600 45.76400 43.18300
H  50.41000 50.54600 44.63400
H  45.19000 45.36500 40.38900
H  47.32400 43.57700 39.24900
H  45.52400 43.48600 41.49400
H  47.08600 42.91000 41.94300
H  46.18600 42.14100 40.62000
H  46.90700 45.60200 38.03700
H  46.11600 47.09800 38.53500
H  44.66800 46.48300 37.17500
H  43.91400 45.41700 38.32100
H  52.43600 41.61800 39.89500
H  50.87800 41.22100 40.64500
H  52.30800 40.96600 41.53500
H  56.02000 42.90400 43.82500
H  54.53900 43.94100 44.15500
H  55.73000 44.35600 42.94300
H  54.41400 48.49200 43.19800
H  52.57900 49.33500 45.48600
H  54.46400 46.89400 45.69300
H  54.83200 48.59600 45.94700
H  55.69400 47.69600 44.79100
H  52.67100 50.98400 42.94100
H  54.17800 50.85700 43.66800
H  52.40000 52.79200 44.51900
H  53.94300 52.35300 45.24200
H  52.45100 51.65300 45.84800
H  48.65200 52.28800 43.66400
H  47.70700 51.53200 45.02200
H  46.90700 52.15900 43.41000
H  45.55400 48.66300 40.08700
H  43.45200 45.46400 43.52700
H  42.52900 45.70900 42.08100
H  42.36600 46.91500 43.47500
Mg 27.36100 52.03000 25.50700
C  25.50600 52.91400 28.37700
C  29.91700 51.15000 27.64300
C  29.30100 51.64400 22.79600
C  24.84700 53.42200 23.52100
N  27.64200 52.02900 27.83800
C  26.75700 52.31600 28.76200
C  27.25500 51.91600 30.15600
C  28.75500 51.49200 29.92400
C  28.83900 51.60500 28.34800
C  29.73100 52.41800 30.69400
C  26.30100 50.78500 30.70600
C  25.50900 51.03100 32.05800
H  25.75600 50.08300 33.28500
N  29.30200 51.21100 25.24700
C  30.19700 50.94100 26.23200
C  31.33800 50.25100 25.58600
C  31.18000 50.43300 24.18000
C  29.88900 51.13100 24.02000
C  32.43500 49.64200 26.35500
C  32.13400 49.98600 23.08600
O  31.84500 50.11900 21.90100
C  33.58700 49.58000 23.31600
N  27.10300 52.57100 23.49200
C  28.05600 52.29800 22.57100
C  27.46300 52.35300 21.19000
C  25.94800 52.69900 21.34800
C  25.93100 52.95500 22.88100
C  28.34400 53.31400 20.27600
C  24.95200 51.58700 20.97300
C  24.66600 51.60100 19.45400
N  25.57400 53.02300 25.78500
C  24.64700 53.45400 24.87500
C  23.49600 53.97900 25.55400
C  23.82700 53.81000 26.90100
C  25.01800 53.12800 26.97500
C  22.28800 54.65200 25.06500
C  23.29100 54.03000 28.19400
O  22.25700 54.64300 28.48400
C  24.23800 53.19800 29.15300
C  24.49400 54.12900 30.30000
O  25.20400 55.10200 30.34300
O  23.89200 53.52200 31.37100
C  23.80000 54.26100 32.60600
H  30.72700 50.70100 28.22200
H  29.83200 51.45500 21.86100
H  23.97000 53.58900 22.89200
H  27.21600 52.80800 30.78000
H  28.89500 50.42000 30.06200
H  29.34400 53.11100 31.44100
H  30.22400 53.03000 29.93900
H  30.44100 51.74500 31.17600
H  26.87600 49.86300 30.78300
H  25.67700 50.63500 29.82500
H  24.47600 51.03200 31.71200
H  25.75000 52.03100 32.42100
H  32.44400 50.05800 27.36300
H  33.40400 49.70200 25.86000
H  32.21300 48.58500 26.50400
H  33.47000 48.53800 23.61500
H  33.90100 50.31100 24.06000
H  34.28100 49.68100 22.48200
H  27.65900 51.36800 20.76500
H  25.62500 53.63600 20.89400
H  29.21400 53.68000 20.82000
H  27.86000 54.24300 19.97500
H  28.49200 52.84400 19.30400
H  23.99600 51.85400 21.42400
H  25.21400 50.59100 21.33100
H  25.06600 50.73700 18.92500
H  25.07200 52.52100 19.03400
H  23.58500 51.58800 19.31200
H  22.47000 55.72100 25.18000
H  21.40200 54.63000 25.69900
H  22.03000 54.45800 24.02400
H  23.68100 52.33900 29.52500
H  23.82100 55.34400 32.48700
H  24.57700 53.85000 33.25000
H  22.82400 54.03500 33.03400

