158

Mg 25.23300 -0.05900 28.39600
C  26.82100 -0.41300 31.45300
C  22.20900 0.03600 29.95100
C  23.86600 0.27900 25.26900
C  28.34400 -0.75900 26.75500
N  24.66200 -0.16200 30.46200
C  25.45300 -0.24400 31.55500
C  24.71200 -0.08600 32.90800
C  23.18300 -0.22900 32.39800
C  23.34400 -0.13300 30.78800
C  22.43200 -1.40200 32.90300
C  24.99900 1.20100 33.78900
C  25.23600 0.86600 35.22400
H  26.05100 1.76900 36.11000
N  23.33800 0.12500 27.72900
C  22.21200 0.22400 28.52000
C  21.13800 0.48600 27.64300
C  21.61900 0.65700 26.34900
C  23.04400 0.34800 26.38800
C  19.61400 0.45800 28.14900
C  20.81400 1.12000 25.05100
O  21.31400 1.18600 23.94100
C  19.30800 1.34500 25.16400
N  26.05200 -0.10700 26.27100
C  25.23400 0.05400 25.21100
C  26.03000 -0.03000 23.86300
C  27.47100 -0.40300 24.32300
C  27.31200 -0.48300 25.86000
C  25.54800 -1.07300 22.86800
C  28.56600 0.60400 23.89600
C  28.60700 1.94100 24.64700
N  27.15100 -0.48000 28.93700
C  28.32200 -0.81200 28.19200
C  29.38200 -1.10700 29.08600
C  28.85300 -0.95400 30.38600
C  27.51100 -0.60000 30.25800
C  30.84000 -1.39100 28.77200
C  29.19000 -0.94000 31.84600
O  30.23700 -1.10900 32.47500
C  27.91500 -0.59200 32.59800
C  27.74000 -1.62400 33.66600
O  26.96000 -2.59800 33.60000
O  28.45900 -1.30800 34.80500
C  28.25300 -2.03200 36.07600
H  21.28700 -0.02200 30.53400
H  23.34600 0.37200 24.31400
H  29.24900 -1.05400 26.21900
H  24.99500 -0.95200 33.50600
H  22.62100 0.62200 32.78300
H  22.11800 -1.23800 33.93400
H  23.05600 -2.29400 32.86000
H  21.61600 -1.61800 32.21300
H  24.22900 1.97000 33.73000
H  25.92500 1.71000 33.52100
H  25.74700 -0.09000 35.33600
H  24.24100 0.77600 35.66100
H  19.11200 -0.46500 27.85800
H  19.03400 1.25800 27.69000
H  19.41400 0.45900 29.22000
H  18.97600 1.68100 24.18100
H  19.07700 2.22900 25.75800
H  18.88200 0.40100 25.50400
H  26.04000 0.94600 23.37700
H  27.82100 -1.33800 23.88600
H  26.30500 -1.69500 22.39100
H  25.07700 -0.52500 22.05100
H  24.86300 -1.79700 23.31000
H  28.49800 0.85000 22.83700
H  29.52700 0.10300 24.00800
H  29.65800 2.02400 24.92400
H  27.95400 1.95400 25.52100
H  28.42100 2.72100 23.90900
H  30.96600 -1.84200 27.78800
H  31.14800 -2.15600 29.48500
H  31.45700 -0.49500 28.83700
H  28.01800 0.32300 33.18000
H  27.56400 -1.38000 36.61200
H  29.23100 -2.14400 36.54500
H  27.80600 -3.01400 35.92300
Mg 7.81200 53.56400 40.38000
C  7.07000 50.14400 39.96000
C  11.02800 52.99400 39.68800
C  8.06200 56.89100 39.93700
C  4.36900 54.09300 41.07700
N  8.86900 51.72800 39.86000
C  8.43500 50.46300 39.70700
C  9.63000 49.52100 39.41300
C  10.89100 50.45100 39.87100
C  10.24300 51.82800 39.78200
C  11.25000 50.08800 41.35900
C  9.87300 48.92000 38.01400
C  9.79600 50.03100 36.87000
H  8.42300 50.21100 36.15500
N  9.30900 54.74700 39.86000
C  10.65200 54.35400 39.72500
C  11.48000 55.52700 39.58300
C  10.58900 56.68700 39.69600
C  9.23300 56.16000 39.85300
C  13.02300 55.37700 39.37700
C  10.99800 58.11500 39.61400
O  12.19600 58.32700 39.42800
C  10.08500 59.32900 39.74100
N  6.33300 55.28800 40.32600
C  6.70200 56.57600 40.13400
C  5.53000 57.54100 40.34800
C  4.39200 56.54700 40.80200
C  5.08200 55.24700 40.73300
C  5.82300 58.72800 41.35400
C  3.09800 56.61500 39.86400
C  1.85100 57.33400 40.37300
N  6.11100 52.41000 40.60200
C  4.82800 52.78000 40.86400
C  4.04000 51.66000 40.90800
C  4.85500 50.54100 40.55000
C  6.14300 51.09700 40.38900
C  2.59400 51.61800 41.14900
C  4.84700 49.09300 40.30100
O  3.95100 48.26800 40.37600
C  6.40500 48.84700 39.90400
C  6.34500 48.15800 38.60400
O  5.78800 48.45700 37.56600
O  6.85400 46.86100 38.82100
C  6.94400 45.97600 37.68400
H  12.09100 52.81800 39.51200
H  8.18800 57.97100 39.83500
H  3.33800 54.34800 41.33000
H  9.57900 48.64500 40.05900
H  11.70400 50.35700 39.15200
H  10.90500 50.87100 42.03400
H  12.33600 50.17700 41.33200
H  10.91300 49.10200 41.67700
H  8.98400 48.29000 37.96200
H  10.87800 48.50100 37.96900
H  10.44000 49.59300 36.10800
H  10.15700 51.02800 37.12400
H  13.54900 56.28600 39.66900
H  13.20700 55.19700 38.31800
H  13.41300 54.61000 40.04600
H  9.39800 59.33000 38.89400
H  10.71700 60.20900 39.62700
H  9.61100 59.37800 40.72200
H  5.26800 57.88400 39.34700
H  4.26300 56.77500 41.86000
H  6.80800 58.64000 41.81200
H  5.11200 58.85800 42.17000
H  5.99500 59.66500 40.82500
H  2.77200 55.59500 39.66300
H  3.40400 56.91100 38.86000
H  1.53000 57.10000 41.38800
H  1.03800 57.17900 39.66300
H  2.11000 58.39300 40.40700
H  2.19900 52.34400 41.86000
H  2.30000 50.68900 41.63700
H  2.10200 51.73800 40.18400
H  6.77900 48.09700 40.60100
H  7.59900 45.14000 37.93000
H  7.39100 46.58900 36.90200
H  5.93000 45.64900 37.45300

