158

Mg 2.37500 -1.83800 44.54700
C  5.71100 -1.19500 43.96300
C  1.57600 0.80200 42.40500
C  -0.82600 -2.87400 44.48100
C  3.32800 -4.65800 46.36900
N  3.56800 -0.43200 43.17600
C  4.92000 -0.33600 43.19500
C  5.30900 0.82100 42.31600
C  4.00900 1.65300 42.07500
C  3.00300 0.55800 42.48100
C  3.88300 3.00000 42.84900
C  5.96000 0.29600 41.08500
C  6.88000 1.17300 40.30000
H  6.39500 1.52000 38.81400
N  0.60900 -1.11100 43.59500
C  0.49800 0.02100 42.85600
C  -0.82700 0.18200 42.34600
C  -1.56100 -0.93200 42.94600
C  -0.60800 -1.71100 43.71000
C  -1.29600 1.34700 41.49800
C  -3.14400 -1.16400 42.88400
O  -3.88700 -0.32100 42.36000
C  -3.74300 -2.53200 43.24900
N  1.34400 -3.50600 45.38600
C  0.01900 -3.77800 45.16300
C  -0.33400 -5.18000 45.84200
C  1.01500 -5.58600 46.58400
C  1.95600 -4.46900 46.19600
C  -1.64500 -5.18100 46.72500
C  1.59300 -7.01100 46.28200
C  1.70300 -7.83600 47.54200
N  4.14700 -2.79100 45.16000
C  4.42200 -3.86100 45.93400
C  5.87900 -3.99800 46.16900
C  6.33300 -2.88800 45.34900
C  5.32100 -2.24800 44.78100
C  6.60700 -5.04300 47.01300
C  7.56700 -2.32300 44.96600
O  8.72600 -2.61400 45.20500
C  7.22300 -1.12200 44.07300
C  7.61400 0.15000 44.60100
O  7.17300 0.78000 45.48600
O  8.62000 0.64000 43.79900
C  8.95400 2.02000 44.07000
H  1.36000 1.72800 41.86800
H  -1.86400 -3.12800 44.70900
H  3.67000 -5.44900 47.04000
H  5.97200 1.39500 42.96400
H  4.06200 1.88300 41.01000
H  2.87900 2.94900 43.27000
H  3.90300 3.80600 42.11600
H  4.65200 3.16700 43.60300
H  5.15500 0.07400 40.38500
H  6.47800 -0.65000 41.24000
H  7.80100 0.63700 40.07500
H  6.95200 2.08700 40.89000
H  -0.50200 1.61300 40.80000
H  -1.54700 2.19300 42.13700
H  -2.19000 1.11000 40.92100
H  -3.15500 -3.39600 42.94100
H  -4.73900 -2.49300 42.80800
H  -3.90200 -2.60300 44.32500
H  -0.57800 -5.90800 45.06800
H  0.97200 -5.45700 47.66600
H  -2.35500 -5.74900 46.12300
H  -2.17700 -4.25300 46.93200
H  -1.50000 -5.80400 47.60800
H  2.56800 -6.83700 45.82600
H  1.09600 -7.56400 45.48400
H  0.68600 -8.17000 47.75100
H  2.05400 -7.24300 48.38600
H  2.40900 -8.64300 47.34100
H  7.56800 -4.64900 47.34600
H  6.85300 -5.93600 46.43900
H  6.16200 -5.36500 47.95400
H  7.70400 -1.39900 43.13400
H  9.82400 2.30300 43.47800
H  9.11300 2.16200 45.13900
H  8.12600 2.70700 43.89400
Mg 35.08400 3.02500 29.64700
C  32.80100 4.02100 32.21500
C  37.52200 3.34200 31.82300
C  37.13300 2.58100 27.02500
C  32.38700 3.58300 27.35000
N  35.13300 3.55900 31.80500
C  34.13400 3.77700 32.65300
C  34.59800 3.82900 34.15200
C  36.19300 3.72600 33.92800
C  36.32600 3.57100 32.44400
C  37.00700 4.95900 34.52700
C  34.01900 2.60000 34.94600
C  33.93000 2.79800 36.51200
H  34.56700 3.98000 37.19500
N  36.98000 2.80400 29.48500
C  37.89600 2.93700 30.52300
C  39.23000 2.58700 30.05000
C  39.10800 2.30500 28.70000
C  37.69700 2.59700 28.32400
C  40.44500 2.30500 31.00800
C  40.15700 1.76500 27.76400
O  39.88700 1.43600 26.61900
C  41.57700 1.68500 28.21700
N  34.76200 3.01000 27.46800
C  35.78600 2.72400 26.64400
C  35.34500 2.62900 25.19900
C  33.86600 3.05600 25.30200
C  33.61600 3.24700 26.79300
C  36.16000 3.41200 24.14500
C  32.83200 2.05500 24.67700
C  32.52300 0.80800 25.56200
N  33.05800 3.63000 29.68300
C  32.14100 3.81000 28.71500
C  30.80900 4.11900 29.28600
C  31.03800 4.15500 30.67800
C  32.41900 3.95200 30.85800
C  29.50600 4.19400 28.53800
C  30.41300 4.45900 31.96900
O  29.29200 4.90100 32.17300
C  31.57100 4.37300 33.00300
C  31.61500 5.59400 33.79000
O  32.26100 6.56500 33.44500
O  31.10500 5.33100 35.06700
C  31.40300 6.44100 36.01300
H  38.32500 3.40300 32.56100
H  37.84200 2.47200 26.20200
H  31.53100 3.77400 26.69900
H  34.20500 4.74300 34.59700
H  36.46800 2.80700 34.44600
H  37.52700 5.52900 33.75700
H  37.70000 4.64300 35.30700
H  36.24200 5.60500 34.95800
H  34.49400 1.63700 34.75600
H  33.01200 2.51900 34.53900
H  34.34300 1.94700 37.05400
H  32.87300 2.84000 36.77600
H  40.46400 1.24200 31.24900
H  40.43800 2.90000 31.92100
H  41.41700 2.59700 30.61000
H  41.72600 0.90300 28.96200
H  41.99200 2.67000 28.42900
H  42.19200 1.43400 27.35300
H  35.49000 1.57200 24.97400
H  33.76400 4.04800 24.86400
H  36.47500 2.70000 23.38200
H  37.04500 3.85300 24.60300
H  35.57100 4.22700 23.72500
H  33.31200 1.78600 23.73600
H  31.94100 2.56700 24.31300
H  32.70800 1.05600 26.60700
H  33.22100 0.01800 25.28600
H  31.46600 0.64000 25.35300
H  28.78600 4.28000 29.35200
H  29.17600 3.35800 27.92000
H  29.40000 5.15300 28.03200
H  31.28200 3.63600 33.75200
H  30.72000 7.28400 35.90600
H  32.46500 6.68300 36.04200
H  31.21200 6.17200 37.05200

