158

Mg 41.85200 41.01100 26.89200
C  41.40600 43.43400 29.36700
C  42.50900 38.75900 29.50500
C  42.70200 38.65900 24.61600
C  41.37800 43.36000 24.48800
N  41.93300 41.07600 29.20300
C  41.62800 42.18800 29.96400
C  41.69100 41.86100 31.49100
C  42.01900 40.35700 31.45700
C  42.22200 40.02700 29.97100
C  43.26300 39.90100 32.29900
C  40.37200 42.17900 32.19900
C  40.06600 41.42500 33.49800
H  39.41800 42.19900 34.57400
N  42.40800 38.95800 27.04700
C  42.61300 38.24000 28.14600
C  43.01300 36.92700 27.77800
C  43.25400 36.89400 26.35200
C  42.79800 38.21900 25.91900
C  43.38700 36.00900 28.86800
C  43.81100 35.78200 25.47000
O  43.98600 35.97400 24.24500
C  44.26000 34.50000 26.15800
N  41.86500 40.98700 24.85500
C  42.32800 39.92700 24.09900
C  42.05000 40.24600 22.68200
C  41.34300 41.60400 22.66500
C  41.51900 42.01200 24.12400
C  43.38900 40.21100 21.86800
C  39.85900 41.50400 22.25200
C  38.90500 40.28700 22.75200
N  41.38700 43.02400 26.89300
C  41.24400 43.89100 25.81600
C  41.09600 45.27500 26.23300
C  41.05900 45.11400 27.64500
C  41.30500 43.76100 27.99800
C  41.01800 46.51300 25.34000
C  40.93100 45.78700 28.88200
O  40.70400 46.95200 29.11800
C  41.02200 44.74600 30.02600
C  41.95700 45.28000 30.95600
O  43.17100 45.38400 30.76300
O  41.38800 45.57900 32.21400
C  42.46700 45.87900 33.24900
H  42.53200 38.12600 30.39500
H  43.03800 38.01400 23.80200
H  41.26600 44.12700 23.71900
H  42.53900 42.40500 31.90800
H  41.29400 39.65100 31.86300
H  44.14800 39.81800 31.66800
H  43.17600 38.95500 32.83200
H  43.34000 40.65100 33.08700
H  39.61700 42.03400 31.42700
H  40.41300 43.23500 32.46600
H  40.95000 40.97300 33.94800
H  39.41600 40.57300 33.30100
H  44.44000 36.21700 29.05400
H  43.28100 34.96200 28.58200
H  42.72200 36.14200 29.72200
H  45.20500 34.60300 26.69000
H  44.37500 33.73400 25.39100
H  43.57900 33.90400 26.76500
H  41.44300 39.45700 22.23900
H  41.76800 42.50300 22.22000
H  44.13600 39.57500 22.34300
H  43.85500 41.18600 21.73100
H  43.19500 39.78200 20.88400
H  39.62900 41.47800 21.18700
H  39.42000 42.44300 22.59100
H  38.34500 39.82400 21.94000
H  38.21400 40.75200 23.45600
H  39.32400 39.49900 23.37800
H  39.95200 46.66100 25.17000
H  41.49300 46.37200 24.36900
H  41.44400 47.35400 25.88600
H  40.04700 44.57400 30.48300
H  42.74700 46.93200 33.24800
H  43.30100 45.18400 33.14700
H  41.94200 45.65600 34.17800
Mg -10.19800 40.17500 42.80300
C  -9.39200 36.70200 42.19700
C  -7.14700 40.99200 41.09800
C  -11.16400 43.26800 42.49900
C  -13.47000 39.10500 43.66600
N  -8.56300 38.93900 41.70100
C  -8.47400 37.55400 41.71600
C  -7.15500 37.14100 41.15800
C  -6.33000 38.51000 41.09200
C  -7.43000 39.56400 41.27700
C  -5.34800 38.58600 42.28600
C  -7.30000 36.29700 39.87400
C  -6.15400 35.32800 39.55000
H  -5.04700 35.89700 38.52600
N  -9.25300 41.94500 42.01900
C  -8.07300 42.04900 41.42100
C  -7.77800 43.47500 41.18700
C  -8.95700 44.19300 41.39000
C  -9.86500 43.12000 41.95500
C  -6.49600 43.96700 40.50000
C  -9.14000 45.73000 41.22700
O  -8.24400 46.41800 40.75200
C  -10.39000 46.52500 41.57300
N  -12.08500 41.04200 42.97100
C  -12.15700 42.43000 43.01100
C  -13.58800 42.83200 43.49100
C  -14.30200 41.53500 43.91100
C  -13.26900 40.46300 43.42900
C  -13.65500 43.99000 44.56300
C  -15.72900 41.38200 43.15400
C  -16.73400 42.48600 43.38500
N  -11.28400 38.33000 43.01900
C  -12.53300 38.06600 43.36700
C  -12.82300 36.62800 43.39200
C  -11.60300 36.06800 42.94600
C  -10.73600 37.13700 42.69900
C  -14.16800 35.91400 43.55000
C  -10.92400 34.84000 42.58800
O  -11.30900 33.71700 42.67300
C  -9.39700 35.20200 42.27700
C  -8.51900 34.58200 43.38200
O  -9.03700 34.33900 44.45000
O  -7.23400 34.42100 43.05000
C  -6.35300 33.73100 44.00900
H  -6.21400 41.21300 40.57600
H  -11.54400 44.28300 42.36100
H  -14.38900 38.75400 44.13800
H  -6.88400 36.43500 41.94200
H  -5.78900 38.59100 40.15000
H  -5.55300 37.81300 43.02700
H  -5.48800 39.53700 42.79900
H  -4.31100 38.58700 41.95200
H  -7.28700 37.06900 39.10500
H  -8.23800 35.74500 39.82000
H  -6.60900 34.43700 39.11700
H  -5.64100 35.15200 40.49500
H  -6.79600 44.36200 39.52900
H  -5.75600 43.18300 40.33700
H  -5.90300 44.70700 41.03800
H  -10.31500 47.53300 41.16400
H  -10.57400 46.51700 42.64700
H  -11.28700 46.02500 41.20800
H  -14.00800 43.09500 42.52000
H  -14.38500 41.47600 44.99600
H  -12.73800 44.57500 44.48600
H  -13.76600 43.64700 45.59100
H  -14.48000 44.64600 44.28200
H  -16.16600 40.51900 43.65400
H  -15.72600 41.15900 42.08700
H  -17.78600 42.20300 43.41000
H  -16.55000 43.34300 42.73700
H  -16.57300 42.82500 44.40800
H  -14.18200 34.93300 43.07600
H  -14.82500 36.60800 43.02600
H  -14.49100 35.97800 44.58900
H  -9.15800 34.69700 41.34100
H  -6.62300 32.67600 44.06000
H  -6.49500 34.14500 45.00700
H  -5.34800 33.79400 43.59200

