158

Mg 28.67700 57.02100 40.44400
C  25.69700 55.27900 39.89400
C  30.30100 54.28600 39.11000
C  31.51200 58.82000 40.20900
C  26.91600 59.74100 41.49500
N  27.98700 55.08900 39.51900
C  26.73700 54.55700 39.39900
C  26.75200 53.13100 38.82800
C  28.28800 52.81500 38.63500
C  28.89300 54.13400 39.06200
C  28.86900 51.54000 39.25000
C  25.94900 52.84600 37.58400
C  25.82600 53.91700 36.50400
H  26.15600 53.58300 35.04300
N  30.61100 56.60600 39.76900
C  31.11600 55.43300 39.30700
C  32.52400 55.53400 39.12900
C  32.84500 56.84100 39.19100
C  31.66600 57.52500 39.67400
C  33.38300 54.35400 38.84600
C  34.20700 57.42000 38.84500
O  35.25600 56.78800 38.56000
C  34.48700 58.83400 38.93900
N  29.15600 59.01800 40.85300
C  30.37200 59.49100 40.77200
C  30.44000 61.00100 41.19300
C  29.01900 61.21600 41.83100
C  28.31000 59.89900 41.44500
C  31.63200 61.43800 42.01500
C  28.39800 62.53900 41.40100
C  28.25100 63.59200 42.57500
N  26.73900 57.47200 40.72300
C  26.12500 58.66600 41.16100
C  24.64200 58.51300 41.11400
C  24.48300 57.12200 40.75000
C  25.73100 56.59300 40.44900
C  23.54700 59.57300 41.35100
C  23.42000 56.12800 40.52100
O  22.20600 56.16300 40.75500
C  24.20000 54.90500 39.90400
C  23.84300 53.63700 40.57500
O  23.16400 52.72900 40.04600
O  24.49500 53.54400 41.75800
C  24.64500 52.28900 42.40200
H  30.85400 53.44800 38.68000
H  32.44000 59.39500 40.18900
H  26.34800 60.53100 41.99000
H  26.39900 52.52000 39.65900
H  28.50000 52.77900 37.56600
H  28.61200 50.79200 38.50100
H  28.40400 51.29500 40.20500
H  29.94300 51.43700 39.40800
H  24.91100 52.59800 37.80800
H  26.46000 52.10200 36.97300
H  26.48100 54.76400 36.70700
H  24.83700 54.37200 36.56200
H  34.39000 54.54300 38.47600
H  32.85000 53.82100 38.05800
H  33.40300 53.69900 39.71800
H  34.62000 59.05400 39.99800
H  33.65300 59.40500 38.53100
H  35.46100 59.11100 38.53500
H  30.52700 61.62900 40.30600
H  29.06200 61.26700 42.91900
H  32.08500 62.29000 41.50800
H  32.35900 60.64300 42.17600
H  31.27800 61.82100 42.97300
H  27.34800 62.40500 41.14200
H  28.97500 63.05600 40.63400
H  28.84500 63.32500 43.45000
H  27.22400 63.73800 42.90900
H  28.38300 64.59100 42.16000
H  22.68200 59.12500 41.84000
H  23.32500 60.22800 40.50800
H  23.86500 60.21000 42.17600
H  23.94200 54.79600 38.85100
H  25.55300 52.21100 43.00000
H  24.62200 51.50800 41.64200
H  23.77700 52.10700 43.03600
Mg 26.36800 49.00000 26.12200
C  24.58100 50.51700 28.66000
C  28.78900 48.11600 28.51900
C  28.36800 47.82100 23.64800
C  24.17200 50.29600 23.68600
N  26.69500 49.35200 28.34300
C  25.66700 49.77600 29.17800
C  26.05700 49.44700 30.67900
C  27.48700 48.94300 30.57400
C  27.66300 48.72000 29.09000
C  28.60700 49.90700 31.11900
C  24.96600 48.54200 31.33300
C  25.40100 47.80100 32.59000
H  24.60000 48.10500 33.85700
N  28.22300 47.98200 26.10600
C  29.04800 47.78600 27.17600
C  30.19400 47.06800 26.76000
C  30.19000 47.02700 25.35500
C  28.86200 47.58000 24.93600
C  31.19000 46.54100 27.76900
C  31.24800 46.50100 24.45300
O  31.15800 46.36000 23.22300
C  32.50400 45.98600 25.05600
N  26.26700 49.12000 24.03100
C  27.19800 48.44200 23.24400
C  26.95500 48.71200 21.80100
C  25.53000 49.38800 21.75400
C  25.26200 49.57000 23.18200
C  27.97900 49.56500 21.08900
C  24.46500 48.55100 20.96000
C  23.90600 47.23600 21.72100
N  24.69100 50.16300 26.13100
C  23.87400 50.61500 25.07200
C  22.71600 51.26700 25.66900
C  22.96800 51.28200 27.03600
C  24.19100 50.61500 27.25900
C  21.49600 51.71600 25.03300
C  22.45400 51.64700 28.34100
O  21.34900 52.08000 28.52100
C  23.41400 51.09400 29.41600
C  23.85800 52.18400 30.30600
O  24.82800 52.88500 30.17000
O  23.01600 52.33600 31.36900
C  23.36100 53.36600 32.36200
H  29.36100 47.72100 29.36100
H  28.89700 47.33200 22.82800
H  23.38400 50.65500 23.02200
H  26.05400 50.37300 31.25400
H  27.52600 48.06200 31.21500
H  29.50800 49.90500 30.50400
H  28.87500 49.47100 32.08100
H  28.18800 50.90500 31.25100
H  24.56400 47.78400 30.66000
H  24.07200 49.11800 31.57000
H  26.44600 47.95700 32.85900
H  25.35700 46.72400 32.43000
H  32.11700 47.10000 27.89500
H  31.47500 45.51000 27.56200
H  30.78400 46.41000 28.77100
H  33.17700 45.82500 24.21400
H  32.45200 45.02700 25.57000
H  32.88600 46.81900 25.64500
H  26.86700 47.73800 21.32100
H  25.41000 50.40700 21.38700
H  27.41400 50.15700 20.36900
H  28.64400 48.90500 20.53100
H  28.60100 50.16200 21.75600
H  24.95000 48.27400 20.02400
H  23.64400 49.24100 20.76700
H  24.24100 47.39400 22.74600
H  24.44900 46.39300 21.29400
H  22.81700 47.24700 21.66700
H  21.69300 52.48100 24.28200
H  20.80400 52.09900 25.78300
H  21.01500 50.86900 24.54300
H  22.81800 50.48800 30.09700
H  22.70000 54.20500 32.57900
H  24.37800 53.74000 32.24800
H  23.51600 52.94100 33.35300

