158

Mg -0.26900 7.50000 26.71100
C  0.85100 9.73400 29.05300
C  -0.63200 5.11600 29.28100
C  -1.03200 5.18200 24.43200
C  0.38300 9.78600 24.25400
N  0.12500 7.45400 28.81600
C  0.52500 8.50400 29.59000
C  0.42300 8.20700 31.05300
C  0.46000 6.64000 31.07100
C  -0.00300 6.37400 29.58600
C  1.83600 5.98200 31.41100
C  -0.86100 8.86900 31.78900
C  -0.88900 8.80000 33.33800
H  0.32300 8.36600 34.15300
N  -0.84200 5.40000 26.87700
C  -0.93500 4.63300 27.99100
C  -1.36200 3.21200 27.59300
C  -1.47800 3.25700 26.18600
C  -1.09200 4.59200 25.73500
C  -1.46000 2.00000 28.52600
C  -1.74900 2.03700 25.18900
O  -1.54900 2.12000 23.98600
C  -2.19900 0.71400 25.80600
N  -0.37600 7.52800 24.66100
C  -0.75000 6.44600 23.89900
C  -0.97000 6.81100 22.42100
C  -0.75700 8.39700 22.43100
C  -0.19000 8.59500 23.89300
C  -0.04900 6.11300 21.40800
C  -2.08200 9.22000 22.18700
C  -2.17800 10.08600 20.91300
N  0.52200 9.38700 26.63700
C  0.71700 10.19900 25.57500
C  1.27400 11.46800 25.95400
C  1.31400 11.41000 27.38500
C  0.90400 10.11300 27.68000
C  1.58600 12.55800 24.93600
C  1.64900 12.13200 28.62500
O  2.09100 13.22300 28.86100
C  1.32300 11.03700 29.74900
C  2.56000 10.80200 30.59300
O  3.50200 10.14800 30.20800
O  2.34100 11.37200 31.83800
C  3.43300 10.99300 32.71800
H  -0.62500 4.29400 30.00000
H  -1.36100 4.44700 23.69400
H  0.53900 10.57500 23.51500
H  1.24700 8.70700 31.56300
H  -0.38100 6.14600 31.55700
H  2.44800 5.64900 30.57300
H  1.63500 5.13700 32.07000
H  2.49300 6.67500 31.93700
H  -1.72300 8.30800 31.42800
H  -0.82300 9.89100 31.41100
H  -1.66400 8.06400 33.55400
H  -1.18300 9.76200 33.75700
H  -0.94400 1.06900 28.28800
H  -2.53700 1.83100 28.51800
H  -1.36800 2.20400 29.59300
H  -2.54300 0.13900 24.94600
H  -3.06800 0.77500 26.46100
H  -1.40400 0.22700 26.37000
H  -1.98500 6.58100 22.09900
H  -0.04800 8.81800 21.71800
H  0.91900 5.87500 21.84800
H  0.13100 6.90500 20.68200
H  -0.56800 5.22100 21.05800
H  -2.24800 9.92700 23.00000
H  -2.92700 8.55200 22.35400
H  -1.38400 9.89600 20.19000
H  -2.00500 11.12300 21.20000
H  -3.19100 10.05500 20.51100
H  0.89500 12.54900 24.09300
H  2.52900 12.22700 24.50100
H  1.53700 13.55000 25.38400
H  0.50300 11.40300 30.36600
H  3.47500 9.93900 32.99200
H  3.27400 11.60400 33.60700
H  4.43600 11.30000 32.41900
Mg 26.00700 1.49700 29.78500
C  27.97400 1.08700 32.68000
C  23.27200 2.02100 31.90900
C  24.08900 1.30800 27.17900
C  28.75400 0.45100 27.84200
N  25.63900 1.48000 32.11100
C  26.69400 1.47600 33.03200
C  26.16700 1.79400 34.38500
C  24.59800 1.95800 34.25700
C  24.44600 1.84400 32.65200
C  23.81800 0.83200 34.95300
C  26.87100 3.07600 35.03700
C  27.71000 2.90700 36.30900
H  27.22500 3.85800 37.44600
N  23.93300 1.79200 29.54800
C  22.98000 1.90000 30.50600
C  21.68700 2.07400 29.83500
C  21.95100 1.97900 28.47600
C  23.37700 1.67000 28.34600
C  20.37300 2.35800 30.62600
C  20.95300 2.23500 27.34300
O  21.17900 2.36700 26.11600
C  19.51700 1.98900 27.67400
N  26.44600 1.02100 27.73300
C  25.42800 1.08800 26.85800
C  25.91500 0.75400 25.46600
C  27.43900 0.46500 25.59900
C  27.61500 0.63100 27.12900
C  25.31600 -0.48600 24.78400
C  28.32900 1.46600 24.75200
C  29.04400 0.80900 23.52300
N  28.05700 0.87300 30.14000
C  28.98900 0.46500 29.23900
C  30.24800 0.25300 29.98100
C  29.94700 0.43400 31.35000
C  28.59500 0.79900 31.34400
C  31.50000 -0.19600 29.38700
C  30.44900 0.42200 32.64700
O  31.64100 0.27900 33.01600
C  29.21700 0.85400 33.59600
C  28.85700 -0.13400 34.65300
O  28.45500 -1.25900 34.39600
O  29.22700 0.32800 35.85600
C  29.22800 -0.67900 36.96600
H  22.42000 2.26500 32.54800
H  23.49400 1.30700 26.26300
H  29.56700 -0.01500 27.28000
H  26.34500 0.88900 34.96500
H  24.28900 2.96300 34.54300
H  23.88200 -0.06500 34.33700
H  22.78500 1.17800 34.92000
H  24.16500 0.54100 35.94500
H  26.03600 3.71000 35.33600
H  27.43900 3.46800 34.19300
H  28.73700 3.19200 36.08300
H  27.61100 1.89100 36.69200
H  20.02300 3.27100 30.14500
H  20.50300 2.49400 31.70000
H  19.72700 1.48900 30.49300
H  18.98100 1.93800 26.72600
H  19.08500 2.86000 28.16600
H  19.40700 1.08800 28.27900
H  25.56700 1.55700 24.81600
H  27.62500 -0.58000 25.35100
H  26.04100 -1.13100 24.28800
H  24.67300 -0.09900 23.99300
H  24.81500 -1.09500 25.53700
H  29.09500 1.96300 25.34800
H  27.68700 2.27900 24.41500
H  28.81400 1.34800 22.60300
H  28.61000 -0.18900 23.45700
H  30.12400 0.93800 23.58300
H  31.72000 0.23400 28.40900
H  31.32600 -1.26900 29.30100
H  32.39600 -0.17900 30.00800
H  29.44000 1.82800 34.03000
H  28.28900 -0.42300 37.45800
H  30.10000 -0.51500 37.59900
H  29.23200 -1.72900 36.67300

