158

Mg 6.72800 53.93100 41.81500
C  6.46500 50.44200 41.49600
C  9.81000 53.73600 40.32100
C  6.72100 57.19600 41.75300
C  3.53400 53.87800 43.22500
N  7.82100 52.32000 40.73100
C  7.61500 50.98300 40.78000
C  8.62600 50.14900 40.05100
C  9.81400 51.17200 40.09400
C  9.16200 52.51800 40.31700
C  10.94100 50.81400 41.06300
C  8.26900 49.68700 38.63300
C  7.24400 50.48600 37.85200
H  6.89800 50.16800 36.40300
N  8.14500 55.28900 41.20500
C  9.36800 55.07100 40.63700
C  10.05900 56.33400 40.47800
C  9.19500 57.33900 40.96900
C  8.01900 56.66200 41.43300
C  11.41100 56.44800 39.94900
C  9.55900 58.77500 40.95600
O  10.46900 59.19000 40.26800
C  8.77900 59.69200 41.88000
N  5.12800 55.36300 42.13400
C  5.50900 56.72900 42.19000
C  4.47000 57.54200 42.91100
C  3.39000 56.42300 43.37600
C  4.06400 55.15100 42.90500
C  5.01400 58.54300 43.92000
C  1.95200 56.47300 42.82300
C  0.78100 56.60100 43.82500
N  5.20000 52.47800 42.27400
C  4.03700 52.62600 42.90000
C  3.53500 51.32700 43.29900
C  4.44500 50.44100 42.78000
C  5.41100 51.15600 42.09900
C  2.23800 51.01800 43.98100
C  4.77300 48.99900 42.55800
O  4.25000 47.96000 42.90900
C  6.01300 48.97000 41.59800
C  5.52400 48.25000 40.38400
O  4.85100 48.65600 39.43300
O  5.74600 46.89300 40.53200
C  5.29400 46.10400 39.39500
H  10.85300 53.67900 40.00500
H  6.56600 58.27600 41.79800
H  2.59000 53.81100 43.76900
H  9.00300 49.28000 40.59000
H  10.34100 51.26200 39.14500
H  11.87300 50.80100 40.49800
H  10.91000 49.79500 41.44800
H  10.92100 51.63600 41.77800
H  7.86300 48.68100 38.73200
H  9.19100 49.72000 38.05200
H  7.48400 51.54300 37.97300
H  6.29500 50.29200 38.35100
H  11.39900 56.66600 38.88200
H  11.93300 55.52500 40.20000
H  11.90900 57.18100 40.58400
H  8.42800 59.31000 42.83900
H  7.91000 60.07900 41.34700
H  9.49300 60.48600 42.09800
H  3.97500 58.13900 42.14600
H  3.36800 56.48300 44.46400
H  4.88800 59.56800 43.57200
H  6.07300 58.42400 44.15200
H  4.40900 58.56300 44.82700
H  1.80700 55.55500 42.25300
H  1.87300 57.34400 42.17300
H  0.29700 57.57600 43.76900
H  1.00000 56.44800 44.88200
H  -0.00800 55.89800 43.55800
H  1.47700 51.54200 43.40200
H  2.19300 51.18400 45.05800
H  2.02700 49.95100 43.91600
H  6.79400 48.40400 42.10700
H  5.82100 46.49600 38.52500
H  4.22300 46.26900 39.27200
H  5.49300 45.04200 39.53600
Mg -2.68100 33.70600 26.09400
C  -4.44000 32.15600 28.77700
C  -1.32800 35.93300 28.55400
C  -1.52400 35.66500 23.75600
C  -4.29900 31.66400 23.92700
N  -2.90900 34.00800 28.42500
C  -3.58200 33.19500 29.26400
C  -3.41200 33.57900 30.73200
C  -2.53300 34.92300 30.57000
C  -2.19900 34.98000 29.08100
C  -3.12100 36.20800 31.20300
C  -2.77300 32.40900 31.57000
C  -3.58600 31.76500 32.64700
H  -2.91100 31.87900 34.01200
N  -1.45200 35.46200 26.08500
C  -1.01100 36.21600 27.17700
C  -0.15200 37.35200 26.72000
C  -0.18700 37.25100 25.28900
C  -1.04500 36.07600 24.95500
C  0.35200 38.42400 27.68100
C  0.53000 38.06600 24.18600
O  0.61500 37.84500 22.97100
C  1.40600 39.20500 24.69000
N  -3.08300 33.78100 24.10400
C  -2.36300 34.63800 23.32100
C  -2.51000 34.29000 21.84100
C  -3.02800 32.86000 21.99100
C  -3.53900 32.73900 23.43300
C  -3.41900 35.30600 21.07400
C  -1.89400 31.75600 21.62000
C  -1.19600 30.86800 22.62000
N  -4.07700 32.18600 26.28700
C  -4.65900 31.41800 25.27300
C  -5.45100 30.34100 25.78100
C  -5.45100 30.58300 27.17900
C  -4.57400 31.74200 27.44400
C  -6.20100 29.32100 25.08100
C  -5.86700 30.15400 28.44900
O  -6.47900 29.12900 28.70300
C  -5.25000 31.14700 29.56200
C  -6.40300 31.63700 30.29200
O  -7.20800 32.44600 29.81700
O  -6.46200 31.02000 31.59700
C  -7.59600 31.15300 32.45400
H  -0.66300 36.49500 29.21400
H  -1.16800 36.22400 22.88800
H  -4.79100 30.90100 23.31900
H  -4.41000 33.79000 31.11700
H  -1.57600 34.71900 31.05000
H  -2.41400 36.60300 31.93300
H  -3.98500 35.99800 31.83300
H  -3.31600 36.96500 30.44300
H  -1.81500 32.72800 31.98200
H  -2.47700 31.57900 30.92900
H  -3.83500 30.74200 32.36700
H  -4.63700 32.05300 32.64600
H  1.35600 38.77300 27.43600
H  0.25500 38.31300 28.76100
H  -0.27100 39.24700 27.33200
H  0.72800 39.89800 25.18800
H  1.99500 39.71100 23.92600
H  2.07900 38.77700 25.43400
H  -1.54300 34.41000 21.35200
H  -3.85500 32.71000 21.29800
H  -3.47400 36.16800 21.73900
H  -4.42300 34.90100 20.94800
H  -2.92200 35.73200 20.20200
H  -1.10000 32.33100 21.14400
H  -2.21300 31.10300 20.80800
H  -1.82300 30.95500 23.50800
H  -0.16000 31.12600 22.83700
H  -1.26000 29.83800 22.27000
H  -5.47700 29.13600 24.28800
H  -7.08200 29.77800 24.63100
H  -6.40100 28.40200 25.63200
H  -4.64900 30.54000 30.23900
H  -7.25600 31.76000 33.29300
H  -8.06300 30.30500 32.95500
H  -8.40200 31.79300 32.09500

