158

Mg 53.77000 24.15200 44.64100
C  51.14800 26.39300 44.01700
C  51.98700 21.67200 43.00500
C  56.41800 22.30500 44.92200
C  55.72500 26.95700 45.69200
N  51.85800 24.10700 43.53900
C  51.04200 25.16600 43.30500
C  49.89500 24.77400 42.32100
C  50.13100 23.25100 42.22800
C  51.33700 22.97400 42.98000
C  48.94700 22.35500 42.48500
C  49.88400 25.55800 40.89200
C  51.26000 26.18200 40.53400
H  52.09400 25.48000 39.49600
N  54.16000 22.21900 43.99400
C  53.23800 21.30900 43.50100
C  53.90400 20.08700 43.38100
C  55.11300 20.16900 44.08600
C  55.32600 21.58900 44.27800
C  53.31700 18.88000 42.71000
C  56.09100 18.97100 44.50000
O  55.75300 17.82400 44.27200
C  57.43800 19.17400 45.17100
N  55.85200 24.62900 45.03300
C  56.71900 23.63800 45.18500
C  58.10200 24.02900 45.78300
C  57.88800 25.54900 45.98500
C  56.38400 25.74200 45.56400
C  58.68100 23.13300 46.97900
C  58.83700 26.45600 45.15600
C  60.25400 26.38400 45.52800
N  53.56000 26.19700 44.82100
C  54.37800 27.17500 45.48600
C  53.61100 28.36100 45.68500
C  52.34000 28.08700 45.30300
C  52.40100 26.75000 44.71500
C  54.02700 29.66200 46.49400
C  50.96000 28.55500 45.24000
O  50.44700 29.59700 45.57700
C  50.18600 27.51600 44.30300
C  49.72700 28.21600 43.05200
O  50.40700 28.83300 42.22600
O  48.33800 28.20500 43.01500
C  47.77300 28.88500 41.86200
H  51.33100 20.93100 42.54500
H  57.20300 21.63000 45.26900
H  56.25800 27.75400 46.21500
H  48.97600 24.96700 42.87500
H  50.27600 22.98000 41.18300
H  49.20400 21.65600 43.28000
H  48.80000 21.69500 41.63000
H  48.12700 22.92700 42.92000
H  49.22700 26.41800 41.02000
H  49.56300 24.94200 40.05200
H  51.96500 26.39900 41.33700
H  50.98000 27.15200 40.12300
H  52.53300 19.15900 42.00600
H  52.76600 18.21000 43.36900
H  53.99200 18.13000 42.29800
H  57.87400 18.18900 45.33300
H  57.11600 19.66400 46.09000
H  58.01500 19.83300 44.52200
H  58.84000 23.93500 44.98700
H  57.90600 25.80900 47.04300
H  59.21400 22.24200 46.64500
H  57.80200 22.91300 47.58400
H  59.34800 23.79100 47.53600
H  58.46100 27.47300 45.04700
H  58.81500 25.99000 44.17000
H  60.17600 25.94500 46.52300
H  60.80600 27.32200 45.47600
H  60.87200 25.65400 45.00500
H  53.68700 30.50200 45.88700
H  55.11500 29.72800 46.48200
H  53.66600 29.56300 47.51800
H  49.28400 27.19400 44.82500
H  48.31300 28.67900 40.93700
H  47.77200 29.96700 42.00000
H  46.72200 28.62600 41.73700
Mg 46.69000 17.13900 28.14600
C  44.70500 16.79900 31.02100
C  48.62300 19.37500 29.82200
C  48.29800 17.87300 25.28400
C  44.10600 15.63100 26.29600
N  46.74600 17.90300 30.17600
C  45.91100 17.50900 31.19100
C  46.39900 18.08300 32.54800
C  47.51300 19.13500 32.19800
C  47.66200 18.79100 30.65900
C  47.27400 20.63700 32.59100
C  46.73800 16.98800 33.61700
C  45.95100 16.96000 34.85300
H  45.78200 18.32200 35.63800
N  48.34200 18.39400 27.62000
C  48.93900 19.24200 28.48200
C  50.07000 19.84800 27.77100
C  50.00300 19.40700 26.38100
C  48.85900 18.48700 26.42300
C  51.20300 20.69300 28.45700
C  50.90400 19.78700 25.19600
O  50.74200 19.22400 24.10200
C  52.01500 20.82100 25.32500
N  46.24800 16.79600 26.13200
C  47.12000 17.15900 25.13700
C  46.73100 16.67800 23.76600
C  45.40500 15.92400 24.05900
C  45.21600 16.16000 25.59200
C  46.55800 17.79400 22.67000
C  45.37000 14.41800 23.64700
C  46.14100 13.48500 24.53700
N  44.77500 16.37600 28.53700
C  43.88300 15.71300 27.71300
C  42.73800 15.26500 28.53000
C  43.03800 15.61000 29.82700
C  44.31200 16.29900 29.76500
C  41.54800 14.41700 28.11100
C  42.59200 15.57300 31.16000
O  41.64900 15.01400 31.67500
C  43.59900 16.36700 32.01000
C  42.87300 17.47400 32.59200
O  42.39700 18.37800 31.94700
O  42.53300 17.17900 33.87000
C  41.73700 18.10700 34.62900
H  49.25400 20.14300 30.27400
H  48.80600 18.03100 24.33000
H  43.32100 15.27900 25.62300
H  45.60600 18.69200 32.98200
H  48.37500 18.80400 32.77700
H  47.14000 21.28300 31.72300
H  48.12800 21.15000 33.03400
H  46.45300 20.83000 33.28000
H  47.76200 17.02500 33.98900
H  46.43300 16.04200 33.17000
H  46.59600 16.41800 35.54500
H  45.03400 16.38000 34.75500
H  52.23600 20.37300 28.32000
H  51.11400 20.85900 29.53100
H  51.13700 21.67900 27.99600
H  52.48200 21.14200 24.39400
H  52.83000 20.59500 26.01300
H  51.62300 21.70600 25.82700
H  47.54800 16.01600 23.48000
H  44.48000 16.27000 23.59700
H  45.52700 17.88200 22.32600
H  47.18800 17.68900 21.78800
H  46.60000 18.82100 23.03500
H  45.87100 14.30900 22.68500
H  44.37700 13.97300 23.59400
H  46.95000 13.11000 23.91100
H  45.55600 12.59800 24.78300
H  46.33300 13.99400 25.48100
H  40.69900 15.09600 28.19000
H  41.35000 13.64200 28.85300
H  41.59900 14.02800 27.09500
H  44.12300 15.79900 32.77800
H  40.68600 17.82100 34.59300
H  41.88400 19.13800 34.30400
H  42.13600 18.02100 35.63900

