158

Mg 49.24100 16.19800 28.38500
C  47.07100 15.79300 31.00400
C  51.26700 18.15800 30.31500
C  51.21700 16.51000 25.78300
C  46.81700 14.68200 26.34500
N  49.07000 16.96500 30.35800
C  48.24800 16.49000 31.33900
C  48.53100 17.11300 32.68400
C  49.73400 18.11900 32.38500
C  50.06900 17.73200 30.93500
C  49.42000 19.62700 32.61800
C  48.71100 16.08800 33.77200
C  48.10900 16.41000 35.17200
H  48.05900 17.85400 35.68800
N  51.06000 17.15100 28.13900
C  51.80800 17.86100 29.01100
C  53.08900 18.21700 28.46000
C  53.08900 17.75500 27.15200
C  51.73500 17.08000 26.94300
C  54.03500 19.06000 29.18000
C  54.12700 17.76200 26.09200
O  54.02900 17.19900 25.02800
C  55.40500 18.50800 26.27200
N  49.15400 15.51500 26.38600
C  50.06900 15.83100 25.51500
C  49.64100 15.33800 24.07000
C  48.29800 14.55300 24.36000
C  48.08400 14.92000 25.80300
C  49.52000 16.57500 23.14600
C  48.50700 13.03500 24.18100
C  47.47400 12.29700 23.30900
N  47.28800 15.40100 28.52600
C  46.47400 14.77200 27.67000
C  45.24600 14.31400 28.35900
C  45.47500 14.63400 29.68400
C  46.69600 15.34000 29.72000
C  44.06900 13.55900 27.68400
C  44.91900 14.56400 31.07100
O  43.88800 14.09600 31.48200
C  45.89800 15.44500 31.93300
C  45.01300 16.51100 32.42500
O  44.57800 17.53000 31.84200
O  44.86000 16.19100 33.76600
C  43.97700 16.99500 34.61400
H  51.93300 18.82800 30.86300
H  51.75500 16.49000 24.83300
H  46.16000 14.07400 25.71900
H  47.61300 17.67000 32.87200
H  50.62300 17.79300 32.92400
H  48.46400 19.89600 33.06800
H  49.26800 20.11600 31.65600
H  50.19100 19.94900 33.31800
H  49.76400 15.94700 34.01800
H  48.36300 15.09500 33.48800
H  48.77200 15.87600 35.85300
H  47.07100 16.08000 35.21600
H  55.09400 18.81100 29.11500
H  53.82600 19.10500 30.24900
H  54.08300 20.04500 28.71400
H  56.08300 18.18700 27.06300
H  55.14700 19.56500 26.33700
H  55.95200 18.54000 25.33000
H  50.44800 14.74300 23.64400
H  47.47600 14.97700 23.78400
H  50.36200 16.54800 22.45300
H  49.38200 17.59500 23.50400
H  48.64900 16.30300 22.54900
H  48.50600 12.60500 25.18200
H  49.47300 12.72600 23.78100
H  46.75900 12.01100 24.08000
H  47.83900 11.42400 22.76800
H  47.08000 13.07600 22.65700
H  44.10300 12.47100 27.74700
H  44.01600 13.89500 26.64800
H  43.12200 13.95500 28.04900
H  46.26400 14.84200 32.76400
H  42.98400 16.54800 34.65300
H  43.80500 18.06900 34.53800
H  44.45200 16.81400 35.57800
Mg 17.13900 51.91100 25.89600
C  18.90600 50.56000 28.47300
C  14.72600 52.95700 27.97800
C  15.29500 52.84300 23.20200
C  19.82400 50.98400 23.72400
N  16.82900 51.62400 27.96200
C  17.71600 51.19600 28.88600
C  17.17900 51.22700 30.28700
C  15.69200 51.90200 30.12000
C  15.69000 52.16400 28.54500
C  14.45800 51.14300 30.69300
C  18.11300 52.03700 31.23900
C  17.71400 52.14400 32.67100
H  16.65300 51.25900 33.30700
N  15.33700 52.87000 25.66300
C  14.47600 53.27300 26.65000
C  13.35000 54.00800 26.12300
C  13.62200 54.00800 24.71300
C  14.72300 53.17300 24.43300
C  12.22000 54.57500 27.00000
C  12.83900 54.75900 23.68900
O  13.09200 54.69000 22.51200
C  11.51100 55.48300 24.09200
N  17.48400 52.05200 23.84800
C  16.61200 52.42700 22.83200
C  17.19100 52.39400 21.48200
C  18.68300 51.98300 21.74700
C  18.70000 51.63200 23.21400
C  16.43500 51.38500 20.64600
C  19.67900 53.09200 21.34500
C  19.92800 54.28400 22.24300
N  18.93300 50.94800 26.02700
C  19.88900 50.51900 25.03000
C  20.99500 49.77600 25.69500
C  20.64800 49.74400 27.05000
C  19.37500 50.43300 27.15600
C  22.21800 49.24000 24.99700
C  21.10900 49.40800 28.28500
O  22.17100 48.92300 28.69300
C  20.02800 49.89000 29.31700
C  19.54000 48.73000 30.11300
O  18.92700 47.75900 29.68400
O  19.85000 48.95500 31.46300
C  19.29100 47.93800 32.34300
H  14.05200 53.33400 28.75000
H  14.65200 53.07700 22.35000
H  20.68000 50.71400 23.10200
H  17.09700 50.19900 30.63800
H  15.62600 52.89000 30.57500
H  13.89700 51.79900 31.35900
H  14.91800 50.36200 31.29900
H  13.77600 50.69600 29.96900
H  17.93600 53.02700 30.81900
H  19.18400 51.85200 31.15200
H  17.44000 53.18700 32.83000
H  18.50400 51.87700 33.37200
H  12.22900 55.66100 26.90900
H  12.29400 54.22800 28.03100
H  11.23100 54.17800 26.77000
H  11.72300 56.37800 24.67700
H  10.75900 54.85600 24.57200
H  10.97300 55.59400 23.15100
H  17.08600 53.39100 21.05400
H  18.94500 51.05400 21.24100
H  16.74000 50.36600 20.88500
H  16.52200 51.56600 19.57400
H  15.37600 51.53400 20.85500
H  19.48000 53.38600 20.31500
H  20.60800 52.52700 21.26400
H  19.03500 54.42600 22.85200
H  20.11800 55.17700 21.64800
H  20.68300 54.11800 23.01200
H  22.34000 49.10500 23.92200
H  22.20400 48.16500 25.17800
H  23.10100 49.70800 25.43300
H  20.56100 50.61300 29.93300
H  19.67700 48.22200 33.32200
H  19.70500 46.97600 32.04100
H  18.20700 47.83500 32.29900

