158

Mg 1.00000 44.02800 25.09400
C  2.89400 43.57600 27.97600
C  -1.70900 43.20900 26.98300
C  -0.74600 43.87600 22.26500
C  3.96700 44.10200 23.16300
N  0.66000 43.66000 27.31000
C  1.59900 43.52300 28.31100
C  0.84600 43.28700 29.64800
C  -0.63300 43.16100 29.26000
C  -0.54500 43.32300 27.76000
C  -1.36200 41.87100 29.73100
C  1.16100 44.50300 30.55800
C  1.54900 44.16700 32.03100
H  0.90100 42.90000 32.72400
N  -1.03700 43.83200 24.68100
C  -1.94900 43.40200 25.55900
C  -3.20700 43.14200 24.84100
C  -3.02200 43.64700 23.53400
C  -1.58400 43.84600 23.42900
C  -4.37600 42.53700 25.48300
C  -3.94900 43.76700 22.28900
O  -3.54500 44.14500 21.19000
C  -5.30600 43.20300 22.43200
N  1.54400 43.95100 23.02100
C  0.63200 43.93800 22.04300
C  1.28200 43.62500 20.63900
C  2.69300 44.19500 20.90000
C  2.77800 44.08500 22.41700
C  1.12600 42.08900 20.22300
C  2.86400 45.63100 20.39200
C  4.24500 46.06700 20.05300
N  2.93800 43.88500 25.44600
C  4.03100 43.92200 24.57400
C  5.20900 43.93600 25.39500
C  4.87600 43.78800 26.72200
C  3.44100 43.78800 26.68200
C  6.53500 44.02000 24.77100
C  5.41300 43.47600 28.05400
O  6.55400 43.26000 28.40900
C  4.08200 43.43200 28.93400
C  4.07300 42.24800 29.87500
O  3.69000 41.13000 29.64000
O  4.75600 42.69800 30.99000
C  5.11000 41.54600 31.89700
H  -2.62000 42.88500 27.49200
H  -1.29400 43.65000 21.34800
H  4.84800 44.09300 22.51800
H  1.28000 42.41700 30.14000
H  -1.14400 44.04500 29.64400
H  -2.06600 42.20800 30.49200
H  -0.79800 41.13400 30.30200
H  -1.82100 41.32600 28.90600
H  0.25200 45.10300 30.60300
H  2.00300 45.11800 30.23900
H  1.28600 45.10100 32.52700
H  2.63000 44.12800 32.16400
H  -5.08300 43.36700 25.51000
H  -4.23400 42.17600 26.50100
H  -4.71900 41.67600 24.90900
H  -5.93400 43.38000 21.55900
H  -5.71600 43.80500 23.24300
H  -5.29900 42.12700 22.60500
H  0.75200 44.23300 19.90600
H  3.45800 43.67100 20.32700
H  0.71200 41.56200 21.08200
H  2.10200 41.61200 20.14000
H  0.62600 42.02300 19.25700
H  2.41300 46.24800 21.16800
H  2.32900 45.81900 19.46100
H  5.02500 45.43600 20.47900
H  4.54400 46.91700 20.66600
H  4.36000 46.53200 19.07400
H  7.20000 43.72300 25.58100
H  6.94500 44.98100 24.46000
H  6.56200 43.16400 24.09700
H  4.15000 44.30500 29.58400
H  6.04600 41.13900 31.51500
H  4.40800 40.71400 31.95100
H  5.28200 41.96800 32.88700
Mg -2.25000 34.99900 27.14400
C  -3.76900 33.41500 29.87100
C  -1.05100 37.34300 29.43500
C  -0.98200 36.71900 24.56700
C  -3.78000 32.81500 25.01400
N  -2.53200 35.46600 29.39000
C  -3.14100 34.57300 30.25700
C  -2.85300 34.96800 31.76800
C  -2.22700 36.38900 31.60500
C  -1.85800 36.41300 30.09100
C  -3.06600 37.59500 31.99200
C  -1.93300 33.86800 32.52800
C  -2.45400 33.18900 33.74800
H  -1.65100 33.17700 35.05600
N  -1.09900 36.72000 26.96000
C  -0.71600 37.52900 28.01900
C  0.11000 38.60500 27.53000
C  0.10600 38.49600 26.13500
C  -0.69200 37.25300 25.81000
C  0.94100 39.45800 28.43600
C  0.84700 39.32900 25.00600
O  0.69500 39.15200 23.79900
C  1.74600 40.44200 25.47800
N  -2.19300 34.70100 25.13400
C  -1.72200 35.58500 24.20100
C  -1.93800 35.20100 22.69600
C  -2.74700 33.88600 22.98200
C  -2.96300 33.76300 24.48900
C  -2.80000 36.23700 21.79400
C  -2.20300 32.56600 22.32400
C  -0.98700 31.91100 23.03600
N  -3.43300 33.37800 27.31600
C  -3.98100 32.57200 26.39200
C  -4.83900 31.61000 27.03700
C  -4.65000 31.77300 28.37400
C  -3.86700 32.93300 28.52000
C  -5.55200 30.57000 26.33900
C  -4.87400 31.23000 29.68800
O  -5.45100 30.16800 29.95800
C  -4.38800 32.27500 30.78200
C  -5.57000 32.74500 31.50300
O  -6.21700 33.72100 31.22200
O  -5.94300 31.87200 32.42000
C  -6.88900 32.47700 33.33400
H  -0.65900 38.04700 30.17200
H  -0.51300 37.12300 23.66700
H  -4.21700 32.14600 24.27000
H  -3.80400 35.07000 32.29200
H  -1.32600 36.31300 32.21400
H  -2.72200 37.81000 33.00400
H  -4.12900 37.35700 31.94400
H  -2.88800 38.44700 31.33500
H  -0.96100 34.26300 32.82300
H  -1.64300 33.06900 31.84600
H  -2.60800 32.16300 33.41200
H  -3.45000 33.60100 33.90800
H  0.90600 40.49800 28.11200
H  1.98100 39.18100 28.26600
H  0.64900 39.30000 29.47500
H  2.37400 40.04200 26.27300
H  1.07200 41.21900 25.83900
H  2.28200 40.77400 24.58900
H  -1.08400 34.80500 22.14700
H  -3.69200 34.07300 22.47200
H  -2.31900 37.21000 21.89600
H  -3.86500 36.30100 22.01700
H  -2.61200 35.95200 20.75900
H  -2.00300 32.74800 21.26800
H  -2.99800 31.82000 22.36000
H  -1.41900 30.92200 23.19300
H  -0.70900 32.56200 23.86500
H  -0.14100 31.88900 22.34900
H  -5.62800 29.74700 27.04900
H  -4.98600 30.38200 25.42600
H  -6.50700 31.04300 26.10800
H  -3.64200 31.91500 31.49100
H  -6.39300 33.19700 33.98500
H  -7.02100 31.69200 34.07800
H  -7.84900 32.77000 32.90800

