158

Mg 25.21300 0.97300 29.91700
C  27.04700 1.07800 32.81200
C  22.31900 1.34000 31.80200
C  23.36700 0.60000 27.16700
C  28.15400 0.48600 28.15000
N  24.69900 1.12300 32.05700
C  25.65500 1.31700 33.00700
C  24.93600 1.74700 34.32600
C  23.44000 1.80400 34.08400
C  23.43900 1.41800 32.57900
C  22.63500 0.67100 34.88300
C  25.48900 3.20700 34.72400
C  26.21900 3.30000 36.08400
H  25.64900 4.21100 37.20200
N  23.13000 0.90700 29.48200
C  22.16500 1.16700 30.38900
C  20.88600 1.19000 29.74600
C  21.17900 0.89200 28.33000
C  22.57400 0.73900 28.31200
C  19.53400 1.42200 30.46600
C  20.17400 0.74400 27.23900
O  20.39900 0.52500 26.05700
C  18.62700 0.80200 27.62200
N  25.67700 0.48500 27.99000
C  24.73700 0.60500 26.96400
C  25.46500 0.59900 25.60800
C  26.92100 0.78100 26.00200
C  26.94200 0.53800 27.48900
C  25.21800 -0.60300 24.71700
C  27.43800 2.20800 25.63700
C  26.64500 3.46100 26.21400
N  27.22400 0.78800 30.32400
C  28.28500 0.55300 29.54000
C  29.45400 0.35400 30.36000
C  29.05100 0.66100 31.66200
C  27.67800 0.85600 31.59900
C  30.86200 0.11700 29.86000
C  29.50000 0.96200 33.02700
O  30.61500 0.95300 33.54100
C  28.23100 1.30200 33.83600
C  28.18300 0.38200 34.98800
O  27.75000 -0.76200 35.03800
O  28.65700 1.06700 36.08400
C  28.53800 0.21000 37.29000
H  21.46600 1.72000 32.36800
H  22.79800 0.49700 26.24100
H  29.02300 0.52700 27.49000
H  25.20700 1.01100 35.08300
H  22.91100 2.74400 34.24000
H  21.92400 1.18600 35.53000
H  23.30400 0.11300 35.53800
H  22.08500 0.03500 34.19000
H  24.56900 3.78300 34.82000
H  26.10400 3.55200 33.89200
H  27.18900 3.70100 35.78900
H  26.47000 2.28900 36.40500
H  19.12100 2.38000 30.14900
H  19.60600 1.63600 31.53200
H  18.86800 0.58400 30.26100
H  18.27200 1.55900 28.32100
H  18.38600 -0.23100 27.87100
H  17.98900 1.07400 26.78100
H  25.12000 1.47300 25.05400
H  27.54500 0.05400 25.48400
H  26.15700 -0.91100 24.25600
H  24.60300 -0.32800 23.86000
H  24.89200 -1.50200 25.24100
H  27.33000 2.23300 24.55300
H  28.51000 2.19200 25.83300
H  25.81400 3.25400 26.88800
H  26.16100 3.99100 25.39200
H  27.26100 4.11400 26.83200
H  31.07200 0.12200 28.79000
H  31.03500 -0.85800 30.31600
H  31.53900 0.75100 30.43300
H  28.31600 2.31500 34.22900
H  28.66100 0.89800 38.12700
H  29.30700 -0.56300 37.28200
H  27.53400 -0.20500 37.38200
Mg 44.23700 4.88500 47.59000
C  42.21600 7.68100 46.88400
C  41.44000 2.90500 46.74400
C  46.22800 2.19300 47.51200
C  46.96700 7.02600 47.77900
N  41.97500 5.25800 46.86100
C  41.44400 6.49200 46.78700
C  39.99200 6.38500 46.39100
C  39.65900 4.84100 46.74500
C  41.06000 4.28800 46.76200
C  38.87800 4.68000 48.00000
C  39.65000 6.82800 44.90200
C  38.84800 8.17200 44.62100
H  39.42600 8.96300 43.42400
N  43.87300 2.88900 47.20800
C  42.70100 2.25100 46.85800
C  42.89300 0.84400 46.63100
C  44.27400 0.63900 46.99100
C  44.87200 1.95400 47.20100
C  41.87800 -0.08100 46.13500
C  44.92600 -0.73600 46.95400
O  44.29900 -1.77400 46.73000
C  46.34400 -0.91500 47.36900
N  46.25900 4.67400 47.72600
C  46.87100 3.42500 47.80500
C  48.36300 3.50400 47.99900
C  48.57900 5.01300 48.08700
C  47.15500 5.64900 47.89600
C  48.84700 2.75600 49.26800
C  49.65900 5.57700 47.10800
C  50.86800 6.24700 47.82200
N  44.58700 6.88200 47.39900
C  45.75900 7.62800 47.53000
C  45.51200 9.03500 47.44200
C  44.13300 9.13800 47.18800
C  43.61400 7.74600 47.13900
C  46.55400 10.19400 47.59500
C  42.97300 9.99800 47.01300
O  42.98800 11.19800 46.90900
C  41.64800 9.11400 46.88000
C  40.71900 9.34300 48.04500
O  40.72400 8.67600 49.09800
O  39.81900 10.34100 47.71800
C  38.49600 10.29800 48.43500
H  40.59700 2.22400 46.60900
H  47.03600 1.47500 47.35600
H  47.80800 7.70000 47.95600
H  39.46800 7.12800 46.99200
H  39.12300 4.35000 45.93300
H  39.38500 4.35200 48.90700
H  38.19800 3.84900 47.81400
H  38.37500 5.60400 48.28300
H  39.04600 6.06000 44.42000
H  40.64000 6.93300 44.45700
H  38.63200 8.70600 45.54600
H  37.89800 7.74600 44.29600
H  42.23700 -0.31800 45.13400
H  40.88400 0.29900 45.90000
H  41.89400 -0.93000 46.81900
H  46.92200 -0.40100 46.60100
H  46.75500 -1.92100 47.28700
H  46.48600 -0.56600 48.39200
H  48.74200 3.10300 47.05900
H  48.83700 5.26500 49.11600
H  48.95900 1.72800 48.92400
H  48.10000 2.81400 50.05900
H  49.74300 3.23900 49.66100
H  49.20500 6.34800 46.48500
H  50.05400 4.82900 46.42100
H  51.72900 5.58800 47.71400
H  50.68000 6.30900 48.89400
H  51.08700 7.24700 47.44600
H  47.36100 10.19600 46.86300
H  46.98300 10.09600 48.59200
H  45.97400 11.11800 47.59900
H  41.24300 9.49500 45.94300
H  38.14300 11.30100 48.67400
H  38.58300 9.75300 49.37500
H  37.71800 9.86800 47.80400

