158

Mg 49.28900 35.55800 27.96900
C  47.07200 34.35700 30.32200
C  49.75100 38.42600 30.11600
C  51.12800 37.22300 25.62400
C  48.70900 32.99200 25.76800
N  48.50400 36.29100 30.01400
C  47.62600 35.53800 30.76200
C  47.36900 36.30900 32.07600
C  48.13400 37.72200 31.86600
C  48.81900 37.48200 30.51300
C  47.12600 38.87200 31.72100
C  47.72500 35.61900 33.39000
C  49.02500 34.76500 33.54100
H  50.28100 35.40700 34.10700
N  50.21300 37.57000 27.81600
C  50.34300 38.49800 28.80400
C  51.12300 39.65900 28.30800
C  51.49000 39.35100 26.94200
C  50.91600 37.99700 26.72200
C  51.36600 40.92700 29.22300
C  52.25600 40.16600 25.95700
O  52.64000 39.75100 24.86900
C  52.79700 41.48600 26.43700
N  49.86400 35.13700 26.00000
C  50.72700 35.89100 25.30500
C  51.21500 35.08400 24.07600
C  50.45200 33.72700 24.17600
C  49.60600 33.93800 25.36000
C  51.02500 35.84400 22.66200
C  51.36700 32.48700 24.16200
C  50.87500 31.40900 23.12400
N  48.18300 33.95700 28.02900
C  48.02800 33.00500 27.02800
C  46.85400 32.16200 27.51700
C  46.50000 32.59100 28.85100
C  47.33300 33.68600 29.05600
C  46.20500 31.01000 26.77500
C  45.58100 32.41000 29.88000
O  44.61800 31.62100 29.95600
C  45.85800 33.55600 30.93300
C  46.30500 32.76900 32.10100
O  47.36000 32.18400 32.21900
O  45.35300 32.83300 33.05400
C  45.59800 32.11300 34.29600
H  50.00100 39.26900 30.76400
H  51.80700 37.56500 24.84000
H  48.45300 32.13900 25.13700
H  46.29700 36.47400 31.97000
H  48.93200 37.97300 32.56400
H  46.82500 39.25200 32.69700
H  46.24200 38.72200 31.10100
H  47.65600 39.68000 31.21700
H  46.83100 35.02100 33.56700
H  47.85700 36.42200 34.11500
H  49.21100 34.39400 32.53300
H  48.76800 33.93700 34.20200
H  52.37700 41.03000 29.61600
H  50.65500 40.93600 30.05000
H  51.16100 41.81900 28.63200
H  52.15600 42.33700 26.66700
H  53.43400 41.90000 25.65500
H  53.44200 41.19700 27.26700
H  52.27400 34.84900 24.18200
H  49.86600 33.78000 23.25800
H  50.44700 36.76600 22.72000
H  50.64700 35.13300 21.92800
H  52.02800 36.05500 22.29200
H  51.29800 31.93500 25.09900
H  52.43500 32.69900 24.10800
H  51.78700 31.13600 22.59200
H  49.96600 31.66900 22.58200
H  50.61500 30.47000 23.61400
H  45.50400 30.48100 27.42100
H  46.97500 30.29000 26.49900
H  45.61800 31.25700 25.89000
H  44.88300 34.01100 31.10900
H  45.67000 31.03600 34.14500
H  44.81700 32.43800 34.98400
H  46.59200 32.29500 34.70400
Mg 44.04400 42.32700 26.09300
C  43.07900 44.62800 28.64000
C  45.29300 40.36900 28.48300
C  45.09900 40.45100 23.75500
C  43.38400 44.98000 23.77500
N  44.02400 42.56900 28.34800
C  43.65100 43.49600 29.22700
C  43.87900 43.09200 30.71100
C  44.85300 41.88200 30.49300
C  44.74400 41.55200 28.98700
C  46.31100 42.07300 31.02000
C  42.46200 42.80000 31.34500
C  42.11200 43.28200 32.73500
H  43.28700 43.47900 33.79900
N  44.99100 40.52800 26.11500
C  45.37900 39.84000 27.20700
C  45.81800 38.56000 26.80400
C  45.76100 38.53100 25.38100
C  45.22500 39.84200 25.01800
C  46.20500 37.45900 27.69600
C  46.27500 37.53600 24.42300
O  46.08800 37.63100 23.17800
C  46.97700 36.33600 24.89900
N  44.40600 42.78000 24.08000
C  44.80500 41.77200 23.35400
C  44.79400 42.13900 21.82800
C  44.13100 43.55400 21.83500
C  44.01500 43.79900 23.34000
C  46.11200 42.04800 21.11200
C  42.76300 43.57400 21.07100
C  41.72600 42.64600 21.63400
N  43.31500 44.37800 26.17800
C  43.11000 45.27100 25.15100
C  42.54900 46.53700 25.64800
C  42.53100 46.28800 27.00800
C  43.02200 44.97600 27.28400
C  42.05700 47.74300 24.88600
C  42.18700 46.87000 28.28800
O  41.63000 47.92600 28.52000
C  42.49400 45.82000 29.38900
C  43.38300 46.41500 30.49700
O  44.60300 46.66400 30.46500
O  42.59700 46.71400 31.54900
C  43.23800 47.15600 32.77400
H  45.74300 39.76300 29.27200
H  45.13800 39.73900 22.92800
H  43.12200 45.73200 23.02800
H  44.34500 43.95900 31.18000
H  44.47800 40.97600 30.96900
H  46.42000 43.10200 31.36400
H  47.02500 42.00600 30.20000
H  46.55000 41.39500 31.83900
H  42.24500 41.74100 31.20100
H  41.77600 43.32900 30.68500
H  41.39200 42.63400 33.23600
H  41.64900 44.26800 32.72600
H  47.25500 37.22700 27.51500
H  45.51300 36.62500 27.57900
H  46.21400 37.81300 28.72700
H  47.85400 36.56000 25.50700
H  47.10600 35.60500 24.10100
H  46.22500 35.77600 25.45500
H  44.08400 41.51200 21.28900
H  44.86800 44.19700 21.35400
H  46.10000 41.24200 20.37800
H  46.93800 41.97200 21.82000
H  46.25200 42.95100 20.51900
H  42.87100 43.41200 19.99800
H  42.40800 44.59900 21.17300
H  42.17600 41.91700 22.30800
H  41.28400 42.02400 20.85500
H  40.93600 43.22500 22.11300
H  42.02700 47.40400 23.85000
H  42.86200 48.45500 25.06600
H  41.07300 48.14900 25.12200
H  41.54700 45.45900 29.79100
H  44.01400 47.86200 32.47600
H  43.67200 46.39200 33.42000
H  42.45600 47.59800 33.39100

