158

Mg 43.75900 4.46800 46.71900
C  41.68100 7.11100 46.76500
C  41.19400 2.26200 46.32900
C  46.00800 1.80900 46.91100
C  46.61100 6.75500 46.74600
N  41.75200 4.68200 46.40200
C  41.09100 5.82800 46.65800
C  39.60000 5.66000 46.63000
C  39.46800 4.08400 46.68800
C  40.88200 3.66400 46.41000
C  38.96200 3.54300 48.06000
C  38.86200 6.29400 45.40100
C  39.62200 6.28800 44.03400
H  38.80300 5.94200 42.77500
N  43.63300 2.31000 46.47100
C  42.45300 1.65800 46.39200
C  42.73900 0.24000 46.28900
C  44.16100 0.09900 46.30600
C  44.69100 1.43500 46.63000
C  41.74700 -0.87300 46.20500
C  44.99700 -1.18000 46.00100
O  44.40200 -2.23700 45.86100
C  46.49200 -1.11800 45.82900
N  45.95000 4.24900 46.84300
C  46.56700 3.09200 47.02400
C  48.08500 3.28300 47.24700
C  48.17700 4.86300 47.40500
C  46.82100 5.38100 46.95300
C  48.55800 2.49500 48.43500
C  49.33200 5.37500 46.41300
C  50.76200 4.88800 46.52900
N  44.13300 6.52000 46.58900
C  45.29100 7.34000 46.67100
C  44.88000 8.72200 46.77800
C  43.47400 8.71200 46.78600
C  43.11600 7.34400 46.63400
C  45.94400 9.83600 46.92200
C  42.31800 9.49000 46.98700
O  42.20600 10.68700 47.19600
C  41.07500 8.45100 46.98100
C  40.26100 8.55500 48.21700
O  40.63100 8.36000 49.39900
O  38.97300 8.95900 47.87700
C  38.04400 9.10900 49.04600
H  40.35500 1.56900 46.23700
H  46.71800 0.99300 47.06500
H  47.34800 7.55900 46.78600
H  39.21100 6.05600 47.56900
H  38.67500 3.89900 45.96400
H  38.54700 4.32300 48.69800
H  39.76800 3.17700 48.69700
H  38.20900 2.76000 47.97600
H  38.64500 7.33600 45.63600
H  37.86300 5.88200 45.25800
H  40.53200 5.68900 44.08100
H  39.92800 7.31700 43.84500
H  40.77300 -0.47400 46.48700
H  41.92700 -1.70800 46.88300
H  41.80000 -1.32500 45.21500
H  46.93200 -1.23000 46.82000
H  46.87500 -0.19400 45.39500
H  46.80200 -1.93200 45.17300
H  48.66100 2.99400 46.36800
H  48.44300 5.22900 48.39700
H  48.09200 1.52900 48.62500
H  48.59100 3.06300 49.36500
H  49.60000 2.27100 48.20400
H  49.44900 6.35600 46.87400
H  48.91300 5.52000 45.41700
H  51.36900 5.74200 46.82700
H  51.09100 4.52000 45.55700
H  50.93700 3.99600 47.13100
H  46.67700 9.57600 46.15800
H  46.32400 9.77100 47.94200
H  45.59300 10.84100 46.68900
H  40.53700 8.69500 46.06500
H  38.38300 8.85000 50.04900
H  37.17600 8.53400 48.72200
H  37.68900 10.13900 49.04900
Mg 41.15000 41.33900 27.05100
C  40.26200 43.71200 29.47200
C  42.04200 39.28500 29.61300
C  42.30300 39.14400 24.80400
C  40.77300 43.80800 24.58500
N  41.07900 41.51800 29.16100
C  40.52900 42.44900 29.95500
C  40.57800 42.14500 31.44700
C  41.17300 40.67500 31.51400
C  41.51600 40.49300 30.00200
C  42.36200 40.48000 32.49900
C  39.23800 42.29400 32.21100
C  39.20900 41.61000 33.56200
H  38.46100 42.24200 34.72100
N  42.06700 39.46200 27.22000
C  42.37900 38.77600 28.39400
C  42.69700 37.42900 28.04800
C  42.63800 37.30400 26.64200
C  42.30000 38.65800 26.12200
C  42.94300 36.34900 29.14000
C  42.90300 36.01600 25.75500
O  42.96000 36.02700 24.51400
C  42.86800 34.73000 26.55100
N  41.63800 41.46300 25.05400
C  42.07400 40.43200 24.33000
C  41.99500 40.69100 22.80400
C  41.40700 42.15200 22.72800
C  41.19900 42.48300 24.21600
C  43.38300 40.46900 22.00000
C  40.15700 42.33700 21.79500
C  38.77700 42.20900 22.44500
N  40.57700 43.31200 26.96000
C  40.53200 44.21900 25.89800
C  39.96800 45.41700 26.37800
C  39.87100 45.30400 27.77100
C  40.29700 44.05900 28.07200
C  39.77400 46.61700 25.56600
C  39.44500 45.99300 29.00700
O  38.94100 47.07100 29.13400
C  39.63700 44.98700 30.11400
C  40.56700 45.61600 31.09700
O  41.78500 45.61100 30.97700
O  39.94000 46.27300 32.17700
C  40.82100 46.83700 33.24800
H  42.35500 38.59300 30.39800
H  42.53800 38.46600 23.98100
H  40.59000 44.46500 23.73200
H  41.36100 42.80500 31.82100
H  40.42900 39.91200 31.74300
H  43.29500 40.23100 31.99400
H  42.06000 39.74300 33.24300
H  42.49400 41.40800 33.05700
H  38.32700 42.00100 31.69000
H  38.95500 43.32800 32.41000
H  40.26900 41.58300 33.81300
H  38.79900 40.60600 33.46000
H  42.51100 36.64600 30.09600
H  44.02100 36.21300 29.23000
H  42.41500 35.43300 28.87700
H  41.93400 34.64200 27.10600
H  43.72000 34.67200 27.22900
H  42.84700 33.91800 25.82400
H  41.24700 40.04400 22.34500
H  42.23600 42.83100 22.52800
H  43.17100 39.70900 21.24800
H  44.09200 40.09400 22.73800
H  43.61100 41.44900 21.58100
H  40.39200 41.73800 20.91600
H  40.06200 43.40200 21.58500
H  38.15300 41.49600 21.90700
H  38.25200 43.15300 22.59400
H  38.93200 41.85900 23.46600
H  39.17700 47.36900 26.08200
H  39.24800 46.28400 24.67100
H  40.60400 47.20600 25.17500
H  38.68200 44.76000 30.58800
H  40.45700 46.60300 34.24800
H  40.95100 47.89700 33.02700
H  41.78600 46.35800 33.41600

