158

Mg 2.32800 -1.45200 43.89200
C  5.72400 -0.83200 43.38700
C  1.68300 1.49300 42.23200
C  -0.80200 -2.45000 44.05100
C  3.33800 -4.81600 45.00600
N  3.57300 0.20200 43.07800
C  4.92100 0.21100 42.95300
C  5.39600 1.57800 42.44100
C  4.05200 2.44000 42.40100
C  3.05100 1.25000 42.44600
C  3.84400 3.49600 43.58600
C  6.07300 1.59700 40.98300
C  5.45100 0.70200 39.90400
H  5.03400 1.48300 38.68800
N  0.71000 -0.63400 43.15000
C  0.57200 0.58600 42.51800
C  -0.81300 0.68900 42.07200
C  -1.57200 -0.22000 42.85800
C  -0.55700 -1.17300 43.41200
C  -1.41000 1.87000 41.26500
C  -3.01000 -0.29000 42.88000
O  -3.69500 0.52500 42.30300
C  -3.79400 -1.34000 43.54000
N  1.41000 -3.38800 44.46300
C  0.06000 -3.44500 44.39500
C  -0.39600 -4.86800 44.77500
C  0.93400 -5.66800 45.01500
C  1.94100 -4.54500 44.81500
C  -1.35300 -4.87300 46.04200
C  1.08500 -6.97300 44.17200
C  1.52400 -8.17500 44.98000
N  4.13500 -2.65300 44.21800
C  4.34300 -3.89700 44.73700
C  5.77600 -3.98900 44.88100
C  6.31500 -2.88300 44.23700
C  5.29500 -2.05800 43.90500
C  6.46300 -5.24300 45.44700
C  7.58000 -2.31000 43.77400
O  8.71700 -2.68600 43.80500
C  7.27800 -0.92400 43.19800
C  7.94100 0.11000 44.03200
O  8.73900 0.91100 43.56600
O  7.29800 0.28800 45.24700
C  7.39700 1.68800 45.81400
H  1.36900 2.36200 41.65100
H  -1.79800 -2.84600 44.26100
H  3.79500 -5.70200 45.45200
H  6.12400 2.16200 43.00400
H  3.94800 3.00800 41.47700
H  3.11900 3.05400 44.27000
H  3.22800 4.34200 43.28100
H  4.79900 3.69700 44.07000
H  7.10200 1.26100 41.10800
H  6.09500 2.62300 40.61600
H  4.63600 0.14900 40.37100
H  6.19400 -0.07000 39.70100
H  -1.88800 1.41100 40.39900
H  -0.62200 2.47900 40.82200
H  -2.06500 2.52700 41.83700
H  -3.37000 -1.47800 44.53400
H  -3.69200 -2.25200 42.95200
H  -4.84300 -1.04900 43.59900
H  -0.92200 -5.24100 43.89600
H  0.96000 -5.99000 46.05600
H  -1.41600 -5.81300 46.59200
H  -2.34700 -4.50000 45.79900
H  -0.90400 -4.10300 46.66900
H  1.85800 -6.92900 43.40500
H  0.11900 -7.29900 43.78700
H  1.01900 -9.09300 44.67900
H  1.38600 -8.14600 46.06100
H  2.59800 -8.27400 44.82500
H  7.35100 -4.92400 45.99300
H  6.77600 -5.86400 44.60800
H  5.77400 -5.65600 46.18400
H  7.63700 -0.96700 42.17000
H  7.96900 1.72600 46.74100
H  6.34300 1.83800 46.05100
H  7.71500 2.41100 45.06400
Mg 47.38000 44.79900 43.67100
C  43.84700 45.13500 43.17700
C  47.30700 41.69300 42.28700
C  50.82500 44.62300 43.83100
C  47.53800 48.22700 44.54300
N  45.76200 43.59700 42.71200
C  44.36900 43.89500 42.72900
C  43.60800 42.84600 41.93200
C  44.74200 41.70500 41.80400
C  46.03700 42.36000 42.31900
C  44.32300 40.41300 42.59000
C  43.21200 43.54800 40.58600
C  42.04500 43.04900 39.70100
H  42.33600 41.99100 38.62400
N  48.86500 43.30500 43.28500
C  48.60000 42.13200 42.71800
C  49.79400 41.34400 42.60500
C  50.84900 42.13600 43.20600
C  50.18700 43.44600 43.48200
C  49.81100 39.88000 42.03800
C  52.25700 41.66600 43.48700
O  52.56400 40.51700 43.18400
C  53.20500 42.50000 44.23600
N  48.98500 46.20900 44.06900
C  50.30100 45.91600 44.09700
C  51.17100 47.14400 44.42100
C  50.11700 48.25200 44.76100
C  48.76200 47.54400 44.44500
C  52.20700 46.92400 45.50800
C  50.27900 49.53000 43.96700
C  50.47700 50.87400 44.70400
N  45.99800 46.43300 43.91200
C  46.19700 47.74300 44.22300
C  44.89100 48.40100 44.32000
C  43.98500 47.45000 43.92100
C  44.66200 46.24000 43.65100
C  44.63300 49.90000 44.49100
C  42.55100 47.16300 43.68900
O  41.62900 47.98400 43.83100
C  42.43000 45.69600 43.18900
C  41.44500 44.94400 44.09200
O  40.31200 44.62200 43.75500
O  42.05700 44.68400 45.27800
C  41.20100 44.01500 46.25300
H  47.19700 40.77800 41.70100
H  51.91100 44.50400 43.82400
H  47.50100 49.20600 45.02500
H  42.72000 42.49500 42.45700
H  44.85000 41.31300 40.79200
H  43.80000 39.79500 41.85900
H  43.58300 40.66400 43.35000
H  45.18700 39.87100 42.97300
H  44.02900 43.40000 39.88000
H  43.19700 44.62800 40.73100
H  41.69800 43.99300 39.28100
H  41.30100 42.65600 40.39400
H  50.72900 39.48400 41.60300
H  48.99000 39.64100 41.36200
H  49.69100 39.20700 42.88700
H  53.67800 43.30500 43.67500
H  53.99500 41.80200 44.51200
H  52.77700 42.82000 45.18600
H  51.66100 47.47600 43.50500
H  50.01500 48.42800 45.83200
H  51.80400 46.16400 46.17700
H  52.32700 47.85300 46.06600
H  53.20400 46.66300 45.15400
H  49.30900 49.66500 43.49000
H  50.98700 49.46100 43.14100
H  49.72400 51.58200 44.35800
H  51.47800 51.27100 44.53400
H  50.40400 50.68100 45.77400
H  44.15300 50.27800 43.58800
H  45.56600 50.45800 44.57500
H  44.10300 50.11900 45.41700
H  41.87200 45.71300 42.25300
H  41.40600 44.48800 47.21400
H  41.54700 42.99500 46.42100
H  40.12600 43.97700 46.07500

