158

Mg 45.30100 3.88100 47.82600
C  43.37100 6.77700 47.33100
C  42.60500 2.00400 46.92200
C  47.27500 1.15200 47.77000
C  48.21600 5.92300 47.72600
N  43.21600 4.36900 47.22800
C  42.60700 5.57900 46.95300
C  41.23200 5.45000 46.29600
C  41.01700 3.84600 46.53100
C  42.37400 3.35100 46.97100
C  39.83400 3.38200 47.42100
C  41.27800 5.97700 44.89100
C  40.09000 6.83000 44.37900
H  39.55600 6.49800 42.99600
N  44.95600 1.80400 47.55900
C  43.74100 1.21100 47.20100
C  43.95100 -0.21000 46.93200
C  45.36800 -0.47200 47.14800
C  45.97800 0.85300 47.56200
C  42.86200 -0.97700 46.26600
C  45.97900 -1.84900 46.86600
O  45.22600 -2.76400 46.58200
C  47.40300 -1.98100 46.94100
N  47.49900 3.62300 47.75700
C  48.00000 2.33300 47.81000
C  49.53500 2.41000 47.61300
C  49.81200 3.93400 47.43300
C  48.43100 4.56900 47.67900
C  50.41100 1.58800 48.64900
C  50.47800 4.31200 46.03300
C  51.86400 4.98200 45.87900
N  45.76700 5.92500 47.83000
C  46.94700 6.59200 47.79800
C  46.62000 8.08000 47.66100
C  45.23300 8.15400 47.66500
C  44.76500 6.84900 47.67300
C  47.63000 9.19500 47.59600
C  44.16900 9.09300 47.62100
O  44.18100 10.35100 47.64200
C  42.82600 8.17700 47.31500
C  41.79400 8.37500 48.38600
O  41.59300 7.64800 49.29700
O  41.05100 9.52300 48.10300
C  39.86900 9.84400 48.87800
H  41.73900 1.41000 46.62500
H  48.00200 0.33700 47.74400
H  49.11200 6.54400 47.66500
H  40.44500 5.90700 46.89500
H  40.94600 3.45800 45.51500
H  38.95500 3.35000 46.77900
H  39.71400 4.07400 48.25400
H  40.10500 2.39900 47.80900
H  41.62200 5.13300 44.29400
H  42.21700 6.51300 44.75100
H  40.42100 7.86300 44.27700
H  39.15800 6.72600 44.93600
H  41.83900 -0.60900 46.34700
H  42.88000 -2.00500 46.62900
H  43.12500 -0.93400 45.20900
H  47.81000 -1.79800 47.93500
H  47.74200 -1.22000 46.23800
H  47.75100 -2.94600 46.57400
H  49.73800 1.92600 46.65800
H  50.49000 4.28400 48.21200
H  49.76400 1.08200 49.36500
H  51.09900 2.30700 49.09400
H  50.87400 0.79200 48.06600
H  49.82100 5.08500 45.63400
H  50.45000 3.44900 45.36800
H  52.54900 4.31400 45.35800
H  52.15000 5.07000 46.92700
H  51.68600 5.91100 45.33800
H  47.09300 10.14200 47.54600
H  48.15500 9.17200 46.64000
H  48.40600 9.11800 48.35800
H  42.29300 8.48600 46.41500
H  39.01500 9.63500 48.23400
H  39.90800 10.91800 49.06000
H  39.59400 9.41000 49.83900
Mg 48.48300 34.77000 26.53500
C  46.60400 33.58300 29.19400
C  48.96500 37.62900 28.28500
C  50.17200 36.04300 23.84900
C  47.84300 31.88300 24.75500
N  47.92300 35.39700 28.56200
C  47.14100 34.82900 29.48700
C  46.86200 35.72900 30.74500
C  47.47500 37.10200 30.28800
C  48.19300 36.70500 28.98200
C  46.55200 38.30200 30.02800
C  47.35000 35.07900 32.05400
C  47.89300 35.89800 33.25900
H  47.01300 36.37800 34.36600
N  49.51800 36.58400 26.13300
C  49.60500 37.60000 27.03900
C  50.52200 38.59000 26.52200
C  50.98200 38.08100 25.24000
C  50.24100 36.87100 25.05900
C  50.91600 39.81100 27.29300
C  51.93600 38.62000 24.34500
O  52.32000 38.01600 23.33600
C  52.70900 39.97800 24.64600
N  48.78500 34.14700 24.56400
C  49.50200 34.89000 23.62400
C  50.02400 33.99500 22.45800
C  49.36200 32.58800 22.81500
C  48.60600 32.86600 24.12200
C  49.70600 34.58000 21.09800
C  50.41900 31.43800 22.95300
C  50.34500 30.29100 21.90900
N  47.46500 33.04500 26.88000
C  47.22900 31.92600 26.05100
C  46.43300 30.92500 26.87500
C  46.13200 31.60000 28.08200
C  46.78900 32.83200 28.04900
C  46.06200 29.60500 26.35700
C  45.39100 31.47800 29.32900
O  44.69700 30.57300 29.78900
C  45.54900 32.90800 30.04000
C  45.85000 32.46200 31.44800
O  46.78500 31.67000 31.67200
O  44.87900 32.87700 32.33900
C  44.83600 31.95800 33.53300
H  49.00100 38.58800 28.80800
H  50.82300 36.34100 23.02400
H  47.89500 30.91900 24.24500
H  45.78900 35.89900 30.82800
H  48.14400 37.50000 31.05100
H  45.61700 38.29300 30.58800
H  46.31200 38.28800 28.96500
H  47.09600 39.24300 30.11600
H  47.99700 34.21400 31.91000
H  46.49600 34.69500 32.61100
H  48.33500 36.85700 32.99100
H  48.76500 35.37500 33.65200
H  51.99200 39.80200 27.46700
H  50.36000 40.02200 28.20700
H  50.78800 40.72200 26.70900
H  51.90800 40.71400 24.71800
H  53.36100 40.18600 23.79700
H  53.34500 39.87200 25.52500
H  51.08300 33.80500 22.63200
H  48.51400 32.42400 22.15000
H  49.40100 33.71300 20.51200
H  50.49800 35.08600 20.54800
H  48.79500 35.17800 21.07100
H  50.31400 31.19600 24.01100
H  51.44300 31.81200 22.96300
H  51.15400 30.34400 21.18100
H  49.40200 30.30300 21.36300
H  50.40900 29.30800 22.37500
H  45.77800 29.68200 25.30700
H  45.24900 29.08000 26.85700
H  47.00100 29.05300 26.41300
H  44.64700 33.50000 30.19800
H  45.47500 32.41600 34.28900
H  45.10400 30.96300 33.17800
H  43.83200 31.93700 33.95600

