158

Mg 1.98800 -1.44400 44.89100
C  5.31500 -0.44600 44.41300
C  0.96500 1.22500 42.94400
C  -1.25800 -2.61500 45.20800
C  3.16400 -4.38100 46.31700
N  3.10700 0.16300 43.80300
C  4.41600 0.37100 43.74600
C  4.68200 1.56000 42.81500
C  3.31700 2.16100 42.58300
C  2.39000 1.10300 43.11200
C  3.07700 3.57500 43.18000
C  5.39800 1.15600 41.42900
C  6.30400 2.25600 40.81700
H  7.51200 1.75000 40.03200
N  0.01900 -0.76100 44.27300
C  -0.13600 0.33400 43.46500
C  -1.55000 0.53600 43.22300
C  -2.27600 -0.55100 43.89500
C  -1.20400 -1.36100 44.50300
C  -2.14700 1.59200 42.32200
C  -3.73100 -0.82800 43.84100
O  -4.50100 -0.18800 43.15300
C  -4.31300 -1.98500 44.51900
N  1.04800 -3.28300 45.55900
C  -0.24800 -3.53200 45.62400
C  -0.50600 -4.95100 46.11700
C  0.87900 -5.46400 46.55200
C  1.78500 -4.34000 46.06000
C  -1.50100 -4.97300 47.25200
C  1.18200 -6.88600 46.14300
C  1.40900 -7.82900 47.38700
N  3.90900 -2.27400 45.23700
C  4.16400 -3.46100 45.90200
C  5.58600 -3.51900 46.17600
C  6.11300 -2.31700 45.58900
C  5.04900 -1.59500 45.08200
C  6.37700 -4.55700 46.83600
C  7.32700 -1.57700 45.32300
O  8.47600 -1.79500 45.63300
C  6.83100 -0.38800 44.41300
C  7.31700 0.88100 45.01800
O  7.23500 1.28500 46.20300
O  7.99900 1.55800 44.04200
C  8.54500 2.89300 44.38000
H  0.64100 2.10000 42.37600
H  -2.23000 -3.02300 45.49300
H  3.40400 -5.32400 46.81300
H  5.34600 2.22700 43.36400
H  3.12800 2.29300 41.51700
H  2.32000 3.53200 43.96300
H  2.74700 4.23600 42.37900
H  4.06600 3.84300 43.55000
H  4.65500 0.89500 40.67400
H  5.99200 0.25300 41.57100
H  6.55300 2.88900 41.66800
H  5.66600 2.84700 40.15900
H  -2.20200 1.45200 41.24300
H  -1.52000 2.46800 42.48900
H  -3.07700 1.94600 42.76800
H  -4.25900 -2.92200 43.96500
H  -5.35800 -1.67500 44.50700
H  -4.17900 -2.09000 45.59600
H  -0.79600 -5.46700 45.20100
H  0.91300 -5.33600 47.63400
H  -2.07900 -5.83500 46.92000
H  -1.96800 -4.01600 47.48800
H  -1.07300 -5.26900 48.21000
H  2.17000 -6.90000 45.68100
H  0.42500 -7.26400 45.45600
H  2.39300 -8.29100 47.30500
H  0.61300 -8.55700 47.23700
H  1.30000 -7.32300 48.34600
H  5.63900 -5.09100 47.43400
H  7.22200 -4.21900 47.43400
H  6.67000 -5.16500 45.98000
H  7.22400 -0.55300 43.41000
H  7.79200 3.48600 44.89900
H  8.64000 3.44100 43.44200
H  9.48400 2.84300 44.93000
Mg 8.44900 48.05000 26.22100
C  6.61700 47.91900 29.17800
C  11.21600 48.90700 28.04800
C  10.23000 48.14600 23.34500
C  5.59600 47.29400 24.46900
N  8.84400 48.39600 28.42200
C  7.94900 48.23000 29.44100
C  8.66700 48.39100 30.82200
C  9.98400 48.99300 30.36400
C  10.02800 48.75200 28.86200
C  10.20100 50.40200 30.90900
C  8.75200 46.97000 31.64900
C  9.50600 47.12200 32.91200
H  8.76100 47.35600 34.19900
N  10.42200 48.37100 25.72800
C  11.42900 48.63500 26.65700
C  12.69800 48.74600 25.92100
C  12.48800 48.39700 24.59500
C  10.99400 48.29100 24.53700
C  13.93100 49.07800 26.60600
C  13.43200 48.21700 23.55000
O  13.04000 48.01400 22.40700
C  14.94200 48.29700 23.81000
N  7.94000 48.01100 24.15200
C  8.90000 48.02300 23.13200
C  8.23800 47.70300 21.81400
C  6.80300 47.28600 22.15300
C  6.75000 47.56000 23.71700
C  8.27400 48.76800 20.71800
C  6.53800 45.83800 21.73200
C  7.19200 44.77000 22.63900
N  6.51700 47.70000 26.64500
C  5.48200 47.37900 25.84300
C  4.30600 47.12000 26.62600
C  4.69800 47.40700 27.96100
C  6.02400 47.72400 27.95900
C  2.89900 46.84200 26.17300
C  4.24200 47.55700 29.25900
O  3.12000 47.49200 29.75800
C  5.49300 47.69100 30.15300
C  5.55600 46.41600 30.91600
O  5.76400 45.32900 30.40600
O  5.24000 46.62300 32.23800
C  5.00400 45.41400 33.08200
H  12.14000 49.14900 28.57700
H  10.80100 47.93300 22.43900
H  4.68700 47.07000 23.90700
H  8.11500 49.07000 31.47100
H  10.79000 48.37400 30.75700
H  10.53600 51.05900 30.10700
H  10.90800 50.29500 31.73100
H  9.24900 50.80000 31.25900
H  9.26200 46.24300 31.01700
H  7.72100 46.64500 31.78600
H  10.25800 47.91100 32.88300
H  10.21400 46.29300 32.93900
H  14.66700 48.27300 26.59800
H  13.82200 49.42500 27.63400
H  14.42700 49.90700 26.10100
H  15.14600 47.56700 24.59300
H  15.30000 49.31500 23.96600
H  15.46600 47.73800 23.03500
H  8.81600 46.85600 21.44500
H  6.14000 47.96600 21.61800
H  8.02800 49.75000 21.12200
H  7.44200 48.45000 20.09000
H  9.22800 48.67700 20.19800
H  6.97800 45.81900 20.73500
H  5.46900 45.76700 21.52900
H  6.43000 44.17900 23.14700
H  7.79200 45.25700 23.40900
H  7.90600 44.12900 22.12100
H  2.83900 46.49500 25.14100
H  2.26900 47.72900 26.25200
H  2.39600 46.05900 26.74000
H  5.45700 48.47700 30.90700
H  4.26100 44.74500 32.64700
H  4.59000 45.65900 34.06000
H  5.97900 44.96600 33.26800

