158

Mg 49.71700 45.54900 41.07100
C  46.57600 47.23900 40.50300
C  48.36300 42.80900 39.78200
C  52.80400 44.34100 41.11700
C  51.02100 48.82000 41.87700
N  47.61500 45.09600 40.32100
C  46.47700 45.93900 40.12100
C  45.40300 45.20000 39.44700
C  45.95800 43.73100 39.36400
C  47.43300 43.86700 39.81200
C  45.16600 42.61800 40.04000
C  45.08700 45.75600 37.99700
C  43.86500 45.12700 37.32800
H  44.01400 44.11100 36.17700
N  50.51000 43.85700 40.44500
C  49.76600 42.80600 39.97900
C  50.66300 41.69200 39.71000
C  51.93900 42.13800 40.08600
C  51.78600 43.48700 40.56200
C  50.28800 40.38900 38.99500
C  53.25200 41.34400 39.91400
O  53.22800 40.17400 39.58500
C  54.58900 42.00100 40.03600
N  51.57500 46.40700 41.48700
C  52.70000 45.62800 41.57500
C  53.96900 46.51800 41.89300
C  53.39000 47.91100 41.85800
C  51.93100 47.69100 41.83000
C  54.80800 46.09800 43.26800
C  53.95200 48.86200 40.67800
C  54.76900 50.05000 41.23000
N  48.97600 47.54300 41.35500
C  49.60700 48.73200 41.68700
C  48.76500 49.81900 41.83400
C  47.46000 49.28200 41.42100
C  47.69000 47.92100 41.15600
C  49.12900 51.16800 42.32800
C  46.07300 49.54400 41.21000
O  45.39100 50.49800 41.51500
C  45.55100 48.35400 40.35300
C  44.27600 47.96400 40.96900
O  44.12600 47.14100 41.89200
O  43.26500 48.40200 40.13100
C  41.94900 48.28500 40.78800
H  47.96100 41.86600 39.40600
H  53.84500 44.01400 41.11300
H  51.52000 49.71000 42.26600
H  44.52000 45.18900 40.08500
H  45.98500 43.30500 38.36200
H  44.12600 42.93400 39.95900
H  45.39200 42.49000 41.09900
H  45.33600 41.62500 39.62300
H  45.89800 45.53500 37.30400
H  44.80800 46.81000 37.97400
H  43.24000 45.99400 37.11200
H  43.24600 44.67100 38.10100
H  49.23600 40.10800 39.05100
H  50.80700 39.53400 39.42800
H  50.57200 40.52500 37.95200
H  54.92400 42.19900 41.05500
H  54.61300 42.87400 39.38400
H  55.24600 41.27200 39.56200
H  54.66900 46.35500 41.07400
H  53.50800 48.33700 42.85400
H  54.53600 45.11900 43.66300
H  54.56100 46.72700 44.12200
H  55.88700 46.16500 43.12600
H  53.10100 49.29500 40.15200
H  54.57900 48.28700 39.99800
H  54.43200 51.05200 40.96500
H  55.78200 50.12500 40.83300
H  54.89200 50.06600 42.31300
H  50.09600 51.47200 41.92700
H  49.14100 51.26400 43.41400
H  48.48800 51.96100 41.94400
H  45.40600 48.87000 39.40400
H  41.47900 47.45200 40.26600
H  41.36000 49.19100 40.64700
H  41.99500 47.99200 41.83700
Mg -12.96000 16.04100 41.88500
C  -9.93900 14.41200 41.19500
C  -11.73100 18.88000 40.11300
C  -15.97300 17.33500 41.78500
C  -14.13500 12.89600 43.02900
N  -11.09900 16.56200 40.77400
C  -9.95800 15.76200 40.76200
C  -8.71700 16.51300 40.21900
C  -9.32400 17.94100 39.98400
C  -10.82300 17.81900 40.28800
C  -8.68000 19.04800 40.84900
C  -8.25000 15.85700 38.84800
C  -6.70000 15.87500 38.72300
H  -6.21400 16.51800 37.40900
N  -13.77300 17.91600 41.14500
C  -13.08600 18.92400 40.47300
C  -14.03000 20.00300 40.20800
C  -15.23600 19.64600 40.78300
C  -15.06800 18.25900 41.30100
C  -13.51200 21.27600 39.50800
C  -16.47400 20.42700 40.77300
O  -16.44600 21.51200 40.12500
C  -17.79900 19.90800 41.29200
N  -14.76900 15.17900 42.20300
C  -15.88600 15.95000 42.17500
C  -17.14900 15.16800 42.50200
C  -16.61100 13.81200 43.00400
C  -15.04400 13.94300 42.76900
C  -18.16300 15.86100 43.49300
C  -17.26100 12.57400 42.33300
C  -18.35400 11.89200 43.19700
N  -12.25300 14.00900 42.21200
C  -12.82100 12.90300 42.68400
C  -11.85100 11.78200 42.67700
C  -10.70400 12.30700 42.14700
C  -11.02200 13.63100 41.81200
C  -12.11000 10.36600 43.08700
C  -9.36900 12.10600 41.73400
O  -8.63200 11.08900 41.80900
C  -8.79200 13.44100 41.20200
C  -7.59400 13.99500 41.88600
O  -7.46900 14.50600 43.00800
O  -6.47900 13.59900 41.11200
C  -5.18600 13.84000 41.81900
H  -11.31400 19.75400 39.60900
H  -17.04300 17.54600 41.73900
H  -14.62500 12.03300 43.48200
H  -7.95900 16.37200 40.99100
H  -9.34800 18.21000 38.92800
H  -9.19500 19.16500 41.80200
H  -8.64600 19.94100 40.22500
H  -7.75800 18.59300 41.21200
H  -8.64700 16.30200 37.93500
H  -8.53400 14.80400 38.84200
H  -6.32500 14.85200 38.75300
H  -6.24400 16.46300 39.52000
H  -13.42400 21.08800 38.43800
H  -12.48600 21.48200 39.81200
H  -13.99800 22.23900 39.66800
H  -18.29500 19.20200 40.62700
H  -18.44800 20.78400 41.29400
H  -17.76900 19.58400 42.33200
H  -17.68400 15.02600 41.56300
H  -16.64300 13.72600 44.09000
H  -17.49000 16.62900 43.87600
H  -18.44400 15.29500 44.38100
H  -18.97700 16.33300 42.94200
H  -16.52300 11.92600 41.86000
H  -17.89600 12.91500 41.51600
H  -18.41500 10.80400 43.17100
H  -19.36200 11.91100 42.78300
H  -18.33800 12.31900 44.20000
H  -11.14600 9.88200 43.24000
H  -12.59100 9.98100 42.18800
H  -12.87100 10.21800 43.85400
H  -8.48300 13.08100 40.22000
H  -4.91000 14.88600 41.68300
H  -4.48800 13.08300 41.46000
H  -5.17800 13.72900 42.90300

