158

Mg 40.96500 9.27100 30.05100
C  42.62300 10.42000 32.95600
C  38.67300 7.92500 32.29200
C  39.46900 7.86800 27.48000
C  43.61800 10.40100 28.12400
N  40.73300 9.16500 32.41200
C  41.45900 9.83600 33.32100
C  40.73600 9.82700 34.66600
C  39.62600 8.83200 34.53000
C  39.60000 8.66100 33.00300
C  39.78800 7.43300 35.28300
C  40.34100 11.26000 35.33400
C  39.92300 11.13300 36.82100
H  40.54800 12.00400 37.85700
N  39.39700 7.98000 29.89700
C  38.61100 7.52500 30.92000
C  37.45500 6.75200 30.40900
C  37.52800 6.89400 29.03900
C  38.86500 7.53100 28.73100
C  36.37000 6.21300 31.16300
C  36.53800 6.60600 27.97500
O  36.75200 6.69100 26.81100
C  35.14000 6.00800 28.37100
N  41.56000 9.01900 28.13700
C  40.71900 8.45200 27.22500
C  41.14200 8.70200 25.75100
C  42.41500 9.56300 26.02000
C  42.51000 9.73400 27.54600
C  41.49600 7.39700 24.97000
C  42.29500 11.00600 25.32200
C  43.51600 11.26900 24.42400
N  42.84300 10.14700 30.43600
C  43.72200 10.59500 29.48800
C  44.91000 11.03400 30.22500
C  44.43800 11.10500 31.58600
C  43.16300 10.51300 31.66100
C  46.18000 11.57700 29.60200
C  44.72500 11.57300 32.88400
O  45.68400 12.21200 33.30100
C  43.63400 11.07100 33.87400
C  44.14100 10.04000 34.91800
O  44.69000 8.96500 34.66500
O  43.83100 10.44400 36.23500
C  44.24600 9.52900 37.28300
H  37.80700 7.68900 32.91500
H  39.01700 7.41400 26.59500
H  44.41900 10.79400 27.49500
H  41.49400 9.46200 35.36000
H  38.71100 9.17200 35.01600
H  40.74500 7.33500 35.79600
H  39.56500 6.64900 34.56000
H  39.01700 7.53400 36.04700
H  39.53900 11.82200 34.85500
H  41.27700 11.79700 35.18400
H  40.01700 10.08300 37.09800
H  38.84700 11.25800 36.94000
H  36.50400 6.24900 32.24400
H  36.24300 5.18000 30.83900
H  35.45300 6.76400 30.95500
H  34.70000 6.69900 29.09000
H  35.19400 5.04900 28.88800
H  34.45000 5.97500 27.52800
H  40.38700 9.26100 25.19900
H  43.27000 9.00100 25.64400
H  40.68400 7.11400 24.30000
H  41.48900 6.71000 25.81600
H  42.45100 7.37700 24.44600
H  42.33000 11.72800 26.13800
H  41.29800 11.00500 24.88200
H  43.86500 10.27800 24.13300
H  44.22000 11.89100 24.97700
H  43.31900 11.82900 23.50900
H  45.93000 12.39400 28.92600
H  46.74900 10.79500 29.09800
H  46.69800 12.06200 30.42900
H  43.27400 12.00900 34.29800
H  44.33300 8.46900 37.04600
H  43.59000 9.65900 38.14400
H  45.19300 9.88900 37.68500
Mg -10.35700 38.33900 40.61000
C  -8.21800 35.61600 39.89800
C  -8.01200 40.38600 39.01100
C  -12.47500 40.96200 40.68500
C  -12.79300 36.18200 41.45800
N  -8.41800 37.88200 39.37000
C  -7.68300 36.76400 39.39000
C  -6.42500 36.93400 38.49300
C  -6.25600 38.52700 38.64200
C  -7.67700 38.99500 39.02200
C  -5.03200 39.08100 39.38000
C  -6.63900 36.50100 36.95700
C  -5.64700 35.67200 36.21100
H  -5.32100 36.13400 34.81900
N  -10.19400 40.42100 40.09000
C  -9.14300 41.02500 39.46500
C  -9.36200 42.44500 39.57800
C  -10.63600 42.67800 40.14100
C  -11.17600 41.35900 40.40200
C  -8.49200 43.43000 39.12000
C  -11.37400 44.06700 40.21900
O  -10.78700 45.05300 39.78800
C  -12.70000 44.20400 40.71100
N  -12.32700 38.56000 40.97200
C  -13.00200 39.71500 40.97000
C  -14.49100 39.58100 41.27000
C  -14.56900 38.05300 41.54200
C  -13.16400 37.56500 41.23200
C  -15.00300 40.52400 42.36800
C  -15.67500 37.35600 40.66300
C  -16.78500 36.69900 41.49800
N  -10.54000 36.27400 40.71400
C  -11.54400 35.54500 41.11800
C  -11.09600 34.17400 41.32300
C  -9.79500 34.12700 40.81100
C  -9.51600 35.43300 40.39300
C  -11.82800 33.12300 42.04000
C  -8.62500 33.35800 40.55500
O  -8.48000 32.15700 40.59100
C  -7.62900 34.24700 39.80900
C  -6.25800 34.14000 40.43700
O  -5.34300 33.49600 39.89200
O  -6.12200 35.04300 41.50400
C  -4.97300 34.87100 42.43900
H  -7.19700 40.97000 38.57900
H  -13.17500 41.79400 40.57800
H  -13.63000 35.63700 41.90100
H  -5.54800 36.42400 38.88900
H  -6.16400 38.87400 37.61300
H  -4.31000 39.23100 38.57800
H  -4.63500 38.38400 40.11700
H  -5.21000 40.03000 39.88600
H  -6.94100 37.38900 36.40300
H  -7.51900 35.86000 36.90000
H  -5.99800 34.64000 36.22800
H  -4.64900 35.59500 36.64200
H  -8.76900 43.92700 38.19100
H  -7.46700 43.06900 39.03600
H  -8.26800 44.19700 39.86100
H  -12.84100 45.22900 41.05200
H  -12.76400 43.62200 41.63100
H  -13.48000 44.00800 39.97600
H  -15.11700 39.74800 40.39400
H  -14.87200 37.90100 42.57800
H  -15.71300 41.22500 41.92900
H  -14.16000 40.92500 42.93000
H  -15.50500 39.92900 43.13100
H  -15.22900 36.47200 40.20900
H  -16.14700 38.04800 39.96500
H  -16.57900 35.62900 41.51900
H  -17.77200 36.93200 41.09900
H  -16.80100 36.96600 42.55500
H  -11.86600 32.18700 41.48300
H  -12.84500 33.47900 42.20500
H  -11.39700 33.02000 43.03500
H  -7.62000 33.82100 38.80600
H  -5.29800 34.81500 43.47800
H  -4.34700 35.75200 42.29400
H  -4.31400 34.00300 42.40500

