158

Mg 2.64100 -1.03900 43.89500
C  6.04800 -0.17500 43.53100
C  1.81200 1.95700 42.38800
C  -0.47700 -2.08300 43.85700
C  3.64800 -4.30000 44.88700
N  3.83900 0.66500 43.10400
C  5.19800 0.78700 42.96200
C  5.57600 2.07700 42.26800
C  4.20100 2.93000 42.37700
C  3.17000 1.83400 42.70600
C  4.19500 4.21000 43.26000
C  6.23800 1.91600 40.81700
C  6.04900 0.58900 40.14200
H  6.49900 0.58200 38.70600
N  0.88000 -0.15100 43.20000
C  0.69900 1.09000 42.61700
C  -0.70200 1.25600 42.28500
C  -1.35500 0.05400 42.65800
C  -0.33500 -0.78400 43.28600
C  -1.18700 2.51600 41.70500
C  -2.82400 -0.28100 42.23800
O  -3.50300 0.55400 41.79200
C  -3.45000 -1.70200 42.35600
N  1.71500 -2.91400 44.25800
C  0.40900 -3.08000 44.23300
C  -0.06100 -4.46500 44.71800
C  1.29400 -5.21300 44.70500
C  2.34400 -4.07200 44.58600
C  -0.75500 -4.44200 46.14300
C  1.51600 -6.17600 43.49400
C  1.89900 -7.65800 43.79100
N  4.46500 -1.99400 44.43300
C  4.69300 -3.31900 44.74100
C  6.11800 -3.56500 44.75400
C  6.72700 -2.28400 44.48900
C  5.64000 -1.44800 44.09500
C  6.87000 -4.78500 45.16300
C  7.94500 -1.59300 44.36400
O  9.07900 -1.89900 44.81500
C  7.60000 -0.26000 43.58800
C  8.36800 0.81200 44.34300
O  9.44600 1.30200 43.93900
O  7.72700 1.23000 45.46700
C  8.41000 2.33800 46.29000
H  1.56400 2.97600 42.08400
H  -1.49200 -2.48500 43.82900
H  4.11900 -5.27800 45.00900
H  6.32600 2.52200 42.92100
H  3.77600 3.23100 41.41900
H  3.84300 3.92600 44.25100
H  3.59500 5.01900 42.84300
H  5.22800 4.54000 43.36300
H  7.30900 2.11900 40.84400
H  5.74300 2.67300 40.20800
H  4.99000 0.33200 40.16900
H  6.70100 -0.15700 40.59500
H  -2.24600 2.75500 41.60800
H  -0.77200 2.69900 40.71400
H  -0.87000 3.36400 42.31300
H  -3.48900 -2.05100 43.38800
H  -2.95100 -2.49200 41.79400
H  -4.51100 -1.71600 42.10900
H  -0.73200 -4.76800 43.91500
H  1.51800 -5.75700 45.62200
H  -0.17900 -5.02200 46.86400
H  -1.78300 -4.79600 46.21600
H  -0.52200 -3.40800 46.39600
H  2.40200 -5.73600 43.03700
H  0.62400 -6.00500 42.89100
H  1.07300 -8.24200 43.38600
H  2.02100 -7.78900 44.86600
H  2.75300 -7.88000 43.15200
H  7.79800 -4.90400 44.60300
H  6.18100 -5.62700 45.10700
H  7.19200 -4.65800 46.19700
H  7.94600 -0.38200 42.56200
H  8.49000 2.14300 47.35900
H  7.78800 3.22300 46.15300
H  9.40400 2.62500 45.94800
Mg 25.95900 0.12400 28.69900
C  27.71200 -0.36000 31.72300
C  23.04400 0.52700 30.59300
C  24.22500 0.43700 25.77800
C  28.81800 -0.69700 27.02500
N  25.47800 -0.01400 30.86800
C  26.42000 0.02700 31.91600
C  25.77300 0.34700 33.25700
C  24.18400 0.29900 32.87800
C  24.21700 0.25100 31.34200
C  23.30500 -0.85500 33.56000
C  26.34600 1.62100 34.00600
C  26.99200 1.38100 35.37700
H  26.67700 2.30600 36.55200
N  23.98100 0.45300 28.25400
C  22.89900 0.57000 29.19000
C  21.69400 0.86200 28.42200
C  21.98700 0.80000 27.01900
C  23.43800 0.59100 26.95900
C  20.38900 1.17600 29.11900
C  21.09500 1.04300 25.77200
O  21.43900 0.86900 24.58200
C  19.58500 1.40900 25.99300
N  26.45500 -0.15300 26.74000
C  25.53700 -0.07300 25.68400
C  26.22200 -0.55200 24.42900
C  27.78300 -0.60400 24.80200
C  27.69800 -0.41300 26.26600
C  25.76100 -1.87900 23.86000
C  28.69300 0.51000 24.13300
C  29.99300 -0.03200 23.52800
N  27.98000 -0.47600 29.22900
C  29.01900 -0.74200 28.43900
C  30.24100 -0.96800 29.25300
C  29.77300 -0.82400 30.54300
C  28.36800 -0.57200 30.47300
C  31.63400 -1.16900 28.77400
C  30.08700 -0.87200 31.97700
O  31.15200 -1.14100 32.57300
C  28.74700 -0.45800 32.71800
C  28.45800 -1.50200 33.82500
O  27.90400 -2.54400 33.69800
O  29.22200 -1.23300 34.95800
C  29.11300 -2.14500 36.09400
H  22.15900 0.78200 31.18000
H  23.72500 0.56100 24.81500
H  29.70200 -0.91400 26.42200
H  26.01700 -0.58900 33.75800
H  23.74800 1.22100 33.26400
H  22.77700 -1.47700 32.83800
H  22.52400 -0.21300 33.96900
H  23.86800 -1.42800 34.29700
H  25.49700 2.26100 34.24800
H  27.02100 2.13600 33.32200
H  28.06100 1.48500 35.19100
H  26.73200 0.36800 35.68400
H  20.29300 2.26100 29.14600
H  20.46600 0.86400 30.16100
H  19.58400 0.73400 28.53300
H  19.07000 0.64100 26.57100
H  19.15000 1.57900 25.00800
H  19.62100 2.36100 26.52200
H  26.16200 0.21300 23.65400
H  28.28400 -1.56900 24.71800
H  24.80000 -2.22800 24.23900
H  26.53900 -2.63000 23.99400
H  25.63800 -1.85200 22.77700
H  29.05300 1.28400 24.81000
H  28.17500 0.99400 23.30500
H  29.94600 -0.52000 22.55400
H  30.53700 -0.77700 24.10800
H  30.69100 0.80500 23.55500
H  31.87600 -2.15100 29.18000
H  32.42900 -0.48400 29.06900
H  31.73100 -1.25300 27.69200
H  28.92800 0.49600 33.21500
H  30.05000 -2.18400 36.65000
H  28.76900 -3.14300 35.82300
H  28.35300 -1.69600 36.73300

