158

Mg 53.55700 24.72700 45.69100
C  51.07900 26.93500 44.38400
C  52.08400 22.26600 43.75600
C  56.06600 22.85000 46.47100
C  54.99000 27.54400 47.13600
N  51.87200 24.70800 44.06100
C  51.04900 25.69700 43.72100
C  50.05000 25.24600 42.74700
C  50.24400 23.70100 42.77100
C  51.45000 23.49700 43.61800
C  48.92600 22.83600 43.16200
C  50.07400 25.81000 41.31400
C  51.42600 26.37100 40.92100
H  52.14200 25.53600 39.81000
N  54.04100 22.83100 45.13800
C  53.29700 21.92500 44.51000
C  53.70800 20.56200 44.71400
C  54.85200 20.73900 45.57300
C  55.05700 22.18600 45.76000
C  52.85000 19.37600 44.30700
C  55.68100 19.58200 46.09800
O  55.33000 18.42400 45.89700
C  56.82800 19.78700 46.99400
N  55.31500 25.21200 46.38100
C  56.25500 24.23500 46.69900
C  57.40500 24.75100 47.49300
C  57.14700 26.24000 47.42800
C  55.74000 26.34600 46.95800
C  57.57700 24.16300 48.90400
C  58.27600 26.94600 46.60300
C  57.88400 27.68400 45.25500
N  53.09100 26.84000 45.86400
C  53.71300 27.76000 46.57000
C  52.94800 28.99500 46.61800
C  51.83000 28.68000 45.82400
C  52.00500 27.36500 45.28600
C  53.27000 30.20000 47.42300
C  50.60500 29.21000 45.27300
O  50.08800 30.31100 45.45000
C  50.01000 28.08800 44.40500
C  49.85400 28.66700 43.03000
O  50.74400 29.07200 42.26600
O  48.49900 28.81300 42.81100
C  48.02700 29.35500 41.53000
H  51.64500 21.48000 43.13800
H  56.89700 22.32100 46.94000
H  55.36600 28.45100 47.61400
H  49.05400 25.51600 43.10000
H  50.37600 23.35400 41.74600
H  48.32100 22.73800 42.26100
H  48.30600 23.35700 43.89100
H  49.28400 21.92100 43.63400
H  49.38300 26.64900 41.23500
H  49.84000 25.02900 40.59200
H  52.20400 26.45400 41.68000
H  51.36200 27.36900 40.48700
H  52.78000 19.14900 43.24300
H  51.91700 19.53300 44.84800
H  53.23600 18.52400 44.86600
H  57.18400 18.83100 47.37900
H  56.59500 20.41300 47.85500
H  57.62600 20.27500 46.43400
H  58.30800 24.46800 46.95300
H  57.01300 26.69900 48.40800
H  58.55200 23.67700 48.87800
H  56.68600 23.55500 49.05800
H  57.56000 24.83200 49.76500
H  59.08300 26.24900 46.38100
H  58.66500 27.68300 47.30600
H  56.92200 27.38200 44.84200
H  58.57200 27.42600 44.44900
H  57.90300 28.74200 45.51400
H  53.87500 30.81000 46.75300
H  53.73200 30.02800 48.39500
H  52.39800 30.84000 47.56200
H  49.05100 27.73700 44.78500
H  47.10000 29.90500 41.68900
H  47.79100 28.54300 40.84200
H  48.76900 30.01800 41.08500
Mg 49.33900 45.42500 43.37600
C  45.95900 46.00100 42.48100
C  48.96500 42.18100 42.48400
C  52.66500 45.18400 43.55600
C  49.65700 49.09600 43.70900
N  47.63300 44.30800 42.61900
C  46.33800 44.65900 42.43700
C  45.49700 43.46200 42.04500
C  46.43700 42.29200 42.26300
C  47.76000 42.98900 42.45000
C  46.04200 41.36300 43.38600
C  45.03400 43.43600 40.47900
C  46.10600 43.71900 39.33900
H  46.23000 42.69000 38.20800
N  50.67700 43.83600 43.08100
C  50.28400 42.60800 42.65000
C  51.47300 41.75100 42.65200
C  52.61600 42.54800 43.12200
C  52.05100 43.90900 43.25500
C  51.46400 40.23000 42.27800
C  54.06500 42.05600 43.40600
O  54.25000 40.82000 43.37300
C  55.28900 42.97600 43.66300
N  50.91500 47.00700 43.61000
C  52.22000 46.50900 43.69300
C  53.15000 47.73000 44.01200
C  52.23000 48.95800 43.82000
C  50.80900 48.32600 43.79000
C  53.71000 47.61600 45.42900
C  52.44800 49.84200 42.52100
C  53.03000 51.25800 42.74500
N  48.11300 47.28700 43.13600
C  48.36200 48.60600 43.31400
C  47.11600 49.37300 43.04400
C  46.11900 48.41000 42.68500
C  46.81000 47.14800 42.77700
C  46.92700 50.89900 43.06900
C  44.73900 48.15600 42.42300
O  43.83100 48.92600 42.33800
C  44.66900 46.59300 42.11400
C  43.47700 45.96900 42.78900
O  42.50000 45.54000 42.24400
O  43.54000 46.32000 44.15800
C  42.31000 46.07600 44.89900
H  48.75300 41.12500 42.30500
H  53.74200 45.07900 43.70400
H  49.72000 50.18400 43.78500
H  44.60100 43.54700 42.65900
H  46.58000 41.74100 41.33400
H  45.35100 41.93800 44.00200
H  46.94800 40.96800 43.84600
H  45.44800 40.50200 43.07900
H  44.23000 44.17100 40.42500
H  44.51700 42.51100 40.22300
H  47.06800 43.77600 39.84800
H  45.94400 44.70900 38.91300
H  50.51400 40.01500 41.78900
H  51.44900 39.56900 43.14400
H  52.30500 40.03400 41.61300
H  55.14900 43.81700 42.98400
H  56.18100 42.43000 43.35500
H  55.34200 43.15400 44.73700
H  54.00900 47.67200 43.34300
H  52.34000 49.52300 44.74500
H  53.56300 48.45500 46.10800
H  54.78700 47.56700 45.26800
H  53.32800 46.68700 45.85100
H  51.53000 49.92900 41.93900
H  53.13800 49.24800 41.92200
H  53.36400 51.28800 43.78200
H  52.34000 52.06600 42.50000
H  53.91800 51.43700 42.13900
H  47.40100 51.53000 43.82100
H  45.85700 51.04000 42.92100
H  47.43300 51.18700 42.14700
H  44.48200 46.43400 41.05200
H  41.97500 45.04000 44.86100
H  41.55300 46.78200 44.55700
H  42.52800 46.37700 45.92400

