158

Mg 8.34700 3.10000 28.28000
C  9.86200 1.58600 30.99200
C  6.35300 4.72900 30.33900
C  6.62600 4.21700 25.58700
C  10.07700 0.88200 26.10400
N  8.17000 3.17400 30.46200
C  8.95400 2.57400 31.34300
C  8.56500 3.02100 32.80800
C  7.21600 3.87100 32.58700
C  7.24200 3.94700 31.00600
C  5.78100 3.38100 33.09400
C  9.72900 3.75500 33.50900
C  9.34600 4.54400 34.66100
H  10.02200 4.29300 35.99300
N  6.76600 4.36800 27.97100
C  6.09100 5.01500 29.01900
C  5.10700 5.87200 28.49700
C  5.08400 5.69600 27.09300
C  6.12500 4.71100 26.83100
C  4.39000 6.94800 29.31400
C  4.30000 6.41000 26.08600
O  4.45900 6.32400 24.89900
C  3.24000 7.42200 26.47900
N  8.14200 2.41900 26.17700
C  7.51600 3.21300 25.23900
C  7.82000 2.84900 23.80200
C  8.89300 1.68300 23.95500
C  9.08300 1.66800 25.50000
C  6.63100 2.40600 22.83800
C  10.16200 2.03700 23.07200
C  11.17300 3.09100 23.67000
N  9.79500 1.52600 28.44300
C  10.43500 0.79100 27.50000
C  11.37600 -0.05200 28.18700
C  11.19500 0.28700 29.54600
C  10.28000 1.23000 29.63800
C  12.26300 -1.03000 27.58600
C  11.64800 -0.08200 30.86600
O  12.48100 -0.87500 31.20100
C  10.82300 0.76500 31.95000
C  9.97900 -0.18200 32.61300
O  8.93500 -0.71400 32.16800
O  10.46800 -0.48000 33.79700
C  9.53600 -1.00100 34.80100
H  5.80600 5.38700 31.01700
H  6.14100 4.68100 24.72600
H  10.70000 0.31300 25.41100
H  8.36600 2.09000 33.33800
H  7.44200 4.85300 33.00200
H  5.45400 4.26700 33.63800
H  5.96400 2.57200 33.80100
H  5.19300 3.02200 32.24900
H  10.28700 4.31300 32.75800
H  10.38900 2.97600 33.89000
H  8.30500 4.41100 34.95600
H  9.36200 5.58800 34.34900
H  4.64500 7.05300 30.36800
H  3.33200 6.78200 29.11200
H  4.58300 7.94600 28.92100
H  2.61000 7.73300 25.64600
H  3.75600 8.31300 26.83600
H  2.64400 6.99700 27.28700
H  8.31900 3.68000 23.30400
H  8.55600 0.70600 23.60800
H  5.69100 2.40200 23.39100
H  6.76500 1.47900 22.28100
H  6.53000 3.09700 22.00200
H  9.80700 2.39900 22.10700
H  10.73400 1.11100 23.01300
H  11.94700 2.56100 24.22500
H  10.68000 3.78900 24.34700
H  11.67400 3.59800 22.84500
H  12.68100 -0.63700 26.65900
H  11.70500 -1.94900 27.40400
H  13.04700 -1.30800 28.29000
H  11.58900 1.25700 32.54900
H  8.59300 -0.45600 34.75200
H  9.87500 -0.73400 35.80200
H  9.40600 -2.07600 34.67600
Mg 17.12200 -1.54900 28.04800
C  16.15500 0.48800 30.81500
C  19.31200 -3.19400 30.25000
C  18.61400 -3.01900 25.37200
C  15.45800 0.53300 25.89900
N  17.87300 -1.28200 30.27800
C  17.09400 -0.54000 31.22200
C  17.43600 -0.99000 32.65400
C  18.50100 -2.09000 32.43400
C  18.56200 -2.24200 30.90900
C  19.97600 -1.72000 32.89200
C  16.23100 -1.60400 33.42100
C  16.01300 -1.25000 34.92200
H  17.15300 -0.71500 35.76700
N  18.69900 -2.90000 27.86500
C  19.44100 -3.48200 28.89000
C  20.23000 -4.54300 28.35100
C  19.93900 -4.60100 26.94500
C  19.05700 -3.48300 26.66500
C  21.23800 -5.44700 29.13900
C  20.52700 -5.60500 25.87500
O  20.21500 -5.45600 24.67400
C  21.39900 -6.77500 26.19000
N  17.10000 -1.33100 25.85500
C  17.82900 -1.92700 25.01100
C  17.56100 -1.53100 23.50400
C  16.32800 -0.63100 23.75800
C  16.30300 -0.37700 25.26600
C  18.79500 -0.79600 22.81400
C  14.94800 -1.27100 23.28400
C  13.91700 -0.27100 22.93700
N  15.88700 0.02600 28.31000
C  15.31600 0.79800 27.26900
C  14.49900 1.81000 27.93100
C  14.77000 1.73100 29.26300
C  15.64000 0.66300 29.48800
C  13.66400 2.72700 27.17500
C  14.57500 2.32800 30.61000
O  13.87900 3.21200 30.97200
C  15.28300 1.43000 31.61800
C  16.00600 2.24500 32.55600
O  17.18300 2.63800 32.48300
O  15.17800 2.48000 33.68200
C  15.72400 3.31500 34.77400
H  19.78000 -3.85900 30.97900
H  19.10900 -3.27500 24.43300
H  14.77700 1.16400 25.32500
H  17.77000 -0.13600 33.24300
H  18.16700 -2.99000 32.95000
H  20.72600 -1.70000 32.10200
H  20.29300 -2.52400 33.55600
H  20.00100 -0.73000 33.34700
H  16.31000 -2.69100 33.41100
H  15.35800 -1.34200 32.82300
H  15.63500 -2.16900 35.37100
H  15.11700 -0.64600 35.06700
H  20.84900 -6.45600 29.27800
H  21.18700 -5.08400 30.16500
H  22.28200 -5.44300 28.82500
H  21.62000 -7.34800 25.29000
H  21.04300 -7.39900 27.00900
H  22.30800 -6.25800 26.49700
H  17.30700 -2.49100 23.05600
H  16.43500 0.37100 23.34200
H  19.42300 -1.39800 22.15800
H  19.45700 -0.57200 23.65000
H  18.40400 0.11400 22.35800
H  14.64300 -1.96600 24.06600
H  15.20600 -1.84800 22.39500
H  13.06000 -0.35700 23.60500
H  13.63500 -0.36900 21.88900
H  14.42200 0.69500 22.94300
H  13.29500 3.50800 27.83900
H  12.82600 2.28700 26.63400
H  14.28500 3.02600 26.33100
H  14.59800 0.79700 32.18200
H  14.93600 3.95800 35.16500
H  16.44100 4.04800 34.40300
H  16.31000 2.88100 35.58500

