158

Mg 24.89200 -6.51500 47.94900
C  27.31700 -4.32400 46.81800
C  22.64600 -5.23600 45.60700
C  22.96500 -9.15200 48.69100
C  27.48700 -8.06300 50.12100
N  25.00800 -4.90200 46.52100
C  26.06900 -4.12400 46.17600
C  25.68700 -3.12800 45.09600
C  24.17800 -3.34900 44.85200
C  23.89500 -4.54600 45.76700
C  23.24400 -2.07700 45.05400
C  26.57900 -3.22400 43.78700
C  27.39800 -1.99400 43.31700
H  27.01500 -1.50100 41.89400
N  22.98600 -7.04600 47.24500
C  22.24800 -6.40400 46.35700
C  20.97600 -7.10000 46.29700
C  21.04500 -8.28600 47.10100
C  22.37200 -8.20200 47.73000
C  19.89500 -6.60000 45.36700
C  19.87700 -9.33300 47.29400
O  18.89200 -9.34200 46.57200
C  19.98600 -10.50500 48.31500
N  25.14700 -8.26500 49.27900
C  24.15600 -9.10900 49.41200
C  24.35000 -10.23300 50.44000
C  25.77800 -9.85600 50.94900
C  26.19500 -8.66700 50.06700
C  23.24500 -10.37400 51.49900
C  26.74000 -11.10500 50.95800
C  27.10000 -11.57400 52.36600
N  26.99000 -6.30100 48.45200
C  27.81700 -6.92100 49.35900
C  29.06800 -6.15900 49.36000
C  28.90900 -5.13600 48.41700
C  27.66500 -5.31700 47.80300
C  30.40200 -6.54800 50.18800
C  29.55500 -3.96100 47.86300
O  30.67000 -3.51300 48.07300
C  28.55700 -3.47900 46.77500
C  28.19100 -2.04700 47.18800
O  27.41600 -1.77200 48.06900
O  28.91700 -1.12700 46.38100
C  28.59300 0.28700 46.72300
H  22.02000 -4.91300 44.77300
H  22.34600 -10.01000 48.96400
H  28.24600 -8.36200 50.84700
H  25.74400 -2.17700 45.62600
H  23.96500 -3.70400 43.84400
H  23.25500 -1.54500 44.10300
H  23.70900 -1.44300 45.80900
H  22.23100 -2.26700 45.40800
H  25.85200 -3.34200 42.98400
H  27.07900 -4.19100 43.73100
H  28.46000 -2.24100 43.31100
H  27.24200 -1.15000 43.98900
H  19.93600 -5.51000 45.38800
H  18.91400 -6.91000 45.72600
H  20.16600 -6.93400 44.36600
H  20.67100 -11.19000 47.81500
H  18.95700 -10.86600 48.29800
H  20.27500 -10.11400 49.29100
H  24.34100 -11.16100 49.86900
H  25.51900 -9.42000 51.91400
H  23.66300 -10.30000 52.50200
H  22.70400 -11.32100 51.52200
H  22.48200 -9.60200 51.39200
H  27.60200 -10.88600 50.32900
H  26.18200 -11.90000 50.46400
H  26.80600 -10.97300 53.22600
H  28.18200 -11.55100 52.49300
H  26.84700 -12.62300 52.52000
H  30.26100 -6.14200 51.18900
H  31.26300 -6.24200 49.59300
H  30.45900 -7.63500 50.22700
H  28.95200 -3.42900 45.76000
H  28.84200 0.31600 47.78400
H  27.51200 0.40800 46.66000
H  29.00600 0.96300 45.97500
Mg 25.81200 0.77600 29.31200
C  27.73300 0.55500 32.15900
C  22.99100 0.99600 30.99300
C  24.01500 0.25600 26.32400
C  28.73300 0.08500 27.37900
N  25.40500 0.56100 31.34700
C  26.32000 0.64400 32.40100
C  25.59400 0.65500 33.76400
C  24.07900 0.77300 33.28700
C  24.14800 0.74700 31.77900
C  23.05300 -0.27000 33.81700
C  26.20500 2.02800 34.40200
C  25.29700 2.91300 35.19600
H  26.02500 3.40800 36.55300
N  23.78300 0.71800 28.73300
C  22.76400 0.84600 29.62400
C  21.46700 0.52900 28.98400
C  21.78200 0.26600 27.60300
C  23.18300 0.45900 27.49500
C  20.16700 0.46600 29.73600
C  20.86700 -0.03800 26.42100
O  21.22600 -0.36700 25.25600
C  19.36500 -0.06600 26.66200
N  26.30000 0.31800 27.11800
C  25.37700 0.12900 26.14900
C  25.99600 0.00100 24.72800
C  27.54800 0.13300 25.09000
C  27.57600 0.19800 26.62500
C  25.61800 -1.24900 23.81800
C  28.32400 1.24700 24.39000
C  28.27200 2.64000 24.99800
N  27.78600 0.43700 29.61000
C  28.85900 0.18400 28.77400
C  30.07600 0.02900 29.55700
C  29.65200 0.20600 30.89100
C  28.26600 0.38600 30.88400
C  31.40800 -0.34900 28.94600
C  30.15100 0.24900 32.21500
O  31.25800 0.05000 32.62400
C  28.93100 0.57300 33.09500
C  28.76200 -0.41600 34.29100
O  28.14600 -1.42500 34.31000
O  29.41100 0.17700 35.33900
C  29.35900 -0.59700 36.57900
H  22.12100 1.25800 31.59800
H  23.40900 0.34500 25.42000
H  29.63000 -0.16700 26.80900
H  25.77400 -0.23100 34.37300
H  23.63700 1.74700 33.49400
H  22.66200 -0.84900 32.97900
H  22.28600 0.41300 34.18400
H  23.58100 -0.82500 34.59200
H  26.49000 2.73200 33.62100
H  26.97400 1.74200 35.12000
H  24.51200 2.23000 35.52100
H  24.90900 3.68200 34.52800
H  20.24500 0.86000 30.74900
H  19.92500 -0.58100 29.91900
H  19.35300 0.93300 29.18200
H  18.88800 -0.24200 25.69800
H  19.04200 0.91700 27.00600
H  19.07200 -0.90900 27.28800
H  25.71300 0.88000 24.14800
H  27.93800 -0.82700 24.75300
H  26.35300 -2.05200 23.87500
H  25.47300 -0.92500 22.78700
H  24.65700 -1.65200 24.14000
H  28.04800 1.18000 23.33700
H  29.36800 0.93400 24.39700
H  27.38600 3.07300 24.53500
H  29.12300 3.31400 24.90000
H  28.04100 2.66800 26.06300
H  32.29200 0.28800 28.93700
H  31.24100 -0.90000 28.02000
H  31.73200 -1.24700 29.47200
H  29.07100 1.58000 33.48800
H  29.43700 -1.68400 36.57900
H  28.45000 -0.38100 37.14000
H  30.21500 -0.33100 37.19900

