158

Mg 26.85300 50.13100 26.09400
C  24.79900 51.26700 28.94500
C  29.28000 49.28100 28.39500
C  28.64200 49.14100 23.48400
C  24.46500 51.69800 24.08600
N  26.91100 50.08300 28.40600
C  25.94500 50.53600 29.35800
C  26.50900 50.28900 30.76700
C  28.01500 49.99400 30.58600
C  28.11100 49.78400 29.05700
C  29.06900 50.90500 31.32400
C  25.60400 49.19900 31.50800
C  25.00700 49.50900 32.88400
H  25.62800 50.39400 33.98800
N  28.68900 49.27000 25.94900
C  29.55000 49.02600 26.97800
C  30.67000 48.23500 26.43000
C  30.53100 48.21700 25.01100
C  29.26600 48.89500 24.74800
C  31.73900 47.54500 27.21700
C  31.38400 47.46300 23.87800
O  31.08700 47.53400 22.69000
C  32.45000 46.49200 24.20400
N  26.50700 50.43400 24.14500
C  27.45400 49.85100 23.27600
C  26.85500 49.91100 21.86000
C  25.57000 50.80600 21.91400
C  25.46800 51.00500 23.43300
C  27.78700 50.42500 20.71700
C  24.25100 50.30700 21.32800
C  23.73600 48.93000 21.76600
N  25.01300 51.19600 26.42200
C  24.22000 51.78600 25.45700
C  23.04400 52.36100 26.03900
C  23.26100 52.14900 27.44400
C  24.47400 51.41400 27.61800
C  21.97700 52.97500 25.19700
C  22.69900 52.50800 28.69700
O  21.71500 53.24100 28.92100
C  23.66200 51.84700 29.71200
C  24.02800 52.94400 30.63200
O  24.93300 53.77900 30.38500
O  23.32800 52.94400 31.81200
C  23.75100 54.02200 32.76100
H  30.01200 48.95200 29.13500
H  29.15800 48.76800 22.59800
H  23.69800 52.08600 23.41200
H  26.40500 51.29100 31.18500
H  28.21200 49.05300 31.09900
H  28.44500 51.75700 31.59500
H  29.81300 51.22400 30.59300
H  29.45700 50.33800 32.17000
H  26.23900 48.33500 31.70400
H  24.88900 48.95500 30.72300
H  24.94300 48.50400 33.30000
H  23.97700 49.83700 32.74400
H  31.95000 48.09500 28.13400
H  32.68100 47.76000 26.71200
H  31.56400 46.47200 27.30300
H  33.35000 47.06800 24.41800
H  32.55500 45.85000 23.32900
H  32.27300 45.89400 25.09700
H  26.53800 48.89600 21.61900
H  25.83300 51.80000 21.55100
H  28.70200 50.80200 21.17400
H  27.29800 51.22600 20.16300
H  28.10200 49.65500 20.01300
H  24.26300 50.09400 20.25900
H  23.52500 51.11600 21.40900
H  22.65800 49.04500 21.87400
H  24.21700 48.60500 22.68800
H  23.81100 48.18400 20.97400
H  21.34400 52.20400 24.75700
H  22.48300 53.59000 24.45300
H  21.50400 53.68500 25.87500
H  22.96700 51.12500 30.14100
H  24.17200 54.90000 32.27200
H  24.30900 53.59400 33.59500
H  22.78800 54.29300 33.19300
Mg -2.66600 34.87500 26.90100
C  -4.32700 33.14200 29.52900
C  -1.81200 37.30000 29.02700
C  -1.20100 36.39000 24.24800
C  -4.26900 32.66900 24.64700
N  -3.09400 35.25800 29.07500
C  -3.67200 34.30500 29.94900
C  -3.33700 34.77400 31.34000
C  -2.74600 36.20200 31.21100
C  -2.51700 36.31900 29.69100
C  -3.73300 37.39300 31.60700
C  -2.47400 33.76200 32.07900
C  -3.27400 33.06400 33.26800
H  -2.28100 32.99000 34.59100
N  -1.57400 36.57200 26.66400
C  -1.36000 37.48200 27.70600
C  -0.50900 38.53800 27.17100
C  -0.41100 38.36500 25.74100
C  -1.13900 37.05100 25.50600
C  0.14400 39.63100 28.00800
C  0.21000 39.27000 24.67700
O  0.11500 39.01100 23.50000
C  1.00000 40.46000 25.02500
N  -2.81100 34.63200 24.77400
C  -2.02100 35.32100 23.87700
C  -2.09900 34.73900 22.47800
C  -2.84800 33.36400 22.73800
C  -3.37100 33.55100 24.16200
C  -2.77400 35.76600 21.53000
C  -2.13800 31.96200 22.73000
C  -0.93900 31.65800 23.66200
N  -3.97300 33.21100 27.01300
C  -4.57900 32.47700 26.02900
C  -5.22100 31.38600 26.55400
C  -5.26700 31.56100 27.93700
C  -4.46000 32.75000 28.15700
C  -5.98400 30.33800 25.69700
C  -5.67000 31.13600 29.29800
O  -6.34700 30.21900 29.72600
C  -5.02800 32.10700 30.34200
C  -6.11700 32.66500 31.19300
O  -6.75000 33.71600 30.98400
O  -6.26300 31.89900 32.37200
C  -7.41700 32.29200 33.22600
H  -1.30700 38.01400 29.68000
H  -0.53600 36.73100 23.45200
H  -4.60700 31.87800 23.97500
H  -4.32300 35.01100 31.74000
H  -1.81900 36.37700 31.75800
H  -4.14600 37.91500 30.74400
H  -3.20000 38.16300 32.16400
H  -4.47700 37.08200 32.34100
H  -1.61000 34.28100 32.49500
H  -2.16200 32.92600 31.45300
H  -3.57100 32.07900 32.90900
H  -4.17500 33.65300 33.43500
H  0.11100 39.36800 29.06500
H  -0.39400 40.54700 27.76700
H  1.20800 39.70700 27.78300
H  1.79100 40.01800 25.63000
H  0.27500 40.97100 25.65900
H  1.41300 40.94900 24.14300
H  -1.07400 34.59600 22.13900
H  -3.71700 33.22600 22.09400
H  -2.82700 36.77100 21.94800
H  -3.80600 35.47600 21.33500
H  -2.21300 35.87400 20.60100
H  -1.70400 31.76200 21.75000
H  -2.85800 31.14500 22.77100
H  -1.35800 30.87600 24.29600
H  -0.68800 32.59100 24.16600
H  -0.07700 31.22700 23.15300
H  -5.54400 30.20400 24.70900
H  -7.03600 30.61700 25.63500
H  -5.92900 29.36300 26.18100
H  -4.27700 31.61800 30.96100
H  -8.25800 32.68400 32.65300
H  -7.15400 33.17800 33.80400
H  -7.64600 31.50600 33.94500

