158

Mg 41.06000 8.92000 29.72000
C  42.93600 10.04900 32.38600
C  38.87500 7.41400 31.95600
C  39.42700 7.68400 27.05800
C  43.69700 9.90600 27.69000
N  41.08500 8.55200 31.98500
C  41.78000 9.32400 32.78700
C  41.18400 9.35600 34.25100
C  40.04600 8.32600 34.08400
C  39.95000 8.10800 32.59100
C  40.17000 7.01300 34.89800
C  40.69100 10.76300 34.70700
C  40.09200 10.78100 36.11700
H  40.73400 11.66500 37.19100
N  39.26700 7.77900 29.57200
C  38.57800 7.21300 30.61400
C  37.49900 6.49100 30.04000
C  37.62800 6.57900 28.64500
C  38.81200 7.37100 28.39000
C  36.45800 5.80300 30.83300
C  36.67700 6.13900 27.55700
O  36.89700 6.28700 26.38200
C  35.25200 5.58400 27.92400
N  41.59600 8.68100 27.82900
C  40.71600 8.25800 26.85800
C  41.41400 8.11500 25.44600
C  42.51400 9.23700 25.61000
C  42.60300 9.27600 27.11800
C  41.83300 6.54900 25.22300
C  42.16200 10.49300 24.80200
C  41.71400 11.65800 25.60200
N  42.95400 9.79100 29.95500
C  43.93300 10.12300 29.05000
C  45.10900 10.64900 29.69600
C  44.72100 10.76800 30.97800
C  43.43700 10.17800 31.07100
C  46.33600 11.16700 29.04000
C  45.05300 11.18600 32.30500
O  46.08500 11.68700 32.78700
C  43.86100 10.84000 33.24900
C  44.36900 10.04600 34.41900
O  44.80400 8.88500 34.45100
O  44.28200 10.74500 35.55300
C  44.93800 10.25800 36.74000
H  38.03800 7.14100 32.60200
H  38.88300 7.38800 26.15800
H  44.52000 10.25700 27.06400
H  42.02900 9.09700 34.88900
H  39.03300 8.67600 34.28600
H  40.80500 6.31400 34.35300
H  39.16500 6.63900 35.09100
H  40.59100 7.20800 35.88400
H  39.96600 11.23100 34.04000
H  41.48800 11.50600 34.73300
H  39.88500 9.77700 36.48500
H  39.15000 11.31100 35.97300
H  36.63000 5.74100 31.90700
H  36.24100 4.79200 30.48900
H  35.57100 6.41700 30.67600
H  34.73200 6.35400 28.49300
H  35.32100 4.71900 28.58400
H  34.67700 5.38700 27.01800
H  40.66700 8.26700 24.66700
H  43.46700 8.82800 25.27500
H  41.19800 5.92600 25.85300
H  42.88000 6.33600 25.43800
H  41.62900 6.22100 24.20400
H  41.31000 10.35100 24.13700
H  43.08600 10.58700 24.23100
H  42.47600 12.36400 25.93100
H  41.23400 11.33500 26.52500
H  40.94300 12.25700 25.11700
H  45.97500 11.78800 28.21900
H  46.92900 10.36200 28.60600
H  46.88800 11.63500 29.85500
H  43.37000 11.75100 33.59000
H  45.79200 10.92300 36.86700
H  45.11100 9.18800 36.85200
H  44.30400 10.49800 37.59300
Mg -10.35700 17.00500 40.89800
C  -6.88400 16.42300 40.73800
C  -9.69900 20.20900 40.44200
C  -13.62200 17.41100 40.44400
C  -10.89300 13.52600 40.89900
N  -8.44400 18.16900 40.82200
C  -7.20700 17.74400 40.59300
C  -6.24200 18.98600 40.45000
C  -7.14400 20.19700 40.84300
C  -8.51400 19.52300 40.79700
C  -6.88900 20.74800 42.22400
C  -5.65600 19.05900 38.98100
C  -4.20600 18.51600 38.84600
H  -3.86100 17.68200 37.59800
N  -11.50700 18.55400 40.35400
C  -11.05100 19.83400 40.24100
C  -12.17400 20.65000 39.92900
C  -13.33600 19.86200 39.89400
C  -12.87300 18.57800 40.24300
C  -12.11500 22.10500 39.60200
C  -14.78500 20.37600 39.58800
O  -14.95700 21.55600 39.20600
C  -15.97100 19.50000 39.67300
N  -11.99200 15.67300 40.76600
C  -13.23400 16.11800 40.67900
C  -14.31800 15.00100 40.75300
C  -13.35900 13.72000 40.62600
C  -11.94800 14.34400 40.77500
C  -15.06400 15.16500 42.09000
C  -13.46400 12.92100 39.23400
C  -12.90200 13.64500 38.03100
N  -9.15900 15.26200 40.97800
C  -9.51700 13.92700 41.08100
C  -8.25400 13.14500 41.24100
C  -7.21800 14.05000 40.98000
C  -7.81300 15.36300 40.92200
C  -8.22000 11.66900 41.31900
C  -5.74800 14.27100 40.85000
O  -4.79900 13.48000 40.85000
C  -5.55400 15.76700 40.76800
C  -4.86700 16.13200 42.04100
O  -3.93200 16.91400 42.15900
O  -5.54000 15.44200 43.05300
C  -5.22900 15.63800 44.45300
H  -9.59000 21.27400 40.22500
H  -14.69000 17.41200 40.21700
H  -11.07800 12.45200 40.96900
H  -5.34800 18.94300 41.07200
H  -7.15200 21.01100 40.11800
H  -6.06500 21.45900 42.16100
H  -6.57600 19.97500 42.92600
H  -7.78800 20.99200 42.79000
H  -5.71500 20.04200 38.51400
H  -6.25400 18.37100 38.38400
H  -3.78900 18.10300 39.76500
H  -3.71600 19.48600 38.75400
H  -12.69000 22.32400 38.70200
H  -11.16300 22.62700 39.70200
H  -12.77100 22.57400 40.33600
H  -16.88300 20.08100 39.53000
H  -15.95400 19.12000 40.69500
H  -15.84000 18.62700 39.03400
H  -14.99400 15.08600 39.90200
H  -13.58500 13.00300 41.41500
H  -16.01700 15.61700 41.81400
H  -14.55600 15.93400 42.67200
H  -15.24900 14.25200 42.65700
H  -14.51800 12.64600 39.17900
H  -12.94600 11.98700 39.45400
H  -13.44200 13.48400 37.09800
H  -11.84300 13.47800 37.83100
H  -12.86300 14.71400 38.23900
H  -7.26700 11.26700 40.97500
H  -8.98200 11.33100 40.61700
H  -8.27000 11.30300 42.34500
H  -4.88300 16.02000 39.94700
H  -5.43800 14.73100 45.02100
H  -5.89800 16.43100 44.78900
H  -4.24000 16.04400 44.66300

