158

Mg 47.28000 17.26100 28.26500
C  45.43600 16.82000 31.36500
C  49.58900 18.99400 30.14800
C  48.97000 17.74500 25.36300
C  44.62000 15.84400 26.61900
N  47.49000 17.68600 30.53800
C  46.68600 17.44900 31.55000
C  47.17100 18.08400 32.89200
C  48.32800 18.95900 32.38600
C  48.44200 18.62200 30.93200
C  48.08000 20.46800 32.54600
C  47.74600 16.93500 33.86800
C  47.42800 17.28900 35.33300
H  47.31600 18.75200 35.76500
N  49.01400 18.31500 27.80800
C  49.85300 18.90200 28.74900
C  51.06900 19.32200 28.05600
C  50.91700 18.95700 26.64800
C  49.60000 18.34200 26.53000
C  52.30200 19.83500 28.79100
C  51.83900 19.14300 25.46000
O  51.49000 18.82700 24.35000
C  53.20900 19.68200 25.63400
N  46.81300 16.92700 26.27900
C  47.66200 17.15800 25.27200
C  46.94100 16.96000 23.92200
C  45.63500 16.13700 24.28500
C  45.66200 16.31600 25.80500
C  46.78700 18.22200 23.07700
C  45.72600 14.56900 23.91100
C  45.05100 14.19600 22.59900
N  45.43600 16.44700 28.77500
C  44.52600 15.86100 27.98300
C  43.47400 15.38100 28.77400
C  43.81200 15.66700 30.18000
C  44.97700 16.42300 30.05000
C  42.24700 14.63300 28.21300
C  43.38800 15.56400 31.52600
O  42.42300 14.96500 31.97800
C  44.44500 16.33300 32.37000
C  43.83400 17.43300 33.12700
O  43.30600 18.47200 32.68700
O  43.80100 16.98600 34.39500
C  43.22800 17.95600 35.32200
H  50.29600 19.58200 30.73700
H  49.45100 17.89000 24.39300
H  43.75000 15.35900 26.17000
H  46.38300 18.58100 33.45800
H  49.24300 18.80600 32.95900
H  47.22500 20.63800 33.20100
H  47.84500 20.86700 31.55900
H  48.94400 20.92400 33.02800
H  48.83100 16.99300 33.78400
H  47.29900 16.02200 33.47400
H  48.28700 16.89000 35.87400
H  46.52300 16.74900 35.61300
H  52.11900 20.90100 28.92900
H  53.25200 19.64500 28.29100
H  52.34800 19.39900 29.78900
H  53.68000 19.82400 24.66100
H  53.96700 18.99300 26.00600
H  53.27700 20.64600 26.13700
H  47.58200 16.40700 23.23500
H  44.74000 16.62500 23.90000
H  47.45900 18.10500 22.22600
H  46.99600 19.16700 23.57700
H  45.73000 18.35100 22.84400
H  45.58500 13.84300 24.71100
H  46.79500 14.53300 23.69800
H  45.79700 13.80700 21.90600
H  44.57000 15.08900 22.19700
H  44.23400 13.49000 22.74500
H  41.58200 14.54000 29.07100
H  42.41000 13.64900 27.77400
H  41.69900 15.18800 27.45200
H  44.89800 15.58800 33.02500
H  43.58500 18.96000 35.09200
H  43.50500 17.77600 36.36100
H  42.13900 18.00400 35.31800
Mg 49.88300 46.31600 43.48700
C  46.68500 47.03700 42.15200
C  49.69600 43.27500 42.06300
C  53.08300 45.97300 44.04800
C  50.12800 49.85200 44.19600
N  48.32700 45.32800 42.23800
C  47.10900 45.77000 41.87200
C  46.35100 44.68300 41.04400
C  47.21500 43.42900 41.31200
C  48.46300 44.02500 41.97600
C  46.62500 42.25500 42.16700
C  46.29200 45.13900 39.57000
C  45.09000 44.80100 38.66200
H  45.32400 43.71900 37.59500
N  51.17300 44.80200 43.14200
C  50.95100 43.60300 42.59400
C  52.09100 42.78400 42.57700
C  53.10800 43.55200 43.27000
C  52.44800 44.86100 43.47900
C  52.03600 41.43600 41.93800
C  54.53300 42.99100 43.53200
O  54.84000 41.78600 43.31600
C  55.60300 43.84900 44.18800
N  51.40200 47.72700 43.96600
C  52.69100 47.31400 44.19000
C  53.63400 48.45000 44.51000
C  52.59600 49.58900 44.83800
C  51.26700 49.07300 44.26400
C  54.58100 48.20000 45.69700
C  53.03100 50.94100 44.26800
C  52.81500 52.22100 45.13900
N  48.66300 48.11500 43.31600
C  48.87400 49.41900 43.70700
C  47.75400 50.25300 43.33300
C  46.85400 49.35200 42.81200
C  47.52500 48.04200 42.70800
C  47.55500 51.74600 43.43700
C  45.55400 49.23900 42.28700
O  44.75300 50.15700 42.07000
C  45.49000 47.76000 41.76600
C  44.32000 47.13600 42.48500
O  44.06200 47.24200 43.70500
O  43.70800 46.20700 41.71000
C  42.55100 45.51100 42.25700
H  49.57800 42.28100 41.62800
H  54.13500 45.76400 44.25000
H  50.32000 50.91000 44.38500
H  45.35300 44.44500 41.41400
H  47.39500 43.06800 40.29900
H  46.47200 41.32200 41.62500
H  45.72400 42.62500 42.65700
H  47.35600 41.97600 42.92600
H  47.16800 44.76700 39.03800
H  46.41700 46.22200 39.55000
H  44.79200 45.81400 38.38800
H  44.24400 44.47000 39.26400
H  51.26400 40.81900 42.39800
H  52.88200 40.80800 42.21700
H  51.93200 41.46800 40.85300
H  55.91600 44.70800 43.59400
H  56.47000 43.21500 44.37400
H  55.27800 44.20300 45.16700
H  54.18900 48.69400 43.60500
H  52.37900 49.56400 45.90600
H  54.55200 47.12100 45.84900
H  54.23000 48.56300 46.66300
H  55.60800 48.50300 45.49100
H  52.36500 51.19200 43.44200
H  54.05500 50.88800 43.89600
H  52.86400 51.98800 46.20300
H  51.86500 52.72900 44.97700
H  53.58300 52.94300 44.85800
H  46.61400 52.06300 43.88600
H  47.62600 52.14300 42.42400
H  48.28300 52.25200 44.07100
H  45.26900 47.74900 40.69800
H  42.25900 45.93000 43.22000
H  42.85200 44.46600 42.33500
H  41.70800 45.61700 41.57500

