158

Mg 8.42500 3.05600 27.42200
C  9.34900 1.45500 30.29700
C  6.50000 5.15100 29.28400
C  7.00400 4.39300 24.59100
C  9.77200 0.50000 25.59800
N  8.02200 3.23600 29.54100
C  8.62700 2.59000 30.54000
C  8.18500 3.16500 31.94500
C  7.05100 4.11500 31.59200
C  7.15700 4.14600 30.04800
C  5.65200 3.79600 32.21600
C  9.36600 3.70100 32.86200
C  8.82600 4.43600 34.16500
H  9.74000 4.25400 35.40700
N  7.14500 4.70000 26.94400
C  6.48700 5.39300 27.90000
C  5.83700 6.46000 27.26100
C  6.03900 6.40800 25.86400
C  6.71400 5.12100 25.72500
C  4.95600 7.42400 28.02200
C  5.64900 7.40400 24.80500
O  5.74600 7.16600 23.62400
C  5.14700 8.81200 25.20200
N  8.27200 2.46800 25.38400
C  7.59500 3.13700 24.40200
C  7.90500 2.57600 22.98800
C  8.72500 1.25800 23.41300
C  8.97400 1.38900 24.92800
C  6.56900 2.28100 22.20500
C  10.04100 1.27300 22.59900
C  10.67400 -0.07000 22.16500
N  9.37700 1.37600 27.86200
C  9.90400 0.45000 27.00600
C  10.66300 -0.64000 27.75400
C  10.41300 -0.23900 29.13700
C  9.68300 0.95600 29.08500
C  11.36900 -1.81900 27.20800
C  10.59100 -0.55600 30.52300
O  11.21100 -1.54700 30.97200
C  9.81700 0.53700 31.38400
C  8.73600 -0.14100 32.12300
O  7.56800 -0.21000 31.74100
O  9.19900 -0.67000 33.30100
C  8.25100 -1.57400 33.98400
H  5.91200 5.86100 29.87100
H  6.61900 4.79100 23.65000
H  10.23500 -0.25700 24.96100
H  7.76300 2.29700 32.45000
H  7.36100 5.13400 31.82000
H  4.90900 3.54300 31.46000
H  5.23800 4.50300 32.93500
H  5.78300 3.01100 32.96100
H  9.97500 4.39300 32.27900
H  9.88400 2.79600 33.18000
H  7.86500 3.94300 34.30900
H  8.73700 5.49800 33.93900
H  5.50200 8.36500 28.09100
H  4.56000 7.06200 28.97100
H  4.09400 7.58900 27.37500
H  4.13000 8.80400 25.59400
H  5.08200 9.49000 24.35000
H  5.75900 9.19900 26.01700
H  8.49700 3.35900 22.51600
H  8.12800 0.37600 23.18300
H  6.36100 3.10000 21.51700
H  5.80500 1.99500 22.92900
H  6.76700 1.37200 21.63700
H  10.80300 1.78600 23.18400
H  10.00900 1.85000 21.67500
H  10.86700 -0.06900 21.09200
H  10.19900 -1.02200 22.40300
H  11.70600 -0.11200 22.51400
H  11.62400 -1.68500 26.15700
H  10.74600 -2.70700 27.31300
H  12.28300 -1.99900 27.77400
H  10.56000 1.05700 31.98900
H  8.17900 -2.45500 33.34500
H  7.22700 -1.20200 33.93300
H  8.58800 -1.95500 34.94800
Mg 16.53600 -2.69000 28.20200
C  15.47300 -0.45500 30.77700
C  18.18000 -4.56900 30.46200
C  18.21300 -4.25400 25.62200
C  15.02700 -0.50500 25.87300
N  16.79100 -2.41400 30.34400
C  16.17600 -1.56800 31.24400
C  16.41000 -1.99900 32.68700
C  17.39100 -3.19200 32.52500
C  17.45700 -3.47300 30.98700
C  18.80000 -3.07100 33.09700
C  15.12900 -2.26900 33.51000
C  14.97800 -1.89300 34.98600
H  16.19600 -1.30700 35.63300
N  17.97700 -4.24400 28.06100
C  18.47900 -4.92800 29.11300
C  19.25300 -6.08000 28.60700
C  19.42300 -5.91100 27.17400
C  18.54000 -4.75500 26.91400
C  19.83400 -7.09900 29.50500
C  20.06500 -6.83800 26.14500
O  19.88900 -6.81100 24.91700
C  21.05500 -7.83100 26.60200
N  16.70400 -2.35000 26.07800
C  17.34300 -3.24100 25.23900
C  17.14500 -2.83100 23.77200
C  16.11400 -1.65900 23.88300
C  15.86500 -1.56400 25.39300
C  18.51000 -2.60500 23.06200
C  14.80000 -1.88200 23.11400
C  14.62200 -1.08400 21.86900
N  15.50400 -0.90600 28.26500
C  14.91200 -0.19100 27.20500
C  14.40400 1.06800 27.73500
C  14.51800 0.99500 29.14300
C  15.20700 -0.25800 29.40900
C  13.75100 2.12700 26.91200
C  14.23100 1.62200 30.37400
O  13.48700 2.59700 30.63100
C  14.91500 0.75200 31.47600
C  15.95800 1.57700 32.16000
O  16.98400 1.93300 31.58700
O  15.59500 1.94500 33.40300
C  16.53300 2.91600 34.07100
H  18.68000 -5.14900 31.24100
H  18.75400 -4.70300 24.78700
H  14.43000 0.14900 25.23400
H  16.92500 -1.15800 33.15200
H  16.99100 -4.10400 32.96800
H  18.77300 -2.31100 33.87700
H  19.59100 -2.94800 32.35600
H  19.06400 -3.99500 33.61300
H  14.93200 -3.32900 33.35200
H  14.38400 -1.67800 32.97800
H  14.72800 -2.84000 35.46500
H  14.09800 -1.26300 35.11900
H  19.52200 -8.03800 29.04900
H  19.58400 -6.93400 30.55300
H  20.92200 -7.02500 29.50700
H  21.45800 -7.47700 27.55100
H  21.79300 -8.09000 25.84300
H  20.45500 -8.70200 26.86900
H  16.65100 -3.67100 23.28400
H  16.58900 -0.75100 23.51200
H  19.21100 -2.60800 23.89700
H  18.46800 -1.66300 22.51500
H  18.66600 -3.46200 22.40700
H  13.94900 -1.59500 23.73200
H  14.62700 -2.91400 22.80600
H  13.92400 -0.24700 21.85000
H  14.35600 -1.79100 21.08300
H  15.52400 -0.51800 21.63600
H  12.78400 1.81600 26.51600
H  14.27900 2.30600 25.97500
H  13.68700 3.02900 27.52100
H  14.03400 0.50600 32.06900
H  16.08600 3.41500 34.93100
H  16.77100 3.73200 33.38900
H  17.42200 2.41000 34.44900

