158

Mg 44.76700 4.90100 48.07400
C  42.54300 7.70900 47.83600
C  41.94700 2.87200 47.73600
C  46.86500 2.43900 47.95100
C  47.44800 7.25900 47.88500
N  42.53500 5.26000 47.81900
C  41.84800 6.48700 47.87000
C  40.32600 6.29400 47.72800
C  40.19400 4.71400 47.78300
C  41.65300 4.24800 47.72600
C  39.40500 4.21200 48.97000
C  39.58800 6.97500 46.53400
C  40.46200 7.17800 45.31100
H  39.85700 6.77800 43.90800
N  44.49400 2.92000 47.84300
C  43.24000 2.29600 47.66900
C  43.55000 0.82400 47.45400
C  44.97600 0.64500 47.53800
C  45.52300 2.00200 47.75000
C  42.41400 -0.16900 47.07600
C  45.65600 -0.68000 47.38300
O  44.92800 -1.63900 47.25700
C  47.17900 -0.87000 47.24200
N  46.87600 4.94700 47.57300
C  47.49300 3.72900 47.85500
C  48.93400 3.85800 48.39700
C  49.12800 5.35200 48.15300
C  47.71600 5.94400 47.87500
C  49.27900 3.26500 49.80300
C  50.24300 5.71000 47.13300
C  51.44100 6.47400 47.67700
N  44.99800 7.02700 47.94300
C  46.16000 7.82700 47.93900
C  45.77000 9.24300 47.93900
C  44.34300 9.23900 48.01100
C  43.95500 7.86800 47.87400
C  46.57000 10.42400 47.96900
C  43.14300 10.03700 48.07300
O  43.05000 11.21700 48.18400
C  41.93500 9.08900 48.04300
C  41.06000 9.18300 49.27500
O  41.08700 8.43000 50.21300
O  40.17400 10.20600 49.09200
C  39.11500 10.41300 50.02800
H  41.04000 2.26900 47.66900
H  47.51300 1.58400 48.15300
H  48.26300 7.97900 47.98300
H  39.88100 6.81100 48.57900
H  39.61800 4.51200 46.88000
H  38.35900 4.15400 48.66900
H  39.55300 4.93200 49.77500
H  39.78200 3.28100 49.39400
H  39.29100 7.97400 46.85400
H  38.67300 6.43700 46.28400
H  41.27600 6.47200 45.47900
H  40.70900 8.23600 45.23300
H  42.63800 -0.82600 46.23600
H  41.51100 0.37300 46.79600
H  42.15400 -0.80900 47.92000
H  47.71100 -0.64000 48.16500
H  47.53500 -0.30900 46.37800
H  47.36800 -1.92700 47.05500
H  49.63200 3.31000 47.76400
H  49.43100 5.77600 49.11000
H  48.43900 3.17800 50.49200
H  50.08900 3.81400 50.28300
H  49.63200 2.24700 49.64200
H  49.88500 6.29500 46.28600
H  50.67000 4.79300 46.72600
H  51.66000 6.12400 48.68600
H  51.16900 7.52900 47.69700
H  52.36200 6.22400 47.15100
H  45.84000 11.19900 47.73500
H  47.30900 10.30700 47.17700
H  46.99100 10.72900 48.92700
H  41.23000 9.37800 47.26400
H  38.22700 9.82100 49.80500
H  38.83500 11.46600 50.02600
H  39.48000 10.17500 51.02700
Mg -11.99800 37.48400 43.32300
C  -9.82100 35.08200 42.18900
C  -10.08300 39.77800 41.54400
C  -14.37900 39.89800 43.76700
C  -14.07900 35.03300 44.38200
N  -10.22300 37.37600 41.88600
C  -9.45500 36.30100 41.60800
C  -8.28600 36.56300 40.61800
C  -8.35900 38.12000 40.62700
C  -9.69200 38.48900 41.31300
C  -7.06000 38.77900 41.25700
C  -8.57900 35.84300 39.28900
C  -7.30500 35.27600 38.56800
H  -6.80200 36.06500 37.35500
N  -12.14800 39.58800 42.88600
C  -11.25800 40.30700 42.19000
C  -11.64800 41.71100 42.40700
C  -12.89100 41.77700 43.04300
C  -13.20700 40.35400 43.28500
C  -10.76900 42.83700 41.74500
C  -13.67700 43.02100 43.31600
O  -13.20000 44.11800 43.02000
C  -15.03200 43.11400 43.94600
N  -14.00800 37.49300 43.90300
C  -14.80100 38.58100 43.95400
C  -16.18200 38.22300 44.67100
C  -16.09400 36.63700 44.70600
C  -14.66900 36.30500 44.21200
C  -16.40500 38.86200 46.07800
C  -17.17000 35.86100 43.98500
C  -16.85900 35.03200 42.68900
N  -11.94900 35.51400 43.37700
C  -12.79100 34.66900 44.02200
C  -12.22400 33.38400 44.00800
C  -11.01100 33.52500 43.38100
C  -10.92500 34.82400 42.98500
C  -12.76500 32.12100 44.67100
C  -9.77100 32.85400 42.98700
O  -9.38800 31.71400 43.25700
C  -8.94700 33.80600 42.07900
C  -7.65200 34.01000 42.87700
O  -7.48600 34.70500 43.85800
O  -6.62700 33.37300 42.21800
C  -5.32500 33.48400 42.89100
H  -9.50200 40.57700 41.07900
H  -15.15600 40.66100 43.83700
H  -14.75200 34.27400 44.78600
H  -7.42800 36.12400 41.12700
H  -8.29500 38.53300 39.62000
H  -7.37200 39.42100 42.08000
H  -6.71200 39.48100 40.49900
H  -6.26300 38.11600 41.59300
H  -9.13300 36.54500 38.66500
H  -9.20700 34.99000 39.54400
H  -7.62000 34.27600 38.27200
H  -6.51300 35.07200 39.28900
H  -11.40700 43.54000 41.20900
H  -10.13900 42.45400 40.94200
H  -10.13900 43.35400 42.46800
H  -15.22100 44.17300 44.11900
H  -15.12600 42.36700 44.73500
H  -15.81200 42.82400 43.24200
H  -16.97200 38.56900 44.00500
H  -16.04200 36.32500 45.75000
H  -16.96000 39.76500 45.82400
H  -15.40000 39.10400 46.42500
H  -17.01000 38.26800 46.76200
H  -18.08100 36.43900 43.83300
H  -17.54700 35.19300 44.76000
H  -16.70200 33.99600 42.98700
H  -15.95300 35.40000 42.20900
H  -17.70900 35.12500 42.01200
H  -13.47700 32.40900 45.44400
H  -11.98100 31.61100 45.23000
H  -13.19400 31.51000 43.87700
H  -8.81700 33.37900 41.08400
H  -4.49600 33.20500 42.24000
H  -5.28900 32.66500 43.60900
H  -5.09000 34.40900 43.41800

