158

Mg -10.30600 39.39200 41.76400
C  -8.86500 36.32700 41.06600
C  -7.43200 40.92400 40.48200
C  -11.88900 42.41800 42.01600
C  -13.27100 37.83900 42.47800
N  -8.29500 38.68900 40.91700
C  -7.96600 37.39700 40.72800
C  -6.50300 37.25600 40.19800
C  -6.05100 38.72100 40.19300
C  -7.33100 39.57600 40.59500
C  -4.61500 38.89700 40.86200
C  -6.50100 36.54100 38.75800
C  -5.13100 35.83000 38.45900
H  -4.31900 36.18800 37.23100
N  -9.74600 41.38600 41.35900
C  -8.55500 41.77800 40.79200
C  -8.54400 43.22000 40.62200
C  -9.82200 43.68000 41.10100
C  -10.54000 42.50900 41.59600
C  -7.35400 43.95900 39.93700
C  -10.42100 45.08600 41.01400
O  -9.73000 46.01000 40.64500
C  -11.82600 45.50700 41.45100
N  -12.33100 40.01600 42.18800
C  -12.67100 41.28400 42.31600
C  -14.12600 41.45700 42.86700
C  -14.56300 39.95700 42.92200
C  -13.32800 39.20900 42.41800
C  -14.06100 42.24300 44.23800
C  -15.81500 39.61800 42.09000
C  -17.22900 39.46000 42.80400
N  -11.01900 37.52100 41.69700
C  -12.22000 36.99700 42.05200
C  -12.36000 35.56800 41.92700
C  -11.03500 35.20800 41.62200
C  -10.26200 36.42500 41.46000
C  -13.50000 34.71600 42.42500
C  -10.07500 34.09800 41.42200
O  -10.17900 32.87900 41.59800
C  -8.72800 34.82300 41.04100
C  -7.71200 34.31400 41.98600
O  -7.62300 34.61000 43.17200
O  -6.80500 33.60400 41.27100
C  -5.60100 33.18500 42.00000
H  -6.50000 41.37200 40.13200
H  -12.39800 43.33800 42.31100
H  -14.23200 37.37200 42.70100
H  -5.91100 36.62600 40.86200
H  -5.95000 38.96500 39.13500
H  -4.79800 39.70900 41.56600
H  -3.87200 39.00800 40.07200
H  -4.30300 38.01200 41.41700
H  -6.80600 37.19600 37.94200
H  -7.27000 35.77100 38.82400
H  -5.19700 34.74200 38.46000
H  -4.48700 36.15300 39.27700
H  -6.88100 43.29400 39.21500
H  -6.68300 44.39500 40.67700
H  -7.74500 44.83100 39.41300
H  -11.87700 45.41500 42.53600
H  -12.58600 44.90600 40.95200
H  -12.17300 46.48300 41.11100
H  -14.71000 42.06300 42.17400
H  -14.73800 39.70000 43.96700
H  -13.01300 42.50000 44.39200
H  -14.35400 41.54300 45.02000
H  -14.70000 43.12200 44.32600
H  -15.62200 38.61900 41.70000
H  -15.82100 40.37700 41.30700
H  -17.88700 40.27600 42.50500
H  -17.19600 39.36200 43.88900
H  -17.71200 38.59700 42.34400
H  -14.18700 34.42800 41.62900
H  -14.14400 35.14000 43.19600
H  -13.02700 33.80700 42.79700
H  -8.50800 34.42500 40.05100
H  -5.81500 33.10100 43.06600
H  -4.76700 33.85000 41.77600
H  -5.26800 32.21200 41.64000
Mg -4.65500 25.28700 26.34600
C  -3.07200 26.73800 28.85900
C  -6.32700 23.19700 28.40300
C  -6.07600 23.64000 23.48700
C  -2.91400 27.27200 23.97600
N  -4.67100 25.08000 28.41500
C  -3.98500 25.82400 29.32400
C  -4.50100 25.62800 30.76600
C  -5.32700 24.29100 30.56600
C  -5.55800 24.17100 29.05300
C  -4.64400 23.07300 31.21800
C  -5.38900 26.81900 31.06900
C  -5.45900 27.21100 32.56900
H  -4.98700 26.20200 33.65000
N  -6.10300 23.65300 26.00800
C  -6.66100 22.97200 27.06500
C  -7.58200 21.96600 26.47900
C  -7.37500 21.97400 25.05500
C  -6.51000 23.15400 24.78500
C  -8.32000 20.93800 27.24100
C  -8.03500 21.14300 23.96800
O  -7.76700 21.23000 22.77300
C  -8.91100 20.00400 24.32300
N  -4.42200 25.38900 24.03000
C  -5.16200 24.65600 23.16700
C  -4.74200 24.92700 21.72000
C  -3.83300 26.13300 21.85900
C  -3.63100 26.26600 23.33000
C  -4.10800 23.73200 21.02100
C  -4.34300 27.47200 21.23300
C  -5.12800 27.30000 19.88000
N  -3.15300 26.66500 26.33100
C  -2.55900 27.46000 25.37400
C  -1.61600 28.41600 26.01500
C  -1.84400 28.23100 27.37800
C  -2.70900 27.08100 27.53400
C  -0.78600 29.45800 25.25000
C  -1.43000 28.60900 28.66400
O  -0.68200 29.53800 29.06100
C  -2.26900 27.71200 29.69000
C  -1.31000 26.95900 30.42100
O  -0.35700 26.37100 29.86600
O  -1.59800 26.86600 31.77100
C  -0.70500 25.87400 32.52800
H  -6.94900 22.54200 29.01700
H  -6.43000 23.06200 22.63100
H  -2.38800 27.82000 23.19100
H  -3.64200 25.50700 31.42600
H  -6.21100 24.42300 31.19000
H  -4.48200 22.34300 30.42500
H  -5.31500 22.63300 31.95600
H  -3.69700 23.27000 31.72000
H  -6.41300 26.58300 30.77700
H  -4.98300 27.68900 30.55300
H  -6.43300 27.58800 32.88200
H  -4.70500 27.99500 32.64100
H  -9.36600 21.03800 26.94900
H  -8.28900 21.09500 28.31900
H  -7.96300 19.92700 27.04300
H  -8.37600 19.27000 24.92400
H  -9.06400 19.52400 23.35600
H  -9.91300 20.28800 24.64500
H  -5.70300 25.06400 21.22400
H  -2.84000 25.92000 21.46200
H  -4.32200 22.73100 21.39600
H  -3.02500 23.83000 20.94200
H  -4.57300 23.80300 20.03800
H  -3.46600 28.08700 21.03300
H  -5.01400 27.90500 21.97500
H  -5.17200 26.31100 19.42300
H  -4.64600 27.95200 19.15200
H  -6.10400 27.76900 20.00400
H  0.01800 28.94200 24.72600
H  -0.48800 30.28700 25.89300
H  -1.37800 29.83800 24.41800
H  -2.96100 28.28500 30.30700
H  -1.24200 25.47100 33.38600
H  0.26800 26.29600 32.77800
H  -0.63100 24.96400 31.93200

