158

Mg 48.16100 16.18100 28.49700
C  46.12000 15.86500 31.20100
C  50.21400 18.18400 30.30200
C  49.91700 16.62800 25.63800
C  45.59500 14.62900 26.49500
N  48.17700 17.01500 30.46600
C  47.32700 16.56100 31.45400
C  47.73500 17.03200 32.84700
C  48.81000 18.06000 32.51300
C  49.07000 17.76500 30.99900
C  48.26400 19.48600 32.72000
C  48.04300 15.85500 33.82200
C  47.49300 15.92400 35.24300
H  47.22600 17.29000 35.88200
N  49.98900 17.10300 28.11100
C  50.62700 17.96100 28.95900
C  51.78300 18.44000 28.34300
C  51.75600 18.00400 26.96500
C  50.50000 17.26600 26.82700
C  52.84900 19.36300 29.00500
C  52.80100 18.37700 25.79300
O  52.64900 17.95500 24.66900
C  54.07200 19.05000 26.12400
N  47.84000 15.65600 26.29700
C  48.76700 15.85000 25.39100
C  48.40900 15.24900 24.05400
C  47.14600 14.42000 24.40000
C  46.84700 14.86300 25.84000
C  48.33000 16.33600 22.90000
C  47.25100 12.91000 24.13000
C  46.02200 12.19600 23.64800
N  46.20600 15.42000 28.71000
C  45.31300 14.78900 27.90800
C  44.12700 14.37500 28.63000
C  44.37500 14.82000 29.93000
C  45.68200 15.36900 29.94300
C  43.01500 13.61200 27.98500
C  43.90200 14.89500 31.23700
O  42.78700 14.53000 31.68000
C  45.05700 15.49800 32.18000
C  44.48900 16.61900 32.93200
O  44.29600 17.76900 32.49800
O  44.16800 16.12900 34.16500
C  43.43200 17.04500 35.10500
H  50.88900 18.78500 30.91600
H  50.52800 16.95900 24.79600
H  44.89000 14.05100 25.89300
H  46.82300 17.54600 33.14900
H  49.76600 17.94200 33.02300
H  48.98200 19.93900 33.40500
H  47.29100 19.56300 33.20500
H  48.08200 20.06000 31.81200
H  49.11100 15.67100 33.94100
H  47.65800 14.96000 33.33300
H  48.22100 15.44400 35.89700
H  46.54600 15.39100 35.33300
H  53.22400 20.15500 28.35700
H  53.56000 18.57000 29.23800
H  52.41800 19.79100 29.91000
H  54.53700 18.46300 26.91700
H  54.06600 20.12700 26.29200
H  54.61700 18.86100 25.19900
H  49.23100 14.58500 23.78700
H  46.32200 14.78000 23.78300
H  47.38700 16.16500 22.38000
H  49.13500 16.25000 22.17000
H  48.27600 17.35600 23.28000
H  47.48100 12.44700 25.09000
H  48.02100 12.68200 23.39300
H  46.20900 11.88500 22.62000
H  45.15600 12.82600 23.84900
H  45.98900 11.30100 24.26900
H  43.19400 12.56600 28.23600
H  42.99800 13.75000 26.90400
H  42.06300 13.95300 28.39100
H  45.41000 14.69000 32.82100
H  42.40200 17.21400 34.79100
H  43.95700 17.99300 34.98900
H  43.58300 16.54100 36.06000
Mg 26.86200 50.38100 26.73900
C  25.08000 51.85100 29.29800
C  28.97900 49.03500 28.94700
C  28.50200 48.97900 24.11800
C  24.51900 51.83300 24.48400
N  26.94200 50.33400 28.79900
C  26.05500 50.93800 29.69300
C  26.39100 50.66000 31.22600
C  27.80500 49.97000 31.01800
C  27.90000 49.75100 29.50000
C  29.07500 50.65200 31.73600
C  25.30600 49.64500 31.83100
C  24.73100 49.86200 33.30600
H  25.40600 50.78300 34.24400
N  28.70200 49.31900 26.58000
C  29.36000 48.78500 27.60700
C  30.49200 48.05400 27.10900
C  30.34600 47.91400 25.73200
C  29.12900 48.70300 25.42200
C  31.47200 47.45000 28.11700
C  31.26500 47.25300 24.72400
O  31.29000 47.51200 23.58400
C  32.29300 46.30700 25.28800
N  26.74400 50.65000 24.53100
C  27.46500 49.76200 23.73000
C  26.90100 49.78300 22.26600
C  25.55400 50.60100 22.45500
C  25.57900 51.06400 23.94200
C  27.85000 50.47200 21.30400
C  24.13500 49.91700 22.10900
C  23.06100 50.84400 21.45900
N  25.20100 51.65100 26.79200
C  24.29600 52.14600 25.79600
C  23.27600 52.93700 26.40100
C  23.57500 52.78700 27.77500
C  24.74200 52.10900 27.93600
C  22.22100 53.71300 25.71100
C  23.04000 53.21900 29.06500
O  22.01100 53.78300 29.34800
C  23.99100 52.53600 30.14500
C  24.56700 53.57000 31.09000
O  25.53000 54.26200 30.92500
O  23.68600 53.67600 32.15000
C  23.91600 54.87800 32.96900
H  29.56800 48.58600 29.75000
H  29.03200 48.46400 23.31300
H  23.71200 52.16900 23.82900
H  26.51200 51.60400 31.75700
H  27.79700 48.92700 31.33400
H  28.81600 51.65200 32.08600
H  29.99800 50.67500 31.15600
H  29.28300 50.01200 32.59300
H  25.71700 48.63600 31.87300
H  24.40600 49.62900 31.21700
H  24.52600 48.89300 33.76200
H  23.75100 50.29000 33.09700
H  32.50800 47.44000 27.77800
H  31.05700 46.46600 28.33300
H  31.50800 47.99100 29.06200
H  31.75600 45.58200 25.90000
H  33.11800 46.72500 25.86400
H  32.75800 45.79000 24.44800
H  26.74600 48.76100 21.91900
H  25.62200 51.49000 21.82900
H  27.47500 51.43100 20.94700
H  28.13700 49.81100 20.48700
H  28.74100 50.69100 21.89400
H  23.78000 49.58900 23.08600
H  24.27900 49.03500 21.48500
H  22.89900 50.60300 20.40800
H  23.34000 51.88400 21.63000
H  22.15700 50.55100 21.99300
H  21.36800 53.82600 26.38000
H  21.84200 53.34600 24.75700
H  22.62000 54.70200 25.48500
H  23.36200 51.89000 30.75800
H  24.56600 54.70400 33.82600
H  22.94300 55.19100 33.34800
H  24.30700 55.69700 32.36500

