158

Mg 26.18500 1.48400 29.55800
C  28.33100 1.15600 32.37700
C  23.54300 1.77200 31.71500
C  24.25600 1.68600 26.88100
C  28.97500 0.63200 27.54900
N  25.96400 1.27700 31.87600
C  26.98100 1.32000 32.77500
C  26.36800 1.56000 34.19800
C  24.78600 1.47100 34.00100
C  24.74800 1.52300 32.43600
C  24.17000 0.14100 34.52500
C  26.86000 2.80100 34.89300
C  27.90100 2.68300 36.08500
H  27.66100 3.60400 37.23000
N  24.17600 1.65400 29.32400
C  23.28500 1.86000 30.36800
C  22.01200 2.11700 29.77200
C  22.09700 1.95400 28.37300
C  23.54500 1.64600 28.11700
C  20.75900 2.44000 30.48600
C  21.12400 2.05500 27.25500
O  21.33000 1.69800 26.12100
C  19.73800 2.67400 27.46200
N  26.57600 1.18200 27.44600
C  25.62400 1.38600 26.52900
C  26.26700 1.33100 25.09900
C  27.66900 0.82200 25.30400
C  27.78200 0.97600 26.89400
C  25.35200 0.59000 24.08300
C  28.82600 1.50900 24.58400
C  29.84600 0.65800 23.71000
N  28.22500 0.98700 29.88300
C  29.23200 0.79200 28.90400
C  30.51700 0.56500 29.63700
C  30.13900 0.70500 30.96400
C  28.78500 0.97900 31.03900
C  31.87900 0.45400 29.01600
C  30.77900 0.69000 32.22300
O  31.92800 0.46400 32.67400
C  29.55700 1.06700 33.25900
C  29.42900 0.01900 34.27700
O  28.96500 -1.08800 34.07000
O  30.00000 0.46300 35.45200
C  30.16400 -0.49800 36.51100
H  22.71000 2.03900 32.36900
H  23.64700 2.04300 26.04700
H  29.79100 0.37300 26.87100
H  26.60400 0.81000 34.95300
H  24.21500 2.36600 34.24900
H  23.51200 -0.34500 33.80500
H  23.54300 0.27500 35.40700
H  24.93400 -0.51400 34.94400
H  26.01000 3.36000 35.28500
H  27.31100 3.48400 34.17300
H  28.91600 2.87300 35.73500
H  27.87000 1.63400 36.37900
H  20.31900 3.36700 30.11900
H  20.86600 2.61400 31.55600
H  20.13800 1.56100 30.31300
H  19.17200 2.31400 28.32100
H  19.15800 2.47500 26.56100
H  19.91200 3.74700 27.54400
H  26.21700 2.36400 24.75600
H  27.73700 -0.25700 25.16800
H  24.47200 0.17200 24.57200
H  25.90100 -0.26300 23.68500
H  25.13800 1.39000 23.37400
H  29.34800 2.12900 25.31300
H  28.34600 2.21500 23.90700
H  30.83500 1.09300 23.85500
H  29.50600 0.44000 22.69800
H  29.83600 -0.33300 24.16400
H  32.63000 1.08100 29.49700
H  31.79400 0.76600 27.97500
H  32.12100 -0.60800 28.98500
H  29.83000 2.00700 33.73800
H  29.19800 -0.70000 36.97500
H  30.92400 -0.16600 37.21700
H  30.52100 -1.43500 36.08300
Mg 48.26200 16.60400 28.33200
C  46.10100 16.57300 31.19900
C  50.44300 18.62400 30.14300
C  50.11300 16.78100 25.52400
C  45.68700 15.09900 26.59000
N  48.24900 17.52900 30.42100
C  47.36400 17.21700 31.45400
C  47.89200 17.67300 32.81200
C  49.13200 18.58100 32.37600
C  49.31100 18.17400 30.88900
C  48.97700 20.15200 32.56400
C  48.46900 16.46700 33.62000
C  48.03000 16.36400 35.10800
H  47.57000 17.65200 35.80000
N  50.10800 17.58100 27.87500
C  50.86400 18.35700 28.78400
C  52.05700 18.73400 28.07700
C  51.99400 18.16500 26.75100
C  50.67900 17.53300 26.61400
C  53.09000 19.44100 28.76900
C  53.08100 18.14000 25.63700
O  52.87400 17.63400 24.53400
C  54.44700 18.61000 25.99600
N  47.91700 16.10700 26.34700
C  48.92000 16.10400 25.46400
C  48.52100 15.44400 24.14000
C  47.06000 15.03100 24.37300
C  46.85500 15.40800 25.87000
C  48.49700 16.55300 23.04400
C  46.68700 13.51700 23.92900
C  45.47000 13.43900 22.95500
N  46.36600 15.90000 28.77200
C  45.39300 15.29100 27.98900
C  44.20200 15.00700 28.68700
C  44.44300 15.44000 29.98800
C  45.73100 15.98900 29.99900
C  43.01400 14.30500 28.05200
C  43.95600 15.51300 31.32900
O  42.93300 15.05700 31.74900
C  45.04200 16.36100 32.23200
C  44.46400 17.61500 32.85700
O  44.43800 18.70000 32.28500
O  43.99400 17.27100 34.02800
C  42.71600 17.80700 34.50400
H  51.19000 19.13400 30.75400
H  50.77100 16.66400 24.66000
H  44.99600 14.48800 26.00600
H  47.11500 18.20600 33.36000
H  50.11600 18.41700 32.81500
H  49.68900 20.68200 33.19500
H  47.99400 20.37200 32.98000
H  48.99300 20.61700 31.57800
H  49.55600 16.51000 33.55700
H  48.01800 15.55100 33.23900
H  48.91100 16.10300 35.69400
H  47.28200 15.57100 35.08800
H  53.97400 18.82000 28.91300
H  52.85100 19.92500 29.71700
H  53.42600 20.14900 28.01200
H  54.45600 19.69900 26.04000
H  55.01200 18.45600 25.07700
H  54.92700 18.17800 26.87500
H  49.17000 14.58000 23.99200
H  46.32700 15.63600 23.83900
H  48.89300 17.54300 23.27000
H  47.53600 16.66200 22.54200
H  49.12400 16.08600 22.28500
H  46.43200 12.91200 24.79900
H  47.56700 13.05000 23.48700
H  45.80000 13.52500 21.92000
H  44.72100 14.19300 23.20000
H  45.02100 12.44700 22.99200
H  43.55100 13.40200 27.76200
H  42.74200 14.75000 27.09500
H  42.15400 14.17400 28.70800
H  45.38600 15.72200 33.04600
H  42.94200 18.49800 35.31500
H  42.03400 17.03400 34.85900
H  42.16100 18.29100 33.70100

