158

Mg 1.63900 -2.08500 44.14900
C  5.14400 -1.58800 43.60000
C  1.07100 0.74400 42.30100
C  -1.46200 -3.08500 43.71900
C  2.56000 -5.17900 45.60400
N  2.95600 -0.60800 43.07100
C  4.36600 -0.57800 43.03000
C  4.83600 0.62900 42.19700
C  3.55500 1.38500 42.05700
C  2.41100 0.49500 42.56600
C  3.53300 2.85100 42.64000
C  5.53000 0.27200 40.85900
C  6.92900 0.91000 40.60300
H  6.99400 1.66200 39.25200
N  -0.06100 -1.25300 43.18800
C  -0.07700 -0.08000 42.48800
C  -1.40900 0.11100 42.04900
C  -2.14800 -1.03300 42.38800
C  -1.23700 -1.85800 43.13300
C  -1.87400 1.27800 41.24600
C  -3.61900 -1.20900 42.13500
O  -4.25600 -0.30200 41.62800
C  -4.39900 -2.42900 42.48800
N  0.74100 -3.88900 44.48300
C  -0.64300 -3.96400 44.42400
C  -1.19900 -5.18200 45.00200
C  0.09900 -5.90800 45.57900
C  1.20700 -4.91600 45.23200
C  -2.27700 -4.92700 46.09700
C  0.39000 -7.25600 44.91500
C  0.17000 -8.36900 45.85900
N  3.45800 -3.21000 44.67400
C  3.68500 -4.38300 45.30600
C  5.11000 -4.59500 45.37800
C  5.68100 -3.51100 44.82100
C  4.67500 -2.70400 44.37600
C  5.63400 -5.91900 45.65600
C  7.01600 -3.00500 44.36900
O  8.15400 -3.44000 44.52200
C  6.66400 -1.67400 43.59900
C  7.19200 -0.57900 44.41500
O  6.83200 -0.28400 45.52300
O  8.25800 0.01000 43.79500
C  8.97900 1.00300 44.66700
H  0.97200 1.73100 41.84500
H  -2.45300 -3.54400 43.69800
H  2.71000 -6.11900 46.14100
H  5.52500 1.22100 42.80100
H  3.28800 1.60000 41.02200
H  3.78200 3.49200 41.79400
H  4.28300 2.95900 43.42400
H  2.57500 3.14300 43.06900
H  4.77100 0.45000 40.09700
H  5.83400 -0.77500 40.89000
H  7.72900 0.16900 40.57500
H  7.23600 1.64900 41.34400
H  -2.59900 1.12800 40.44600
H  -1.08400 1.89200 40.81300
H  -2.38100 1.93100 41.95600
H  -4.15800 -3.37000 41.99200
H  -5.40300 -2.21100 42.12400
H  -4.55000 -2.51800 43.56300
H  -1.70400 -5.73700 44.21100
H  0.11200 -5.85900 46.66800
H  -2.26200 -3.90200 46.46900
H  -2.08200 -5.43800 47.03900
H  -3.31300 -5.12600 45.82000
H  1.44900 -7.27800 44.66000
H  -0.19100 -7.41000 44.00600
H  -0.22100 -7.97500 46.79800
H  1.18800 -8.67700 46.09600
H  -0.40000 -9.14500 45.34800
H  5.64600 -6.10000 46.73000
H  6.68200 -6.03100 45.38000
H  5.04600 -6.68200 45.14500
H  6.96400 -1.63600 42.55200
H  9.34000 0.48000 45.55200
H  8.44600 1.93900 44.83600
H  9.82600 1.21700 44.01400
Mg 47.10600 16.92800 27.60100
C  45.20700 16.84200 30.47300
C  49.40000 18.90800 29.23200
C  48.66700 17.45400 24.72800
C  44.33500 15.60700 25.81700
N  47.22700 17.79900 29.70100
C  46.45200 17.43400 30.72400
C  47.06700 17.95400 32.03200
C  48.40800 18.71800 31.61300
C  48.34800 18.46200 30.07100
C  48.43800 20.13100 32.12600
C  47.31800 16.87600 33.04900
C  47.66700 17.36900 34.45800
H  46.88600 18.58400 34.96400
N  48.84700 17.88000 27.04900
C  49.67300 18.60700 27.88000
C  50.88000 18.97800 27.17100
C  50.73000 18.55200 25.80500
C  49.40100 17.86100 25.79100
C  51.98600 19.76400 27.78100
C  51.61500 18.78300 24.58200
O  51.32000 18.41700 23.47300
C  52.90100 19.63400 24.71600
N  46.60500 16.50800 25.55900
C  47.42900 16.81600 24.56100
C  46.75700 16.50400 23.19700
C  45.65100 15.54600 23.56900
C  45.52200 15.86000 25.06300
C  46.42400 17.76500 22.39300
C  46.02800 14.11800 23.36000
C  45.34000 13.51000 22.11900
N  45.14300 16.42600 27.98600
C  44.16100 15.84300 27.15600
C  42.97900 15.57800 27.98000
C  43.37200 15.90800 29.31500
C  44.70200 16.45300 29.23500
C  41.60900 15.10500 27.56600
C  42.90300 15.98100 30.70800
O  41.83800 15.65000 31.20700
C  44.14500 16.47900 31.54900
C  43.66600 17.63000 32.37600
O  44.02900 18.78700 32.17400
O  42.84000 17.23200 33.38100
C  42.18700 18.20600 34.28000
H  50.07100 19.60900 29.73300
H  49.18400 17.62100 23.78100
H  43.45700 15.23500 25.28300
H  46.42600 18.76000 32.38900
H  49.28900 18.20300 31.99500
H  49.40700 20.26300 32.60800
H  47.67300 20.38300 32.86000
H  48.29900 20.82100 31.29400
H  48.12300 16.27300 32.63000
H  46.43700 16.23900 33.11700
H  48.74600 17.51400 34.51600
H  47.58000 16.48100 35.08400
H  52.94100 19.33900 27.47200
H  51.96300 19.68200 28.86800
H  51.81300 20.82400 27.59700
H  53.70000 19.12400 25.25400
H  52.62600 20.60500 25.12800
H  53.28000 19.70800 23.69700
H  47.42500 16.00300 22.49700
H  44.66700 15.72000 23.13400
H  46.79400 18.68000 22.85600
H  45.34800 17.79100 22.22000
H  47.03500 17.69500 21.49300
H  45.72900 13.51100 24.21500
H  47.10600 13.95800 23.36000
H  45.27000 14.04000 21.16900
H  44.37400 13.09300 22.40400
H  45.98400 12.69000 21.80300
H  41.50900 14.07700 27.91400
H  41.49100 15.21200 26.48800
H  40.82300 15.74100 27.97300
H  44.38400 15.63700 32.19800
H  41.11900 18.06100 34.12000
H  42.49600 19.23500 34.09300
H  42.31300 18.02400 35.34700

