158

Mg 1.72700 -1.06900 43.98700
C  5.18900 -0.67600 43.47800
C  1.14100 1.70400 42.11800
C  -1.44100 -2.13200 43.78200
C  2.55000 -4.34900 45.39100
N  3.10000 0.30500 42.77700
C  4.42500 0.31100 42.77000
C  4.99200 1.58400 42.02400
C  3.65500 2.31000 41.63200
C  2.55500 1.44200 42.29500
C  3.53300 3.80900 42.14900
C  6.01000 1.22700 40.88300
C  5.86800 -0.03400 40.03000
H  5.69300 0.08700 38.50900
N  0.01200 -0.22100 43.23200
C  -0.01800 0.98300 42.59600
C  -1.32100 1.26700 42.19700
C  -2.11500 0.10400 42.47700
C  -1.22500 -0.84300 43.23300
C  -1.83400 2.48800 41.44100
C  -3.62500 -0.20000 42.17800
O  -4.24200 0.67200 41.60700
C  -4.36500 -1.42900 42.64800
N  0.70700 -3.08000 44.45900
C  -0.56700 -3.17300 44.38600
C  -1.11600 -4.58200 44.74200
C  0.11700 -5.11400 45.56700
C  1.20700 -4.16200 45.09700
C  -2.52700 -4.74400 45.31500
C  0.32300 -6.62300 45.28100
C  0.99000 -7.49400 46.43500
N  3.46400 -2.29300 44.39600
C  3.59200 -3.53700 44.95800
C  4.97000 -3.87900 45.06700
C  5.63000 -2.80000 44.54500
C  4.71600 -1.84500 44.09600
C  5.51600 -5.13300 45.68900
C  6.96100 -2.25700 44.25200
O  8.07900 -2.65800 44.57100
C  6.71800 -0.81300 43.63200
C  7.29400 0.20000 44.56900
O  6.99300 0.34500 45.72800
O  8.13300 1.10700 43.94300
C  8.63200 2.30900 44.68500
H  0.92300 2.62800 41.57800
H  -2.39500 -2.62500 43.58300
H  2.79400 -5.32200 45.82300
H  5.63300 2.25400 42.59600
H  3.60700 2.19800 40.54800
H  3.37100 4.00400 43.21000
H  2.68400 4.25600 41.63100
H  4.45700 4.24800 41.77400
H  6.94900 1.23900 41.43600
H  6.16400 2.08000 40.22200
H  4.92900 -0.49300 40.34000
H  6.61300 -0.74700 40.38200
H  -2.67200 2.97800 41.93600
H  -2.16100 2.37700 40.40700
H  -1.15800 3.34200 41.48100
H  -5.27200 -1.34200 42.04800
H  -4.52600 -1.53200 43.72100
H  -3.87700 -2.31800 42.25000
H  -1.24900 -5.06600 43.77400
H  -0.09900 -4.97100 46.62600
H  -3.25900 -5.13600 44.60900
H  -2.95500 -3.75400 45.47200
H  -2.51900 -5.26700 46.27100
H  0.99200 -6.74300 44.42900
H  -0.65400 -7.08000 45.12400
H  0.24000 -8.21800 46.75000
H  1.36600 -6.92300 47.28400
H  1.88400 -7.94300 46.00300
H  4.84900 -5.99300 45.62200
H  5.86800 -4.99600 46.71100
H  6.38900 -5.45900 45.12300
H  7.33900 -0.82000 42.73700
H  8.36000 2.33800 45.74000
H  8.32300 3.14800 44.06200
H  9.71900 2.29800 44.60100
Mg -1.80100 34.66300 27.19400
C  -3.51000 32.69500 29.59500
C  -0.52000 36.50100 29.84300
C  -0.42900 36.50800 24.85600
C  -3.52600 32.79700 24.71600
N  -2.08700 34.61100 29.49500
C  -2.82600 33.76900 30.26100
C  -2.61300 33.91200 31.75600
C  -1.88600 35.31100 31.75600
C  -1.50600 35.53700 30.26700
C  -2.81700 36.58000 32.19700
C  -1.80400 32.76800 32.42800
C  -2.42200 32.13500 33.67500
H  -1.74100 32.47200 35.00900
N  -0.59400 36.20800 27.34400
C  -0.08800 36.80800 28.50000
C  0.98700 37.77300 28.03900
C  0.95100 37.81400 26.64100
C  -0.06400 36.78400 26.23400
C  1.82200 38.65200 28.97900
C  1.68100 38.77200 25.66500
O  1.52200 38.75100 24.47100
C  2.83500 39.69800 26.20900
N  -1.95400 34.64400 25.07200
C  -1.20400 35.49700 24.31000
C  -1.49100 35.32700 22.78400
C  -2.27900 34.01600 22.78500
C  -2.68900 33.83200 24.30500
C  -2.31900 36.54000 22.01800
C  -1.57400 32.72900 22.16500
C  -0.14200 32.46800 22.63800
N  -3.20300 33.09200 27.09900
C  -3.79500 32.37800 26.03300
C  -4.60000 31.31800 26.52100
C  -4.62400 31.48300 27.90500
C  -3.63100 32.47000 28.24400
C  -5.44300 30.43500 25.66700
C  -5.15300 30.93600 29.07800
O  -5.96100 30.07600 29.32100
C  -4.38000 31.66600 30.25300
C  -5.46000 32.23900 31.13000
O  -6.23000 33.12300 30.81200
O  -5.45100 31.57900 32.30300
C  -6.54100 31.76600 33.18800
H  0.05800 36.90000 30.67900
H  -0.14400 37.06900 23.96400
H  -4.07400 32.25600 23.94200
H  -3.58900 33.96100 32.23900
H  -0.99800 35.18000 32.37400
H  -2.60200 37.48300 31.62500
H  -2.52700 36.70700 33.24000
H  -3.88800 36.38600 32.15700
H  -0.96600 33.21900 32.96100
H  -1.59500 31.87900 31.83200
H  -2.44700 31.05400 33.53300
H  -3.42200 32.51700 33.88000
H  1.44700 39.66000 28.80100
H  2.89200 38.64500 28.77000
H  1.69100 38.37300 30.02500
H  3.39400 40.08100 25.35500
H  3.62000 39.12200 26.69800
H  2.41800 40.53400 26.77000
H  -0.54900 35.15500 22.26300
H  -3.23600 34.09900 22.26900
H  -2.68500 37.31100 22.69600
H  -3.23500 36.19400 21.53900
H  -1.67000 36.97000 21.25500
H  -1.59900 32.87900 21.08600
H  -2.21300 31.89100 22.44500
H  -0.02000 31.42500 22.93200
H  0.06100 32.96300 23.58800
H  0.62500 32.78800 21.93200
H  -4.77500 29.72200 25.18300
H  -5.81100 31.07100 24.86200
H  -6.28200 29.95000 26.16600
H  -3.86800 30.85200 30.76700
H  -6.78400 30.85300 33.73100
H  -7.41800 32.09500 32.63000
H  -6.26800 32.52000 33.92700

