158

Mg 30.74400 58.31900 39.55600
C  27.98500 56.48600 38.15500
C  32.87300 55.72300 38.47500
C  33.37800 60.14300 40.45000
C  28.52700 60.92600 40.24300
N  30.43100 56.42800 38.23000
C  29.23800 55.85900 37.87100
C  29.50700 54.43600 37.33600
C  31.04900 54.21500 37.61200
C  31.52500 55.54400 38.13300
C  31.31200 52.98900 38.54800
C  29.00000 54.31400 35.83200
C  29.60100 55.34800 34.93900
H  28.67600 56.30400 34.05200
N  32.82800 57.99900 39.43700
C  33.50900 56.91400 38.91700
C  34.92400 57.12400 39.03300
C  35.06300 58.36900 39.71500
C  33.74300 58.91100 39.91300
C  35.94100 56.19400 38.34000
C  36.43300 58.92500 40.07000
O  37.38200 58.23000 39.80200
C  36.69200 60.20700 40.69700
N  30.85300 60.18100 40.24900
C  32.06700 60.73400 40.60500
C  31.92700 62.20400 40.91600
C  30.39400 62.41600 41.05200
C  29.83000 61.06900 40.56000
C  32.86200 62.69300 42.04600
C  29.91500 63.68600 40.24700
C  30.11400 65.07800 40.96200
N  28.72000 58.62200 39.39600
C  27.92000 59.78700 39.70900
C  26.56600 59.46200 39.46100
C  26.58800 58.17400 38.92300
C  27.90900 57.68700 38.89800
C  25.44500 60.36600 39.87000
C  25.70400 57.19500 38.35200
O  24.47100 57.13800 38.21700
C  26.53200 56.00100 37.89900
C  26.09900 54.76100 38.63800
O  26.19300 54.65900 39.88600
O  25.40800 53.90800 37.78800
C  25.03500 52.59800 38.41400
H  33.57000 54.88400 38.40900
H  34.25100 60.68900 40.81300
H  27.84100 61.70600 40.57900
H  28.90300 53.77500 37.95900
H  31.54000 53.93400 36.68000
H  30.45000 52.32300 38.50400
H  31.36000 53.48500 39.51700
H  32.29300 52.54900 38.37200
H  27.91900 54.45300 35.80200
H  29.35900 53.32200 35.56000
H  30.12300 54.70300 34.23200
H  30.38300 56.01100 35.30800
H  36.69800 56.81000 37.85500
H  35.35400 55.51500 37.72100
H  36.49400 55.64500 39.10100
H  36.30700 60.99600 40.05100
H  37.76700 60.35700 40.79400
H  36.08500 60.13900 41.60000
H  32.21400 62.67300 39.97500
H  30.00500 62.54700 42.06100
H  33.49100 61.99700 42.60200
H  32.12900 63.08000 42.75400
H  33.43300 63.56900 41.73900
H  28.83600 63.73200 40.10200
H  30.53900 63.77200 39.35700
H  30.84000 65.61500 40.35200
H  30.50900 64.97400 41.97200
H  29.18400 65.64600 40.97100
H  24.54200 59.78700 39.67500
H  25.39500 61.41000 39.55900
H  25.52000 60.42700 40.95500
H  26.40600 55.82500 36.83100
H  25.69100 52.31900 39.23800
H  25.09700 51.82000 37.65300
H  24.09400 52.61900 38.96400
Mg 1.25500 41.13900 25.46700
C  2.27400 41.56400 28.91800
C  -1.68900 39.78800 26.73200
C  0.40500 40.67500 22.30200
C  4.55400 41.74300 24.53600
N  0.35400 40.80800 27.56500
C  0.93500 41.08300 28.77500
C  -0.03500 40.73700 29.96200
C  -1.28400 40.16200 29.18600
C  -0.86300 40.27300 27.76100
C  -1.56600 38.70500 29.62400
C  -0.30000 41.96800 30.89900
C  -0.56900 41.69100 32.40800
H  -1.55900 40.49700 32.70100
N  -0.47700 40.43900 24.65100
C  -1.58500 40.02000 25.32000
C  -2.59200 39.69100 24.31100
C  -1.91400 39.86300 23.02600
C  -0.58000 40.39000 23.28600
C  -3.94200 39.17900 24.65900
C  -2.54300 39.56000 21.62800
O  -1.94400 39.86100 20.59400
C  -3.95600 39.02600 21.49100
N  2.37900 41.18100 23.69800
C  1.75300 41.00800 22.47100
C  2.80100 41.14800 21.33600
C  4.13700 41.37000 22.11400
C  3.65600 41.50100 23.49700
C  2.89100 40.01500 20.23800
C  4.84100 42.71300 21.71300
C  4.15100 44.06900 22.00600
N  3.10500 41.65200 26.45500
C  4.35700 41.80700 25.92600
C  5.29800 41.96100 27.00100
C  4.48300 41.88200 28.18000
C  3.12700 41.70500 27.80100
C  6.81500 42.02500 26.91900
C  4.58800 41.94100 29.57100
O  5.57800 42.21200 30.25100
C  3.19600 41.73900 30.15300
C  3.21600 40.42700 30.97300
O  3.66900 39.37500 30.51200
O  2.87400 40.62500 32.29800
C  3.02800 39.44200 33.07900
H  -2.46700 39.15900 27.17000
H  0.12200 40.53800 21.25600
H  5.61500 41.80700 24.28200
H  0.44700 40.02800 30.63500
H  -2.16200 40.78600 29.35400
H  -1.02700 38.40900 30.52400
H  -1.14600 38.00400 28.90300
H  -2.64500 38.69900 29.77800
H  -1.18600 42.51500 30.57400
H  0.52600 42.67800 30.89600
H  -1.04500 42.57800 32.82600
H  0.36700 41.51100 32.93700
H  -4.10300 39.36400 25.72100
H  -3.86600 38.10700 24.47200
H  -4.77000 39.52800 24.04300
H  -4.04200 37.97600 21.77200
H  -4.19700 38.92700 20.43200
H  -4.70600 39.65200 21.97500
H  2.51700 42.11300 20.91800
H  4.86100 40.55600 22.13700
H  2.21300 39.16900 20.35400
H  3.90600 39.62500 20.16600
H  2.54800 40.40800 19.28100
H  4.98200 42.61800 20.63700
H  5.79800 42.64700 22.23000
H  3.99200 44.51800 21.02600
H  4.82700 44.71600 22.56500
H  3.21100 44.01900 22.55600
H  7.13600 42.08500 25.87900
H  7.23000 41.17900 27.46600
H  7.09900 42.91000 27.48800
H  3.05400 42.63700 30.75400
H  4.10400 39.27400 33.11900
H  2.57400 38.60200 32.55300
H  2.80100 39.47000 34.14500

