158

Mg 8.82900 3.77600 27.80400
C  10.34100 2.24900 30.61700
C  7.14100 5.63300 29.98800
C  7.42100 5.21100 25.10700
C  10.30900 1.38700 25.80100
N  8.88500 3.97200 30.07800
C  9.59300 3.31800 31.01800
C  9.30800 3.75500 32.44300
C  8.12100 4.77900 32.20400
C  8.02200 4.76100 30.63000
C  6.75300 4.30600 32.80100
C  10.57100 4.26500 33.21300
C  10.26800 5.38500 34.27400
H  11.04700 5.48500 35.63800
N  7.47400 5.22400 27.54700
C  6.87400 5.83800 28.61400
C  6.02900 6.88900 28.07800
C  6.05700 6.77000 26.64800
C  7.02200 5.72000 26.38900
C  5.13100 7.82400 28.92700
C  5.19900 7.49800 25.53700
O  5.40200 7.25200 24.32700
C  4.07000 8.39700 25.91300
N  9.02400 3.47600 25.70000
C  8.24000 4.10400 24.86700
C  8.38000 3.56500 23.38600
C  9.46100 2.38000 23.57100
C  9.56300 2.34100 25.08900
C  7.00000 3.12000 22.83200
C  10.75700 2.83600 22.86200
C  11.47700 1.68700 22.13700
N  9.95800 2.02200 28.08700
C  10.64300 1.23500 27.17500
C  11.40200 0.28500 27.84300
C  11.37000 0.63800 29.16800
C  10.47300 1.73400 29.27800
C  12.15600 -0.84600 27.09600
C  11.82900 0.30000 30.51800
O  12.52700 -0.59400 30.94600
C  11.23700 1.42900 31.47300
C  10.61100 0.72200 32.66200
O  9.58800 0.04900 32.61500
O  11.43400 0.82800 33.74100
C  10.73600 0.35700 34.99200
H  6.40900 6.08300 30.66300
H  6.99400 5.61200 24.18600
H  10.70100 0.59300 25.16200
H  8.92900 2.83800 32.89400
H  8.32100 5.80100 32.52600
H  6.74400 3.37700 33.37100
H  5.97400 4.24300 32.04200
H  6.41600 5.06200 33.51100
H  11.30800 4.71200 32.54500
H  11.11800 3.43600 33.66100
H  9.20900 5.29800 34.51700
H  10.53800 6.35500 33.85700
H  5.45000 8.81200 28.59500
H  5.27700 7.58600 29.98100
H  4.08900 7.67500 28.64400
H  3.69000 8.75900 24.95800
H  4.55200 9.25000 26.39200
H  3.33000 7.91900 26.55500
H  8.71700 4.35800 22.71900
H  9.13400 1.46400 23.07900
H  6.36900 3.13800 23.72100
H  7.05000 2.09000 22.48100
H  6.56100 3.89500 22.20400
H  11.47200 3.25300 23.57200
H  10.61600 3.53000 22.03300
H  11.71100 0.98300 22.93600
H  12.36400 1.98800 21.58000
H  10.68900 1.25000 21.52400
H  13.06300 -0.45500 26.63500
H  11.51100 -1.31100 26.35100
H  12.46800 -1.54600 27.87100
H  11.95200 2.14400 31.88100
H  10.59200 1.09700 35.78000
H  11.47900 -0.30900 35.42900
H  9.80900 -0.20900 34.89900
Mg 49.13000 45.11200 43.49300
C  45.72000 45.17900 42.36800
C  49.28600 41.81600 42.44600
C  52.39200 45.24000 43.57200
C  48.90300 48.55200 43.79700
N  47.73000 43.77100 42.41600
C  46.35900 43.95200 42.14400
C  45.75400 42.70500 41.41500
C  46.69200 41.65600 41.97300
C  48.01000 42.42600 42.30000
C  46.19200 40.86400 43.24100
C  45.61000 42.87700 39.84300
C  44.25000 42.45500 39.14100
H  44.37100 41.42100 37.98700
N  50.61500 43.74800 43.16200
C  50.53000 42.42900 42.77900
C  51.75200 41.77300 42.68300
C  52.74600 42.73000 42.87000
C  51.96600 43.98600 43.25200
C  51.89600 40.30900 42.28000
C  54.18700 42.44500 42.67700
O  54.61500 41.36000 42.22300
C  55.26800 43.49300 42.93800
N  50.45300 46.66300 43.49900
C  51.76700 46.41000 43.82100
C  52.42500 47.66600 44.42600
C  51.30600 48.75000 44.38100
C  50.11300 47.88100 43.94100
C  53.16500 47.37300 45.78700
C  51.61700 49.95100 43.33600
C  51.61700 51.34200 43.98500
N  47.59600 46.60500 43.39600
C  47.63900 47.93900 43.55700
C  46.35000 48.59400 43.43100
C  45.55900 47.47400 43.01400
C  46.36700 46.28800 42.92100
C  46.11000 50.09800 43.52400
C  44.20500 47.06300 42.58200
O  43.15900 47.74100 42.43800
C  44.31200 45.61000 42.09900
C  43.19800 44.72800 42.69800
O  42.49400 43.91500 42.11700
O  43.03800 45.03700 44.08200
C  41.95600 44.28200 44.69100
H  49.21000 40.76000 42.17900
H  53.45200 45.11800 43.80200
H  48.88100 49.59900 44.10600
H  44.76300 42.37400 41.72500
H  46.79500 40.81900 41.28300
H  46.09200 39.79100 43.07900
H  45.16300 41.13400 43.48100
H  46.95500 41.01700 44.00500
H  46.44600 42.35000 39.38300
H  45.94900 43.87500 39.56600
H  43.86700 43.36300 38.67600
H  43.47900 42.19400 39.86600
H  52.19900 40.20100 41.23800
H  51.01800 39.73600 42.57900
H  52.68500 39.85000 42.87600
H  56.28100 43.22300 42.64000
H  55.22800 43.53900 44.02600
H  55.17300 44.52000 42.58600
H  53.15200 47.99900 43.68400
H  51.11000 49.01900 45.41900
H  53.01100 46.33400 46.08000
H  52.86500 48.09900 46.54200
H  54.22800 47.56000 45.64000
H  50.84400 50.01200 42.56900
H  52.59000 49.86600 42.85300
H  50.77700 51.94900 43.64800
H  52.46400 51.93700 43.64200
H  51.65000 51.19300 45.06400
H  46.27200 50.56300 42.55200
H  46.74000 50.66400 44.21000
H  45.08100 50.30900 43.81600
H  44.22900 45.67900 41.01400
H  41.17100 44.40700 43.94500
H  41.67100 44.63900 45.68000
H  42.18500 43.21700 44.65000

