158

Mg 2.18400 -2.43500 43.94800
C  5.47200 -1.18200 43.24500
C  1.04400 0.08900 41.92400
C  -0.71700 -4.06600 43.97400
C  3.76700 -5.24000 45.38700
N  3.20000 -0.68600 42.59500
C  4.49600 -0.42600 42.55800
C  4.80000 0.70300 41.51800
C  3.32900 1.28800 41.21300
C  2.48300 0.27400 41.98400
C  3.02400 2.81100 41.54700
C  5.45500 0.14700 40.29200
C  6.65300 0.98100 39.69300
H  6.30700 1.77900 38.37100
N  0.33000 -1.97100 43.16100
C  0.11000 -0.89400 42.36100
C  -1.34300 -1.00000 41.98600
C  -1.89800 -2.11200 42.73500
C  -0.75200 -2.76700 43.33100
C  -2.03200 -0.04200 41.02400
C  -3.34700 -2.38000 42.84900
O  -4.18800 -1.62500 42.45200
C  -3.86400 -3.54500 43.56200
N  1.61300 -4.29200 44.61200
C  0.31000 -4.74600 44.54700
C  0.19300 -6.13500 45.03300
C  1.66400 -6.60900 45.31500
C  2.45200 -5.29200 45.08400
C  -0.77500 -6.19900 46.29100
C  2.16500 -7.70700 44.39500
C  2.63400 -8.98600 45.07000
N  4.13800 -3.02800 44.38700
C  4.59200 -4.18200 45.02800
C  6.08900 -4.06000 45.15000
C  6.42900 -2.86200 44.50600
C  5.24000 -2.29400 44.02800
C  7.03000 -5.03100 45.90100
C  7.52600 -2.05800 44.19300
O  8.71900 -2.27600 44.38800
C  6.99300 -0.94300 43.25700
C  7.32000 0.35100 43.97200
O  6.91400 0.61100 45.07500
O  8.08900 1.14200 43.16600
C  8.64400 2.34200 43.78600
H  0.65200 0.88500 41.28700
H  -1.60100 -4.70600 43.94100
H  4.20500 -6.11100 45.87900
H  5.40200 1.44800 42.03800
H  3.04800 1.27700 40.16000
H  2.83900 3.40300 40.65000
H  3.95600 3.20400 41.95200
H  2.13600 2.88400 42.17600
H  4.76000 0.39000 39.48900
H  5.56500 -0.93700 40.25400
H  7.44900 0.28200 39.43400
H  7.11100 1.60300 40.46200
H  -2.14100 0.89100 41.57800
H  -2.96900 -0.48400 40.68600
H  -1.42300 0.05100 40.12500
H  -4.95300 -3.58800 43.54500
H  -3.55000 -3.48000 44.60300
H  -3.48000 -4.48100 43.15500
H  -0.28500 -6.78100 44.29600
H  1.88700 -6.85400 46.35400
H  -1.77000 -6.38300 45.88500
H  -0.81800 -5.21200 46.75200
H  -0.40500 -7.03300 46.88700
H  3.03800 -7.43900 43.80000
H  1.37700 -8.10400 43.75400
H  2.81500 -8.79800 46.12800
H  3.57600 -9.35900 44.66700
H  1.90000 -9.78800 44.98800
H  6.87900 -6.00200 45.42900
H  6.79600 -5.08400 46.96400
H  8.09300 -4.81800 45.78900
H  7.52100 -1.02100 42.30600
H  7.87800 3.11300 43.87400
H  9.48300 2.74300 43.21800
H  8.91600 2.03100 44.79400
Mg 44.50800 5.34100 47.37300
C  42.77200 8.20100 47.05800
C  41.76400 3.43300 46.86900
C  46.55200 2.72900 47.11100
C  47.51100 7.46300 47.85700
N  42.58300 5.72800 46.94900
C  42.02400 6.99900 46.90000
C  40.55800 6.81400 46.41300
C  40.18900 5.39000 46.85700
C  41.60400 4.80500 46.90700
C  39.47300 5.34900 48.28400
C  40.38200 7.13100 44.82900
C  39.39400 8.19700 44.42600
H  39.23500 8.69000 42.95700
N  44.23100 3.35100 46.96900
C  42.99300 2.77700 46.80200
C  43.17500 1.38000 46.45700
C  44.61800 1.11400 46.53300
C  45.21400 2.40400 46.94500
C  42.06500 0.48900 46.06700
C  45.31800 -0.20700 46.33400
O  44.64400 -1.28300 46.24400
C  46.77600 -0.35600 46.42900
N  46.70800 5.12800 47.39800
C  47.23900 3.88900 47.39700
C  48.78100 3.98300 47.54600
C  49.02000 5.47000 47.97200
C  47.67000 6.04600 47.75500
C  49.36400 2.93600 48.50000
C  50.09800 6.17600 47.08900
C  51.27900 6.66800 47.93400
N  45.08300 7.46000 47.44000
C  46.22700 8.11300 47.74900
C  45.99400 9.60800 47.65200
C  44.59000 9.67600 47.36900
C  44.10900 8.34000 47.31100
C  47.05800 10.74000 47.70800
C  43.50400 10.57300 47.04700
O  43.50500 11.81100 46.97700
C  42.16600 9.63700 46.91500
C  41.32800 9.94700 48.00000
O  41.52800 9.60800 49.13500
O  40.07900 10.31600 47.50400
C  38.95200 10.27400 48.39600
H  40.82300 2.89200 46.75000
H  47.37900 2.01700 47.07100
H  48.44500 7.98900 48.06500
H  39.95600 7.56700 46.92200
H  39.55400 4.90100 46.11900
H  40.17000 5.19100 49.10700
H  38.70700 4.57600 48.33800
H  38.92900 6.26000 48.53400
H  39.92500 6.29700 44.29500
H  41.28800 7.33500 44.25900
H  39.55900 9.10800 45.00200
H  38.38600 7.88200 44.69700
H  41.24100 0.95200 45.52300
H  41.64900 -0.00600 46.94500
H  42.37500 -0.34900 45.44300
H  47.20100 0.30200 45.67100
H  47.14400 -1.38000 46.35900
H  47.09200 -0.12400 47.44600
H  49.31600 3.76700 46.62100
H  49.17400 5.57700 49.04600
H  50.25200 2.65000 47.93600
H  48.65100 2.14100 48.71600
H  49.79900 3.43200 49.36800
H  49.79900 7.08000 46.55800
H  50.50900 5.40600 46.43700
H  51.28500 6.13300 48.88400
H  51.14300 7.70800 48.23100
H  52.24600 6.54600 47.44600
H  47.11300 11.34100 48.61500
H  46.84600 11.42700 46.88800
H  48.00000 10.25300 47.45600
H  41.55100 9.81300 46.03300
H  39.28800 10.74600 49.32000
H  38.77100 9.20600 48.51400
H  38.11500 10.79200 47.92900

