158

Mg 27.01700 51.32900 26.74800
C  24.92000 52.29300 29.62700
C  29.35300 50.39100 28.99900
C  28.93300 50.55700 24.15700
C  24.58500 52.73700 24.67200
N  27.10600 51.50600 29.14200
C  26.11200 51.67200 30.08400
C  26.56300 51.31200 31.51300
C  28.04200 50.68000 31.26100
C  28.21400 50.87500 29.72600
C  29.15000 51.28500 32.03600
C  25.65700 50.24100 32.09800
C  26.16500 49.39100 33.32700
H  25.33600 49.24600 34.61700
N  28.90300 50.67500 26.62000
C  29.74500 50.33500 27.66400
C  31.02600 49.74500 27.19500
C  30.96400 49.84000 25.70600
C  29.54700 50.33800 25.40400
C  32.18300 49.32900 28.06600
C  32.07900 49.59200 24.69600
O  31.89600 49.86100 23.51500
C  33.33200 48.88200 25.06000
N  26.75300 51.65700 24.68500
C  27.69500 51.18100 23.74800
C  27.22500 51.46100 22.30600
C  25.70200 51.87500 22.48700
C  25.66900 52.05700 24.07300
C  28.00400 52.42900 21.40900
C  24.68800 50.84600 22.02100
C  23.28300 51.48200 21.83500
N  25.11100 52.38400 27.05700
C  24.28800 52.89800 26.03400
C  23.14300 53.48400 26.73700
C  23.28500 53.21600 28.13000
C  24.54400 52.55000 28.26900
C  21.84100 53.96500 26.04900
C  22.71400 53.35100 29.48600
O  21.72500 54.00400 29.80900
C  23.73100 52.72100 30.49600
C  24.04300 53.66900 31.57200
O  25.03200 54.40000 31.55700
O  23.13300 53.62400 32.61700
C  23.37600 54.48500 33.75900
H  30.12100 49.96600 29.64900
H  29.54800 50.43300 23.26400
H  23.65500 52.98100 24.15500
H  26.63900 52.25100 32.06200
H  27.95300 49.60100 31.38300
H  29.70900 50.57000 32.63900
H  28.63500 51.92800 32.75100
H  29.75500 51.93300 31.40200
H  25.42900 49.46300 31.36900
H  24.75700 50.80000 32.35200
H  27.16200 49.71000 33.63000
H  26.32700 48.32900 33.14300
H  32.38100 48.28000 27.84400
H  32.06300 49.59400 29.11600
H  33.00300 49.91600 27.65300
H  33.82900 48.55800 24.14500
H  32.99900 48.02700 25.64900
H  33.88200 49.61600 25.64700
H  27.28900 50.49300 21.80800
H  25.49200 52.80200 21.95400
H  29.04900 52.39700 21.71500
H  27.52400 53.40800 21.41900
H  28.00700 51.95500 20.42700
H  24.53700 50.19000 22.87900
H  24.98200 50.38700 21.07700
H  22.97100 51.69200 20.81200
H  23.29900 52.51100 22.19500
H  22.55600 50.97100 22.46800
H  21.77100 53.54000 25.04800
H  21.82800 55.05300 25.99100
H  21.07900 53.62500 26.75000
H  23.29700 51.76200 30.77900
H  23.56400 55.51600 33.46100
H  24.22900 54.24100 34.39300
H  22.56900 54.50400 34.49100
Mg -9.99100 39.80400 41.43100
C  -8.81300 36.46700 40.74000
C  -7.03700 40.91800 40.17100
C  -11.27100 42.77100 41.71800
C  -13.19000 38.26800 41.96700
N  -8.20800 38.72500 40.36900
C  -7.92800 37.42600 40.28600
C  -6.53600 37.25500 39.60200
C  -5.91900 38.71000 39.40800
C  -7.08400 39.51100 40.14900
C  -4.53300 38.90700 40.12500
C  -6.74200 36.60800 38.18400
C  -5.99300 35.26100 37.89900
H  -5.18500 35.25800 36.59400
N  -9.30700 41.67300 41.04400
C  -8.02900 41.92600 40.54900
C  -7.80900 43.35700 40.42400
C  -8.97600 44.00600 40.91000
C  -9.95700 42.80400 41.27700
C  -6.50500 44.02200 39.86100
C  -9.27000 45.48300 41.11100
O  -8.48000 46.32000 40.75400
C  -10.50500 45.95700 41.69000
N  -11.94400 40.42500 41.65200
C  -12.19000 41.76000 41.88600
C  -13.65000 42.00700 42.24300
C  -14.35900 40.59900 42.26400
C  -13.10200 39.68800 41.90800
C  -13.91500 42.69800 43.55700
C  -15.58800 40.40000 41.38500
C  -16.79300 39.51300 41.89200
N  -10.80000 37.69700 41.62900
C  -12.10900 37.29300 41.85800
C  -12.20200 35.81500 41.88300
C  -10.85200 35.44800 41.49600
C  -10.12100 36.65700 41.27300
C  -13.42700 35.07500 42.24800
C  -9.91900 34.36700 41.24900
O  -10.02800 33.16500 41.52100
C  -8.64600 34.98000 40.65300
C  -7.43700 34.47600 41.42100
O  -7.09100 34.88400 42.55000
O  -6.79200 33.47200 40.71300
C  -5.58400 32.87500 41.41800
H  -6.07000 41.31600 39.85600
H  -11.76600 43.72900 41.89100
H  -14.16500 37.90000 42.29300
H  -5.99700 36.65500 40.33500
H  -5.93800 39.02300 38.36400
H  -4.16000 37.94700 40.48100
H  -4.68400 39.52300 41.01100
H  -3.72700 39.32900 39.52500
H  -6.58300 37.36300 37.41400
H  -7.78300 36.28800 38.14400
H  -6.74200 34.47500 37.79600
H  -5.35900 34.95200 38.72900
H  -6.58400 44.18600 38.78600
H  -5.64000 43.36100 39.90600
H  -6.32700 45.04800 40.18300
H  -11.24200 45.72500 40.92100
H  -10.55700 47.03500 41.84000
H  -10.66800 45.45000 42.64100
H  -14.17700 42.55400 41.46100
H  -14.74800 40.22400 43.21000
H  -13.88700 43.78400 43.46400
H  -13.27900 42.27500 44.33400
H  -14.91900 42.48300 43.92400
H  -15.30000 39.78800 40.53000
H  -16.02400 41.36500 41.12800
H  -17.76900 39.97400 41.73800
H  -16.63700 39.06800 42.87500
H  -16.79300 38.65600 41.21900
H  -14.13700 35.74700 42.73000
H  -13.00200 34.37500 42.96700
H  -13.84100 34.65600 41.33100
H  -8.54200 34.73500 39.59600
H  -4.87500 33.46700 41.99700
H  -4.96700 32.34600 40.69100
H  -6.07100 32.24600 42.16400

