158

Mg 8.79400 2.59500 27.69700
C  10.31500 1.09800 30.48100
C  6.81400 4.48300 29.74800
C  7.45000 3.87500 24.96400
C  10.63500 0.25100 25.63900
N  8.68900 2.74900 29.81900
C  9.49600 2.22000 30.79400
C  9.10900 2.70800 32.17800
C  7.94300 3.65200 31.90600
C  7.72000 3.59300 30.38300
C  6.68500 3.41300 32.81400
C  10.34800 3.27300 33.00300
C  10.19600 4.25200 34.17700
H  10.95400 3.99000 35.44000
N  7.20600 3.98300 27.42700
C  6.51300 4.64400 28.37900
C  5.59700 5.51100 27.72300
C  5.93200 5.48900 26.30600
C  6.93200 4.45600 26.11700
C  4.59200 6.40400 28.50700
C  5.44200 6.34700 25.20500
O  5.85700 6.36500 24.10200
C  4.30200 7.37800 25.57300
N  8.81900 1.88600 25.58900
C  8.21600 2.69200 24.65300
C  8.73900 2.29800 23.21600
C  9.58700 1.01700 23.40100
C  9.78200 1.10100 24.98000
C  7.64900 2.19500 22.17800
C  10.99200 1.08700 22.63400
C  11.23400 -0.20500 21.83400
N  10.26800 1.14500 27.90900
C  10.86000 0.24100 27.01300
C  11.77800 -0.67000 27.72200
C  11.57800 -0.35800 29.07800
C  10.72100 0.77900 29.12400
C  12.58300 -1.85000 27.14900
C  11.99600 -0.72700 30.42500
O  12.78200 -1.56500 30.81400
C  11.22300 0.24200 31.36000
C  10.60100 -0.59800 32.36500
O  9.39200 -0.86600 32.56000
O  11.53000 -0.92200 33.35100
C  11.00600 -1.20700 34.66900
H  6.23500 5.13800 30.40300
H  7.19400 4.44700 24.06900
H  11.21000 -0.38600 24.96400
H  8.75100 1.79700 32.65800
H  8.23000 4.64800 32.24500
H  5.81000 2.97700 32.33300
H  6.32800 4.34400 33.25500
H  6.91700 2.79300 33.68000
H  10.93000 3.72900 32.20200
H  10.88600 2.37200 33.29800
H  9.14100 4.41700 34.39500
H  10.52100 5.21000 33.77100
H  3.58800 6.48800 28.09200
H  5.16700 7.30300 28.72800
H  4.44100 5.87000 29.44600
H  4.65200 8.04000 26.36500
H  3.51400 6.68400 25.86400
H  3.90300 7.99900 24.77100
H  9.37900 3.12900 22.91900
H  9.01200 0.09400 23.32700
H  6.81400 2.83100 22.47200
H  7.33900 1.15200 22.23700
H  7.98900 2.50600 21.19000
H  11.77300 1.28300 23.36900
H  10.96400 1.91400 21.92500
H  11.63000 -0.01700 20.83600
H  10.35200 -0.81400 21.63400
H  12.04500 -0.70900 22.35800
H  13.65500 -1.67900 27.04900
H  12.13300 -2.14400 26.20000
H  12.52000 -2.72800 27.79100
H  12.01800 0.80200 31.85200
H  10.08800 -0.64600 34.84600
H  11.77100 -0.84600 35.35600
H  10.75900 -2.26100 34.79700
Mg 9.46100 47.63300 26.58700
C  7.35700 47.56300 29.39500
C  12.12300 48.28900 28.62500
C  11.34100 47.86900 23.85200
C  6.61700 47.44000 24.45400
N  9.64900 48.21800 28.78300
C  8.65200 47.97900 29.74500
C  9.36200 48.03000 31.23100
C  10.85200 48.38700 30.84300
C  10.90300 48.30200 29.34300
C  11.39200 49.77100 31.42300
C  9.23700 46.63600 32.01700
C  10.39000 46.29500 33.12700
H  10.15100 45.35100 34.29600
N  11.45600 47.97100 26.30000
C  12.44400 48.15000 27.23700
C  13.72500 48.18900 26.60800
C  13.51200 48.11500 25.14200
C  12.04800 48.01200 25.05500
C  14.95500 48.32200 27.47000
C  14.48100 48.29200 23.99900
O  14.12000 48.41100 22.78200
C  15.92000 48.34000 24.38800
N  9.03800 47.68200 24.44000
C  10.02100 47.70500 23.49200
C  9.48600 47.46400 22.03600
C  7.99100 47.16000 22.34100
C  7.83900 47.41000 23.84700
C  9.77600 48.55900 20.96100
C  7.53800 45.73500 21.94300
C  8.21600 44.59300 22.73500
N  7.43200 47.51700 26.83300
C  6.42400 47.34400 25.86800
C  5.16800 47.04600 26.57500
C  5.47700 47.09400 27.92600
C  6.89600 47.45200 28.03300
C  3.78300 46.82100 26.00300
C  4.94600 47.00600 29.30000
O  3.85400 46.71800 29.68800
C  6.13200 47.34700 30.33400
C  6.21700 46.10200 31.11300
O  6.78000 45.05000 30.74400
O  5.59400 46.20300 32.33300
C  5.58800 44.99400 33.10500
H  12.97200 48.33600 29.31100
H  11.88500 47.74700 22.91300
H  5.80700 47.11200 23.79900
H  8.95900 48.85200 31.82200
H  11.56700 47.62700 31.15700
H  11.98000 50.30500 30.67700
H  12.12400 49.55000 32.20000
H  10.62000 50.35200 31.92800
H  9.31200 45.83200 31.28500
H  8.23000 46.52400 32.42000
H  10.74800 47.25700 33.49300
H  11.16700 45.73900 32.60200
H  15.41200 49.30700 27.57100
H  15.77600 47.65200 27.21800
H  14.80600 47.95900 28.48700
H  16.01500 49.21300 25.03200
H  16.55900 48.25700 23.50900
H  16.00700 47.53600 25.11900
H  10.00800 46.57100 21.69100
H  7.46900 47.98700 21.85900
H  10.46100 49.29500 21.38200
H  8.92000 49.19900 20.74600
H  10.28400 48.18900 20.07100
H  7.82700 45.73800 20.89200
H  6.45000 45.67100 21.98100
H  8.73100 43.92500 22.04400
H  7.47000 43.90200 23.12500
H  9.00300 45.03000 23.35000
H  3.25600 47.67100 26.43700
H  3.32400 45.88700 26.32600
H  3.67600 46.97600 24.92900
H  5.78100 48.11900 31.01900
H  5.04800 45.28800 34.00400
H  6.58100 44.63700 33.37800
H  5.06300 44.13000 32.69800

