158

Mg 53.65800 23.74600 45.56800
C  50.80700 25.70900 44.77500
C  51.88900 21.04000 44.68600
C  56.62300 22.11100 45.63400
C  55.29000 26.65400 46.47100
N  51.58300 23.45700 44.57900
C  50.58700 24.35300 44.49800
C  49.25200 23.70000 44.21900
C  49.50800 22.15400 44.45900
C  51.09700 22.16600 44.65800
C  48.63000 21.70500 45.66600
C  48.74300 23.88000 42.76800
C  49.65900 23.51700 41.60300
H  49.45000 24.22700 40.24200
N  54.15300 21.86000 45.20800
C  53.28800 20.90800 44.92300
C  54.00500 19.66100 44.87400
C  55.43700 19.93600 44.85800
C  55.50900 21.34400 45.21800
C  53.28200 18.31300 44.73000
C  56.55600 18.87200 44.63900
O  56.27700 17.70600 44.44200
C  58.04900 19.31100 44.59900
N  55.73000 24.36800 45.91000
C  56.73800 23.44800 45.96400
C  58.04600 24.12000 46.42000
C  57.63100 25.54800 46.72000
C  56.08100 25.55300 46.34800
C  58.67900 23.35600 47.64600
C  58.68000 26.55400 46.11300
C  58.38000 27.14400 44.79300
N  53.24800 25.75300 45.64500
C  53.98300 26.80400 46.04400
C  53.15800 27.97800 46.27600
C  51.90000 27.56000 45.70400
C  52.03300 26.24700 45.29300
C  53.44900 29.19100 46.90900
C  50.54100 28.02200 45.48800
O  50.02500 29.08300 45.66600
C  49.79100 26.79000 44.80400
C  49.32400 27.27400 43.40200
O  50.03400 27.64400 42.46900
O  47.97100 27.45500 43.49700
C  47.27700 28.13200 42.40000
H  51.31700 20.15000 44.41700
H  57.55200 21.60900 45.91000
H  55.77600 27.53300 46.89900
H  48.45800 24.14700 44.81600
H  49.29800 21.58500 43.55300
H  49.19800 20.87900 46.09300
H  47.58600 21.48100 45.44500
H  48.69900 22.63200 46.23500
H  48.22300 24.81300 42.55200
H  47.96600 23.11600 42.73000
H  49.40000 22.48100 41.38000
H  50.71300 23.54100 41.88000
H  54.11200 17.63300 44.91800
H  52.92200 18.16200 43.71300
H  52.48800 18.23400 45.47300
H  58.18600 20.13400 43.89800
H  58.59800 18.45800 44.20000
H  58.44300 19.36300 45.61400
H  58.72900 24.14300 45.57200
H  57.69600 25.55300 47.80800
H  57.86000 22.73000 47.99900
H  59.01100 23.92300 48.51500
H  59.52000 22.78200 47.25700
H  59.69300 26.19800 46.30000
H  58.59400 27.41800 46.77100
H  57.92900 28.12100 44.96300
H  57.54800 26.62100 44.31900
H  59.31100 27.18200 44.22900
H  52.53700 29.76800 47.06100
H  54.18400 29.75600 46.33500
H  53.91600 28.98600 47.87200
H  48.84200 26.59600 45.30600
H  46.40200 28.51500 42.92500
H  46.93100 27.57700 41.52800
H  47.86400 28.99600 42.08600
Mg 47.94100 15.30100 28.53100
C  45.91900 14.94800 31.31200
C  49.88400 17.49700 30.35200
C  49.66500 16.06600 25.74400
C  45.67100 13.31400 26.75600
N  47.86400 16.10500 30.66200
C  46.98200 15.74300 31.61000
C  47.26500 16.54300 32.92700
C  48.54000 17.39200 32.56700
C  48.76200 17.00100 31.05200
C  48.46700 18.81100 32.90000
C  47.36300 15.61800 34.18200
C  46.87800 16.24500 35.49300
H  47.87500 16.15500 36.69200
N  49.57600 16.59600 28.10900
C  50.23300 17.38700 29.01700
C  51.35400 17.93200 28.37500
C  51.43600 17.48900 27.04000
C  50.20900 16.65700 26.89700
C  52.46500 18.70300 29.15800
C  52.52500 17.54400 25.98200
O  52.38500 16.95400 24.89300
C  53.88000 18.14100 26.22900
N  47.63100 14.84900 26.51500
C  48.57000 15.12600 25.56700
C  48.33800 14.30500 24.26800
C  47.19000 13.35700 24.71300
C  46.77300 13.86200 26.07400
C  48.00100 15.25800 23.09300
C  47.62600 11.83500 24.48900
C  48.11700 11.05900 25.72300
N  46.20000 14.21800 28.89700
C  45.30700 13.52500 28.10600
C  44.06000 13.17100 28.84800
C  44.29700 13.70000 30.10600
C  45.59300 14.31000 30.06200
C  42.89700 12.42200 28.32100
C  43.80200 13.71900 31.43500
O  42.83200 13.15300 31.85600
C  44.73500 14.53500 32.26300
C  43.92200 15.71000 32.66300
O  43.74500 16.77600 32.11200
O  43.47300 15.44400 33.91700
C  42.47600 16.39700 34.43100
H  50.51600 18.01500 31.07600
H  50.17800 16.28000 24.80400
H  44.98800 12.72400 26.14000
H  46.46800 17.26400 33.11400
H  49.40000 16.93900 33.06100
H  47.62200 18.86600 33.58600
H  48.17700 19.44300 32.06100
H  49.43200 19.13500 33.29000
H  48.42400 15.40100 34.30000
H  46.84100 14.69100 33.94700
H  45.95000 15.70900 35.69200
H  46.57400 17.29100 35.44200
H  52.41200 18.69500 30.24700
H  52.50600 19.75200 28.86200
H  53.39200 18.18600 28.91300
H  54.29800 17.47100 26.98000
H  53.60600 19.12800 26.60400
H  54.48600 18.15400 25.32300
H  49.27500 13.80300 24.02500
H  46.30700 13.50200 24.08900
H  47.39600 14.76100 22.33500
H  48.90900 15.50500 22.54400
H  47.42400 16.12000 23.42700
H  48.45000 11.77800 23.77800
H  46.87800 11.25100 23.95200
H  47.80300 11.67700 26.56400
H  49.18800 10.87600 25.64600
H  47.55600 10.15100 25.94800
H  42.92000 11.46400 28.84100
H  42.89200 12.27500 27.24100
H  41.99900 12.97900 28.58600
H  44.96900 13.87500 33.09800
H  43.02900 17.12900 35.01900
H  41.91400 15.72100 35.07600
H  41.70400 16.79300 33.77000

