158

Mg 2.05700 -0.64600 44.58300
C  5.45200 0.14400 44.05900
C  1.21500 2.27800 42.89600
C  -1.08600 -1.86100 44.27100
C  3.06300 -3.45500 46.23800
N  3.23400 0.89800 43.47800
C  4.58900 1.09300 43.46800
C  4.97200 2.22800 42.55800
C  3.63600 3.09100 42.59400
C  2.62800 1.97900 42.99700
C  3.63700 4.19700 43.64400
C  5.37900 1.70900 41.14500
C  6.68500 2.46700 40.57000
H  6.94200 2.31700 39.03000
N  0.26600 0.00700 43.67700
C  0.15100 1.28500 43.08100
C  -1.22000 1.39400 42.56600
C  -1.91100 0.17000 42.88200
C  -0.97700 -0.63300 43.64100
C  -1.66100 2.50400 41.67400
C  -3.36600 -0.14500 42.41700
O  -4.06900 0.79500 42.02100
C  -3.93500 -1.47000 42.58300
N  1.15300 -2.55500 44.98100
C  -0.15600 -2.66300 44.96700
C  -0.56700 -3.96900 45.64900
C  0.63600 -4.34400 46.47200
C  1.71400 -3.45500 45.87400
C  -1.94600 -3.90300 46.42000
C  1.09400 -5.87100 46.24800
C  1.66500 -6.67700 47.51500
N  3.87800 -1.55400 45.10400
C  4.16800 -2.68700 45.83700
C  5.54500 -2.94700 45.87700
C  6.17400 -1.81800 45.25000
C  5.05500 -1.06800 44.71500
C  6.15600 -4.06500 46.63300
C  7.48300 -1.10800 44.98100
O  8.57700 -1.31000 45.43000
C  6.96900 0.16800 44.13800
C  7.48000 1.34300 44.75400
O  7.45300 1.58500 45.95100
O  8.06400 2.15200 43.72200
C  8.46300 3.46400 44.15900
H  0.86400 3.28800 42.67500
H  -2.06400 -2.34700 44.25100
H  3.37100 -4.32600 46.82000
H  5.76300 2.82500 43.01100
H  3.37800 3.51800 41.62500
H  4.45100 4.29500 44.36200
H  2.69800 4.32000 44.18200
H  3.71300 5.08600 43.01800
H  4.59400 1.64600 40.39200
H  5.68000 0.66800 41.26400
H  7.55800 1.98000 41.00500
H  6.47800 3.51000 40.81100
H  -1.31300 2.24300 40.67500
H  -1.33700 3.53200 41.83700
H  -2.74900 2.53200 41.61400
H  -4.80600 -1.60000 41.94000
H  -4.04300 -1.80300 43.61500
H  -3.25800 -2.19900 42.13900
H  -0.67600 -4.67800 44.82800
H  0.49400 -4.07700 47.51900
H  -2.02700 -4.64200 47.21700
H  -2.77200 -4.21800 45.78200
H  -2.14400 -2.89200 46.77600
H  1.88700 -5.98700 45.51000
H  0.22800 -6.35700 45.79900
H  1.31300 -6.25300 48.45600
H  2.73900 -6.49300 47.48100
H  1.58500 -7.75300 47.36700
H  7.24600 -4.08100 46.60800
H  5.77200 -4.87800 46.01700
H  5.83600 -4.19400 47.66700
H  7.50100 0.09600 43.18900
H  9.08100 3.97300 43.42000
H  9.09100 3.45600 45.05100
H  7.65700 4.18500 44.29500
Mg 47.48100 35.75000 26.31500
C  45.68000 34.22500 29.04000
C  48.46200 38.30500 28.37600
C  48.88800 37.01000 23.57100
C  46.23500 32.97100 24.25100
N  47.02200 36.21600 28.34700
C  46.36600 35.39800 29.37700
C  46.60500 35.94500 30.76900
C  47.23900 37.34900 30.46500
C  47.65400 37.32300 28.97200
C  46.31100 38.55000 30.63200
C  47.62700 35.02100 31.54500
C  47.50500 34.78000 33.03300
H  46.69500 35.83800 33.80400
N  48.59500 37.41500 26.02000
C  48.90200 38.30900 27.00600
C  49.70800 39.34200 26.34800
C  49.85700 38.97600 24.95200
C  49.04300 37.78500 24.77000
C  50.27800 40.45800 27.16000
C  50.58100 39.67900 23.76300
O  50.70800 39.21900 22.60100
C  51.11800 41.15500 24.00100
N  47.39700 35.07600 24.14000
C  48.18800 35.77500 23.34100
C  48.35500 35.04200 21.95600
C  47.53000 33.72900 22.22300
C  47.07500 33.87000 23.66400
C  47.90700 35.88300 20.79000
C  48.35700 32.40600 22.05500
C  47.88700 31.51500 20.93200
N  46.03000 34.01000 26.53400
C  45.77400 33.00300 25.58300
C  45.07800 32.00600 26.30400
C  44.95000 32.42100 27.66100
C  45.59600 33.67700 27.71400
C  44.50800 30.71900 25.80000
C  44.41900 32.07600 28.96200
O  43.72900 31.13300 29.32300
C  44.77100 33.30000 29.83400
C  45.16000 32.76000 31.19500
O  45.94800 31.85200 31.39400
O  44.38700 33.43500 32.14700
C  44.36100 32.75800 33.47900
H  48.84300 39.09600 29.02500
H  49.53300 37.28900 22.73400
H  46.01700 32.10600 23.62000
H  45.64800 35.89300 31.28800
H  48.17000 37.61200 30.96700
H  46.00700 39.05600 29.71600
H  46.84500 39.24500 31.28000
H  45.38300 38.28000 31.13600
H  48.63900 35.41500 31.45000
H  47.85200 34.11100 30.98900
H  48.55100 34.75300 33.33700
H  47.21600 33.74200 33.19500
H  49.85800 41.41700 26.85700
H  51.35700 40.47700 27.00500
H  50.16700 40.45400 28.24500
H  51.61500 41.36900 23.05500
H  51.83300 41.16600 24.82400
H  50.23400 41.78100 24.11700
H  49.42200 34.82200 21.97300
H  46.67300 33.76800 21.55000
H  47.46200 35.26300 20.01200
H  48.75900 36.52100 20.55600
H  47.16800 36.58500 21.17900
H  48.32000 31.70700 22.88900
H  49.40800 32.59300 21.83400
H  47.22600 30.69000 21.19700
H  48.80100 31.05700 20.55200
H  47.44000 32.12000 20.14400
H  43.45700 30.76300 25.51300
H  44.70800 30.08100 26.66100
H  45.18100 30.29400 25.05500
H  43.80100 33.78200 29.95800
H  43.67800 31.90800 33.48900
H  44.09200 33.49500 34.23500
H  45.36400 32.38300 33.68300

