158

Mg 46.97100 25.08400 29.41700
C  48.02800 27.48900 31.86800
C  45.61500 23.35300 32.19300
C  46.46200 22.49900 27.33700
C  48.54000 26.90700 26.99100
N  46.78800 25.49500 31.82800
C  47.24200 26.52300 32.51500
C  46.84700 26.39600 34.06200
C  46.17000 24.93300 34.06900
C  46.21400 24.55500 32.60600
C  46.82100 23.88700 35.05000
C  45.95500 27.59800 34.57700
C  46.42900 28.27900 35.90800
H  46.76300 27.28200 37.01600
N  46.08200 23.19100 29.66100
C  45.56600 22.64200 30.90400
C  45.02000 21.33000 30.62100
C  45.28000 21.00800 29.17200
C  46.01300 22.24300 28.64700
C  44.39100 20.49900 31.62300
C  45.01600 19.75000 28.50100
O  45.44600 19.50300 27.35200
C  44.23000 18.63600 29.19700
N  47.37900 24.80300 27.41600
C  47.02700 23.58600 26.81200
C  47.44200 23.71600 25.25000
C  48.05200 25.15600 25.14100
C  48.06500 25.63800 26.60200
C  48.50400 22.57000 24.80300
C  47.15100 26.01300 24.17300
C  47.90000 27.07700 23.26400
N  48.03500 26.88000 29.38600
C  48.63600 27.46500 28.27900
C  49.25300 28.73200 28.77000
C  49.00500 28.74800 30.16900
C  48.33300 27.58700 30.46900
C  49.92000 29.72700 27.95400
C  49.27800 29.47500 31.39300
O  49.90800 30.52600 31.58200
C  48.65200 28.70100 32.54300
C  49.78000 28.36500 33.53200
O  50.44800 27.33200 33.79700
O  49.75800 29.38500 34.40800
C  50.42300 29.14900 35.70400
H  45.04700 22.95000 33.03300
H  46.28000 21.64600 26.68000
H  48.96700 27.55300 26.22100
H  47.82100 26.36800 34.54900
H  45.15300 25.07400 34.43500
H  46.03000 23.14200 35.13800
H  47.07200 24.40300 35.97600
H  47.66000 23.39400 34.55900
H  44.93300 27.31600 34.83000
H  45.92900 28.32200 33.76300
H  45.73900 28.98300 36.37400
H  47.41200 28.73000 35.77200
H  44.20500 21.03900 32.55100
H  45.10300 19.68100 31.74000
H  43.45200 20.00700 31.36500
H  43.29100 19.08300 29.52500
H  44.84600 18.18100 29.97100
H  44.13000 17.79000 28.51800
H  46.53800 23.62800 24.64800
H  49.09300 25.13300 24.81800
H  48.34200 22.08900 23.83800
H  48.44700 21.75900 25.53000
H  49.48800 22.99800 24.99400
H  46.37400 26.55600 24.71200
H  46.69900 25.27500 23.51000
H  47.61500 26.96000 22.21900
H  48.97600 26.94400 23.37300
H  47.58900 28.05000 23.64400
H  49.82600 30.69900 28.43800
H  49.48500 29.98300 26.98900
H  50.98500 29.57900 27.77700
H  47.95100 29.33700 33.08500
H  51.31000 28.51700 35.75100
H  49.69500 28.72100 36.39400
H  50.68000 30.10100 36.16800
Mg 36.00900 49.60100 25.19200
C  36.52100 47.55000 27.91900
C  34.71900 51.99500 27.31200
C  35.19000 51.30900 22.44100
C  36.94800 47.02100 23.12800
N  35.50900 49.66500 27.44700
C  35.96200 48.78600 28.36100
C  35.98500 49.50300 29.73900
C  35.19700 50.81600 29.54500
C  35.16300 50.87900 28.01800
C  33.76000 50.79800 30.18100
C  37.40500 49.69400 30.31400
C  37.80100 49.48700 31.76800
H  36.65200 49.56400 32.75500
N  35.10000 51.35500 24.97400
C  34.70900 52.20200 25.91400
C  34.19100 53.46900 25.22400
C  34.31500 53.31200 23.81800
C  34.85600 51.96800 23.69000
C  33.78600 54.63400 26.04200
C  33.94000 54.32800 22.77500
O  34.07900 54.09800 21.57200
C  33.24100 55.59100 23.10900
N  36.10000 49.19900 23.04100
C  35.67000 50.08900 22.08600
C  35.99700 49.54100 20.69000
C  36.91800 48.31500 20.96200
C  36.69500 48.21300 22.49600
C  34.69000 49.24000 19.90400
C  38.41400 48.66300 20.72100
C  39.40500 47.50500 20.88300
N  36.61400 47.58400 25.40400
C  37.02400 46.68200 24.54200
C  37.38900 45.40300 25.11500
C  37.27200 45.73700 26.48900
C  36.72800 47.04200 26.62200
C  37.91800 44.12200 24.42100
C  37.52800 45.31500 27.86300
O  38.05200 44.28400 28.23100
C  37.04600 46.43900 28.82900
C  36.05900 45.86500 29.78700
O  34.84100 45.79100 29.61100
O  36.70300 45.69600 31.01300
C  35.78100 45.48800 32.21900
H  34.38100 52.79300 27.97700
H  34.89000 51.72100 21.47500
H  37.44100 46.23700 22.55000
H  35.53000 48.78100 30.41700
H  35.62600 51.76600 29.86300
H  33.01700 51.10600 29.44500
H  33.86500 51.54200 30.97000
H  33.35700 49.89200 30.63300
H  37.75400 50.71200 30.13900
H  37.96400 49.01700 29.66700
H  38.45700 50.26600 32.15600
H  38.32300 48.53200 31.71500
H  34.36700 55.50800 25.74900
H  33.99300 54.52500 27.10700
H  32.75600 54.98000 25.95200
H  33.19100 56.21400 22.21600
H  33.76500 56.21300 23.83600
H  32.23200 55.32000 23.42300
H  36.56000 50.26400 20.09900
H  36.68800 47.46600 20.31800
H  33.77400 49.54200 20.41100
H  34.64400 48.15300 19.84300
H  34.77300 49.74400 18.94100
H  38.61600 49.48600 21.40600
H  38.59400 49.06000 19.72200
H  38.82900 46.59500 21.05000
H  39.90300 47.58800 21.84900
H  40.03600 47.44800 19.99600
H  37.63700 43.32000 25.10400
H  38.98800 44.18300 24.22100
H  37.32800 43.97500 23.51700
H  37.88400 46.75200 29.45200
H  35.15600 44.59700 32.15500
H  35.10300 46.31500 32.43100
H  36.36700 45.32800 33.12400

