158

Mg 46.39300 24.62200 28.53200
C  46.90800 26.60900 31.11400
C  45.70100 21.93200 30.70400
C  46.29200 22.51200 25.77100
C  47.74100 27.07400 26.44900
N  46.25500 24.28100 30.63200
C  46.51500 25.29300 31.53500
C  46.16800 24.81200 33.00600
C  45.90500 23.31000 32.85700
C  45.98000 23.14900 31.33100
C  46.87700 22.34700 33.58900
C  45.00900 25.59200 33.67600
C  44.62300 25.09800 35.11400
H  44.72800 26.24000 36.15000
N  46.04300 22.56800 28.29400
C  45.76100 21.66000 29.32100
C  45.52900 20.42200 28.73500
C  45.80900 20.51700 27.35800
C  46.02800 21.91600 27.04500
C  45.02800 19.16900 29.47300
C  45.92100 19.45700 26.28900
O  46.16300 19.69800 25.09100
C  45.72100 17.96600 26.64800
N  47.05500 24.70900 26.37100
C  46.78800 23.76900 25.48900
C  46.88700 24.29400 23.98400
C  47.19800 25.80000 24.25400
C  47.42400 25.85200 25.74000
C  47.82500 23.53600 23.03300
C  45.88800 26.74200 23.89100
C  44.47800 26.37700 24.38600
N  47.17200 26.48000 28.65600
C  47.75300 27.38700 27.81200
C  48.04100 28.61800 28.44900
C  47.74600 28.41900 29.77000
C  47.21800 27.09400 29.82000
C  48.76300 29.78200 27.85600
C  47.74400 28.96000 31.07300
O  48.12100 30.03800 31.47400
C  47.16700 27.85000 32.04900
C  48.13700 27.69100 33.13900
O  49.26800 27.19700 33.03600
O  47.73800 28.40200 34.23400
C  48.72200 28.51200 35.32500
H  45.57900 21.14900 31.45700
H  46.17900 21.95300 24.83900
H  47.99000 27.83500 25.70700
H  47.08500 24.98900 33.56800
H  44.92000 23.03800 33.23900
H  46.79800 21.44600 32.98100
H  46.60900 22.07300 34.61000
H  47.87900 22.76800 33.50300
H  44.21900 25.34300 32.96700
H  45.13500 26.67000 33.57300
H  45.34700 24.34600 35.42800
H  43.58200 24.78000 35.16600
H  44.82400 19.41900 30.51400
H  45.74300 18.34700 29.48600
H  44.11300 18.81800 28.99600
H  46.05000 17.24600 25.89900
H  44.69400 17.74700 26.93800
H  46.34800 17.73700 27.50900
H  45.88200 24.28900 23.56000
H  48.12600 26.13100 23.78900
H  47.18500 23.44500 22.15600
H  47.97900 22.56800 23.50800
H  48.71700 24.09300 22.74400
H  45.79300 26.75600 22.80600
H  46.06900 27.78600 24.14800
H  44.56200 25.62700 25.17300
H  43.92100 25.93400 23.56000
H  44.01900 27.25600 24.83700
H  49.15400 30.36000 28.69400
H  48.10100 30.43600 27.28900
H  49.48600 29.45200 27.11100
H  46.31800 28.41200 32.43700
H  49.63900 27.98600 35.06200
H  48.36300 27.96500 36.19700
H  48.94000 29.55500 35.55400
Mg -9.60700 39.87800 42.62000
C  -8.44900 36.69100 41.60600
C  -6.76200 41.12800 41.22800
C  -10.84500 42.84100 43.12100
C  -12.59400 38.34700 43.57200
N  -7.82100 38.99400 41.46300
C  -7.53800 37.66700 41.20600
C  -6.23000 37.47100 40.41000
C  -5.73100 38.96400 40.36000
C  -6.78900 39.75500 41.09200
C  -4.30500 39.08600 40.89100
C  -6.39300 36.84000 39.05100
C  -5.27500 35.77900 38.62800
H  -4.31500 36.20500 37.48400
N  -8.86000 41.80000 42.30200
C  -7.62000 42.11500 41.79100
C  -7.40000 43.49900 41.84100
C  -8.60900 44.11000 42.37800
C  -9.50100 42.92800 42.62800
C  -6.14700 44.13300 41.20100
C  -8.86200 45.60600 42.53400
O  -8.00900 46.47500 42.41300
C  -10.21600 46.13500 42.91300
N  -11.42500 40.51300 43.08200
C  -11.65900 41.75400 43.32300
C  -13.07600 41.98800 43.87100
C  -13.73300 40.54500 44.00700
C  -12.54400 39.72300 43.50600
C  -13.12100 42.86100 45.22900
C  -15.07800 40.28600 43.21200
C  -16.30000 40.64100 43.96200
N  -10.35500 37.91100 42.70600
C  -11.58800 37.45000 43.13500
C  -11.58100 36.01900 43.20000
C  -10.37300 35.66600 42.54800
C  -9.71100 36.90900 42.22000
C  -12.59600 35.15700 43.71200
C  -9.47300 34.50700 42.22300
O  -9.57900 33.31800 42.37600
C  -8.22400 35.21000 41.59300
C  -7.06400 34.85600 42.51000
O  -6.70800 35.49300 43.51700
O  -6.45800 33.73100 42.00400
C  -5.30300 33.14700 42.74000
H  -5.83400 41.62800 40.94100
H  -11.23500 43.81700 43.41700
H  -13.43800 37.77400 43.96000
H  -5.60300 36.74300 40.92600
H  -5.77300 39.28100 39.31800
H  -3.67700 39.42400 40.06700
H  -3.92000 38.10500 41.17000
H  -4.17800 39.86400 41.64400
H  -6.29600 37.60000 38.27600
H  -7.28200 36.29800 38.72900
H  -5.67000 34.79700 38.36700
H  -4.55000 35.60200 39.42300
H  -5.93200 43.62200 40.26200
H  -5.37700 44.13000 41.97100
H  -6.29200 45.20000 41.03100
H  -11.00900 45.67700 42.32100
H  -10.21300 47.20600 42.71400
H  -10.31500 45.93700 43.98000
H  -13.58100 42.59600 43.12200
H  -13.92200 40.22900 45.03300
H  -12.42800 43.70000 45.29200
H  -13.14600 42.14100 46.04800
H  -14.07200 43.38700 45.15400
H  -15.08900 39.25000 42.87200
H  -15.12000 40.86400 42.28900
H  -16.03900 40.96900 44.96900
H  -16.78900 39.66800 44.00600
H  -16.93700 41.38500 43.48400
H  -12.90900 35.68000 44.61500
H  -12.18300 34.17600 43.94700
H  -13.46400 35.19900 43.05400
H  -8.00900 34.75200 40.62700
H  -4.37500 33.67000 42.50700
H  -5.17800 32.09000 42.50400
H  -5.30100 33.17000 43.82900

