158

Mg 35.31200 1.77000 29.74500
C  32.91600 2.46900 32.18200
C  37.78100 2.43300 32.23000
C  37.76800 1.53300 27.42400
C  32.95600 2.24900 27.30700
N  35.31000 2.20200 31.93100
C  34.23500 2.42000 32.68400
C  34.60300 2.48700 34.15900
C  36.11000 2.66400 34.13300
C  36.46300 2.35900 32.68600
C  36.58900 4.15200 34.51200
C  33.98200 1.34800 35.05300
C  33.04000 1.85600 36.19400
H  33.60700 3.10200 36.93800
N  37.49000 1.77200 29.83200
C  38.30400 2.18500 30.92800
C  39.66200 1.84700 30.61200
C  39.69900 1.67500 29.17500
C  38.30100 1.56300 28.71000
C  40.80500 1.87600 31.62100
C  40.93200 1.56300 28.25300
O  40.81900 1.34700 27.05300
C  42.33300 1.53700 28.77500
N  35.38000 1.71800 27.65600
C  36.46600 1.61800 26.94100
C  36.08900 1.57500 25.42700
C  34.52900 1.62800 25.45200
C  34.25000 1.85300 26.88100
C  36.82400 2.63600 24.54200
C  33.82800 0.36500 24.93100
C  32.53100 0.50900 24.14600
N  33.34500 2.22800 29.69800
C  32.53500 2.28400 28.62500
C  31.20000 2.64500 29.13400
C  31.31600 2.66600 30.48900
C  32.61000 2.42400 30.80300
C  29.97300 2.84400 28.32500
C  30.52000 2.79100 31.70300
O  29.34700 3.07300 31.99300
C  31.58500 2.77900 32.87000
C  31.59000 4.12800 33.48800
O  32.11100 5.15200 33.09000
O  30.75700 4.18600 34.59000
C  30.41000 5.49900 35.15700
H  38.51800 2.67300 32.99900
H  38.41400 1.70500 26.56000
H  32.21200 2.31600 26.51000
H  34.17000 3.41200 34.54100
H  36.57100 1.96600 34.83200
H  35.76100 4.76100 34.87700
H  37.16600 4.56800 33.68700
H  37.18800 3.95500 35.40200
H  34.88400 0.85700 35.41900
H  33.45300 0.63000 34.42600
H  32.87100 1.12300 36.98300
H  31.99800 2.10400 35.99400
H  41.56400 2.59300 31.30800
H  41.25000 0.88100 31.61300
H  40.51100 2.12900 32.64000
H  42.36700 0.83600 29.60800
H  42.56600 2.51600 29.19500
H  43.12200 1.19700 28.10400
H  36.43400 0.60700 25.06300
H  34.20300 2.54900 24.96800
H  37.59100 2.04700 24.03900
H  37.44500 3.33200 25.10600
H  36.27100 3.17500 23.77300
H  33.81900 -0.25100 25.83000
H  34.51100 -0.24800 24.34300
H  31.80200 -0.27700 24.34700
H  32.71300 0.42300 23.07500
H  32.11300 1.48200 24.40200
H  29.54100 3.84500 28.32700
H  29.39200 2.13200 28.91100
H  30.11600 2.46000 27.31500
H  31.23400 2.00200 33.55000
H  29.52300 5.44600 35.78800
H  30.29900 6.17100 34.30600
H  31.15900 5.95600 35.80400
Mg 35.98500 49.08100 24.38900
C  35.97800 47.47800 27.56300
C  34.33700 51.70600 26.14400
C  35.38900 50.46700 21.40600
C  37.06500 46.07600 23.08300
N  35.19300 49.55200 26.61400
C  35.48800 48.79400 27.69500
C  35.10700 49.59600 28.96900
C  34.40500 50.88100 28.52400
C  34.63400 50.72100 27.04800
C  32.91000 51.03500 28.84900
C  36.36700 49.83200 29.92700
C  36.05800 49.86200 31.41500
H  34.52900 49.80100 31.87500
N  35.19300 50.88500 23.83600
C  34.56300 51.82100 24.73500
C  34.13200 52.95200 23.89900
C  34.37300 52.66500 22.55400
C  35.01000 51.27900 22.49600
C  33.44400 54.25100 24.42900
C  34.06900 53.49700 21.29200
O  34.27700 52.97300 20.13400
C  33.83200 54.92000 21.32800
N  36.30400 48.48200 22.56200
C  35.98000 49.19700 21.43700
C  36.42500 48.45200 20.18100
C  37.21400 47.21600 20.72100
C  36.85800 47.19200 22.22100
C  35.34200 48.18100 19.06000
C  38.69900 46.99500 20.31500
C  39.70900 47.93000 21.06100
N  36.54100 47.13000 25.11300
C  36.99100 45.99700 24.50400
C  37.19200 44.93800 25.37300
C  36.87500 45.48100 26.61200
C  36.38800 46.76600 26.39600
C  37.65600 43.50900 25.03500
C  36.85300 45.16400 28.00200
O  37.12000 44.09400 28.58300
C  36.40200 46.45500 28.70400
C  35.27600 46.16000 29.59900
O  34.09200 46.01900 29.24900
O  35.72700 46.02500 30.94300
C  34.92900 45.13400 31.72300
H  33.71800 52.53100 26.50400
H  35.11300 50.60300 20.35800
H  37.59800 45.18100 22.75700
H  34.45400 48.95900 29.56500
H  34.99800 51.71700 28.89400
H  32.28800 51.01300 27.95400
H  32.72900 51.98100 29.36000
H  32.68900 50.25700 29.57900
H  36.85300 50.74700 29.58900
H  37.05500 49.06000 29.58000
H  36.51900 50.76200 31.82200
H  36.44900 49.01200 31.97300
H  34.22700 55.00800 24.47900
H  33.12700 54.17700 25.47000
H  32.49700 54.54500 23.97700
H  32.97000 55.16400 21.95000
H  33.75600 55.21400 20.28100
H  34.75800 55.34800 21.71200
H  37.20100 49.06000 19.71400
H  36.68000 46.32800 20.38100
H  34.54800 48.92700 19.11000
H  34.81800 47.25500 19.29600
H  35.86300 48.21800 18.10400
H  38.84000 47.16800 19.24800
H  39.09300 45.98000 20.36800
H  39.03800 48.69100 21.45800
H  40.48700 48.39700 20.45800
H  40.07200 47.34600 21.90700
H  37.62100 43.22400 23.98300
H  36.94700 42.80900 25.47700
H  38.64600 43.34800 25.46200
H  37.30900 46.61400 29.28600
H  34.92300 44.13100 31.29600
H  33.89300 45.47100 31.75900
H  35.24200 45.14500 32.76700

