158

Mg 9.46900 47.08200 27.28100
C  7.38800 46.74500 29.92400
C  12.09900 47.71800 29.50400
C  11.46600 47.93400 24.71900
C  6.77000 47.27600 25.20200
N  9.62900 47.49100 29.44900
C  8.72400 46.98800 30.31600
C  9.18900 47.10300 31.83900
C  10.58000 47.70000 31.65800
C  10.78300 47.67500 30.11700
C  10.65900 49.22800 32.10300
C  9.28000 45.72600 32.67200
C  10.24500 45.55200 33.84800
H  9.58300 44.78200 35.03600
N  11.53900 47.50200 27.10500
C  12.49500 47.65300 28.11900
C  13.83700 47.84300 27.65400
C  13.64900 47.91700 26.22700
C  12.17900 47.80300 25.97800
C  15.15600 47.92100 28.47400
C  14.67300 48.08700 25.15400
O  14.45300 48.09500 23.95200
C  16.17000 48.26500 25.60100
N  9.10200 47.80000 25.31400
C  10.13400 47.99000 24.39100
C  9.63300 48.32000 23.04600
C  8.08100 47.94300 23.19200
C  7.94300 47.56900 24.60100
C  9.86400 49.83200 22.61300
C  7.63400 46.70100 22.22800
C  6.74800 47.13800 21.05800
N  7.47900 47.04700 27.45500
C  6.46500 47.02200 26.57600
C  5.10800 46.73800 27.19200
C  5.52100 46.64500 28.47200
C  6.89600 46.82000 28.61600
C  3.75500 46.63300 26.51600
C  4.97100 46.47500 29.77800
O  3.76200 46.26400 29.99500
C  6.11200 46.61000 30.82600
C  6.14200 45.47900 31.69400
O  6.84900 44.45700 31.52400
O  5.13900 45.62800 32.63100
C  5.05500 44.51400 33.65200
H  13.00400 47.84000 30.10300
H  11.95900 48.15000 23.76800
H  5.90300 47.23500 24.54000
H  8.52800 47.77300 32.38900
H  11.39100 47.09400 32.06300
H  11.59100 49.46000 32.61800
H  9.83600 49.64200 32.68500
H  10.68500 49.78300 31.16500
H  9.36800 44.86700 32.00700
H  8.32500 45.66900 33.19400
H  10.61700 46.46700 34.30700
H  11.05100 44.85000 33.63700
H  15.05000 47.70300 29.53600
H  15.73500 48.84500 28.45500
H  15.79000 47.10700 28.12100
H  16.75600 48.51500 24.71600
H  16.59200 47.33400 25.97900
H  16.18300 48.98600 26.41800
H  9.97800 47.79100 22.15700
H  7.62000 48.88500 22.89700
H  9.09000 50.59700 22.56000
H  10.35600 49.80100 21.64100
H  10.56800 50.23400 23.34200
H  7.08100 45.96700 22.81400
H  8.53400 46.22800 21.83600
H  6.82000 48.19200 20.79100
H  5.75100 46.95700 21.46000
H  6.96900 46.42400 20.26400
H  3.96600 46.23500 25.52400
H  3.30700 47.61100 26.34000
H  3.01600 46.06900 27.08500
H  5.83100 47.42100 31.49900
H  4.59600 43.67700 33.12500
H  4.25100 44.80000 34.33000
H  6.02800 44.39600 34.13000
Mg -11.34100 18.01200 42.60600
C  -8.15200 16.51000 41.92000
C  -9.74500 21.02100 41.81100
C  -14.28300 19.38000 42.47100
C  -12.80600 14.84200 42.49800
N  -9.26800 18.57500 41.87700
C  -8.14000 17.86300 41.67700
C  -6.86100 18.66900 41.29000
C  -7.39900 20.08100 41.66500
C  -8.90400 19.90000 41.87900
C  -6.73200 20.98000 42.71800
C  -6.49100 18.43300 39.82800
C  -4.94400 18.42600 39.52900
H  -4.28400 18.80500 38.23800
N  -11.91200 20.02100 42.42200
C  -11.17900 21.10900 41.99700
C  -12.09500 22.18700 41.68300
C  -13.42900 21.80900 42.04000
C  -13.30700 20.34300 42.36600
C  -11.58000 23.49100 41.13300
C  -14.61000 22.70800 42.11900
O  -14.49100 23.92400 42.08700
C  -15.97500 22.18300 42.57600
N  -13.31600 17.17800 42.43000
C  -14.32600 17.99100 42.60800
C  -15.58800 17.26300 42.67700
C  -15.14400 15.75300 42.73800
C  -13.63600 15.88600 42.35000
C  -16.46300 17.60100 43.94900
C  -15.92500 14.71500 41.89900
C  -15.78900 14.81700 40.36800
N  -10.67200 16.03000 42.36300
C  -11.37200 14.87200 42.34100
C  -10.47500 13.71100 42.22600
C  -9.20200 14.33800 42.11700
C  -9.35300 15.74500 42.11900
C  -10.88300 12.26700 42.11300
C  -7.79800 14.05600 42.12600
O  -7.21900 13.00900 42.14000
C  -7.06400 15.49800 41.72100
C  -5.92600 15.66900 42.74700
O  -4.71700 15.75100 42.52900
O  -6.49300 15.91000 43.91400
C  -5.59800 16.45000 44.93800
H  -9.13300 21.87200 41.50500
H  -15.31300 19.71700 42.34100
H  -13.27900 13.86000 42.56500
H  -6.05700 18.38500 41.96900
H  -7.38900 20.73200 40.79100
H  -7.43600 21.37000 43.45300
H  -6.28700 21.87300 42.27800
H  -5.94000 20.36300 43.14200
H  -6.84600 19.13500 39.07400
H  -6.90800 17.53800 39.36700
H  -4.44600 17.51700 39.86800
H  -4.58200 19.17400 40.23500
H  -12.40200 23.77200 40.47400
H  -10.73700 23.48600 40.44200
H  -11.44300 24.29300 41.85800
H  -16.50500 21.61500 41.81300
H  -16.52400 23.09100 42.82900
H  -15.77500 21.69900 43.53200
H  -16.29100 17.32400 41.84600
H  -15.22100 15.55600 43.80700
H  -16.64000 16.77500 44.63900
H  -17.38500 18.13100 43.70800
H  -15.87800 18.26100 44.58900
H  -16.99400 14.74000 42.11200
H  -15.62400 13.72800 42.25000
H  -15.22800 13.98600 39.94100
H  -15.19800 15.70800 40.15700
H  -16.78500 14.88400 39.93000
H  -10.17800 11.55000 42.53200
H  -10.88300 12.14200 41.03000
H  -11.93800 12.21800 42.38400
H  -6.65400 15.50400 40.71100
H  -6.27900 16.60900 45.77400
H  -5.31100 17.44200 44.58900
H  -4.82400 15.81400 45.36600

