158

Mg 34.25200 3.60400 30.08300
C  31.92200 4.56300 32.54900
C  36.64100 3.63400 32.46000
C  36.38700 2.69000 27.74300
C  31.52800 3.53400 27.64600
N  34.29100 4.12700 32.17300
C  33.19900 4.43700 33.02600
C  33.58300 4.39300 34.50600
C  35.11600 4.69700 34.35400
C  35.39800 4.06300 32.92400
C  35.51800 6.11300 34.28800
C  33.26500 2.99300 35.12000
C  32.94600 3.00300 36.65500
H  33.53300 4.14800 37.50100
N  36.24000 3.09700 30.15100
C  37.05200 3.20500 31.22900
C  38.34700 2.81500 30.86000
C  38.27100 2.41700 29.47600
C  36.92400 2.76900 29.01800
C  39.47300 2.62000 31.90100
C  39.39300 1.75600 28.63500
O  39.29800 1.62500 27.39900
C  40.75400 1.51300 29.23700
N  34.03300 3.31700 27.93700
C  35.09000 2.91800 27.21000
C  34.67500 2.55500 25.75400
C  33.15300 2.53000 25.83700
C  32.83500 3.17100 27.20400
C  35.17100 3.69500 24.77700
C  32.56600 1.07300 25.76600
C  31.86000 0.86700 24.41500
N  32.23100 3.95700 29.99200
C  31.23800 3.90700 28.97200
C  29.91500 4.22300 29.56700
C  30.15500 4.56600 30.84000
C  31.56000 4.30700 31.14600
C  28.57600 4.23400 28.88600
C  29.51000 4.95600 32.07000
O  28.31500 5.28100 32.18000
C  30.58900 5.06100 33.20500
C  30.64000 6.36800 33.86200
O  31.16700 7.36000 33.37000
O  30.19600 6.19700 35.13100
C  30.49400 7.22700 36.09800
H  37.35400 3.74300 33.28100
H  37.07400 2.43700 26.93300
H  30.70500 3.48500 26.92900
H  33.07500 5.10500 35.15700
H  35.63400 4.18400 35.16400
H  35.93800 6.39700 35.25400
H  34.67100 6.79800 34.26300
H  36.17000 6.38700 33.45900
H  34.06000 2.25600 35.00300
H  32.30100 2.60800 34.78600
H  33.38500 2.11100 37.10200
H  31.88900 2.93400 36.91200
H  40.51800 2.60000 31.59100
H  39.37100 1.72000 32.50700
H  39.46800 3.58700 32.40500
H  40.78600 0.80100 30.06100
H  41.31700 2.36700 29.61300
H  41.40700 1.05300 28.49500
H  35.16300 1.64400 25.40900
H  32.71200 3.19200 25.09200
H  35.47600 4.58400 25.33000
H  34.45400 3.99000 24.01100
H  36.03500 3.30200 24.24100
H  31.87600 0.80600 26.56600
H  33.45100 0.44400 25.85200
H  30.93500 0.34200 24.65200
H  32.50300 0.23400 23.80400
H  31.62500 1.74200 23.80900
H  28.59600 3.91600 27.84400
H  28.15100 5.23800 28.91100
H  27.92200 3.61800 29.50400
H  30.18600 4.40100 33.97300
H  30.81300 6.87700 37.08000
H  29.57400 7.74700 36.36500
H  31.19800 7.97200 35.72600
Mg 16.95600 53.06000 26.61700
C  18.85600 51.47500 29.03500
C  14.50200 53.61600 28.90600
C  14.96800 54.19400 24.11300
C  19.32600 52.01600 24.14000
N  16.60400 52.48900 28.64200
C  17.60000 51.96100 29.45700
C  17.27300 52.27200 30.89800
C  15.78900 52.63000 30.82800
C  15.53600 52.81700 29.35400
C  14.86500 51.61600 31.45900
C  18.17600 53.39700 31.50300
C  18.63200 53.18400 32.91500
H  17.67100 52.38000 33.82400
N  15.06700 53.95600 26.52200
C  14.23900 54.16000 27.63200
C  13.04800 54.87700 27.23600
C  13.09300 54.96800 25.81900
C  14.41200 54.38800 25.37300
C  11.98100 55.22500 28.26900
C  12.09200 55.62100 24.85100
O  12.39600 55.64900 23.64600
C  10.89300 56.44000 25.37100
N  17.11400 52.97700 24.42200
C  16.11700 53.55900 23.66800
C  16.44900 53.29600 22.14400
C  17.99800 52.95100 22.18800
C  18.18000 52.63200 23.66400
C  15.48400 52.28100 21.47800
C  19.01700 53.94800 21.59500
C  19.51900 55.20900 22.35500
N  18.75900 51.84200 26.53900
C  19.65300 51.60600 25.47300
C  20.76800 50.79000 26.05100
C  20.47000 50.84500 27.45200
C  19.25200 51.41800 27.69000
C  21.90900 50.22000 25.26600
C  21.06100 50.40500 28.73100
O  22.11900 49.84100 28.95900
C  20.00900 50.90300 29.81500
C  19.65600 49.80000 30.60800
O  19.07500 48.77900 30.25000
O  19.99400 50.00700 31.89600
C  19.54800 48.95400 32.76500
H  13.75200 53.79900 29.67800
H  14.35200 54.51100 23.26800
H  20.01300 51.76000 23.33000
H  17.48800 51.39200 31.50500
H  15.69100 53.62500 31.26200
H  14.14100 52.12500 32.09600
H  15.33100 50.76700 31.95900
H  14.35400 51.22100 30.58000
H  17.73300 54.37500 31.31400
H  19.07200 53.51000 30.89200
H  18.66500 54.10700 33.49400
H  19.56700 52.63400 33.02200
H  11.15500 54.52300 28.38000
H  11.50500 56.15400 27.95700
H  12.46300 55.49600 29.20900
H  10.26000 55.91800 26.08800
H  10.27200 56.66700 24.50400
H  11.27500 57.34100 25.85000
H  16.37300 54.28400 21.68900
H  18.24000 51.98800 21.74000
H  16.13200 51.48800 21.10500
H  14.85100 52.57900 20.64300
H  14.87500 51.74700 22.20900
H  18.50500 54.33600 20.71400
H  19.84700 53.27000 21.39500
H  18.81800 55.49300 23.14000
H  19.43700 56.06800 21.68900
H  20.56500 55.09200 22.63800
H  22.49700 51.12500 25.10900
H  21.79100 49.69800 24.31600
H  22.52700 49.66300 25.97000
H  20.51700 51.69800 30.36000
H  20.38800 48.26200 32.82900
H  18.56600 48.52100 32.57300
H  19.43800 49.49400 33.70600

