158

Mg 49.54300 45.58900 42.94100
C  46.12000 45.95000 42.15200
C  49.27400 42.22500 42.19700
C  52.87000 45.46300 42.82900
C  49.72300 49.21700 42.71600
N  47.86200 44.30800 42.14200
C  46.57000 44.58900 42.00700
C  45.76400 43.31500 41.75000
C  46.76400 42.17800 42.14700
C  48.03600 42.91200 42.27600
C  46.39500 41.52300 43.47500
C  45.14200 43.23000 40.31300
C  46.01400 42.80500 39.06700
H  45.84700 43.66000 37.80600
N  50.85900 44.06900 42.83400
C  50.57000 42.67500 42.52300
C  51.77100 41.89500 42.62600
C  52.83100 42.83800 42.88900
C  52.22500 44.18900 42.88800
C  51.77900 40.38400 42.49300
C  54.29800 42.49400 43.10400
O  54.67600 41.35300 43.15000
C  55.29300 43.50500 43.40300
N  51.06300 47.17600 42.82300
C  52.36300 46.81500 42.81900
C  53.21200 48.09000 42.66100
C  52.31000 49.23200 42.33300
C  50.90700 48.52900 42.74300
C  54.14100 48.30700 43.95500
C  52.58200 49.75300 40.89300
C  53.90900 50.42700 40.65000
N  48.22400 47.26600 42.55400
C  48.42300 48.62800 42.55900
C  47.15700 49.31900 42.42700
C  46.25200 48.29600 42.24600
C  46.93100 47.07800 42.37200
C  46.93100 50.83500 42.54700
C  44.86400 48.04100 41.91100
O  43.99700 48.85800 41.64100
C  44.77900 46.51300 41.81500
C  43.73300 45.90300 42.63600
O  42.99600 45.07500 42.10600
O  43.63900 46.39700 43.85500
C  42.43200 45.87200 44.61200
H  49.31000 41.14600 42.03100
H  53.95600 45.41600 42.73200
H  49.79000 50.30700 42.75100
H  44.91300 43.36200 42.42900
H  46.74600 41.43100 41.35300
H  45.50800 42.02800 43.85600
H  47.23100 41.68000 44.15700
H  46.23100 40.45600 43.33100
H  44.69100 44.21000 40.16000
H  44.26900 42.58700 40.43000
H  45.67200 41.81700 38.76000
H  47.07500 42.66500 39.27700
H  51.88300 40.01800 41.47200
H  50.91600 40.06300 43.07600
H  52.62800 40.01200 43.06600
H  55.64700 44.03100 42.51700
H  56.20300 43.13500 43.87400
H  54.87700 44.16700 44.16200
H  53.88800 47.77400 41.86600
H  52.54500 49.94100 43.12700
H  55.20000 48.10100 43.80400
H  53.83500 47.64900 44.76800
H  54.02600 49.22800 44.52600
H  51.81600 50.50900 40.72100
H  52.48000 48.93300 40.18300
H  53.67500 51.45900 40.38800
H  54.39100 49.97400 39.78400
H  54.51700 50.26200 41.53900
H  47.18200 51.12000 43.56900
H  45.89900 51.16900 42.65600
H  47.59500 51.38900 41.88300
H  44.53300 46.49200 40.75400
H  41.71400 45.24900 44.08000
H  41.85900 46.72600 44.97200
H  42.79400 45.31600 45.47700
Mg -5.55400 25.09900 25.91800
C  -3.96000 26.46600 28.73000
C  -7.23600 22.96300 27.88100
C  -6.94700 23.76700 23.17800
C  -3.62500 27.43600 23.88000
N  -5.44700 24.71300 28.07500
C  -4.87200 25.47300 28.97100
C  -5.37400 25.08400 30.38300
C  -6.12500 23.72900 30.14200
C  -6.28700 23.76300 28.61800
C  -5.29100 22.50100 30.65000
C  -6.31000 26.10500 30.96000
C  -6.36000 26.35900 32.51400
H  -5.66500 25.27600 33.36400
N  -6.90600 23.53900 25.59300
C  -7.44700 22.83700 26.54600
C  -8.48200 21.98600 26.00500
C  -8.49200 22.17800 24.58200
C  -7.37000 23.15700 24.34600
C  -9.35700 21.05400 26.74700
C  -9.53100 21.58000 23.52000
O  -9.41000 21.82600 22.36900
C  -10.70900 20.72100 23.94000
N  -5.13100 25.29600 23.88100
C  -5.92700 24.75800 22.97500
C  -5.45700 25.15500 21.57400
C  -4.63300 26.45900 21.84500
C  -4.39900 26.38600 23.29100
C  -4.64500 24.04500 20.89000
C  -5.41500 27.76900 21.37100
C  -4.53700 28.81000 20.62400
N  -4.01200 26.53600 26.17700
C  -3.32300 27.37500 25.26100
C  -2.43100 28.16300 26.04600
C  -2.60100 27.80600 27.36600
C  -3.62100 26.87100 27.48700
C  -1.38800 29.13300 25.49100
C  -2.18500 28.15400 28.75300
O  -1.22700 28.84900 29.09500
C  -3.12200 27.30800 29.67800
C  -2.31300 26.54000 30.69900
O  -1.98100 25.37900 30.48400
O  -2.19900 27.27800 31.88000
C  -1.35400 26.71300 32.93100
H  -7.90300 22.38200 28.52100
H  -7.41100 23.35500 22.27900
H  -3.02200 28.02900 23.18900
H  -4.52800 24.96800 31.06100
H  -7.08500 23.79100 30.65400
H  -5.81800 21.84500 31.34200
H  -4.34900 22.81500 31.10000
H  -5.00000 21.94200 29.76100
H  -7.35500 25.98500 30.67500
H  -6.02200 27.07200 30.54700
H  -7.39800 26.29000 32.84000
H  -5.89900 27.29700 32.82300
H  -9.26100 20.07500 26.27600
H  -10.34900 21.49600 26.66500
H  -9.08800 20.90200 27.79200
H  -11.46600 21.25200 24.51700
H  -10.33200 19.83600 24.45300
H  -11.23300 20.27900 23.09200
H  -6.25700 25.31800 20.85200
H  -3.65700 26.43600 21.36100
H  -3.73800 24.50700 20.50000
H  -5.22400 23.69300 20.03600
H  -4.53000 23.21100 21.58200
H  -6.01100 28.21700 22.16600
H  -6.15700 27.34700 20.69300
H  -4.63100 29.73600 21.19100
H  -5.03800 29.07800 19.69300
H  -3.47900 28.59800 20.46800
H  -1.71700 30.16200 25.63800
H  -1.32200 28.96900 24.41500
H  -0.37500 29.06500 25.88900
H  -3.79600 27.99700 30.18700
H  -1.95400 26.01500 33.51500
H  -0.90500 27.45400 33.59300
H  -0.58900 26.14500 32.40200

