158

Mg -12.07200 38.89800 42.54200
C  -10.61400 35.85700 41.57800
C  -9.51500 40.49000 40.75700
C  -13.58500 41.80000 43.04700
C  -14.68200 37.09400 44.02600
N  -10.30100 38.22800 41.21300
C  -9.89900 36.92100 41.05900
C  -8.52200 36.86400 40.28200
C  -8.29400 38.42400 40.02400
C  -9.38100 39.11300 40.83300
C  -6.82400 38.84200 40.19800
C  -8.52900 36.07300 38.96500
C  -7.56500 34.82400 38.95200
H  -6.55200 34.86700 37.84300
N  -11.54600 40.90400 42.06600
C  -10.49100 41.34300 41.34900
C  -10.49600 42.77300 41.36300
C  -11.76200 43.20800 41.92200
C  -12.38400 41.95000 42.33000
C  -9.37500 43.63400 40.81100
C  -12.27400 44.63000 42.02400
O  -11.72500 45.51300 41.38100
C  -13.63500 45.08300 42.67100
N  -13.99900 39.36900 43.22200
C  -14.33900 40.70100 43.44500
C  -15.70900 40.77600 44.22400
C  -16.07000 39.27500 44.41300
C  -14.81900 38.51200 43.91900
C  -15.69900 41.61300 45.47900
C  -17.40400 38.73400 43.77000
C  -18.41800 38.03500 44.66200
N  -12.56200 36.88600 42.80900
C  -13.66300 36.29000 43.44900
C  -13.53300 34.81200 43.45600
C  -12.32700 34.67500 42.68900
C  -11.83400 35.89500 42.34000
C  -14.53600 33.77700 43.98600
C  -11.41000 33.61000 42.19000
O  -11.38100 32.41300 42.35200
C  -10.27000 34.38100 41.43800
C  -9.05500 34.01300 42.11900
O  -8.61500 34.59400 43.10000
O  -8.52900 32.95400 41.44000
C  -7.21600 32.56400 41.98300
H  -8.64500 40.99500 40.33300
H  -14.20600 42.67500 43.24800
H  -15.46300 36.49900 44.50500
H  -7.76800 36.45100 40.95200
H  -8.45500 38.77300 39.00400
H  -6.37300 39.08900 39.23700
H  -6.26800 37.95300 40.49600
H  -6.74600 39.72900 40.82700
H  -8.27400 36.70400 38.11300
H  -9.55000 35.74500 38.77300
H  -8.17700 33.95300 38.71700
H  -7.02900 34.73500 39.89700
H  -8.35700 43.36800 41.09500
H  -9.50800 44.54100 41.40100
H  -9.46100 43.87900 39.75200
H  -13.68300 44.59300 43.64400
H  -14.53000 44.71700 42.16700
H  -13.77200 46.16300 42.71400
H  -16.40800 41.16900 43.48600
H  -16.03600 39.02700 45.47400
H  -16.71000 41.99300 45.62700
H  -15.09800 42.49500 45.25900
H  -15.35600 41.10800 46.38200
H  -17.31400 37.97700 42.99000
H  -17.95800 39.58900 43.38300
H  -18.82100 37.15100 44.16900
H  -19.33300 38.60800 44.81200
H  -18.07000 37.70700 45.64100
H  -15.49100 33.76600 43.46200
H  -14.65000 33.83400 45.06900
H  -14.11100 32.80400 43.73800
H  -10.22800 33.98600 40.42300
H  -6.59500 33.39200 42.32500
H  -6.54800 32.02500 41.31100
H  -7.36300 31.88400 42.82300
Mg -1.55100 35.13500 26.06100
C  -2.89300 33.41300 28.70400
C  -0.36100 37.55100 28.42100
C  -0.28300 36.93400 23.63400
C  -3.11800 32.94200 23.88200
N  -1.57500 35.39200 28.35700
C  -2.12800 34.47000 29.15800
C  -1.93000 34.82500 30.68100
C  -1.30700 36.29300 30.55500
C  -1.05200 36.48900 29.01500
C  -2.19000 37.42200 31.15100
C  -1.19100 33.77200 31.53300
C  -1.98400 33.05900 32.71900
H  -1.30600 32.96200 34.06500
N  -0.43700 36.97100 26.04200
C  -0.01500 37.80700 27.05900
C  0.81600 38.75600 26.53300
C  0.79200 38.62300 25.15000
C  0.06900 37.45500 24.89800
C  1.47100 39.76800 27.53600
C  1.52100 39.49500 24.16100
O  1.63900 39.14000 23.05100
C  2.26800 40.72200 24.63000
N  -1.86800 35.12700 24.05000
C  -1.05700 35.85300 23.24500
C  -1.43200 35.62600 21.79700
C  -2.27700 34.28900 21.81500
C  -2.44000 34.09400 23.35500
C  -2.16100 36.77700 21.12500
C  -1.61600 33.12400 20.93800
C  -0.36300 32.46200 21.41700
N  -2.68800 33.43100 26.17100
C  -3.27100 32.66400 25.25900
C  -4.03700 31.60000 25.86900
C  -3.92200 31.81400 27.20800
C  -3.08100 33.01200 27.33900
C  -4.80200 30.57300 25.21500
C  -4.42400 31.49300 28.52200
O  -5.23600 30.63000 28.88400
C  -3.64300 32.39800 29.54500
C  -4.67800 32.98800 30.39900
O  -5.33100 33.99100 30.26400
O  -4.76400 32.16000 31.48200
C  -5.81800 32.50200 32.47900
H  0.03100 38.16700 29.23300
H  0.17400 37.40200 22.76000
H  -3.62100 32.30800 23.14900
H  -2.93700 34.89700 31.09300
H  -0.32700 36.28800 31.03100
H  -2.53600 38.07400 30.34900
H  -1.68800 38.01800 31.91400
H  -3.07700 37.03700 31.65500
H  -0.29100 34.23300 31.93900
H  -0.93000 32.98100 30.83000
H  -2.21600 32.10900 32.23800
H  -2.89600 33.63200 32.88700
H  2.15900 40.52600 27.16200
H  1.86800 39.27800 28.42500
H  0.69700 40.36100 28.02500
H  1.58800 41.36300 25.19000
H  2.77600 41.26200 23.83100
H  3.10100 40.29300 25.18600
H  -0.48500 35.39100 21.31100
H  -3.25800 34.54300 21.41300
H  -2.37700 37.61900 21.78200
H  -3.12900 36.52100 20.69300
H  -1.42800 37.02700 20.35800
H  -1.38800 33.50000 19.94100
H  -2.29000 32.30700 20.67900
H  0.04500 32.93900 22.30800
H  0.34800 32.65700 20.61500
H  -0.47100 31.38700 21.56400
H  -5.70400 30.97500 24.75200
H  -4.99500 29.82900 25.98700
H  -4.10000 30.22200 24.45900
H  -2.96400 31.80600 30.15800
H  -5.33300 32.68100 33.43800
H  -6.40700 31.58700 32.54700
H  -6.52300 33.26400 32.14700

