158

Mg 16.28700 -1.91300 27.82700
C  15.19600 0.04100 30.52200
C  18.44000 -3.52500 30.04300
C  17.24700 -3.76200 25.39100
C  14.39500 0.26500 25.68200
N  16.75400 -1.73700 30.05700
C  16.16000 -0.84900 30.96900
C  16.73600 -1.08400 32.40300
C  17.96600 -1.95200 32.13800
C  17.71800 -2.43300 30.62900
C  19.22800 -1.10500 32.20300
C  15.75700 -1.62100 33.43300
C  15.71100 -0.84600 34.78100
H  17.02700 -0.35300 35.34600
N  17.51700 -3.53700 27.74300
C  18.31900 -4.06100 28.72800
C  18.98200 -5.24600 28.18500
C  18.73500 -5.24800 26.78300
C  17.75800 -4.20100 26.56900
C  19.88500 -6.27300 28.95900
C  19.25500 -6.16200 25.69100
O  18.86100 -6.03700 24.54200
C  20.25200 -7.25200 26.01000
N  15.95900 -1.68900 25.88700
C  16.51800 -2.60300 25.04500
C  16.31400 -2.14400 23.55400
C  15.22000 -0.99700 23.69100
C  15.20200 -0.73900 25.20700
C  17.57400 -1.79400 22.67400
C  13.85300 -1.37000 23.26800
C  13.06300 -0.28900 22.44100
N  15.05300 -0.18900 28.01700
C  14.30700 0.54400 27.09600
C  13.47700 1.48300 27.73300
C  13.75700 1.30800 29.06600
C  14.71500 0.27500 29.19300
C  12.48600 2.39600 27.16100
C  13.47700 1.85700 30.40800
O  12.81800 2.83600 30.81100
C  14.39700 1.08100 31.38700
C  15.27200 2.00200 32.25000
O  16.41000 2.33700 32.00400
O  14.61000 2.35400 33.40500
C  15.34200 3.34500 34.22700
H  19.19000 -3.97100 30.70000
H  17.43200 -4.32300 24.47300
H  13.90800 0.81800 24.87600
H  16.98200 -0.15200 32.91100
H  18.23800 -2.79900 32.76800
H  19.98200 -1.41600 31.48000
H  19.64600 -1.23200 33.20100
H  18.89300 -0.06800 32.21600
H  16.01700 -2.65200 33.67400
H  14.72400 -1.59600 33.08500
H  15.20400 -1.47000 35.51800
H  15.12000 0.06600 34.69900
H  19.98500 -6.05800 30.02300
H  20.87900 -6.34700 28.51700
H  19.54000 -7.28500 28.74900
H  20.54700 -7.66100 25.04400
H  19.69600 -8.04200 26.51500
H  21.12600 -6.91000 26.56500
H  15.91200 -3.04400 23.08900
H  15.58400 -0.09000 23.20900
H  18.45900 -2.02200 23.26900
H  17.43200 -0.78200 22.29300
H  17.50800 -2.54000 21.88200
H  13.33700 -1.61900 24.19600
H  13.84800 -2.31600 22.72700
H  12.19800 -0.01000 23.04200
H  12.67800 -0.69900 21.50700
H  13.61200 0.64800 22.34700
H  12.96100 3.07200 26.45000
H  12.12400 3.07000 27.93600
H  11.60300 1.93700 26.71500
H  13.69500 0.60300 32.07100
H  15.49600 4.25500 33.64700
H  16.23900 2.97200 34.72300
H  14.62800 3.72400 34.95800
Mg -12.50600 38.31000 41.15000
C  -10.24400 35.62800 40.41600
C  -10.44100 40.35300 39.50200
C  -14.96000 40.39000 41.27300
C  -14.54500 35.90500 42.73700
N  -10.71700 38.01200 39.87500
C  -9.95200 36.84100 39.75900
C  -8.71000 37.12200 38.88900
C  -8.66000 38.64400 38.86200
C  -10.00600 39.03600 39.48500
C  -7.48900 39.21100 39.58600
C  -8.72400 36.35200 37.54900
C  -7.71300 35.20400 37.21200
H  -6.57900 35.59400 36.20300
N  -12.67000 40.13700 40.55700
C  -11.67400 40.88300 39.97100
C  -12.11500 42.26700 39.82700
C  -13.39600 42.33700 40.46700
C  -13.77300 40.90000 40.75300
C  -11.38000 43.32900 39.18500
C  -14.13600 43.59100 40.70100
O  -13.71400 44.66600 40.37300
C  -15.40600 43.64700 41.40900
N  -14.52000 38.06600 41.72200
C  -15.32800 39.15500 41.79500
C  -16.66800 38.98900 42.50900
C  -16.51800 37.53700 42.92400
C  -15.06500 37.12000 42.53400
C  -16.84600 40.09000 43.66000
C  -17.41800 36.49700 42.18400
C  -18.68500 36.10400 42.95900
N  -12.46500 36.08000 41.49200
C  -13.34300 35.40700 42.29900
C  -12.76100 34.07700 42.46700
C  -11.58900 34.05300 41.66600
C  -11.47400 35.31100 41.05200
C  -13.38900 32.95900 43.27700
C  -10.43900 33.24500 41.18600
O  -10.24900 32.03200 41.31200
C  -9.44400 34.34900 40.51500
C  -8.12400 34.39500 41.19900
O  -7.29000 33.49600 41.10700
O  -7.98300 35.62300 41.84800
C  -6.71700 35.65800 42.67000
H  -9.88300 41.12200 38.96300
H  -15.69900 41.18500 41.39500
H  -15.13800 35.21100 43.33500
H  -7.94500 36.79400 39.59300
H  -8.76700 38.97800 37.83000
H  -7.51700 38.80800 40.59800
H  -7.35900 40.28400 39.72800
H  -6.66300 38.77200 39.02500
H  -8.57100 37.07500 36.74800
H  -9.71400 35.99300 37.26600
H  -8.23500 34.31400 36.86000
H  -7.14300 34.85200 38.07200
H  -11.82400 43.91400 38.38000
H  -10.46900 43.12400 38.62200
H  -11.20600 44.03500 39.99700
H  -15.48000 44.69100 41.71300
H  -15.37800 43.14300 42.37500
H  -16.29100 43.28700 40.88300
H  -17.28200 39.10500 41.61600
H  -16.53800 37.41000 44.00700
H  -17.13800 39.79300 44.66700
H  -17.67900 40.63000 43.21000
H  -15.97400 40.74300 43.68400
H  -16.96100 35.53700 41.94300
H  -17.87200 36.97400 41.31600
H  -18.76100 35.01900 42.88400
H  -19.57900 36.29100 42.36500
H  -18.74100 36.43300 43.99700
H  -13.00800 31.98600 42.96900
H  -14.46800 33.11100 43.26300
H  -13.03600 33.08900 44.30000
H  -9.17700 34.07000 39.49600
H  -6.72200 36.65300 43.11400
H  -5.88600 35.58800 41.96700
H  -6.63600 35.08400 43.59300

