158

Mg 24.88800 -4.68500 46.61600
C  26.67700 -2.18100 44.83900
C  22.23500 -4.14000 44.38100
C  23.37700 -7.62900 47.52200
C  27.68700 -5.29300 48.38000
N  24.51300 -3.45900 44.78400
C  25.36100 -2.44700 44.33900
C  24.81100 -1.86500 43.02100
C  23.27200 -2.24500 43.10200
C  23.32000 -3.31100 44.16900
C  22.26100 -1.04200 43.32000
C  25.53600 -2.43300 41.71400
C  26.37900 -1.43700 40.92000
H  26.28900 -1.60700 39.34100
N  22.97400 -5.72500 46.10900
C  22.04800 -5.33900 45.16900
C  20.96900 -6.29000 45.10000
C  21.39400 -7.35100 45.96800
C  22.58300 -6.94900 46.62900
C  19.76600 -6.16600 44.24900
C  20.61400 -8.59200 46.20800
O  19.45100 -8.67100 45.82900
C  21.20200 -9.86500 46.81500
N  25.43200 -6.24700 47.72400
C  24.66900 -7.32900 48.02400
C  25.47000 -8.32600 48.91300
C  26.77600 -7.51100 49.22200
C  26.62600 -6.24700 48.39700
C  24.83400 -8.77200 50.21200
C  28.09300 -8.34100 48.98400
C  28.99800 -8.63900 50.21500
N  26.78000 -3.89800 46.71200
C  27.81800 -4.17500 47.52300
C  28.91000 -3.30100 47.29300
C  28.51400 -2.49800 46.22200
C  27.21500 -2.90600 45.97200
C  30.25500 -3.50300 47.96400
C  29.05400 -1.56600 45.26000
O  30.20200 -1.18000 44.96600
C  27.78700 -1.15700 44.44300
C  27.43300 0.30600 44.55400
O  27.98800 1.18000 43.91000
O  26.40000 0.37600 45.41000
C  25.74000 1.67900 45.60700
H  21.32600 -3.89000 43.83000
H  22.92100 -8.52200 47.95300
H  28.55500 -5.34600 49.04000
H  24.90700 -0.77900 43.03000
H  22.95900 -2.79700 42.21600
H  21.65900 -1.14400 44.22300
H  21.59500 -0.85400 42.47800
H  22.86500 -0.14000 43.42000
H  24.79500 -2.73900 40.97500
H  26.15900 -3.29400 41.95500
H  27.40900 -1.60500 41.23300
H  26.09300 -0.46000 41.31000
H  19.98800 -6.76400 43.36600
H  19.57300 -5.16100 43.87300
H  18.81700 -6.55300 44.62100
H  22.16000 -10.06400 46.33400
H  20.51000 -10.70200 46.71700
H  21.34600 -9.74500 47.88900
H  25.66400 -9.24500 48.36000
H  26.76200 -7.16900 50.25700
H  24.02400 -8.07400 50.42500
H  25.51100 -8.72400 51.06500
H  24.35800 -9.74800 50.30500
H  28.74700 -7.76600 48.32900
H  27.72700 -9.24100 48.49000
H  28.96200 -9.72400 50.32200
H  28.60000 -8.29100 51.16900
H  30.02400 -8.35300 49.98200
H  30.83300 -2.58300 47.88200
H  30.89500 -4.25000 47.49400
H  30.20000 -3.90500 48.97600
H  28.07500 -1.30200 43.40200
H  24.95700 1.69200 44.84800
H  26.40000 2.50100 45.33100
H  25.20100 1.71800 46.55400
Mg 41.06600 8.31400 29.93200
C  43.06200 9.24500 32.66100
C  38.65000 7.19700 31.99400
C  39.53400 7.02600 27.23200
C  43.72600 9.21200 27.89300
N  41.00100 8.05900 32.02400
C  41.84900 8.64400 33.00200
C  41.24300 8.48900 34.44400
C  39.86600 7.64300 34.20100
C  39.83800 7.52700 32.66300
C  39.54200 6.40700 35.01900
C  40.98300 9.97300 35.06800
C  40.24700 9.94800 36.39100
H  40.81200 10.73600 37.49500
N  39.34200 7.25600 29.63000
C  38.48500 7.00400 30.61100
C  37.37900 6.15200 30.08200
C  37.49300 6.07800 28.67100
C  38.80200 6.88500 28.39700
C  36.28500 5.49300 30.95600
C  36.64200 5.42100 27.59900
O  36.76200 5.62000 26.38200
C  35.49700 4.64700 28.02700
N  41.51000 8.18000 27.80100
C  40.70500 7.61200 26.91300
C  41.26000 7.64800 25.45800
C  42.57600 8.54800 25.72200
C  42.59100 8.69500 27.22900
C  41.63600 6.29900 24.85700
C  42.67200 9.88400 25.04100
C  41.80700 11.06900 25.55400
N  43.03900 9.12200 30.18900
C  44.00500 9.48300 29.28400
C  45.22800 9.92800 29.94800
C  44.83800 10.01300 31.28900
C  43.55200 9.42900 31.37300
C  46.45400 10.35400 29.23500
C  45.28100 10.46000 32.59600
O  46.28800 11.04000 32.98100
C  44.19100 9.87100 33.56800
C  44.91400 8.89200 34.40700
O  45.00000 7.71800 34.18400
O  45.50100 9.53000 35.45600
C  46.35800 8.80100 36.36700
H  37.84100 6.92800 32.67600
H  39.00600 6.56400 26.39600
H  44.59900 9.46300 27.28800
H  42.01700 7.98200 35.02000
H  39.06700 8.36000 34.39000
H  38.51600 6.13200 35.26100
H  40.13400 6.35900 35.93400
H  39.93600 5.52900 34.50700
H  40.34700 10.52400 34.37500
H  41.95300 10.39200 35.33500
H  40.22700 8.89500 36.67100
H  39.25500 10.36600 36.22100
H  35.30200 5.74800 30.56000
H  36.31900 5.66300 32.03200
H  36.24900 4.40700 30.87200
H  34.79700 5.34900 28.48000
H  35.83300 3.84100 28.67900
H  35.09100 4.36200 27.05700
H  40.57000 8.14100 24.77300
H  43.42800 7.94100 25.41500
H  42.63000 6.41800 24.42700
H  40.93100 6.01600 24.07600
H  41.62700 5.69000 25.76100
H  42.44400 9.57300 24.02200
H  43.73400 10.12400 25.07900
H  42.40800 11.93300 25.83800
H  41.07200 10.81000 26.31600
H  41.17600 11.37900 24.72100
H  46.80000 9.66400 28.46500
H  47.18700 10.20500 30.02800
H  46.47900 11.32400 28.73800
H  43.79200 10.56900 34.30400
H  46.64800 7.84000 35.94300
H  45.84500 8.67800 37.32100
H  47.27800 9.38100 36.43800

