158

Mg 5.89700 54.34600 39.90700
C  4.99400 50.91300 39.80400
C  8.86200 53.72700 39.07900
C  6.07700 57.66700 39.24300
C  2.25400 54.89200 40.21400
N  6.79600 52.51500 39.25000
C  6.35300 51.22100 39.36700
C  7.50700 50.25100 39.31100
C  8.75200 51.15400 39.42800
C  8.16000 52.57900 39.26800
C  9.54900 51.05700 40.71700
C  7.52200 49.44200 37.94600
C  7.41200 50.13900 36.51300
H  6.19000 49.98100 35.64200
N  7.37900 55.55200 39.45100
C  8.63100 55.08800 39.12500
C  9.50600 56.23900 39.03700
C  8.66900 57.46600 39.20600
C  7.28300 56.90200 39.29200
C  10.95300 56.03700 38.70400
C  9.08200 58.89100 39.34800
O  10.27400 59.09500 39.06200
C  8.23400 60.05300 39.77500
N  4.35700 56.05200 39.53400
C  4.73400 57.33500 39.35200
C  3.54000 58.37800 39.42100
C  2.31900 57.43200 39.60400
C  2.99300 56.05900 39.82100
C  3.67400 59.35800 40.55400
C  1.44700 57.47500 38.39800
C  0.21900 58.41400 38.43100
N  3.98300 53.21200 39.98900
C  2.63500 53.54200 40.28000
C  1.86800 52.38400 40.61400
C  2.77700 51.33100 40.36500
C  4.05000 51.87900 40.02000
C  0.46300 52.33400 41.17500
C  2.84800 49.92200 40.30600
O  2.01500 49.04700 40.42400
C  4.33700 49.57500 40.00000
C  4.26500 48.62200 38.87200
O  4.15700 48.90700 37.71000
O  4.61100 47.36900 39.34400
C  4.77800 46.31400 38.30500
H  9.92200 53.48000 38.99000
H  6.20100 58.71500 38.96400
H  1.17100 55.03700 40.22900
H  7.24000 49.61800 40.15800
H  9.46200 51.03300 38.61100
H  9.46300 50.06900 41.17000
H  9.13600 51.72300 41.47500
H  10.62700 51.11100 40.56100
H  6.69900 48.72800 37.92500
H  8.46600 48.90500 38.03800
H  8.26500 49.80200 35.92600
H  7.50400 51.22300 36.59000
H  11.37100 56.89700 38.17900
H  11.21100 55.17600 38.08800
H  11.51600 55.94000 39.63200
H  8.93800 60.75800 40.21600
H  7.54700 59.67200 40.53000
H  7.83900 60.46200 38.84400
H  3.41900 58.94900 38.50000
H  1.64600 57.67500 40.42500
H  3.38800 58.92400 41.51200
H  3.14100 60.26300 40.26100
H  4.66300 59.79100 40.70400
H  1.05900 56.46200 38.28900
H  2.02900 57.70500 37.50600
H  -0.25700 58.51500 39.40700
H  -0.47100 57.95700 37.72200
H  0.46000 59.43800 38.14600
H  0.34300 51.58000 41.95300
H  -0.11800 52.00400 40.31400
H  0.06000 53.33000 41.35900
H  4.61600 49.09900 40.94100
H  4.75600 45.29200 38.68400
H  5.69000 46.53500 37.75100
H  3.89100 46.44100 37.68400
Mg -5.38100 25.85600 26.43100
C  -3.89900 27.03100 29.40600
C  -7.34000 23.83700 28.26100
C  -6.21200 24.35300 23.55600
C  -3.08800 27.77700 24.63800
N  -5.52700 25.41700 28.62100
C  -4.90100 26.09000 29.61200
C  -5.52100 25.67700 30.90800
C  -6.46800 24.55000 30.56300
C  -6.49300 24.60500 29.08400
C  -6.03100 23.11100 31.04200
C  -6.13100 26.87600 31.70800
C  -5.84200 26.98600 33.25200
H  -5.29100 25.65400 33.92800
N  -6.64900 24.37100 25.92500
C  -7.48500 23.77500 26.84100
C  -8.39300 22.91000 26.16400
C  -8.13000 23.02300 24.78700
C  -6.91300 23.95000 24.67200
C  -9.24800 21.97800 26.89300
C  -8.77300 22.39400 23.62700
O  -8.46000 22.58500 22.45700
C  -9.94600 21.44400 23.82400
N  -4.74300 26.06400 24.47400
C  -5.21700 25.33200 23.39300
C  -4.39400 25.42500 22.13800
C  -3.69500 26.82900 22.44900
C  -3.81400 26.94400 23.98300
C  -3.36700 24.33800 21.90600
C  -4.32100 28.08700 21.74000
C  -3.81100 28.46000 20.33400
N  -3.89900 27.25700 26.88100
C  -2.99400 27.95800 26.05900
C  -2.16800 28.89100 26.87100
C  -2.54000 28.51400 28.15600
C  -3.49400 27.53500 28.17100
C  -1.23100 29.91900 26.40700
C  -2.20100 28.70000 29.56700
O  -1.35300 29.49500 30.01600
C  -3.11500 27.88800 30.43100
C  -2.25900 27.14900 31.36100
O  -1.63600 26.15500 31.01000
O  -2.28200 27.77900 32.58300
C  -1.64400 27.01700 33.63800
H  -8.04000 23.20300 28.81100
H  -6.43600 23.84400 22.61600
H  -2.43400 28.48500 24.12500
H  -4.60600 25.41300 31.43800
H  -7.42500 24.60800 31.08100
H  -5.32600 23.08900 31.87400
H  -5.40000 22.74500 30.23200
H  -6.97200 22.58600 31.20600
H  -7.21700 26.83500 31.62500
H  -5.78600 27.77800 31.20300
H  -6.81000 27.11100 33.73800
H  -5.17800 27.80600 33.52400
H  -10.13200 21.61200 26.37200
H  -9.76000 22.51400 27.69200
H  -8.76600 21.13000 27.38000
H  -9.53700 20.57900 24.34500
H  -10.35700 20.95800 22.93900
H  -10.72900 21.97600 24.36500
H  -4.93700 25.62800 21.21500
H  -2.64800 26.68500 22.18100
H  -3.81000 23.43500 21.48500
H  -2.87800 24.08000 22.84500
H  -2.57300 24.55300 21.19100
H  -4.36700 28.92500 22.43500
H  -5.38800 27.89200 21.63000
H  -3.78500 27.65000 19.60400
H  -2.76200 28.69900 20.51000
H  -4.21100 29.34000 19.83100
H  -1.56200 30.86500 25.97700
H  -0.58400 29.41300 25.69100
H  -0.66900 30.16500 27.30800
H  -3.68900 28.66100 30.94200
H  -2.02800 27.47500 34.55000
H  -0.57300 27.08700 33.44800
H  -1.89400 25.95700 33.67400

