158

Mg 25.31000 -8.05700 46.85700
C  26.99700 -5.36700 45.33300
C  22.67400 -7.41700 44.60300
C  23.84300 -10.93900 47.67400
C  28.21800 -9.02100 48.42700
N  25.01200 -6.73200 45.06600
C  25.75600 -5.65500 44.67100
C  25.22500 -4.97700 43.43200
C  23.77300 -5.53000 43.34400
C  23.83100 -6.68800 44.35700
C  22.69400 -4.53800 43.60800
C  26.08200 -5.25800 42.06400
C  26.19700 -3.92000 41.23200
H  25.05600 -3.78400 40.26100
N  23.40300 -8.94400 46.35500
C  22.50300 -8.54600 45.44700
C  21.33600 -9.43900 45.44700
C  21.67200 -10.48900 46.27700
C  23.01600 -10.16000 46.81100
C  20.06600 -9.14800 44.73000
C  20.78400 -11.79100 46.53500
O  19.69500 -11.78900 46.05000
C  21.27000 -12.98900 47.16400
N  26.00400 -9.75800 47.77600
C  25.19500 -10.77500 48.15400
C  25.87300 -11.77900 49.08000
C  27.22300 -11.15000 49.31200
C  27.17900 -9.90800 48.42900
C  25.10800 -12.01700 50.47300
C  28.39800 -12.12100 49.23300
C  29.25800 -12.27800 50.50800
N  27.27000 -7.45100 46.82400
C  28.29100 -7.79200 47.68200
C  29.38500 -6.85100 47.55900
C  28.93800 -5.90200 46.57200
C  27.59100 -6.28300 46.23400
C  30.60900 -6.90700 48.29200
C  29.32000 -4.69700 45.90700
O  30.41300 -4.15300 45.78200
C  28.03500 -4.31400 45.02700
C  27.48500 -3.04600 45.46000
O  27.21300 -2.16300 44.65600
O  27.21900 -2.85500 46.79700
C  26.63700 -1.55400 47.16700
H  21.81200 -7.09100 44.01800
H  23.48000 -11.83700 48.17800
H  29.07300 -9.25300 49.06700
H  25.27400 -3.91100 43.65400
H  23.67600 -5.90700 42.32600
H  22.30500 -4.16900 42.66000
H  23.02600 -3.59400 44.04000
H  21.82200 -4.89200 44.15800
H  25.58600 -6.00900 41.44800
H  27.06500 -5.60100 42.38500
H  27.17500 -3.87900 40.75200
H  26.03200 -3.00500 41.79900
H  20.33200 -9.43900 43.71400
H  19.90300 -8.07100 44.77500
H  19.12300 -9.54500 45.10400
H  21.89100 -12.98500 48.05900
H  21.93100 -13.38400 46.39200
H  20.46100 -13.71100 47.27800
H  25.85500 -12.73200 48.55100
H  27.30100 -10.74300 50.32000
H  24.23400 -11.36600 50.47400
H  25.70700 -11.77600 51.35200
H  24.91500 -13.07700 50.64100
H  29.02100 -11.73800 48.42400
H  27.98600 -13.12000 49.08900
H  30.30400 -12.26300 50.20100
H  28.78300 -13.08800 51.06200
H  29.15600 -11.44400 51.20300
H  31.18700 -5.99900 48.12500
H  31.23900 -7.79600 48.24100
H  30.25900 -6.83200 49.32200
H  28.35700 -4.28400 43.98600
H  26.95100 -1.26900 48.17100
H  25.56300 -1.67200 47.31400
H  26.82000 -0.71300 46.49800
Mg 41.16300 41.76000 26.92400
C  40.38100 44.01800 29.67000
C  41.83200 39.41000 29.34500
C  41.84000 39.82500 24.51600
C  40.41000 44.42600 24.81300
N  41.27200 41.83700 29.32100
C  40.86400 42.82200 30.18400
C  40.93000 42.33000 31.66300
C  41.58500 40.89000 31.46400
C  41.56900 40.67800 29.96300
C  43.00200 40.61100 32.08000
C  39.64300 42.28100 32.49300
C  39.84100 42.32100 33.98500
H  38.83400 42.99700 34.85900
N  41.78100 39.83400 26.91200
C  41.98300 39.01900 27.96700
C  42.38400 37.68200 27.42000
C  42.35100 37.77400 26.02800
C  42.00800 39.16900 25.76200
C  42.72800 36.50600 28.33600
C  42.62700 36.74500 24.94600
O  42.68700 36.90400 23.73100
C  42.77400 35.28800 25.38100
N  41.41200 42.19200 24.84000
C  41.55900 41.13900 24.05300
C  41.38900 41.58900 22.62400
C  40.72300 43.02200 22.75000
C  40.82700 43.23600 24.20100
C  42.67200 41.36600 21.72300
C  39.27300 43.24900 22.19900
C  38.31000 42.04700 22.55400
N  40.77400 43.88700 27.13700
C  40.43400 44.81200 26.16300
C  40.16700 46.03700 26.77600
C  39.96800 45.68000 28.13100
C  40.44000 44.39300 28.31300
C  39.93400 47.29400 26.04600
C  39.46600 46.24300 29.39000
O  38.92900 47.28300 29.67700
C  39.65700 45.11800 30.45400
C  40.56300 45.71700 31.44400
O  41.74100 46.05300 31.25800
O  39.84000 45.85300 32.63200
C  40.64400 46.40100 33.76100
H  41.96600 38.60300 30.06800
H  41.81000 39.13200 23.67300
H  40.02800 45.19900 24.14300
H  41.64300 42.95100 32.20500
H  40.97600 40.11300 31.92600
H  43.35300 41.57000 32.46100
H  43.79200 40.25600 31.41900
H  42.90700 39.88600 32.88800
H  39.21500 41.28000 32.44600
H  38.81900 42.93800 32.21400
H  40.82200 42.76900 34.14800
H  40.00200 41.30300 34.34100
H  42.01800 35.68600 28.23000
H  42.77900 36.77600 29.39100
H  43.68400 36.10000 28.00700
H  42.88600 34.64400 24.50900
H  41.84700 35.00700 25.88100
H  43.64900 35.32400 26.03100
H  40.64100 40.96100 22.14000
H  41.37700 43.80400 22.36600
H  43.55100 41.50200 22.35300
H  42.43700 42.10900 20.96000
H  42.61800 40.34800 21.33700
H  39.25800 43.19400 21.11100
H  38.74000 44.06000 22.69500
H  38.55000 41.25100 21.84900
H  37.27100 42.34900 22.42300
H  38.49700 41.70900 23.57300
H  40.40600 47.39400 25.06800
H  40.25400 48.07600 26.73500
H  38.85200 47.29900 25.91300
H  38.73800 44.73000 30.89400
H  41.39200 45.70500 34.14100
H  39.95300 46.78200 34.51300
H  41.15800 47.27700 33.36500

