158

Mg 47.27700 33.70000 26.47700
C  45.90300 32.56000 29.42000
C  48.25800 36.54700 28.28900
C  48.57900 35.08100 23.68800
C  46.48600 30.83400 24.78100
N  47.08800 34.43200 28.62400
C  46.50300 33.79000 29.66200
C  46.71800 34.45200 31.00500
C  47.10100 35.86100 30.51500
C  47.62000 35.58600 29.09000
C  45.94500 36.93500 30.58800
C  47.83200 33.85000 31.86600
C  47.81900 33.88300 33.41400
H  46.80900 34.79400 34.13300
N  48.46600 35.49800 26.08000
C  48.69900 36.54500 26.87700
C  49.48100 37.54300 26.13300
C  49.55700 37.14800 24.75200
C  48.87800 35.83400 24.79400
C  50.12200 38.82400 26.73200
C  50.10300 37.90500 23.50800
O  50.20500 37.45800 22.38200
C  50.38700 39.35500 23.73500
N  47.40200 33.07000 24.43900
C  47.92000 33.85300 23.45400
C  47.92000 33.08700 22.10700
C  47.52900 31.62700 22.55100
C  47.12600 31.83000 24.01000
C  46.99900 33.70600 20.95600
C  48.70100 30.48900 22.38400
C  50.10700 30.79600 22.99100
N  46.32500 32.05100 26.89500
C  46.04700 30.86700 26.12500
C  45.33900 29.86000 26.99300
C  45.19100 30.53400 28.21700
C  45.88900 31.80900 28.17900
C  44.93800 28.42200 26.63100
C  44.61300 30.39000 29.47600
O  43.92600 29.52800 30.00900
C  44.98100 31.76400 30.28600
C  45.23600 31.55500 31.73700
O  46.15400 30.93000 32.25000
O  44.10300 31.95900 32.42300
C  43.97000 31.41300 33.76500
H  48.49200 37.42800 28.89100
H  48.81900 35.57400 22.74300
H  46.42300 29.87800 24.25700
H  45.75100 34.40000 31.50500
H  47.95400 36.22900 31.08500
H  45.12100 36.44600 31.10800
H  45.65400 37.27200 29.59300
H  46.27100 37.84100 31.09900
H  48.73700 34.43900 31.71900
H  48.10500 32.82500 31.61700
H  48.84200 33.90000 33.78800
H  47.55900 32.85500 33.66400
H  49.99900 38.69300 27.80700
H  49.54100 39.68700 26.40600
H  51.09500 39.09000 26.32000
H  49.46100 39.76200 24.14100
H  50.53500 39.79100 22.74700
H  51.30000 39.49400 24.31300
H  48.93600 33.07600 21.71100
H  46.60900 31.36200 22.03000
H  47.48500 33.41200 20.02500
H  46.76900 34.77200 20.94200
H  46.09700 33.09600 20.92900
H  48.79200 30.17000 21.34500
H  48.37700 29.66300 23.01800
H  50.27000 30.13600 23.84300
H  50.31600 31.81700 23.31000
H  50.78400 30.53300 22.17900
H  45.81200 27.77200 26.60300
H  44.38000 28.32400 25.70000
H  44.24300 28.15300 27.42700
H  44.03200 32.29600 30.22100
H  43.89900 30.32600 33.79000
H  43.01000 31.55200 34.26300
H  44.67900 31.87600 34.45100
Mg -5.50100 25.77500 25.65600
C  -4.10100 27.38900 28.39200
C  -7.15800 23.70800 27.69200
C  -6.43500 24.02500 22.96700
C  -3.55800 27.82800 23.63800
N  -5.57900 25.58600 27.81200
C  -5.00700 26.36300 28.79300
C  -5.55900 26.08800 30.21400
C  -6.37800 24.81800 29.92700
C  -6.29800 24.68600 28.37600
C  -6.03100 23.61800 30.76700
C  -6.34200 27.32100 30.83700
C  -5.89600 27.72800 32.19800
H  -5.32800 26.64800 33.09400
N  -6.68400 24.12900 25.35100
C  -7.36900 23.41500 26.36000
C  -8.13100 22.31600 25.90500
C  -7.89700 22.40100 24.43500
C  -6.88100 23.53400 24.19300
C  -8.87400 21.25400 26.73900
C  -8.56800 21.53800 23.34100
O  -8.33500 21.70800 22.17600
C  -9.70600 20.74400 23.74000
N  -5.15600 26.06100 23.48100
C  -5.60900 25.09700 22.58300
C  -5.05100 25.42800 21.14200
C  -4.14800 26.68700 21.39200
C  -4.25300 26.86700 22.93000
C  -4.32300 24.14100 20.66400
C  -4.56500 27.94800 20.54700
C  -4.66900 27.73900 18.98600
N  -4.16600 27.39400 25.85300
C  -3.51500 28.15100 25.01100
C  -2.69500 29.13300 25.71900
C  -2.90600 28.90800 27.07200
C  -3.82300 27.84200 27.12000
C  -1.75500 30.13900 25.11500
C  -2.47700 29.31500 28.42300
O  -1.74600 30.17400 28.85900
C  -3.28000 28.28000 29.28000
C  -2.30400 27.42700 30.10400
O  -1.74200 26.39300 29.67500
O  -2.23500 27.85500 31.42300
C  -1.22900 27.08600 32.28200
H  -7.75900 23.18000 28.43500
H  -6.65000 23.40200 22.09600
H  -2.97000 28.38900 22.90800
H  -4.69400 25.77900 30.80000
H  -7.42800 24.98700 30.16500
H  -6.90200 23.44500 31.39900
H  -5.11700 23.67200 31.35800
H  -5.93600 22.82800 30.02200
H  -7.38700 27.10900 31.06200
H  -6.23700 28.22800 30.24100
H  -6.81400 28.08900 32.66000
H  -5.19700 28.55400 32.06700
H  -8.57800 21.38600 27.78000
H  -8.69600 20.23600 26.39200
H  -9.95200 21.41500 26.73100
H  -10.37400 21.28700 24.40900
H  -9.28200 19.82700 24.14900
H  -10.32000 20.54700 22.86100
H  -5.97600 25.63900 20.60600
H  -3.09700 26.55200 21.13700
H  -4.77300 23.25800 21.11900
H  -3.24400 24.06000 20.80000
H  -4.53000 24.12700 19.59400
H  -3.79100 28.69700 20.71300
H  -5.55500 28.25900 20.88100
H  -4.25300 26.75700 18.76000
H  -4.04800 28.44200 18.43000
H  -5.66500 27.87500 18.56400
H  -1.56200 30.05900 24.04500
H  -0.77900 30.11400 25.60000
H  -2.11400 31.16300 25.22100
H  -3.90200 28.81400 29.99900
H  -0.27700 27.27700 31.78700
H  -1.45700 26.02200 32.34400
H  -1.15600 27.45500 33.30500

