158

Mg 54.26500 24.54700 45.18500
C  52.06800 26.96600 44.01000
C  52.45200 22.07100 43.61400
C  56.78600 22.42900 45.76700
C  56.23900 27.21000 46.37400
N  52.69200 24.59600 43.64300
C  51.89000 25.73800 43.40200
C  50.73600 25.20100 42.54200
C  50.53000 23.69000 43.02100
C  51.96700 23.40300 43.47300
C  49.32500 23.62000 44.11100
C  50.95300 25.31600 40.94300
C  52.12000 26.20600 40.47400
H  53.45500 25.45600 40.09900
N  54.59200 22.51000 44.71300
C  53.65300 21.69000 44.19200
C  54.19300 20.41100 44.29300
C  55.49400 20.43900 44.81000
C  55.62700 21.80000 45.17600
C  53.36900 19.25600 43.65100
C  56.40700 19.29000 45.03400
O  56.08400 18.17700 44.58400
C  57.70400 19.37000 45.80200
N  56.25700 24.81200 45.70000
C  57.09800 23.76000 46.02100
C  58.44800 24.26000 46.16600
C  58.18200 25.66900 46.75800
C  56.83700 25.99500 46.11500
C  59.48100 23.45900 47.08300
C  59.25700 26.66200 46.31100
C  60.11700 27.20300 47.48000
N  54.09700 26.59600 45.41900
C  54.91200 27.49800 46.03000
C  54.18900 28.74000 46.24800
C  53.09400 28.65300 45.37800
C  53.09500 27.26900 44.93200
C  54.81200 30.00600 46.97000
C  51.91700 29.28500 44.74200
O  51.44800 30.42900 44.76600
C  51.17300 28.19900 43.82400
C  51.17900 28.76400 42.44600
O  52.12900 29.40900 41.95400
O  49.95800 28.60400 41.85800
C  49.74800 29.10600 40.47400
H  51.86200 21.21400 43.28500
H  57.61900 21.80100 46.09000
H  56.75200 28.12900 46.66400
H  49.92800 25.92800 42.62300
H  50.29100 23.03900 42.18100
H  49.75400 23.12700 44.98300
H  48.51000 22.97400 43.78500
H  49.06800 24.63800 44.40700
H  50.06500 25.65600 40.41000
H  51.20500 24.34300 40.52000
H  52.48500 27.01800 41.10300
H  51.69500 26.61400 39.55700
H  53.32900 19.68200 42.64800
H  52.44300 19.16700 44.21900
H  53.84100 18.27600 43.58600
H  58.08400 18.36500 45.98400
H  57.46900 19.77500 46.78600
H  58.47900 19.89000 45.24000
H  59.00600 24.38300 45.23900
H  58.07300 25.68600 47.84300
H  59.69300 24.04000 47.98000
H  60.45700 23.44100 46.59900
H  59.11600 22.47900 47.39000
H  58.77500 27.53600 45.87300
H  59.87600 26.41500 45.44900
H  59.99800 28.23300 47.81800
H  61.11400 27.16300 47.04100
H  60.19700 26.48800 48.29800
H  55.83600 29.98000 47.34100
H  54.08000 30.41900 47.66500
H  54.82800 30.77700 46.20000
H  50.14200 27.97500 44.09700
H  49.58400 30.15700 40.71000
H  48.93500 28.61500 39.94000
H  50.67700 29.02500 39.91000
Mg -11.31300 38.60500 42.24600
C  -9.61400 35.70800 41.56200
C  -8.93000 40.49200 40.96100
C  -13.36000 41.30900 42.89000
C  -14.30000 36.51500 43.03300
N  -9.61500 38.09700 41.29400
C  -9.00600 36.85200 41.18500
C  -7.65700 36.94200 40.44000
C  -7.37700 38.46800 40.46500
C  -8.74300 39.07000 40.94800
C  -6.27800 38.96700 41.47400
C  -7.65000 36.34000 39.00700
C  -6.35800 35.59100 38.52500
H  -5.58100 36.16800 37.28800
N  -11.16500 40.64500 41.95200
C  -10.04600 41.18900 41.41200
C  -10.24800 42.64400 41.47100
C  -11.48600 42.92400 42.09500
C  -12.10700 41.60400 42.39300
C  -9.25600 43.55100 40.77900
C  -12.11000 44.34700 42.37500
O  -11.64700 45.33200 41.77000
C  -13.31100 44.55300 43.40800
N  -13.55700 38.82600 42.60300
C  -14.03000 40.08100 42.96700
C  -15.49400 39.99300 43.46500
C  -15.83100 38.50300 43.46200
C  -14.50000 37.85700 42.98900
C  -15.79900 40.72300 44.76800
C  -17.10400 38.14100 42.71800
C  -17.84300 36.88900 43.35500
N  -11.82200 36.50100 42.36200
C  -13.04500 35.88600 42.58800
C  -12.78000 34.40800 42.51400
C  -11.42400 34.28100 42.15600
C  -10.92100 35.61600 42.06500
C  -13.85300 33.39300 42.81500
C  -10.32300 33.37400 41.82200
O  -10.21500 32.16400 41.70200
C  -9.08000 34.34700 41.70000
C  -8.26100 34.12400 42.89700
O  -8.08200 34.93800 43.81000
O  -7.61300 32.89500 42.73900
C  -6.62000 32.53800 43.77100
H  -8.14000 41.08900 40.50000
H  -14.04800 42.14600 43.02900
H  -15.10800 35.81300 43.25300
H  -6.93700 36.39100 41.04500
H  -7.26000 38.94600 39.49200
H  -5.56000 39.62700 40.98800
H  -5.71400 38.12200 41.87000
H  -6.72700 39.57500 42.25900
H  -7.89000 37.09600 38.25900
H  -8.58200 35.80300 38.83100
H  -6.60200 34.54600 38.33300
H  -5.65100 35.74600 39.34000
H  -9.50900 43.55200 39.71900
H  -8.23400 43.19500 40.90900
H  -9.32400 44.57700 41.14000
H  -13.21100 45.47200 43.98500
H  -13.30800 43.74800 44.14200
H  -14.28600 44.68300 42.93900
H  -16.14700 40.37100 42.67800
H  -15.74600 38.24000 44.51600
H  -16.83100 40.65000 45.11100
H  -15.56100 41.78100 44.66400
H  -15.01000 40.46600 45.47400
H  -16.85700 37.86700 41.69200
H  -17.92200 38.85800 42.78200
H  -18.21400 36.15100 42.64500
H  -18.70000 37.18400 43.96000
H  -17.18200 36.42600 44.08800
H  -14.89000 33.72200 42.75900
H  -13.69600 33.01300 43.82500
H  -13.64100 32.52200 42.19400
H  -8.52900 34.07100 40.80100
H  -5.87200 31.93600 43.25600
H  -7.12400 32.03600 44.59800
H  -6.02600 33.34900 44.19300

