158

Mg 9.34100 4.32700 27.90900
C  10.71200 2.67600 30.66700
C  7.24000 5.92500 29.95600
C  7.84900 5.72100 25.11100
C  10.93900 2.02000 25.74200
N  8.97700 4.20600 30.16700
C  9.71800 3.57800 31.13500
C  9.14800 3.88700 32.51900
C  7.93400 4.83900 32.23900
C  8.09300 5.03300 30.69800
C  6.48800 4.35000 32.59600
C  10.20800 4.30500 33.63400
C  9.58400 4.27200 35.03300
H  10.48000 4.37600 36.21900
N  7.85800 5.77600 27.63800
C  7.03500 6.20500 28.56800
C  6.11700 7.22300 28.02200
C  6.24000 7.16200 26.60300
C  7.42500 6.25900 26.37700
C  5.19300 8.06300 28.78800
C  5.45200 7.87400 25.44800
O  5.78300 7.82700 24.29600
C  4.32300 8.85000 25.69300
N  9.35600 3.98300 25.76500
C  8.63600 4.62100 24.84200
C  8.80100 4.00500 23.44300
C  9.80900 2.85200 23.67400
C  10.12400 3.02700 25.16600
C  7.49600 3.57400 22.73600
C  11.05300 2.75000 22.75500
C  11.04800 1.69500 21.63800
N  10.59700 2.66900 28.06200
C  11.20900 1.84300 27.12300
C  11.98900 0.90200 27.85700
C  11.98600 1.30900 29.22700
C  10.96700 2.29300 29.28800
C  12.80000 -0.23700 27.20400
C  12.46600 0.96300 30.55900
O  13.23000 0.08400 30.93700
C  11.72600 1.92700 31.50200
C  11.10800 1.16200 32.55800
O  10.11400 0.42200 32.44700
O  11.73400 1.41800 33.73000
C  11.22700 0.67700 34.85700
H  6.57600 6.47200 30.62800
H  7.31800 6.10800 24.23900
H  11.23700 1.24100 25.03600
H  8.89400 2.90500 32.91700
H  8.10500 5.85200 32.60300
H  6.43700 3.54200 33.32500
H  5.90000 4.09200 31.71500
H  5.88100 5.19700 32.91700
H  10.55300 5.31600 33.42000
H  11.07900 3.65600 33.54100
H  9.04200 3.32600 35.03600
H  8.80600 5.02900 35.13000
H  5.76300 8.98800 28.87000
H  4.86200 7.61500 29.72400
H  4.28500 8.33300 28.24900
H  3.88600 9.26300 24.78400
H  4.61000 9.72400 26.27800
H  3.51300 8.32000 26.19500
H  9.29200 4.81000 22.89600
H  9.25200 1.91700 23.62300
H  6.69900 3.64500 23.47700
H  7.52200 2.55200 22.35800
H  7.50100 4.35900 21.98000
H  11.94500 2.70500 23.38100
H  11.11500 3.73900 22.30100
H  10.06100 1.25200 21.50500
H  11.69400 0.88400 21.97400
H  11.33700 2.06300 20.65300
H  12.52500 -1.20300 27.62900
H  13.83800 0.07600 27.31500
H  12.54400 -0.38000 26.15400
H  12.43200 2.57700 32.01800
H  10.18700 0.36200 34.76500
H  11.23300 1.21000 35.80700
H  11.82000 -0.23500 34.92200
Mg 17.01700 52.86600 26.64600
C  18.88000 51.35800 28.96500
C  14.96200 53.91400 29.26900
C  14.88200 54.34800 24.40700
C  19.01500 51.86200 24.11200
N  16.80000 52.50000 28.82100
C  17.81800 52.03100 29.56600
C  17.62100 52.29800 31.14500
C  16.15100 52.63700 31.18900
C  15.91100 53.02100 29.69000
C  15.37300 51.47300 31.60800
C  18.59100 53.35700 31.71900
C  18.88600 53.36600 33.30900
H  17.84500 52.53500 34.11400
N  15.12300 53.96900 26.76400
C  14.61300 54.43800 27.97700
C  13.62600 55.44100 27.73400
C  13.49200 55.49500 26.30900
C  14.47500 54.61000 25.72400
C  13.00100 56.20300 28.91800
C  12.52500 56.34700 25.45600
O  12.58600 56.23100 24.28700
C  11.66500 57.43900 25.99700
N  16.86300 52.91200 24.49600
C  15.90200 53.58300 23.83600
C  16.24100 53.64500 22.36700
C  17.67400 53.01400 22.27400
C  17.91200 52.60000 23.72200
C  15.20400 52.92600 21.31900
C  18.70300 54.00800 21.54400
C  19.23600 55.14500 22.41100
N  18.61600 51.77100 26.51300
C  19.42000 51.47600 25.38500
C  20.54900 50.79500 25.85400
C  20.42500 50.74000 27.22400
C  19.17200 51.30600 27.55200
C  21.70000 50.28700 25.06600
C  21.07000 50.25600 28.38600
O  22.05200 49.57700 28.48300
C  20.12600 50.73300 29.66300
C  19.82300 49.59700 30.52500
O  19.42400 48.51300 30.22400
O  20.04500 49.98400 31.81800
C  19.93400 48.94500 32.89000
H  14.38300 54.42100 30.04400
H  14.16900 54.68900 23.65400
H  19.80700 51.53400 23.43500
H  17.69400 51.37700 31.72200
H  16.11300 53.49700 31.85700
H  15.69400 51.02500 32.54800
H  15.49600 50.80600 30.75500
H  14.36700 51.81300 31.85300
H  18.19900 54.30500 31.35200
H  19.59200 53.23600 31.30300
H  18.94800 54.39100 33.67400
H  19.86400 52.99500 33.61700
H  13.58400 57.03000 29.32400
H  12.72500 55.49000 29.69500
H  12.00900 56.57400 28.65800
H  10.87000 56.93600 26.54600
H  11.34900 58.03900 25.14300
H  12.28100 58.04000 26.66600
H  16.15700 54.70400 22.12200
H  17.54000 52.07200 21.74300
H  14.53100 52.21300 21.79400
H  15.77100 52.38100 20.56400
H  14.66200 53.72000 20.80300
H  18.13400 54.53000 20.77500
H  19.56700 53.49600 21.12000
H  18.53000 55.25800 23.23300
H  19.27900 56.12200 21.92900
H  20.22400 54.88400 22.78900
H  21.62000 50.77500 24.09500
H  21.68900 49.20700 24.92400
H  22.60200 50.62000 25.57900
H  20.66500 51.48800 30.23400
H  19.04900 49.20100 33.47100
H  20.82900 49.01900 33.50700
H  19.93500 47.91600 32.52900

