158

Mg 24.94000 2.08300 29.94900
C  27.23400 1.97000 32.67200
C  22.39300 2.43700 32.13700
C  22.85900 1.97200 27.33600
C  27.73600 1.29900 27.81500
N  24.90500 2.13900 32.09500
C  25.88200 2.23200 33.00700
C  25.35800 2.53300 34.38100
C  23.82400 2.46900 34.19500
C  23.69500 2.32800 32.70300
C  23.08100 1.38800 34.96300
C  25.83000 3.92100 34.93200
C  26.62100 3.95000 36.22100
H  26.18000 4.98800 37.21800
N  22.91500 2.16700 29.76700
C  21.99400 2.34900 30.79000
C  20.62500 2.36200 30.24900
C  20.79900 2.12400 28.80900
C  22.25500 2.06200 28.58200
C  19.48500 2.52900 31.05000
C  19.78200 2.01000 27.76300
O  20.05400 1.78300 26.61700
C  18.31600 2.33600 28.10900
N  25.19400 1.49600 27.82500
C  24.20100 1.76900 26.90300
C  24.76300 1.83500 25.47500
C  26.32700 1.69000 25.69600
C  26.45700 1.48700 27.25700
C  24.27000 0.75100 24.42900
C  27.16500 2.84100 25.12900
C  27.25700 4.18800 25.90100
N  27.03500 1.61600 30.14000
C  28.04300 1.22900 29.20200
C  29.30600 1.00300 29.85300
C  28.99800 1.28600 31.20500
C  27.60400 1.63800 31.38500
C  30.55400 0.58500 29.23800
C  29.60900 1.53000 32.51500
O  30.78100 1.32300 32.74700
C  28.50200 2.03900 33.55100
C  28.45100 0.96500 34.62300
O  28.04700 -0.18600 34.47100
O  28.76900 1.54500 35.85600
C  28.50700 0.76600 37.04700
H  21.65300 2.63400 32.91500
H  22.24300 2.00900 26.43500
H  28.57000 1.19100 27.11900
H  25.76900 1.70500 34.95900
H  23.27400 3.38800 34.39700
H  23.70000 0.75000 35.59400
H  22.68900 0.64600 34.26700
H  22.32100 1.91000 35.54600
H  24.91900 4.48500 35.13100
H  26.42100 4.48000 34.20600
H  27.69500 4.13200 36.19400
H  26.47300 3.00400 36.74100
H  18.80100 1.68200 31.00000
H  19.09100 3.51200 30.79000
H  19.58100 2.59900 32.13400
H  18.00600 1.82500 29.02000
H  17.72500 1.88100 27.31400
H  18.26700 3.42500 28.12900
H  24.61200 2.88800 25.23800
H  26.65000 0.73900 25.27300
H  23.24100 0.48900 24.67600
H  24.95900 -0.09000 24.50900
H  24.23800 1.11800 23.40300
H  26.72700 3.08300 24.16100
H  28.11300 2.41800 24.79600
H  28.23300 4.28800 26.37600
H  26.51300 4.17200 26.69800
H  26.99600 5.08500 25.33800
H  31.25100 1.39900 29.04000
H  30.33700 0.10300 28.28500
H  30.93600 -0.13600 29.96100
H  28.64400 3.00300 34.04000
H  27.89200 -0.11200 36.85000
H  27.85500 1.39200 37.65600
H  29.46100 0.53600 37.52200
Mg 46.83500 17.48900 28.64000
C  45.31500 16.93100 31.74800
C  49.26200 19.40600 30.02800
C  48.02800 17.87700 25.54600
C  44.28000 15.45000 27.20300
N  47.13400 18.11500 30.63000
C  46.45800 17.73700 31.76600
C  47.23400 18.30900 32.99300
C  48.36100 19.25500 32.36500
C  48.24800 18.93400 30.91000
C  48.17900 20.78700 32.70700
C  47.87500 17.16500 33.90000
C  47.67000 17.20800 35.44000
H  47.12700 18.54600 36.00300
N  48.46200 18.60700 27.86300
C  49.35500 19.30100 28.60700
C  50.41000 19.75100 27.71700
C  50.04800 19.33200 26.35800
C  48.81700 18.54000 26.54000
C  51.62600 20.60400 28.23400
C  50.63800 19.60900 25.04900
O  50.22800 19.10100 24.04900
C  51.86500 20.42100 25.05300
N  46.19700 16.77000 26.69500
C  46.81600 17.17600 25.59500
C  45.99900 16.82500 24.33200
C  45.05200 15.74400 24.86000
C  45.20700 15.95900 26.32100
C  45.27600 17.98500 23.59300
C  45.35000 14.31600 24.30200
C  44.16000 13.67000 23.56700
N  45.06200 16.48500 29.29400
C  44.15800 15.75500 28.60000
C  43.15300 15.23200 29.50400
C  43.58000 15.66900 30.86500
C  44.76100 16.38000 30.62600
C  41.92800 14.47800 29.04100
C  43.21600 15.71700 32.22100
O  42.21200 15.37800 32.80100
C  44.40000 16.59000 32.88400
C  43.78900 17.79300 33.55100
O  43.64900 18.92100 33.04000
O  43.35700 17.46500 34.79100
C  42.58700 18.58000 35.44300
H  50.04900 20.03800 30.44400
H  48.30700 18.09400 24.51300
H  43.42900 14.94000 26.74600
H  46.52100 18.85100 33.61400
H  49.31600 18.98300 32.81300
H  47.14000 20.97700 32.97400
H  48.59400 21.39700 31.90500
H  48.79000 20.96000 33.59300
H  48.95400 17.15600 33.74100
H  47.51200 16.20700 33.52600
H  48.57400 16.80200 35.89500
H  46.94000 16.43100 35.66500
H  52.59900 20.48200 27.75900
H  51.81600 20.38400 29.28500
H  51.29500 21.63900 28.15100
H  52.21100 20.66300 24.04700
H  52.66600 19.82600 25.49300
H  51.67800 21.33100 25.62100
H  46.73700 16.38300 23.66200
H  44.00400 16.01600 24.73300
H  45.17600 18.83700 24.26500
H  44.36900 17.58700 23.14000
H  45.83300 18.39100 22.74900
H  45.57500 13.63700 25.12500
H  46.20500 14.26700 23.62700
H  44.59400 13.47300 22.58600
H  43.26800 14.29600 23.52200
H  44.00900 12.65800 23.94100
H  42.19400 13.42400 28.96000
H  41.45800 14.89900 28.15200
H  41.21600 14.57400 29.86000
H  44.83500 15.87400 33.58100
H  41.56300 18.24300 35.28200
H  42.59100 19.58000 35.00900
H  42.93200 18.68500 36.47200

