158

Mg 47.41300 25.22800 28.51400
C  48.21800 27.27400 31.19700
C  46.44300 22.65900 30.73800
C  47.09000 23.08700 25.94300
C  48.69000 27.68000 26.35100
N  47.18300 25.09500 30.53700
C  47.46400 26.11700 31.49900
C  47.26700 25.65300 32.97500
C  46.89600 24.18000 32.76500
C  46.82900 23.94700 31.24700
C  47.75700 23.24800 33.51300
C  46.29100 26.46000 33.79600
C  46.73800 26.73200 35.25100
H  45.89800 27.54800 36.19000
N  46.73000 23.13700 28.37100
C  46.41200 22.28100 29.38500
C  46.13100 20.97300 28.82200
C  46.26800 21.07600 27.44200
C  46.70700 22.46100 27.17400
C  45.85200 19.76700 29.65900
C  45.91600 20.18300 26.33900
O  46.00100 20.43800 25.13400
C  45.43900 18.82300 26.63800
N  47.81000 25.32100 26.44000
C  47.52500 24.34000 25.55000
C  47.71200 24.78300 24.07200
C  48.03900 26.30800 24.25200
C  48.20000 26.48000 25.79200
C  48.76700 23.90100 23.33700
C  47.02800 27.25500 23.60800
C  47.39300 27.72700 22.18500
N  48.29900 27.05600 28.65700
C  48.82800 27.95200 27.72100
C  49.44200 29.04700 28.38300
C  49.23800 28.83200 29.78300
C  48.53700 27.59100 29.86600
C  50.10200 30.17200 27.68100
C  49.38400 29.41900 31.06100
O  50.00000 30.43700 31.41000
C  48.67700 28.44500 32.01000
C  49.61400 28.12800 33.04700
O  50.52300 27.29600 32.94800
O  49.35800 28.96400 34.05900
C  50.15500 28.91500 35.26000
H  46.26600 21.87900 31.48200
H  47.06400 22.55900 24.98700
H  49.12500 28.34200 25.59900
H  48.20200 25.68600 33.53400
H  45.89200 24.09000 33.17800
H  48.27600 23.70300 34.35600
H  48.50700 22.92000 32.79300
H  47.08400 22.46300 33.85900
H  45.32500 25.97000 33.91900
H  45.98500 27.34600 33.23900
H  47.67200 27.29400 35.25000
H  46.94100 25.77800 35.73800
H  46.46000 18.91700 29.35200
H  44.87100 19.43700 29.31600
H  46.13700 19.85500 30.70700
H  44.51700 18.83300 27.21900
H  46.24700 18.39000 27.22800
H  45.22200 18.28200 25.71700
H  46.74600 24.68800 23.57500
H  48.94100 26.63100 23.73300
H  49.35500 23.51700 24.17000
H  49.27900 24.54700 22.62400
H  48.27900 23.10300 22.77800
H  46.82300 28.10400 24.26000
H  46.08900 26.73900 23.40700
H  47.70600 28.77000 22.13700
H  46.54300 27.56600 21.52100
H  48.21000 27.06300 21.90200
H  49.33200 30.89900 27.42100
H  50.67800 29.72200 26.87300
H  50.76800 30.75200 28.32000
H  47.84100 29.05100 32.35800
H  50.21600 29.94800 35.60300
H  51.12600 28.42600 35.18800
H  49.65100 28.32000 36.02200
Mg 26.77000 49.47600 25.70300
C  24.80000 50.58700 28.25400
C  29.08900 48.59900 27.99900
C  28.88300 48.80300 23.17300
C  24.46400 50.75500 23.43000
N  26.87700 49.65500 27.88900
C  25.97400 50.09300 28.76200
C  26.33200 49.72000 30.19100
C  27.83600 49.48400 30.03600
C  27.95100 49.16400 28.52400
C  28.79100 50.58600 30.46100
C  25.45400 48.59400 30.92300
C  24.85900 48.84100 32.34700
H  25.76600 49.52700 33.39600
N  28.71500 48.72200 25.62300
C  29.54100 48.38900 26.71900
C  30.79600 47.75600 26.25000
C  30.81700 47.83300 24.80000
C  29.47000 48.42000 24.42800
C  31.95200 47.26200 27.10500
C  31.90900 47.54700 23.76900
O  31.67900 47.79100 22.60200
C  33.21500 46.96900 24.28500
N  26.69700 49.74600 23.59400
C  27.69300 49.43200 22.76500
C  27.30500 49.63400 21.28800
C  25.84700 50.17800 21.37500
C  25.59800 50.18100 22.89700
C  28.29300 50.49200 20.43900
C  24.65800 49.41500 20.62400
C  24.00100 50.01500 19.40400
N  25.03700 50.53500 25.81000
C  24.17700 50.97300 24.76500
C  23.07500 51.70000 25.33300
C  23.27500 51.53400 26.74400
C  24.45700 50.78100 26.92800
C  21.92200 52.23000 24.59500
C  22.61900 51.80300 28.02400
O  21.57800 52.39000 28.33100
C  23.62900 51.15800 29.01800
C  23.97400 52.14400 30.11900
O  24.37300 53.27900 29.81300
O  23.89200 51.54700 31.40000
C  24.27400 52.35400 32.55800
H  29.83000 48.31200 28.74700
H  29.47700 48.64100 22.27100
H  23.78500 51.30600 22.77600
H  26.31000 50.68200 30.70300
H  28.07200 48.58500 30.60700
H  29.31900 51.01200 29.60900
H  29.61600 50.06700 30.95000
H  28.23900 51.37600 30.97100
H  26.01400 47.65900 30.89700
H  24.59300 48.36900 30.29500
H  24.79900 47.78200 32.59900
H  23.88400 49.31900 32.25800
H  31.85100 46.18400 26.97700
H  31.75600 47.62700 28.11200
H  32.95100 47.62000 26.85300
H  33.05300 46.03000 24.81500
H  33.76900 47.70600 24.86700
H  33.95200 46.65400 23.54600
H  27.28900 48.62100 20.88500
H  25.77800 51.20900 21.02700
H  29.17400 50.85700 20.96900
H  27.75100 51.40300 20.18600
H  28.57300 49.92800 19.54900
H  23.89000 49.28100 21.38500
H  25.00800 48.41200 20.38000
H  24.12000 49.25900 18.62700
H  24.50800 50.94100 19.13300
H  22.97000 50.17200 19.72000
H  21.63600 51.69600 23.68900
H  22.15800 53.26300 24.34100
H  21.00700 52.25800 25.18600
H  23.07900 50.36900 29.53100
H  24.16200 51.65400 33.38500
H  23.51500 53.13600 32.52600
H  25.29400 52.73800 32.55400

