158

Mg 56.00300 23.36300 44.56900
C  53.83100 25.93400 43.13300
C  53.69700 21.09900 43.67500
C  58.27200 21.06000 45.25300
C  58.20500 25.93500 45.29300
N  53.99600 23.53400 43.46300
C  53.28400 24.65600 42.97000
C  51.91900 24.20900 42.36600
C  51.80200 22.72000 42.74200
C  53.23800 22.43900 43.41900
C  50.52400 22.42900 43.60900
C  51.68800 24.56300 40.85700
C  50.32800 25.18300 40.48200
H  49.81900 24.43800 39.23900
N  55.99800 21.35300 44.31700
C  54.93700 20.55700 44.00100
C  55.32100 19.16400 43.98700
C  56.66500 19.15000 44.53500
C  57.03400 20.58400 44.70000
C  54.47400 17.97700 43.63300
C  57.53900 17.87300 44.82600
O  57.03100 16.76000 44.84000
C  58.94800 17.90600 45.25600
N  58.02000 23.49200 44.91100
C  58.73600 22.36900 45.34700
C  60.03300 22.78500 45.88200
C  60.01500 24.32800 45.97400
C  58.63500 24.63700 45.41100
C  60.72400 22.10300 47.15500
C  61.08500 25.17100 45.26700
C  61.77200 26.21900 46.13800
N  55.94200 25.48000 44.54600
C  56.95000 26.40900 44.88100
C  56.49800 27.75200 44.70600
C  55.26000 27.63600 44.06200
C  55.04300 26.19100 43.87000
C  57.14500 29.01900 45.10600
C  54.22400 28.37000 43.49300
O  53.92700 29.55600 43.51900
C  53.26000 27.30800 42.84400
C  53.26200 27.63800 41.39800
O  54.13600 27.29800 40.64200
O  52.14900 28.26600 41.02800
C  51.77200 28.31300 39.58200
H  52.88400 20.39100 43.50100
H  59.07800 20.43600 45.64600
H  58.87000 26.69100 45.71500
H  51.24300 24.86500 42.91300
H  51.67600 22.11000 41.84700
H  50.69600 22.68700 44.65400
H  50.46800 21.34300 43.54100
H  49.61700 22.90500 43.23600
H  51.80800 23.67600 40.23500
H  52.48100 25.25000 40.56200
H  50.32600 26.27300 40.48500
H  49.78200 24.91500 41.38600
H  53.47300 18.32800 43.38000
H  54.36600 17.38200 44.54000
H  54.82800 17.43500 42.75600
H  59.01200 18.46100 46.19100
H  59.50300 18.40100 44.45900
H  59.32800 16.89700 45.41700
H  60.70600 22.61400 45.04200
H  60.06100 24.60300 47.02800
H  60.22700 21.15200 47.34600
H  60.97800 22.76100 47.98500
H  61.69000 21.90900 46.69000
H  60.68300 25.63400 44.36600
H  61.90100 24.49100 45.02500
H  61.84700 25.88700 47.17400
H  61.21900 27.13500 46.34500
H  62.78900 26.47600 45.84400
H  56.43800 29.84900 45.11600
H  58.05600 29.12900 44.51800
H  57.52700 28.92900 46.12300
H  52.25100 27.34600 43.25700
H  52.61000 28.84400 39.13100
H  50.87400 28.88300 39.34500
H  51.74600 27.37000 39.03500
Mg 41.77200 40.49400 26.90800
C  41.02200 42.77300 29.56400
C  42.96700 38.39200 29.34600
C  42.68700 38.47100 24.39600
C  41.32400 43.06800 24.60700
N  42.05400 40.64400 29.16300
C  41.53900 41.57200 30.07500
C  41.56000 41.15400 31.56100
C  42.19300 39.73400 31.30400
C  42.54000 39.60500 29.86800
C  43.33200 39.38000 32.28000
C  40.22400 41.22000 32.33000
C  40.27000 41.71600 33.81200
H  39.65000 40.84200 34.95600
N  42.73000 38.69400 26.84600
C  43.08100 37.92200 27.98300
C  43.64500 36.69000 27.48900
C  43.63000 36.69200 26.13500
C  43.01500 37.99400 25.71000
C  44.15200 35.56000 28.44200
C  43.97900 35.58100 25.09300
O  43.79800 35.64400 23.90600
C  44.51700 34.26000 25.57500
N  42.19000 40.83600 24.84100
C  42.31800 39.79500 24.02900
C  42.12000 40.06200 22.54800
C  41.73000 41.57500 22.57300
C  41.78700 41.86300 24.11500
C  43.31400 39.66400 21.53900
C  40.37200 41.90400 21.82300
C  39.00600 41.66200 22.44900
N  41.19200 42.51200 26.95900
C  41.01300 43.39800 25.94500
C  40.44100 44.61900 26.55900
C  40.44400 44.41700 27.91100
C  40.96200 43.11300 28.17500
C  40.13100 45.89800 25.83800
C  40.12400 45.04200 29.13600
O  39.73800 46.19600 29.35000
C  40.42200 43.99100 30.22700
C  41.28500 44.66000 31.16100
O  42.35000 45.25400 30.90600
O  40.87100 44.49300 32.44300
C  41.68200 45.11900 33.52300
H  43.23300 37.61200 30.06300
H  42.69900 37.81200 23.52500
H  41.06300 43.84700 23.88800
H  42.30000 41.83400 31.98300
H  41.47200 38.97200 31.60200
H  43.33700 40.00700 33.17100
H  44.31000 39.40300 31.79800
H  43.23100 38.36400 32.66100
H  39.92400 40.18000 32.45200
H  39.41700 41.63500 31.72700
H  39.68600 42.63100 33.70900
H  41.24400 42.13200 34.07100
H  45.21000 35.49500 28.19100
H  43.61300 34.63800 28.22400
H  44.14700 35.83000 29.49800
H  45.36500 34.22600 26.26000
H  44.68400 33.78300 24.60900
H  43.64900 33.75200 25.99500
H  41.21000 39.57500 22.19700
H  42.56200 42.15300 22.17000
H  43.71200 40.47900 20.93400
H  42.88000 38.87900 20.91900
H  44.04200 39.37200 22.29600
H  40.29200 41.18700 21.00600
H  40.46000 42.92300 21.44900
H  38.68700 42.63800 22.81700
H  39.15000 40.89800 23.21200
H  38.27300 41.21900 21.77500
H  39.44700 45.54000 25.06900
H  41.02500 46.27700 25.34400
H  39.72200 46.67100 26.49000
H  39.51100 43.62200 30.69700
H  41.01800 45.62400 34.22400
H  42.36900 45.91600 33.23800
H  42.13300 44.26200 34.02400

