158

Mg 47.98200 15.91700 27.87500
C  45.97600 15.87200 30.71500
C  50.12200 18.13900 29.58500
C  49.76400 16.48600 24.96600
C  45.51300 14.35800 26.12400
N  47.99500 16.90000 29.89400
C  47.19300 16.57500 30.92500
C  47.58300 17.09900 32.27900
C  48.74400 17.99600 31.82500
C  49.00700 17.67800 30.37300
C  48.49500 19.55100 32.10400
C  48.10500 15.92400 33.26400
C  48.20400 16.30500 34.83100
H  47.44500 17.57800 35.27600
N  49.75300 17.02600 27.42300
C  50.48200 17.82500 28.23700
C  51.68800 18.19300 27.57600
C  51.71100 17.57200 26.24200
C  50.38500 16.95200 26.20500
C  52.79800 19.00500 28.24100
C  52.73200 17.54000 25.18500
O  52.59300 16.82700 24.20400
C  54.00400 18.16700 25.43800
N  47.71000 15.38400 25.88500
C  48.51300 15.88000 24.86400
C  47.91600 15.57100 23.50700
C  46.78300 14.55100 23.85000
C  46.63300 14.76000 25.40100
C  47.38400 16.89000 22.87200
C  47.03300 13.08200 23.59300
C  45.94700 12.37400 22.80600
N  46.13600 15.27500 28.26800
C  45.21600 14.64000 27.44800
C  44.04200 14.38000 28.23300
C  44.29900 14.80700 29.53700
C  45.58100 15.39400 29.46400
C  42.85100 13.76000 27.63600
C  43.78100 14.83200 30.79700
O  42.65700 14.42600 31.10400
C  44.86300 15.55600 31.67200
C  44.19200 16.71800 32.31200
O  44.04900 17.81500 31.82600
O  43.74900 16.33300 33.57400
C  42.93000 17.34100 34.24600
H  50.84900 18.71100 30.16500
H  50.28900 16.60100 24.01600
H  44.73000 13.95500 25.47900
H  46.79500 17.69700 32.73600
H  49.65500 17.76800 32.37800
H  47.58400 19.81500 32.64000
H  48.56200 20.07800 31.15200
H  49.23900 20.10600 32.67500
H  49.12400 15.65700 32.98300
H  47.44900 15.05500 33.22100
H  49.28800 16.25900 34.93300
H  47.73900 15.58900 35.50900
H  53.23100 19.68400 27.50600
H  53.63600 18.40700 28.60000
H  52.48000 19.50600 29.15600
H  54.46500 17.62400 26.26300
H  53.80100 19.23500 25.51200
H  54.62400 18.01600 24.55500
H  48.65500 15.14900 22.82500
H  45.89500 15.01000 23.41500
H  47.12600 16.59700 21.85500
H  48.07600 17.72800 22.94600
H  46.48000 17.16700 23.41600
H  47.24100 12.49700 24.48900
H  47.96300 12.97100 23.03400
H  45.97700 12.81800 21.81100
H  44.99700 12.51700 23.32100
H  46.16200 11.30800 22.73700
H  42.66600 13.96400 26.58200
H  41.95400 14.00500 28.20400
H  42.90500 12.68800 27.82600
H  45.21300 14.96600 32.51900
H  41.89900 17.35800 33.89200
H  43.38500 18.32400 34.12400
H  42.87700 17.18900 35.32500
Mg 9.07800 48.12600 26.33700
C  7.12500 47.71200 29.10700
C  11.82100 48.92900 28.40800
C  11.03900 48.59000 23.54400
C  6.15000 47.96300 24.28400
N  9.39600 48.44600 28.49500
C  8.44000 48.15600 29.48400
C  9.05100 48.27500 30.87200
C  10.51400 48.73400 30.62200
C  10.62100 48.66500 29.05000
C  10.95300 50.17700 31.24100
C  8.85500 47.08100 31.90600
C  9.73900 46.99200 33.17000
H  9.17700 46.29200 34.37100
N  11.19600 48.42000 26.01400
C  12.10600 48.77200 27.00900
C  13.39700 49.07400 26.36900
C  13.20700 48.79900 24.95200
C  11.77500 48.61200 24.77600
C  14.70000 49.34400 27.11700
C  14.24700 48.87700 23.79000
O  13.95200 48.87000 22.58400
C  15.63100 49.03500 24.12800
N  8.65900 48.31000 24.22000
C  9.64200 48.52600 23.30600
C  9.06800 48.49400 21.89300
C  7.53100 48.30800 22.08200
C  7.43900 48.21000 23.62200
C  9.41400 49.86200 21.17700
C  6.98100 47.14000 21.29600
C  6.53800 47.45400 19.84800
N  7.01700 47.90000 26.54200
C  5.93700 47.81500 25.67100
C  4.72600 47.49100 26.48200
C  5.18700 47.43600 27.77900
C  6.52600 47.74400 27.79700
C  3.27900 47.53000 26.04700
C  4.73100 47.25700 29.16200
O  3.61000 47.10600 29.63000
C  6.05000 47.34500 30.00000
C  6.18400 45.99600 30.49800
O  6.84500 45.09800 29.94400
O  5.48600 45.85500 31.63400
C  5.74200 44.58800 32.42600
H  12.73100 49.26800 28.90700
H  11.66500 48.74900 22.66400
H  5.22500 47.86200 23.71200
H  8.40300 49.03300 31.31400
H  11.16100 47.94500 31.00500
H  11.35200 50.89900 30.52900
H  11.75200 50.10000 31.97900
H  10.08700 50.62800 31.72400
H  8.95800 46.20900 31.26000
H  7.80100 47.05800 32.18300
H  9.91700 48.03700 33.42400
H  10.73300 46.60900 32.93600
H  15.24200 48.40200 27.03700
H  14.54800 49.48200 28.18800
H  15.27800 50.18600 26.73500
H  16.13200 48.26700 24.71800
H  15.57500 49.87500 24.82000
H  16.30500 49.30800 23.31600
H  9.43300 47.60400 21.38000
H  6.84100 49.10800 21.81700
H  9.68700 50.57300 21.95700
H  8.47900 50.17800 20.71300
H  10.22000 49.66400 20.47000
H  6.12300 46.69500 21.80000
H  7.75300 46.37600 21.38600
H  5.48600 47.20000 19.71700
H  7.14400 46.87200 19.15400
H  6.66800 48.49700 19.56000
H  3.04700 46.63800 25.46400
H  3.09900 48.30400 25.30200
H  2.70000 47.46900 26.96900
H  5.95300 48.09000 30.79000
H  6.08900 44.86300 33.42200
H  6.46500 43.92300 31.95400
H  4.71600 44.22000 32.41300

