158

Mg 18.01000 -0.94400 27.90400
C  17.02300 1.07400 30.82000
C  19.77000 -2.86100 30.05200
C  18.63000 -2.74500 25.28300
C  16.01600 1.36500 25.98100
N  18.26000 -0.96400 30.12400
C  17.88800 -0.05500 31.07100
C  18.25800 -0.52000 32.52500
C  19.14800 -1.76000 32.27200
C  19.09500 -1.84600 30.71000
C  20.58600 -1.90300 32.80200
C  16.95200 -0.80200 33.39300
C  16.81500 -0.01800 34.71300
H  18.14500 0.55100 35.33500
N  19.21300 -2.45000 27.61000
C  19.87600 -3.16100 28.61400
C  20.65200 -4.20300 27.96700
C  20.27100 -4.19000 26.58700
C  19.24400 -3.11900 26.43100
C  21.44700 -5.19200 28.69300
C  20.76000 -5.11600 25.43400
O  20.45700 -4.98400 24.26000
C  21.75000 -6.17200 25.70500
N  17.54500 -0.64500 25.91600
C  17.81300 -1.64000 25.04100
C  17.23800 -1.33900 23.63400
C  16.37400 -0.05800 23.93800
C  16.68000 0.24800 25.33800
C  18.24400 -1.07600 22.45100
C  14.87600 -0.28500 23.66200
C  14.04300 -1.06300 24.68300
N  16.74300 0.81800 28.29700
C  15.96500 1.62400 27.34500
C  15.39500 2.74300 28.03300
C  15.74900 2.54500 29.34900
C  16.60600 1.46400 29.49000
C  14.48500 3.68500 27.44500
C  15.60700 3.10500 30.63700
O  14.98100 4.02900 31.05600
C  16.29600 2.07700 31.65400
C  17.27700 2.89000 32.48800
O  18.51100 3.04200 32.32600
O  16.50400 3.41700 33.50700
C  17.18500 4.49500 34.23000
H  20.43600 -3.43500 30.70000
H  18.67500 -3.45500 24.45400
H  15.36100 1.93700 25.32000
H  18.87400 0.28600 32.92400
H  18.65300 -2.63300 32.69700
H  20.60400 -1.40500 33.77100
H  21.19100 -1.36900 32.07000
H  20.97100 -2.92300 32.83800
H  16.80000 -1.84500 33.67100
H  16.21900 -0.45100 32.66800
H  16.31600 -0.66600 35.43400
H  16.23500 0.89200 34.55900
H  21.49200 -4.99400 29.76400
H  22.48100 -5.04700 28.38100
H  21.05500 -6.19000 28.49400
H  22.67400 -5.76200 26.11300
H  22.00900 -6.55400 24.71800
H  21.43500 -7.03400 26.29400
H  16.56300 -2.17500 23.45000
H  16.62900 0.83200 23.36100
H  18.56100 -1.89800 21.80900
H  19.16000 -0.65600 22.86700
H  17.90100 -0.21600 21.87700
H  14.76900 -0.80800 22.71200
H  14.38300 0.67900 23.53600
H  13.30700 -0.32300 25.00100
H  14.59500 -1.47400 25.52800
H  13.35000 -1.81600 24.30900
H  14.03800 3.25400 26.54900
H  14.98900 4.60400 27.14600
H  13.67300 4.02900 28.08500
H  15.43900 1.65900 32.18000
H  18.26500 4.34800 34.21800
H  16.76000 4.55100 35.23200
H  16.86200 5.41400 33.73900
Mg -3.24600 35.68500 26.53800
C  -5.08800 33.83400 28.91200
C  -1.99800 37.59300 29.12800
C  -1.80400 37.67200 24.16600
C  -5.02100 33.97000 23.95200
N  -3.45600 35.58800 28.77900
C  -4.30700 34.80900 29.55500
C  -4.21600 35.12400 31.00000
C  -3.25200 36.38300 31.05700
C  -2.84700 36.54900 29.60000
C  -3.73800 37.67700 31.76900
C  -3.54400 33.87500 31.86500
C  -4.18300 33.47200 33.22000
H  -3.33100 33.22500 34.42400
N  -2.03600 37.34300 26.65900
C  -1.56500 37.94200 27.83000
C  -0.59400 39.00100 27.42000
C  -0.60000 39.06400 26.06200
C  -1.52900 38.02600 25.53700
C  0.23700 39.73800 28.40200
C  0.26400 39.89200 25.18900
O  0.26700 39.81400 24.00500
C  1.17900 41.02800 25.67000
N  -3.51400 35.84700 24.38900
C  -2.73700 36.75600 23.70300
C  -3.02200 36.57800 22.21800
C  -3.97300 35.30700 22.12000
C  -4.13800 34.98800 23.55400
C  -3.57200 37.82800 21.54000
C  -3.39900 34.20200 21.29300
C  -2.30800 33.30400 21.90400
N  -4.71100 34.12700 26.39600
C  -5.30000 33.54000 25.26700
C  -6.19500 32.49100 25.73900
C  -6.03800 32.52700 27.20000
C  -5.21800 33.56600 27.50800
C  -6.96600 31.50400 24.90100
C  -6.47000 31.99600 28.41700
O  -7.15400 30.97900 28.54000
C  -5.89900 32.78000 29.58100
C  -6.93900 33.41100 30.41200
O  -7.56200 34.35500 30.06400
O  -7.08600 32.71300 31.65000
C  -8.03600 33.34600 32.52300
H  -1.66000 38.27500 29.91100
H  -1.21500 38.21700 23.42500
H  -5.61500 33.50000 23.16500
H  -5.20600 35.43900 31.32800
H  -2.33300 36.14500 31.59400
H  -3.28100 37.85100 32.74400
H  -4.80300 37.54800 31.95900
H  -3.45400 38.57900 31.22600
H  -2.49400 34.13700 31.99400
H  -3.42100 33.00900 31.21500
H  -4.84800 32.63900 32.99400
H  -4.81100 34.31100 33.51800
H  1.31500 39.67700 28.25100
H  -0.09100 39.32100 29.35500
H  -0.06700 40.78400 28.36900
H  0.63400 41.80200 26.21100
H  1.81200 41.41300 24.87200
H  1.85300 40.62200 26.42500
H  -2.17800 36.34400 21.56900
H  -4.97400 35.52600 21.74900
H  -2.80200 38.27300 20.90900
H  -3.86300 38.57200 22.28200
H  -4.41800 37.64000 20.87900
H  -2.97200 34.57600 20.36300
H  -4.24700 33.56700 21.03500
H  -1.99400 33.77500 22.83500
H  -1.52600 33.01000 21.20300
H  -2.60500 32.34500 22.32800
H  -7.62100 30.83700 25.46000
H  -6.27200 30.81400 24.42200
H  -7.54700 31.91000 24.07300
H  -5.36100 32.04200 30.17600
H  -8.83500 33.74100 31.89700
H  -7.51500 34.05000 33.17100
H  -8.54300 32.57100 33.09800

