158

Mg 35.59600 1.43400 29.62100
C  33.11600 2.04100 32.06500
C  37.81900 1.00100 32.06800
C  37.90400 1.00600 27.21500
C  33.13500 2.03200 27.18900
N  35.42300 1.43000 31.85400
C  34.36800 1.73000 32.63900
C  34.75100 1.76300 34.15200
C  36.33300 1.49700 34.08300
C  36.55200 1.20100 32.62300
C  37.25600 2.68600 34.61000
C  34.00700 0.83000 35.12300
C  33.35900 1.37700 36.35800
H  34.24400 2.41900 37.15200
N  37.56800 1.02700 29.59700
C  38.31500 0.92400 30.70600
C  39.65600 0.52700 30.31500
C  39.66900 0.40200 28.93700
C  38.35400 0.88100 28.50000
C  40.66300 0.21800 31.31600
C  40.79300 -0.11900 28.01300
O  40.57000 -0.33300 26.80200
C  42.11600 -0.46400 28.52800
N  35.50800 1.32900 27.56000
C  36.61200 1.26500 26.75200
C  36.25000 1.19200 25.27400
C  34.68600 1.37600 25.27800
C  34.36300 1.51600 26.73500
C  37.06100 2.26700 24.44200
C  33.93800 0.18200 24.62300
C  33.99400 -1.12100 25.35700
N  33.54600 1.98300 29.52300
C  32.72000 2.25600 28.44500
C  31.35200 2.60500 28.94200
C  31.48600 2.53800 30.32800
C  32.83700 2.10300 30.67500
C  30.31000 2.91100 27.97500
C  30.77300 2.72000 31.59800
O  29.60200 3.12400 31.78700
C  31.73100 2.38200 32.70300
C  31.76600 3.71000 33.52100
O  32.23500 4.72000 33.10200
O  31.02700 3.61500 34.67000
C  30.80700 4.72000 35.52800
H  38.53500 0.83800 32.87600
H  38.62700 1.12300 26.40600
H  32.50200 2.30700 26.34200
H  34.58200 2.79800 34.45000
H  36.66800 0.64600 34.67700
H  36.65200 3.53900 34.91800
H  37.90000 3.17500 33.87900
H  37.89400 2.30300 35.40600
H  34.66200 0.03500 35.48100
H  33.19200 0.43700 34.51500
H  33.11000 0.62400 37.10500
H  32.46200 1.82900 35.93400
H  41.62700 -0.16900 30.98500
H  40.28800 -0.51300 32.03200
H  40.80700 1.12300 31.90700
H  42.55200 0.37300 29.07400
H  42.84500 -0.70700 27.75400
H  42.06600 -1.32500 29.19500
H  36.45400 0.16800 24.96300
H  34.37900 2.28600 24.76400
H  36.39200 2.78500 23.75500
H  37.81900 1.76300 23.84200
H  37.48500 3.03400 25.09000
H  34.44300 0.03500 23.66900
H  32.87900 0.37900 24.45600
H  34.33000 -1.82200 24.59200
H  32.97800 -1.30100 25.70700
H  34.74000 -1.16200 26.15100
H  29.48500 3.37500 28.51500
H  30.15200 1.95800 27.47000
H  30.71400 3.67800 27.31400
H  31.44100 1.52600 33.31200
H  31.42400 4.39200 36.36400
H  29.78700 4.66600 35.91000
H  31.11300 5.73100 35.26000
Mg 6.85000 57.41200 41.86200
C  5.77900 54.08000 41.92900
C  9.83000 56.30600 40.51700
C  7.75400 60.66200 41.71000
C  3.66000 58.39200 43.02400
N  7.51600 55.35500 40.87900
C  7.02400 54.13000 41.24200
C  7.86600 53.02100 40.63700
C  9.25000 53.80500 40.63900
C  8.82800 55.26000 40.63400
C  10.11100 53.55400 41.86900
C  7.44900 52.60600 39.26900
C  7.47000 51.10900 38.86600
H  6.52200 50.56600 37.77300
N  8.53300 58.35800 41.13700
C  9.69300 57.76300 40.68500
C  10.65400 58.77200 40.41900
C  10.12500 60.03700 40.87100
C  8.74400 59.78100 41.19600
C  12.06900 58.49500 39.90400
C  10.79400 61.41700 40.71500
O  11.97800 61.48100 40.35200
C  10.09400 62.71100 40.95100
N  5.72300 59.26700 41.99800
C  6.42900 60.41900 42.13200
C  5.50000 61.54100 42.56400
C  4.17000 60.85600 42.98100
C  4.54700 59.41000 42.62800
C  6.13700 62.44200 43.67100
C  2.98600 61.37200 42.11500
C  1.65400 61.39900 42.95300
N  5.07900 56.46300 42.36700
C  3.90900 56.98300 42.92500
C  2.99100 55.92700 43.24600
C  3.77900 54.73300 43.05200
C  4.96400 55.13200 42.35900
C  1.59700 56.07800 43.72600
C  3.75800 53.33200 43.22100
O  2.86100 52.60500 43.68500
C  5.13900 52.84600 42.61400
C  4.88000 51.72700 41.71100
O  4.23700 51.78700 40.68300
O  5.19300 50.49700 42.14600
C  4.61200 49.29100 41.58600
H  10.85000 55.98400 40.29800
H  8.06500 61.70900 41.72000
H  2.71700 58.56400 43.54800
H  7.80900 52.15200 41.29300
H  9.88700 53.57900 39.78300
H  9.63600 52.95600 42.64600
H  10.28500 54.47400 42.42800
H  11.10000 53.11700 41.72800
H  7.92400 53.15200 38.45300
H  6.40200 52.87600 39.13700
H  7.21600 50.59400 39.79300
H  8.49000 50.86300 38.57100
H  12.27600 57.42900 39.99900
H  12.81300 58.92700 40.57400
H  12.26500 58.82000 38.88100
H  10.01900 62.94500 42.01300
H  9.16800 62.75600 40.37700
H  10.70900 63.54700 40.61600
H  5.27700 62.18000 41.71000
H  4.00400 60.97500 44.05200
H  6.91900 61.98100 44.27400
H  5.39600 63.01700 44.22600
H  6.71600 63.21700 43.16900
H  2.87100 60.74900 41.22800
H  3.08400 62.38400 41.72400
H  1.70900 62.17500 43.71600
H  1.54100 60.50100 43.56000
H  0.66600 61.40600 42.49100
H  1.69600 55.75800 44.76300
H  0.93500 55.51800 43.06600
H  1.26100 57.11500 43.72600
H  5.67700 52.45500 43.47700
H  5.08100 48.41100 42.02600
H  4.91500 49.34700 40.54000
H  3.52600 49.23700 41.65100

