158

Mg 34.83800 2.91500 30.04000
C  32.56300 4.22000 32.53900
C  37.35000 3.29200 32.24400
C  36.82000 2.11100 27.56000
C  32.14700 3.13700 27.88800
N  34.91800 3.74300 32.14800
C  33.88100 4.00100 32.98900
C  34.35400 4.12800 34.44900
C  35.91300 4.10500 34.28100
C  36.06300 3.69100 32.81400
C  36.57800 5.42100 34.59600
C  33.85900 2.93700 35.32600
C  33.74400 3.05700 36.84000
H  34.40700 4.29900 37.31800
N  36.84400 2.71800 29.88200
C  37.70300 2.90700 30.91800
C  39.08100 2.61200 30.44000
C  38.92500 2.18800 29.08100
C  37.49100 2.28100 28.77900
C  40.17300 2.75800 31.29000
C  39.98600 1.58600 28.05900
O  39.78200 1.41900 26.84800
C  41.29900 1.01300 28.58800
N  34.59900 3.00100 27.98300
C  35.50100 2.37000 27.14900
C  34.97100 2.32600 25.69600
C  33.44100 2.33100 25.97600
C  33.42500 2.88200 27.36300
C  35.40800 3.43600 24.75400
C  32.60500 1.04000 25.73400
C  31.47900 1.19300 24.64700
N  32.75800 3.48200 30.16600
C  31.79100 3.44900 29.19400
C  30.48900 3.89700 29.78900
C  30.80500 4.13400 31.09100
C  32.19200 4.00200 31.22000
C  29.21800 4.07600 29.03000
C  30.17500 4.61100 32.25500
O  29.05300 4.96500 32.55700
C  31.33700 4.67700 33.27200
C  31.44800 5.99900 33.90600
O  32.19900 6.89200 33.52900
O  30.72300 6.03500 35.11100
C  30.91100 7.23100 35.96900
H  38.20200 3.44800 32.90900
H  37.40100 1.97700 26.64500
H  31.23400 3.15000 27.28900
H  34.10000 5.12400 34.81400
H  36.39800 3.32600 34.87000
H  36.89400 5.36900 35.63800
H  35.91300 6.26100 34.39300
H  37.42800 5.65900 33.95700
H  34.53700 2.10100 35.15600
H  32.89500 2.62200 34.92700
H  34.29000 2.23100 37.29600
H  32.71400 3.01100 37.19200
H  40.28400 3.80700 31.56300
H  41.10700 2.43400 30.82900
H  39.95600 2.14200 32.16200
H  41.34300 0.49000 29.54300
H  41.83700 1.93700 28.80400
H  41.89800 0.41100 27.90400
H  35.11900 1.32700 25.28500
H  32.90600 3.15400 25.50100
H  35.94500 4.16700 25.35800
H  34.61000 3.95900 24.22800
H  36.08300 3.08000 23.97500
H  32.06300 0.80600 26.65000
H  33.22500 0.23500 25.33900
H  31.43800 2.20500 24.24600
H  30.47300 1.02400 25.03100
H  31.77900 0.60100 23.78200
H  28.43700 3.37100 29.31300
H  29.40400 4.08100 27.95600
H  28.82200 5.05900 29.28300
H  31.11000 4.01300 34.10600
H  31.77500 7.04100 36.60600
H  30.07300 7.33600 36.65800
H  30.98400 8.16100 35.40500
Mg 6.75900 54.72900 41.03800
C  5.57400 51.33500 40.57600
C  9.52800 53.75800 39.29600
C  7.70300 58.00800 41.07900
C  3.68100 55.54500 42.32200
N  7.30100 52.78700 39.76900
C  6.78300 51.56600 39.89700
C  7.61600 50.53900 39.12800
C  9.02300 51.24400 39.20700
C  8.61400 52.68100 39.49000
C  9.95400 50.76700 40.31700
C  6.98000 50.46400 37.66400
C  7.17200 49.17000 36.91200
H  6.48400 49.05700 35.53900
N  8.42800 55.70300 40.38200
C  9.50400 55.10900 39.68100
C  10.42200 56.14700 39.34500
C  10.00100 57.29800 39.93700
C  8.66900 57.04500 40.53200
C  11.73300 55.79800 38.52900
C  10.78500 58.62900 39.81700
O  11.65600 58.75800 38.94200
C  10.37700 59.85000 40.64600
N  5.86800 56.48100 41.66000
C  6.44900 57.66100 41.59700
C  5.48200 58.74700 42.17800
C  4.19500 57.96900 42.73400
C  4.55400 56.59900 42.09600
C  5.97100 59.83600 43.16300
C  2.85900 58.52000 42.26500
C  1.76500 58.69600 43.34200
N  4.98000 53.73300 41.37100
C  3.81500 54.22100 41.87900
C  2.95400 53.15000 42.19300
C  3.57600 51.99200 41.70700
C  4.82200 52.39700 41.17100
C  1.63500 53.23800 42.83900
C  3.39700 50.54100 41.44800
O  2.48800 49.80800 41.70400
C  4.74100 50.07400 40.89900
C  4.51800 49.06900 39.85600
O  3.67100 49.16700 38.91300
O  5.38300 47.98900 39.97500
C  4.96800 46.75800 39.23200
H  10.46000 53.38100 38.87000
H  7.82700 59.08500 40.94900
H  2.65800 55.66000 42.68600
H  7.58400 49.59600 39.67300
H  9.45900 51.17600 38.21100
H  9.35800 50.26200 41.07600
H  10.44500 51.66900 40.68200
H  10.74700 50.09800 39.98300
H  7.47400 51.25900 37.10600
H  5.90900 50.66400 37.62500
H  6.79400 48.33200 37.49700
H  8.24700 49.12000 36.74000
H  11.97300 54.75200 38.34000
H  12.59700 56.12900 39.10400
H  11.86600 56.18500 37.51900
H  11.19600 60.56600 40.58000
H  10.17400 59.62900 41.69400
H  9.59200 60.41000 40.13800
H  5.11500 59.28900 41.30700
H  4.22600 57.89900 43.82200
H  5.76600 60.81700 42.73200
H  7.05400 59.86300 43.28400
H  5.57300 59.74000 44.17300
H  2.43100 57.88500 41.48900
H  3.04600 59.50100 41.82900
H  1.62000 59.72900 43.65500
H  2.03400 58.13000 44.23400
H  0.74900 58.39300 43.08800
H  1.74200 53.41600 43.90900
H  1.10900 52.28900 42.73900
H  1.07500 54.10000 42.47500
H  5.20200 49.47200 41.68400
H  3.88800 46.66200 39.34100
H  5.47100 45.96800 39.79000
H  5.24800 46.76800 38.17900

