158

Mg 47.57100 24.67400 28.89000
C  48.52400 27.25400 31.21200
C  46.87400 22.85300 31.71300
C  46.94700 22.18100 26.85500
C  49.28200 26.41000 26.44000
N  47.68100 25.16400 31.25700
C  47.88400 26.24000 31.91600
C  47.50000 26.11200 33.41100
C  47.26700 24.61800 33.58000
C  47.20600 24.17600 32.06400
C  48.35100 23.87300 34.44300
C  46.25900 27.02500 33.71900
C  46.15100 27.75500 35.06200
H  46.94100 27.09100 36.23400
N  46.92800 22.78800 29.22100
C  46.70600 22.15700 30.44600
C  46.18600 20.81500 30.20700
C  46.11000 20.60500 28.80100
C  46.60700 21.91800 28.18800
C  45.81700 19.89000 31.39700
C  45.76000 19.35000 28.07300
O  45.86300 19.27100 26.87900
C  45.31900 18.12700 28.91800
N  48.05900 24.30000 26.95400
C  47.56900 23.28500 26.24200
C  47.89200 23.32500 24.79000
C  48.54200 24.74400 24.54700
C  48.75800 25.15200 26.06700
C  48.74300 22.14000 24.25800
C  47.68300 25.70500 23.64400
C  46.47300 26.31900 24.37700
N  48.49800 26.43300 28.81800
C  49.10500 27.03800 27.73100
C  49.57400 28.36900 28.06000
C  49.29000 28.52100 29.45700
C  48.79700 27.27200 29.86100
C  50.30900 29.26900 27.05900
C  49.36200 29.44300 30.59000
O  49.65000 30.63100 30.66900
C  48.99400 28.54500 31.79300
C  50.24600 28.42200 32.55600
O  51.28800 28.05100 32.01600
O  49.99900 28.75700 33.84300
C  51.09700 28.45500 34.83200
H  46.50200 22.25500 32.54800
H  46.60300 21.34700 26.24000
H  49.61300 27.13800 25.69700
H  48.36000 26.38800 34.02100
H  46.29000 24.37500 33.99800
H  49.01000 24.50300 35.04000
H  48.94800 23.20700 33.82000
H  47.78200 23.25900 35.14200
H  45.35000 26.42800 33.63600
H  46.23700 27.73300 32.89100
H  45.11700 27.81600 35.40200
H  46.39300 28.80700 34.91100
H  44.77300 19.57800 31.35300
H  45.94300 20.32800 32.38700
H  46.40700 18.99300 31.58100
H  44.36200 18.32200 29.40100
H  46.06400 17.87500 29.67300
H  45.16300 17.29100 28.23600
H  46.91300 23.37900 24.31500
H  49.57200 24.72000 24.19100
H  49.54800 22.47800 23.60500
H  48.07400 21.45500 23.73800
H  49.14800 21.51300 25.05300
H  47.36100 25.13000 22.77600
H  48.42500 26.43200 23.31300
H  46.42400 27.39400 24.20000
H  46.47500 26.10200 25.44500
H  45.53700 25.96700 23.94200
H  50.58700 30.24500 27.45600
H  49.75700 29.48100 26.14300
H  51.25800 28.76600 26.87600
H  48.11100 28.89100 32.33000
H  51.54800 27.47600 34.67300
H  50.65300 28.50200 35.82600
H  51.81900 29.25400 34.66000
Mg 26.61800 49.94500 27.06300
C  24.43800 50.84500 29.59200
C  29.00100 49.16200 29.42600
C  28.62300 49.05900 24.69100
C  24.15400 51.00400 24.75600
N  26.77500 50.14000 29.23300
C  25.66800 50.32700 30.04400
C  26.06300 50.17100 31.57600
C  27.52200 49.78700 31.46800
C  27.81300 49.70200 29.99700
C  28.55600 50.67500 32.18700
C  25.09000 49.12300 32.29700
C  24.28100 49.60800 33.52700
H  24.39100 48.72800 34.80100
N  28.60500 49.25600 26.99800
C  29.41500 48.98100 28.10200
C  30.64600 48.48000 27.61600
C  30.59700 48.43700 26.17200
C  29.23600 48.91500 25.87400
C  31.70100 47.96300 28.48900
C  31.59900 48.00100 25.10200
O  31.38700 48.10000 23.91200
C  33.02400 47.52800 25.50800
N  26.44500 50.28700 24.99600
C  27.40500 49.70300 24.23300
C  26.88300 49.50200 22.77500
C  25.49200 50.07800 22.83500
C  25.30700 50.45700 24.28000
C  27.82800 50.16000 21.81000
C  24.30200 49.24600 22.27300
C  23.98700 47.90300 22.93100
N  24.77100 50.88500 27.10300
C  23.88400 51.25100 26.13600
C  22.74700 51.84700 26.69100
C  22.90900 51.66200 28.03600
C  24.15900 51.12800 28.27200
C  21.51500 52.27500 25.90400
C  22.26300 51.71400 29.27200
O  21.12300 52.14600 29.48100
C  23.23800 51.21600 30.42300
C  23.56900 52.45300 31.26900
O  24.20900 53.48500 30.95200
O  22.86400 52.28400 32.34400
C  22.82400 53.28800 33.31000
H  29.75300 48.80600 30.13300
H  29.06400 48.61300 23.79700
H  23.34500 51.25500 24.06700
H  26.01800 51.18300 31.97800
H  27.66300 48.77300 31.84200
H  28.71800 51.57900 31.60000
H  29.46500 50.13100 32.44200
H  28.09200 50.89500 33.14800
H  25.74500 48.31900 32.63300
H  24.50200 48.56200 31.57100
H  23.30600 49.61600 33.03800
H  24.52000 50.62900 33.82500
H  31.74400 46.87600 28.41200
H  31.88900 48.30100 29.50800
H  32.65700 48.34400 28.12800
H  33.57100 47.19700 24.62500
H  32.96400 46.63700 26.13300
H  33.50800 48.33700 26.05500
H  26.75100 48.43200 22.61200
H  25.50200 51.07800 22.40200
H  28.66000 50.68500 22.27800
H  27.31700 50.91600 21.21500
H  28.15000 49.36300 21.14000
H  24.46300 49.01200 21.22100
H  23.40000 49.85300 22.35800
H  22.91700 47.70000 22.96400
H  24.48300 47.85100 23.90000
H  24.50600 47.17200 22.31000
H  21.10700 51.50100 25.25400
H  21.87500 53.15100 25.36400
H  20.78100 52.42400 26.69600
H  22.76200 50.41600 30.99100
H  23.00700 54.30900 32.97300
H  23.62000 53.08200 34.02600
H  21.83000 53.25700 33.75600

