158

Mg 24.15600 -5.38100 45.25100
C  26.16700 -2.84500 43.79200
C  21.61400 -4.29800 43.11600
C  22.51900 -8.12000 46.00600
C  27.12600 -6.64300 46.63400
N  24.04200 -3.81600 43.55200
C  24.97400 -2.89800 43.14200
C  24.45900 -1.98200 42.10700
C  22.89800 -2.28100 42.15100
C  22.81400 -3.57600 42.93100
C  22.12300 -1.07400 42.74900
C  25.16600 -2.23800 40.74300
C  25.58700 -0.94900 39.86100
H  25.42600 -1.01700 38.28200
N  22.22300 -6.01600 44.73300
C  21.38900 -5.46000 43.85300
C  20.16200 -6.22700 43.92200
C  20.38300 -7.35300 44.71000
C  21.74400 -7.19200 45.22400
C  18.95000 -5.92500 43.05100
C  19.37600 -8.39700 45.14000
O  18.25800 -8.32500 44.66100
C  19.62700 -9.46900 46.30100
N  24.80800 -7.19600 46.10200
C  23.88800 -8.14200 46.39800
C  24.57700 -9.39000 47.05700
C  25.99300 -8.83300 47.42300
C  25.99900 -7.44500 46.74000
C  23.67600 -10.06000 48.21000
C  27.14300 -9.84500 47.02000
C  28.23500 -10.04500 48.07000
N  26.18100 -4.72800 45.44900
C  27.21400 -5.40400 46.00000
C  28.41100 -4.57900 45.95400
C  28.09300 -3.54800 45.12700
C  26.70000 -3.70700 44.76700
C  29.83800 -4.71000 46.59200
C  28.54100 -2.34300 44.49200
O  29.54800 -1.76000 44.56200
C  27.31100 -1.89100 43.51700
C  26.99600 -0.45600 43.85300
O  26.62200 -0.08200 44.92100
O  27.25900 0.41900 42.85800
C  27.13200 1.81200 43.22100
H  20.70300 -4.00600 42.59000
H  22.11000 -9.12300 46.14400
H  28.07300 -7.03600 47.01200
H  24.62100 -0.94500 42.40200
H  22.47900 -2.42600 41.15500
H  21.19600 -1.49600 43.13700
H  21.99200 -0.30400 41.98900
H  22.67800 -0.55900 43.53300
H  24.45400 -2.76600 40.10900
H  25.96700 -2.94100 40.96800
H  26.64200 -0.88900 40.12900
H  25.08400 -0.06200 40.24600
H  19.10200 -6.66000 42.26200
H  18.90900 -4.91600 42.64200
H  18.07900 -6.07000 43.69100
H  19.78100 -8.98700 47.26600
H  20.43900 -10.10500 45.95100
H  18.71800 -10.06700 46.23000
H  24.69000 -10.13300 46.26800
H  25.94400 -8.67700 48.50100
H  22.83000 -9.45800 48.54100
H  24.36200 -10.29900 49.02300
H  23.23700 -10.99300 47.85800
H  27.68600 -9.59600 46.10800
H  26.69600 -10.83000 46.89300
H  29.19300 -9.94700 47.55900
H  28.16700 -11.07600 48.41800
H  28.13000 -9.28600 48.84500
H  29.82500 -4.94400 47.65700
H  30.26500 -3.71300 46.47900
H  30.44600 -5.54200 46.23900
H  27.64800 -1.97400 42.48400
H  27.83600 2.43700 42.67200
H  27.38500 2.00100 44.26400
H  26.12900 2.14700 42.95500
Mg 54.59200 25.01200 44.84600
C  51.93900 27.18900 43.83500
C  52.60400 22.43700 43.67300
C  57.27300 23.10400 44.71200
C  56.32000 27.72400 45.92000
N  52.56800 24.86800 43.61500
C  51.67500 25.87400 43.49700
C  50.27700 25.29500 42.95000
C  50.42600 23.88600 43.45900
C  51.93100 23.71400 43.51300
C  49.77200 23.52900 44.80500
C  50.12400 25.44200 41.46200
C  48.69500 25.27900 40.85100
H  48.56800 24.30300 39.64400
N  54.92800 23.00100 44.28700
C  53.98100 22.12500 43.85400
C  54.54600 20.85300 43.66900
C  55.98500 21.05900 43.73200
C  56.14600 22.45600 44.21100
C  53.71700 19.63500 43.28200
C  57.06400 20.03200 43.40300
O  56.78800 18.84800 43.31400
C  58.52800 20.45700 43.16000
N  56.48600 25.30900 45.38700
C  57.44800 24.35400 45.26800
C  58.81100 24.94700 45.67900
C  58.50700 26.37800 46.17000
C  57.03700 26.51400 45.83400
C  59.59500 24.03800 46.71000
C  59.25400 27.55900 45.37100
C  59.91700 28.61700 46.29900
N  54.22100 27.03900 44.99600
C  55.02600 27.97600 45.58900
C  54.30300 29.26500 45.53500
C  53.03500 28.96100 44.91400
C  53.08300 27.62100 44.57500
C  54.72200 30.71400 46.04200
C  51.87800 29.52800 44.44700
O  51.53300 30.70000 44.45800
C  51.05200 28.34100 43.76100
C  50.53100 28.65100 42.39600
O  51.19600 29.07900 41.49200
O  49.19000 28.41900 42.26800
C  48.62000 28.96100 40.99400
H  51.97700 21.54300 43.64600
H  58.19700 22.53200 44.60300
H  56.89800 28.62500 46.13600
H  49.42300 25.74700 43.45500
H  49.86400 23.28700 42.74300
H  50.48100 23.56600 45.63200
H  49.18400 22.61100 44.83300
H  49.14800 24.34500 45.16800
H  50.75100 24.61100 41.14000
H  50.70200 26.30100 41.11900
H  48.33200 26.27300 40.58800
H  48.04700 24.80000 41.58500
H  53.91100 19.59900 42.21000
H  52.66500 19.61900 43.56800
H  54.23800 18.75300 43.65400
H  58.78100 21.36900 42.61900
H  58.96000 19.55200 42.73100
H  58.94500 20.68400 44.14100
H  59.39600 24.96800 44.76000
H  58.67400 26.57700 47.22800
H  58.96400 23.19900 47.00300
H  59.68400 24.61800 47.62800
H  60.58500 23.74200 46.36100
H  58.56400 28.08500 44.71200
H  60.01000 27.01300 44.80600
H  60.99700 28.47100 46.26500
H  59.55000 28.44700 47.31100
H  59.71000 29.66700 46.09100
H  53.92000 31.40700 45.78700
H  55.58700 31.08300 45.49000
H  54.71700 30.79500 47.12900
H  50.11100 28.20900 44.29700
H  48.78800 30.02900 41.13000
H  47.54500 28.80700 41.08600
H  49.06500 28.45900 40.13500

