158

Mg 26.16800 50.32900 26.22100
C  24.04900 51.48600 28.76400
C  28.58500 49.62200 28.52700
C  28.11100 49.29700 23.62700
C  23.78200 51.48600 23.88000
N  26.35100 50.74900 28.42500
C  25.32000 51.01800 29.24300
C  25.75200 50.85900 30.71100
C  27.25000 50.25700 30.69100
C  27.46000 50.18300 29.17000
C  28.29900 51.09500 31.48800
C  24.58300 50.13700 31.51900
C  25.03300 49.42400 32.76200
H  24.13600 49.40500 34.00100
N  28.09200 49.71600 26.08900
C  28.90700 49.39000 27.18000
C  30.12300 48.74400 26.68900
C  30.07700 48.84200 25.24500
C  28.71200 49.31800 24.94100
C  31.24200 48.28000 27.63500
C  31.19500 48.53200 24.27300
O  31.11400 48.71600 23.03600
C  32.58900 48.10200 24.75700
N  26.06100 50.57500 24.06400
C  26.91700 49.95300 23.25300
C  26.38300 50.03200 21.81800
C  24.93400 50.55700 21.91900
C  24.92500 50.88700 23.41500
C  27.29300 50.84900 20.84200
C  23.87500 49.44100 21.51800
C  23.89500 48.12900 22.31200
N  24.25800 51.26800 26.27200
C  23.46100 51.62400 25.26900
C  22.14200 52.11500 25.80900
C  22.32200 51.98900 27.22100
C  23.67300 51.53300 27.41500
C  21.05100 52.64800 24.98500
C  21.65500 52.20500 28.51900
O  20.53800 52.43100 28.85000
C  22.83400 51.98700 29.55200
C  23.14500 53.22400 30.30500
O  23.66100 54.21400 29.77600
O  23.03800 53.09900 31.64400
C  23.48900 54.30100 32.47200
H  29.26000 49.24700 29.29800
H  28.74100 48.85300 22.85400
H  23.06300 51.67700 23.08100
H  25.69800 51.89100 31.05600
H  27.27900 49.23400 31.06700
H  29.01200 50.40800 31.94500
H  27.78800 51.65200 32.27400
H  28.95600 51.66400 30.83100
H  24.04000 49.39400 30.93500
H  23.83700 50.90700 31.71600
H  26.03800 49.76300 33.01300
H  25.19800 48.35500 32.62700
H  32.10200 48.94700 27.57500
H  31.64800 47.31000 27.34900
H  30.91400 48.17100 28.66900
H  33.20800 47.91900 23.87800
H  32.45000 47.20000 25.35400
H  32.98200 48.80200 25.49500
H  26.24900 49.05000 21.36700
H  24.82600 51.47000 21.33400
H  28.15900 51.11100 21.45000
H  26.84700 51.75700 20.43700
H  27.54500 50.20200 20.00100
H  24.11900 49.21700 20.47900
H  22.90000 49.91600 21.41200
H  23.86200 47.33700 21.56500
H  23.03900 47.86600 22.93300
H  24.83000 48.00600 22.86000
H  20.90300 51.98800 24.13000
H  21.37000 53.61600 24.59700
H  20.13800 52.68500 25.57900
H  22.40400 51.23300 30.21100
H  24.44900 53.97800 32.87400
H  22.87300 54.59800 33.32100
H  23.61200 55.21300 31.88900
Mg -0.02900 43.74500 26.19000
C  2.52300 43.20700 28.72900
C  -2.34900 42.52600 28.44300
C  -2.27800 43.75800 23.65300
C  2.52800 44.19500 23.93600
N  0.06400 43.14000 28.39900
C  1.17500 43.19400 29.21100
C  0.70200 43.00000 30.70200
C  -0.78100 42.55500 30.51600
C  -1.07800 42.89900 29.05400
C  -0.96000 41.05300 30.94300
C  1.02100 44.30500 31.54200
C  1.76400 43.98300 32.88700
H  1.41100 42.63600 33.55500
N  -1.99200 43.34200 26.14500
C  -2.78900 42.78700 27.14200
C  -4.10400 42.56000 26.58500
C  -4.11500 42.91000 25.22600
C  -2.74600 43.37200 24.96200
C  -5.21100 41.87800 27.38500
C  -5.24800 42.94500 24.20800
O  -5.22900 43.17900 23.00000
C  -6.64400 42.79900 24.78600
N  0.08000 44.17900 24.09900
C  -0.97800 44.15800 23.28200
C  -0.54000 44.48900 21.79200
C  0.94000 44.68600 21.96100
C  1.27200 44.35400 23.41800
C  -0.88800 43.28400 20.83500
C  1.48600 46.06500 21.64500
C  0.82000 47.21800 22.33000
N  2.06800 43.81000 26.28600
C  2.94800 44.00200 25.26900
C  4.30600 43.83100 25.72100
C  4.16600 43.64100 27.08800
C  2.83100 43.48400 27.35300
C  5.68000 44.09900 25.07300
C  4.90300 43.33800 28.30600
O  6.10300 43.34700 28.50500
C  3.86700 43.17600 29.43800
C  4.17400 41.94800 30.24700
O  3.84500 40.77400 29.91200
O  5.01500 42.19000 31.31800
C  5.25800 41.00300 32.18900
H  -3.10000 42.27900 29.19600
H  -3.01000 43.60300 22.85700
H  3.43500 44.44700 23.38300
H  1.36800 42.27900 31.17700
H  -1.40000 43.17200 31.16800
H  -0.09700 40.59500 31.42600
H  -1.35400 40.34600 30.21200
H  -1.76200 41.04200 31.68000
H  0.06700 44.82600 31.61400
H  1.61800 45.00900 30.96200
H  1.60900 44.81200 33.57800
H  2.78000 43.95600 32.49400
H  -5.91900 42.65700 27.67000
H  -4.78300 41.36200 28.24400
H  -5.62400 41.12100 26.71800
H  -7.44800 43.14000 24.13300
H  -6.56500 43.38300 25.70300
H  -6.88000 41.76000 25.01400
H  -1.10300 45.33700 21.40100
H  1.49700 44.05700 21.26700
H  -1.82200 43.45400 20.29900
H  -0.95100 42.34800 21.38800
H  -0.07300 43.36000 20.11500
H  1.49500 46.11000 20.55600
H  2.48900 46.13800 22.06600
H  1.51000 47.68400 23.03300
H  -0.13500 46.85800 22.71400
H  0.55800 48.03100 21.65300
H  5.85900 43.20400 24.47800
H  6.38400 44.14600 25.90400
H  5.56500 45.08200 24.61700
H  3.90700 44.04000 30.10100
H  6.29700 40.72800 32.00800
H  4.61000 40.13200 32.09900
H  5.18000 41.28400 33.23900

