158

Mg 49.84000 44.91800 42.02500
C  46.56900 45.61400 41.26500
C  49.39200 41.74200 40.68700
C  53.21600 44.58000 42.02500
C  50.27300 48.34300 43.05600
N  48.20900 43.90400 41.00500
C  46.94000 44.38900 40.87400
C  46.16100 43.50900 39.91900
C  46.93400 42.15900 40.04400
C  48.32100 42.65700 40.49500
C  46.43000 41.12900 41.11500
C  46.14000 44.13700 38.44800
C  44.70200 44.24700 37.79200
H  44.32700 43.20400 36.73700
N  51.14300 43.33600 41.46600
C  50.74900 42.10900 41.08600
C  51.91100 41.25300 40.95500
C  53.05100 42.03300 41.31100
C  52.50200 43.38600 41.69600
C  51.90600 39.84700 40.40400
C  54.51800 41.58700 41.26200
O  54.79200 40.48900 40.79200
C  55.60700 42.44800 41.59800
N  51.48900 46.22800 42.59200
C  52.76200 45.87200 42.36200
C  53.78500 46.98400 42.83400
C  52.83300 48.08100 43.34300
C  51.41800 47.55300 42.96600
C  54.93400 46.47200 43.81800
C  53.28600 49.54400 42.88000
C  52.76000 50.77000 43.68800
N  48.70900 46.64300 42.19200
C  48.96400 47.93700 42.67300
C  47.75700 48.69200 42.72700
C  46.75700 47.84500 42.19100
C  47.36100 46.59700 41.89600
C  47.62400 50.12000 43.17900
C  45.28100 47.64800 41.88900
O  44.32000 48.34700 42.07800
C  45.17400 46.22200 41.09800
C  44.04100 45.46200 41.68600
O  44.10000 44.83300 42.74700
O  42.92200 45.58000 40.88200
C  41.72300 45.11700 41.63100
H  49.20100 40.70100 40.41800
H  54.30400 44.49700 41.96700
H  50.50100 49.27100 43.58500
H  45.15100 43.36300 40.30200
H  47.01500 41.66800 39.07400
H  46.05700 40.21100 40.66100
H  45.59400 41.51700 41.69700
H  47.21900 40.86000 41.81800
H  46.56400 43.36100 37.81100
H  46.70800 45.05600 38.30500
H  44.63000 45.20400 37.27500
H  43.95800 44.16100 38.58400
H  52.07400 39.78700 39.32800
H  50.90500 39.43000 40.51400
H  52.65600 39.29300 40.96800
H  55.52300 42.93700 42.56800
H  55.78700 43.17700 40.80800
H  56.55100 41.90400 41.60000
H  54.26500 47.39000 41.94400
H  52.77400 48.15100 44.43000
H  54.93700 46.99600 44.77400
H  55.94400 46.56200 43.41800
H  54.76600 45.41800 44.04100
H  53.00100 49.60200 41.82900
H  54.37100 49.59900 42.79100
H  53.49000 51.57900 43.68800
H  52.69600 50.53900 44.75200
H  51.77200 51.10300 43.37000
H  48.18500 50.29500 44.09700
H  46.58000 50.32200 43.42200
H  48.03100 50.87100 42.50300
H  44.96600 46.48800 40.06200
H  41.56300 45.66200 42.56100
H  41.73400 44.03100 41.71400
H  40.87600 45.45900 41.03600
Mg 29.67400 57.56700 39.93800
C  27.08700 55.37000 38.82100
C  31.92100 55.10800 38.83900
C  32.20900 59.88700 40.12600
C  27.33000 60.15700 40.26600
N  29.46000 55.42200 39.05900
C  28.35500 54.74300 38.72000
C  28.62100 53.27900 38.25900
C  30.14300 53.21900 38.48900
C  30.56200 54.61100 38.94300
C  30.59100 52.21400 39.50800
C  28.16900 53.04100 36.77100
C  28.75300 53.97300 35.61600
H  27.74700 54.77200 34.69700
N  31.77200 57.48900 39.70600
C  32.48600 56.36500 39.15500
C  33.87100 56.69600 39.15900
C  33.98300 58.02100 39.73200
C  32.64800 58.52900 39.95200
C  34.98900 55.70500 38.73300
C  35.32600 58.81600 39.91600
O  36.35900 58.35300 39.48100
C  35.41700 60.25900 40.54400
N  29.74000 59.79200 40.08500
C  30.91900 60.46200 40.25400
C  30.61000 62.02000 40.31000
C  28.98400 62.00300 40.37400
C  28.65500 60.58700 40.29300
C  31.29700 62.86500 41.31100
C  28.22000 62.91800 39.44300
C  26.92200 63.65300 39.92600
N  27.57800 57.73900 39.81500
C  26.83500 58.86300 39.95300
C  25.48600 58.50500 39.77300
C  25.53000 57.15200 39.35200
C  26.86500 56.70100 39.34000
C  24.34100 59.52300 39.94300
C  24.70800 56.00500 38.86200
O  23.51900 55.88200 38.66900
C  25.69100 54.90600 38.46500
C  25.44600 53.67900 39.24000
O  25.67100 53.48900 40.42400
O  24.78400 52.78100 38.44200
C  24.30300 51.51400 39.02700
H  32.56300 54.24300 38.66500
H  33.00100 60.63900 40.11600
H  26.61700 60.95800 40.47200
H  28.03400 52.69600 38.96800
H  30.62500 52.95700 37.54700
H  31.11100 51.51800 38.85000
H  29.73800 51.79500 40.04200
H  31.33200 52.67300 40.16300
H  27.09100 52.90700 36.86100
H  28.69700 52.10200 36.60800
H  29.38900 53.40600 34.93600
H  29.54500 54.65800 35.91900
H  35.53300 56.04400 37.85100
H  34.52000 54.72600 38.64300
H  35.67900 55.45700 39.53900
H  36.36200 60.56000 40.99500
H  34.68200 60.46100 41.32300
H  35.11900 60.90000 39.71300
H  30.83200 62.45900 39.33700
H  28.84900 62.36700 41.39200
H  31.99100 63.43700 40.69500
H  31.74200 62.28100 42.11600
H  30.63900 63.59800 41.78000
H  28.02800 62.33100 38.54500
H  28.90000 63.74000 39.22300
H  26.07100 63.48800 39.26500
H  27.00600 64.73800 39.98300
H  26.58200 63.29600 40.89900
H  24.24200 59.75200 41.00400
H  23.37400 59.16700 39.58700
H  24.45800 60.49400 39.46300
H  25.50800 54.77100 37.39900
H  24.64500 51.30800 40.04100
H  24.53100 50.63800 38.42000
H  23.22400 51.64800 39.10200

