158

Mg 25.47300 1.65400 29.46300
C  27.68400 1.31600 32.37100
C  22.86400 1.70700 31.56100
C  23.59800 2.06400 26.80100
C  28.21500 0.96600 27.52600
N  25.33000 1.41000 31.73400
C  26.30500 1.48000 32.70700
C  25.69600 1.69000 34.05600
C  24.12100 1.59300 33.84900
C  24.10400 1.56100 32.28000
C  23.37800 0.35600 34.45300
C  26.18100 2.87200 34.87300
C  26.76900 2.68700 36.26300
H  26.59300 3.80800 37.31900
N  23.44700 1.93900 29.27700
C  22.50400 1.85500 30.21900
C  21.19900 2.06500 29.76200
C  21.35900 2.20100 28.30300
C  22.85000 2.05300 28.06100
C  19.94800 2.06100 30.66100
C  20.29400 2.31800 27.19500
O  20.55800 2.49800 26.00400
C  18.82900 2.28000 27.65200
N  25.97600 1.72900 27.43100
C  24.96300 2.01800 26.52200
C  25.59000 2.09600 25.08700
C  27.06300 1.61800 25.33100
C  27.09200 1.34000 26.86900
C  24.85700 1.42800 23.86100
C  28.07200 2.68900 24.75300
C  28.29100 3.97700 25.64400
N  27.58600 1.31400 29.82400
C  28.55900 0.91900 28.92600
C  29.81500 0.67300 29.58200
C  29.55000 0.80400 30.93700
C  28.15800 1.20100 31.03600
C  31.15700 0.36600 28.83500
C  30.10700 0.77200 32.19400
O  31.19500 0.47200 32.62400
C  28.94000 1.16000 33.25800
C  28.94100 0.06700 34.18000
O  28.52400 -1.05500 33.92100
O  29.52200 0.43100 35.43500
C  29.35700 -0.65100 36.46000
H  22.14500 1.93400 32.35100
H  22.96800 2.09200 25.90900
H  29.09200 0.68600 26.93800
H  25.95600 0.84900 34.69800
H  23.65900 2.51500 34.20200
H  24.03000 -0.28500 35.04700
H  22.95700 -0.25900 33.65700
H  22.57600 0.75900 35.07100
H  25.55600 3.76400 34.90000
H  27.02700 3.24500 34.29500
H  27.83400 2.75400 36.04000
H  26.64800 1.66900 36.63600
H  20.21900 2.17500 31.71100
H  19.52200 1.06100 30.58800
H  19.20700 2.82400 30.42500
H  18.79000 1.28300 28.09200
H  18.14100 2.38700 26.81300
H  18.60700 3.11300 28.31900
H  25.53800 3.16900 24.90000
H  27.23900 0.68400 24.79600
H  24.00700 0.84900 24.21900
H  25.52900 0.71000 23.39200
H  24.59200 2.14700 23.08600
H  27.68900 3.06800 23.80600
H  28.97000 2.18400 24.39500
H  29.36900 4.11900 25.72200
H  27.80800 3.93200 26.62000
H  27.82900 4.79000 25.08400
H  31.25000 -0.68100 28.54700
H  32.01000 0.43600 29.51000
H  31.35300 0.98600 27.96000
H  29.17100 2.11900 33.72200
H  28.58900 -0.34800 37.17200
H  30.27700 -0.79700 37.02700
H  29.18000 -1.66100 36.09000
Mg 5.67700 54.56100 41.21800
C  5.20800 50.87900 40.58000
C  8.64300 54.16400 39.74000
C  5.68600 57.68500 41.26500
C  2.41300 54.35500 42.54500
N  6.69400 52.74100 40.17200
C  6.38600 51.37400 40.03700
C  7.55800 50.68400 39.41300
C  8.80200 51.70300 39.51900
C  7.97800 52.95800 39.79600
C  9.81800 51.32700 40.61800
C  7.36700 50.00300 38.00400
C  6.37200 50.70400 37.00300
H  5.68000 49.74400 35.98000
N  6.93700 55.76700 40.39400
C  8.21100 55.44500 39.86700
C  8.91700 56.61100 39.58000
C  8.11000 57.72000 40.07200
C  6.83700 57.07600 40.61300
C  10.35300 56.69200 39.13000
C  8.56800 59.15300 40.10300
O  9.64500 59.52900 39.62100
C  7.76800 60.26000 40.80900
N  4.25000 55.85600 41.84900
C  4.49900 57.14300 41.72700
C  3.28900 57.96800 42.24300
C  2.20200 56.91200 42.64900
C  3.04800 55.62800 42.40900
C  3.70100 58.86900 43.38500
C  0.87800 57.00600 41.79300
C  0.87000 56.39100 40.38100
N  4.15600 52.96800 41.69500
C  2.89000 53.10000 42.24000
C  2.24000 51.76100 42.29900
C  3.21700 50.91100 41.69700
C  4.27800 51.71100 41.24400
C  0.82300 51.46900 42.68400
C  3.40500 49.56700 41.24400
O  2.63500 48.60700 41.25100
C  4.72800 49.46400 40.60900
C  4.55500 48.69100 39.34900
O  3.96200 48.96500 38.28500
O  5.14500 47.44700 39.54700
C  5.01300 46.46000 38.46200
H  9.61600 54.12200 39.24600
H  5.65300 58.77300 41.17700
H  1.40600 54.39800 42.96500
H  7.77700 49.90800 40.14700
H  9.37200 51.89600 38.61000
H  9.70900 50.26500 40.83800
H  9.60300 51.96600 41.47500
H  10.85100 51.56000 40.35800
H  6.88500 49.06800 38.28800
H  8.31100 49.92200 37.46500
H  7.10300 51.28700 36.44100
H  5.65500 51.34800 37.51200
H  10.92300 56.80400 40.05200
H  10.51100 57.52500 38.44400
H  10.57200 55.73900 38.64800
H  8.40000 61.08200 41.14800
H  7.45100 59.92100 41.79500
H  7.03000 60.60300 40.08400
H  2.86300 58.57000 41.44100
H  1.97900 57.09600 43.70000
H  3.44600 59.88100 43.06800
H  4.76200 59.06600 43.53900
H  3.17600 58.65500 44.31600
H  0.68300 58.07700 41.74100
H  0.13800 56.64100 42.50500
H  0.71800 57.08000 39.55000
H  -0.00700 55.74800 40.30700
H  1.75500 55.76600 40.26900
H  0.27300 52.38700 42.89100
H  0.71000 50.74600 43.49200
H  0.38900 50.99300 41.80500
H  5.37700 48.90200 41.28200
H  5.86500 45.78900 38.57400
H  5.16500 46.90700 37.47900
H  4.17900 45.75900 38.49900

