158

Mg 1.01000 7.99300 26.59700
C  1.68200 10.13000 29.38800
C  1.57100 5.38700 28.67200
C  0.85600 6.07000 23.82300
C  0.89700 10.87900 24.59600
N  1.48600 7.84800 28.76900
C  1.69300 8.79700 29.73700
C  1.80500 8.33500 31.12500
C  2.03500 6.79300 30.76500
C  1.68500 6.62900 29.29800
C  3.55400 6.16000 30.97900
C  0.60200 8.54000 31.96100
C  0.69000 8.38500 33.54300
H  1.94000 7.77500 34.23000
N  1.06900 5.99700 26.36500
C  1.35100 5.09300 27.30100
C  1.41200 3.78500 26.63300
C  1.09800 3.91000 25.31100
C  0.97300 5.44300 25.07800
C  1.82300 2.58800 27.42400
C  0.85600 2.87000 24.18100
O  0.29000 3.22400 23.17900
C  1.18800 1.41500 24.33400
N  0.74300 8.38000 24.52000
C  0.74900 7.41800 23.53400
C  0.49500 8.00700 22.15800
C  0.46300 9.57500 22.49000
C  0.55400 9.64800 24.04000
C  1.38600 7.58300 21.05100
C  -0.76500 10.34000 21.98000
C  -0.50100 11.70500 21.27800
N  1.19400 10.09500 26.85500
C  1.13500 11.13000 25.95800
C  1.41600 12.40600 26.63100
C  1.61200 12.02400 27.98400
C  1.41500 10.64600 28.09600
C  1.52700 13.64700 25.96800
C  1.87700 12.57000 29.26900
O  2.14900 13.70900 29.60800
C  1.79300 11.36600 30.28500
C  2.97300 11.48300 31.21900
O  4.07900 11.00400 31.00900
O  2.50400 12.20800 32.29900
C  3.43400 12.22500 33.37000
H  1.64100 4.57900 29.40300
H  0.77300 5.59800 22.84200
H  0.89800 11.76600 23.95900
H  2.60100 8.94300 31.55400
H  1.39000 6.33400 31.51400
H  4.26700 6.91000 31.32000
H  3.97000 5.67800 30.09400
H  3.57000 5.48200 31.83300
H  -0.14500 7.83000 31.60700
H  0.21400 9.53000 31.71900
H  -0.18100 7.78700 33.81200
H  0.48300 9.37600 33.94700
H  2.60800 2.70900 28.17100
H  2.16200 1.80300 26.74700
H  0.96900 2.22900 27.99700
H  0.66000 1.03000 25.20600
H  2.25800 1.54800 24.49500
H  1.07200 0.83900 23.41600
H  -0.50100 7.74300 21.80100
H  1.34000 9.92100 21.94200
H  0.81800 6.74700 20.64100
H  2.39500 7.27400 21.32200
H  1.52500 8.33400 20.27400
H  -1.43400 10.51600 22.82200
H  -1.31500 9.83000 21.18900
H  -0.65600 12.58000 21.90900
H  -1.17600 11.83300 20.43200
H  0.57300 11.78600 21.10600
H  1.06900 14.53200 26.41000
H  1.30900 13.58300 24.90200
H  2.53600 14.04400 26.07700
H  0.87300 11.51200 30.85100
H  3.21900 13.01700 34.08800
H  4.47800 12.25300 33.05900
H  3.37200 11.25700 33.86700
Mg 29.31800 58.73300 40.73700
C  26.12800 57.51800 39.74700
C  30.77700 56.00600 39.28900
C  32.30300 60.42300 40.78700
C  27.57700 61.83500 41.32500
N  28.53000 56.96900 39.70100
C  27.19900 56.68500 39.41900
C  27.14600 55.48700 38.38100
C  28.53900 54.82600 38.58900
C  29.39000 56.03400 39.12500
C  28.64400 53.60400 39.51500
C  26.78600 55.91700 36.89600
C  25.49800 55.27100 36.28200
H  25.66200 54.63300 34.84800
N  31.30600 58.20900 40.18600
C  31.74900 56.97200 39.71400
C  33.16700 56.94700 39.69200
C  33.63900 58.27800 40.08800
C  32.42200 59.03700 40.50000
C  33.85500 55.70600 39.24700
C  35.08500 58.64800 40.14500
O  35.87600 57.80900 39.86500
C  35.64900 59.99800 40.77200
N  29.83500 60.77500 40.95500
C  31.13800 61.19900 41.08800
C  31.21100 62.73000 41.38200
C  29.72600 63.01700 41.74700
C  28.96500 61.78200 41.29100
C  32.33200 63.16400 42.40500
C  29.21800 64.38000 41.11100
C  28.33500 65.31700 42.00100
N  27.28700 59.47600 40.91500
C  26.70700 60.76500 41.16100
C  25.25200 60.62200 41.27400
C  24.99000 59.35700 40.76100
C  26.27700 58.77200 40.44800
C  24.25600 61.72000 41.62400
C  23.90100 58.39300 40.49900
O  22.69700 58.54600 40.67700
C  24.59200 57.35100 39.66000
C  24.18200 56.11500 40.29900
O  24.41100 55.81900 41.47900
O  23.63000 55.26300 39.35800
C  23.10700 54.06100 39.96000
H  31.25400 55.05100 39.05800
H  33.25100 60.96300 40.75500
H  27.12600 62.79400 41.58700
H  26.39700 54.81300 38.79700
H  29.02100 54.46400 37.68100
H  29.41900 53.83000 40.24700
H  28.85200 52.68400 38.96800
H  27.67600 53.43600 39.98600
H  27.70800 55.78900 36.32800
H  26.58100 56.98600 36.83300
H  24.66800 55.97200 36.19200
H  25.09400 54.49800 36.93500
H  34.76800 56.05600 38.76500
H  33.21200 55.08800 38.62100
H  34.28600 55.06000 40.01300
H  35.38800 60.76600 40.04400
H  36.72700 59.94800 40.92700
H  35.08200 60.10600 41.69700
H  31.56400 63.27100 40.50400
H  29.56100 63.00100 42.82400
H  32.91100 63.90200 41.85000
H  32.84100 62.27200 42.76900
H  31.93000 63.75900 43.22600
H  28.48800 64.17700 40.32900
H  30.14400 64.92300 40.91900
H  28.04300 64.85500 42.94400
H  27.51200 65.59500 41.34300
H  28.98700 66.16200 42.22100
H  23.98400 62.17100 40.66900
H  24.74900 62.38500 42.33300
H  23.31300 61.33400 42.01000
H  24.25900 57.50200 38.63300
H  22.45300 54.24400 40.81300
H  23.88800 53.34500 40.21400
H  22.44100 53.65800 39.19700

