158

Mg 41.35800 7.96300 28.68500
C  42.87500 9.19500 31.72200
C  39.32200 5.95600 30.68100
C  40.28900 6.40100 25.85500
C  43.80400 9.69100 26.85900
N  41.09400 7.64800 31.00400
C  41.78700 8.32700 31.97200
C  41.23300 7.85300 33.34700
C  40.38800 6.58800 33.00700
C  40.20800 6.76200 31.49200
C  40.87500 5.21400 33.51000
C  40.45600 8.99700 34.14000
C  40.95200 9.34600 35.55500
H  41.34300 10.72400 35.78100
N  39.90100 6.46200 28.25300
C  39.12100 5.85900 29.22600
C  38.10500 5.05600 28.58600
C  38.40700 5.19700 27.17300
C  39.56000 6.02100 27.02600
C  37.07300 4.30800 29.41900
C  37.53700 4.68400 26.06300
O  37.71900 4.95700 24.90000
C  36.30400 3.85900 26.38300
N  41.97700 8.04300 26.59500
C  41.31300 7.34100 25.63000
C  41.89800 7.60400 24.25200
C  42.92800 8.84800 24.56400
C  42.83500 8.99000 26.11200
C  42.56700 6.34200 23.60000
C  42.47400 10.18900 23.90400
C  41.10500 10.75700 24.23000
N  42.95100 9.17200 29.07800
C  43.90000 9.73600 28.25100
C  44.91500 10.37700 29.04100
C  44.43700 10.22700 30.36900
C  43.29700 9.45800 30.34200
C  46.12500 11.12200 28.58200
C  44.81200 10.58500 31.76700
O  45.74400 11.29800 32.14800
C  43.81200 9.91000 32.67600
C  44.58300 8.95000 33.53800
O  44.72000 7.77600 33.25600
O  45.07300 9.60800 34.63800
C  45.69200 8.71500 35.60000
H  38.75800 5.29200 31.33900
H  39.85300 6.10300 24.89900
H  44.66100 10.13000 26.34300
H  42.04700 7.59300 34.02300
H  39.40700 6.75000 33.45500
H  41.67500 5.42800 34.21800
H  41.27500 4.51800 32.77300
H  40.07400 4.72900 34.06800
H  39.41700 8.69600 34.27100
H  40.52600 9.88900 33.51800
H  41.80600 8.72000 35.81500
H  40.10400 9.01000 36.15200
H  36.11600 4.53900 28.95200
H  37.10400 4.65700 30.45100
H  37.33200 3.25000 29.46000
H  36.61400 2.96700 26.92700
H  35.86200 3.44100 25.47800
H  35.53800 4.41100 26.92800
H  41.00100 7.81400 23.67000
H  43.95500 8.62000 24.27900
H  42.61300 5.53800 24.33400
H  43.44600 6.55500 22.99100
H  41.89100 5.85100 22.90100
H  42.50300 10.06800 22.82200
H  43.19100 10.89700 24.32000
H  40.59800 11.06400 23.31500
H  41.17500 11.62000 24.89300
H  40.43700 9.98700 24.61700
H  46.28700 10.92300 27.52300
H  46.98200 10.79100 29.16800
H  46.03300 12.18900 28.78800
H  43.27000 10.70600 33.18700
H  46.27000 7.91700 35.13500
H  44.84100 8.34000 36.16800
H  46.40500 9.30400 36.17700
Mg -9.27100 18.55400 42.94200
C  -5.82200 18.08000 43.14200
C  -8.75900 21.83500 42.28700
C  -12.56200 18.83500 42.29100
C  -9.71400 14.99800 43.00200
N  -7.44200 19.68300 42.43900
C  -6.15700 19.36700 42.77200
C  -5.18500 20.63200 42.51700
C  -6.24200 21.80700 42.49400
C  -7.57500 21.04600 42.35700
C  -6.20200 22.68700 43.82100
C  -4.25500 20.71400 41.19100
C  -4.72500 20.08100 39.79200
H  -4.74100 21.04000 38.61200
N  -10.52200 20.16300 42.39900
C  -10.09500 21.44800 42.23100
C  -11.18900 22.26000 41.94700
C  -12.34400 21.35600 41.81600
C  -11.85000 20.03100 42.19100
C  -11.13900 23.68700 41.68600
C  -13.73900 21.75200 41.40700
O  -14.06800 22.91400 41.26500
C  -14.88400 20.84100 41.33300
N  -10.98400 17.08800 42.64100
C  -12.23400 17.47000 42.48300
C  -13.22600 16.22000 42.65300
C  -12.25500 14.99600 42.83100
C  -10.94200 15.72300 42.86000
C  -14.40300 16.27100 43.68300
C  -12.35400 13.87900 41.75700
C  -13.38000 12.75500 42.06200
N  -8.03900 16.88300 43.02300
C  -8.34900 15.52500 43.15900
C  -7.10200 14.80100 43.40200
C  -6.06000 15.77900 43.41200
C  -6.68600 17.00900 43.12900
C  -6.94500 13.28300 43.50500
C  -4.59900 15.97300 43.47300
O  -3.68500 15.15200 43.56900
C  -4.37500 17.50400 43.32300
C  -3.75800 17.97900 44.62700
O  -2.78300 18.68200 44.69000
O  -4.48000 17.54100 45.66700
C  -3.89300 17.92600 46.94800
H  -8.60400 22.91500 42.34200
H  -13.64900 18.91900 42.23400
H  -9.73100 13.90700 43.05300
H  -4.52300 20.61500 43.38200
H  -6.11500 22.37000 41.56900
H  -7.07700 22.53800 44.45400
H  -6.28400 23.74700 43.58200
H  -5.31700 22.47000 44.41900
H  -3.24400 20.40800 41.45800
H  -4.22000 21.79200 41.03200
H  -5.76500 19.77400 39.90600
H  -4.08500 19.24100 39.52400
H  -11.05000 23.88700 40.61800
H  -10.27300 24.13400 42.17500
H  -11.97800 24.31200 41.99000
H  -15.10800 20.48900 42.34000
H  -14.57300 19.94900 40.78800
H  -15.75000 21.27200 40.83100
H  -13.73700 16.12800 41.69500
H  -12.38700 14.57000 43.82600
H  -14.33900 17.22900 44.19900
H  -14.47100 15.47400 44.42400
H  -15.33700 16.23000 43.12300
H  -11.41200 13.40000 41.48800
H  -12.68100 14.38300 40.84800
H  -13.68200 12.71800 43.10900
H  -12.87300 11.81900 41.82900
H  -14.20200 12.93800 41.37000
H  -6.03200 13.02000 44.04000
H  -6.80300 12.81900 42.52900
H  -7.83700 12.84900 43.95700
H  -3.64700 17.51500 42.51200
H  -4.63800 17.89200 47.74300
H  -3.50600 18.94500 46.96000
H  -3.14900 17.16200 47.17400

