158

Mg 36.07500 0.56400 29.43700
C  33.76000 1.85400 31.84500
C  38.51400 0.65700 32.05200
C  38.43300 -0.08800 27.15200
C  33.71900 1.10600 26.98500
N  36.11700 1.22200 31.66700
C  35.05700 1.62000 32.40700
C  35.36500 1.76200 33.86100
C  36.97300 1.60600 33.87000
C  37.26800 1.17900 32.43500
C  37.79600 2.77800 34.33100
C  34.67600 0.74300 34.78900
C  34.68500 1.03300 36.33000
H  35.18100 2.35800 36.85000
N  38.12000 0.19300 29.59200
C  38.97900 0.34600 30.68700
C  40.36500 0.00200 30.31900
C  40.37200 -0.26200 28.97500
C  38.91100 -0.02900 28.48500
C  41.42200 -0.07700 31.35500
C  41.49200 -0.71300 28.07500
O  41.32100 -0.86200 26.87200
C  42.85200 -0.87400 28.57000
N  36.05800 0.38400 27.33200
C  37.18300 0.07500 26.61600
C  36.91300 -0.01000 25.06000
C  35.30600 0.30400 25.03700
C  35.01500 0.64700 26.50100
C  37.74100 0.95500 24.28700
C  34.44600 -0.83700 24.51700
C  33.03600 -0.46700 23.95000
N  34.16900 1.33500 29.38900
C  33.32000 1.41700 28.26900
C  32.01900 1.85100 28.72500
C  32.19600 2.04200 30.14400
C  33.48000 1.74600 30.47600
C  30.77900 2.03400 27.90700
C  31.43900 2.45100 31.33800
O  30.32100 2.88800 31.45900
C  32.41800 2.35800 32.52500
C  32.44200 3.74400 33.06700
O  33.21000 4.63200 32.71000
O  31.58300 3.96700 34.07300
C  31.18700 5.31000 34.51800
H  39.20200 0.65500 32.89900
H  39.22700 -0.12700 26.40400
H  32.95400 1.39500 26.26100
H  34.98400 2.72500 34.20100
H  37.32800 0.79400 34.50400
H  37.20000 3.66500 34.54600
H  38.66300 2.95800 33.69500
H  38.32700 2.56800 35.25900
H  35.21400 -0.15100 34.47500
H  33.65500 0.72800 34.40800
H  35.14700 0.23100 36.90500
H  33.63800 0.96800 36.62600
H  42.13400 -0.88600 31.19100
H  41.09400 -0.28600 32.37200
H  41.94300 0.87400 31.24500
H  43.54300 -0.92500 27.72800
H  42.90100 -1.77300 29.18600
H  43.20900 -0.05600 29.19500
H  37.22000 -0.92400 24.55200
H  35.18100 1.19100 24.41600
H  38.47400 1.40800 24.95600
H  37.20600 1.83500 23.93000
H  38.39500 0.42800 23.59300
H  34.33100 -1.57100 25.31500
H  35.03700 -1.38700 23.78500
H  32.97300 -0.87900 22.94300
H  32.91500 0.61500 24.00300
H  32.26500 -0.83000 24.63000
H  29.92200 2.29000 28.53100
H  30.57500 1.08800 27.40500
H  30.88700 2.82500 27.16400
H  31.99100 1.65400 33.23900
H  30.58500 5.30100 35.42600
H  30.57200 5.73200 33.72300
H  32.04200 5.97900 34.62400
Mg -11.02600 16.95300 43.26800
C  -7.68700 17.53600 43.17500
C  -11.61600 20.30200 42.64500
C  -14.29800 16.27300 42.88000
C  -10.38700 13.48700 43.44300
N  -9.80600 18.62700 42.69600
C  -8.45700 18.66500 42.83200
C  -7.93100 20.05300 42.68900
C  -9.16500 20.89900 42.98800
C  -10.28500 19.91000 42.74400
C  -9.22500 21.49000 44.45300
C  -7.22500 20.19200 41.29500
C  -5.79800 20.68300 41.38400
H  -4.81500 19.83000 40.52800
N  -12.71100 18.12200 42.76500
C  -12.76100 19.50300 42.61500
C  -14.08900 19.93400 42.40700
C  -14.91600 18.76300 42.48700
C  -14.01000 17.68700 42.73900
C  -14.48100 21.34000 42.12900
C  -16.43700 18.86100 42.27500
O  -16.88800 19.94000 41.95600
C  -17.38900 17.76300 42.46300
N  -12.17800 15.09600 43.12600
C  -13.48900 15.14500 43.06900
C  -14.13500 13.72800 43.10100
C  -12.84100 12.89000 42.97700
C  -11.72100 13.84000 43.13500
C  -14.98900 13.48000 44.35600
C  -12.72000 12.07900 41.67700
C  -13.36300 10.66500 41.75700
N  -9.37500 15.74400 43.30200
C  -9.25900 14.34000 43.46500
C  -7.89300 14.06200 43.62200
C  -7.25300 15.26100 43.66000
C  -8.18100 16.25700 43.37100
C  -7.27400 12.68000 43.91900
C  -5.96300 15.91100 43.76400
O  -4.87100 15.41500 43.84500
C  -6.21500 17.46700 43.48600
C  -5.88600 18.30900 44.76000
O  -6.53100 18.29300 45.80500
O  -4.84300 19.17900 44.53100
C  -4.41900 20.08400 45.54900
H  -11.84800 21.36800 42.68600
H  -15.37900 16.13600 42.82000
H  -10.18800 12.41300 43.44200
H  -7.06900 20.08800 43.35500
H  -9.30400 21.66600 42.22600
H  -8.21600 21.59100 44.85300
H  -9.79500 20.87300 45.14900
H  -9.67200 22.46800 44.27800
H  -7.69400 20.87700 40.58900
H  -7.32600 19.21500 40.82300
H  -5.45200 20.77100 42.41400
H  -5.73300 21.72500 41.06900
H  -15.22100 21.70700 42.84100
H  -14.83300 21.42700 41.10100
H  -13.69200 22.08700 42.04100
H  -18.39600 18.17400 42.40300
H  -17.20700 17.28000 43.42300
H  -17.33400 17.04900 41.64100
H  -14.83000 13.63900 42.26700
H  -12.76200 12.27500 43.87300
H  -14.88300 14.32800 45.03300
H  -14.46300 12.65100 44.83000
H  -16.01800 13.14300 44.23400
H  -11.65000 11.93200 41.52500
H  -13.22400 12.55800 40.83700
H  -12.50100 9.99900 41.80400
H  -13.93800 10.44300 40.85700
H  -14.00200 10.67700 42.64000
H  -7.68000 12.50200 44.91500
H  -6.18700 12.74000 43.95900
H  -7.57100 11.93700 43.17900
H  -5.51000 17.60600 42.66600
H  -4.55600 19.87100 46.60900
H  -4.80200 21.08900 45.37200
H  -3.35100 20.25300 45.40500

