158

Mg 2.97000 -1.51600 43.40300
C  6.53900 -0.68700 42.88200
C  2.24400 1.21800 41.44300
C  -0.26200 -2.53700 43.20700
C  3.90500 -4.50400 44.74000
N  4.33200 -0.04200 42.11000
C  5.71400 0.23100 42.26400
C  6.03700 1.62400 41.67100
C  4.65200 2.26900 41.53300
C  3.62600 1.09900 41.73700
C  4.31900 3.43000 42.61600
C  6.64600 1.47300 40.22500
C  6.05500 0.48600 39.19900
H  5.70900 1.17800 37.95500
N  1.29400 -0.74800 42.49500
C  1.18400 0.43400 41.81700
C  -0.19400 0.72500 41.56800
C  -0.98300 -0.25300 42.19900
C  -0.01800 -1.21600 42.76100
C  -0.73200 1.96500 40.84700
C  -2.56400 -0.22900 42.43000
O  -3.18800 0.62000 41.81000
C  -3.28500 -1.19100 43.35800
N  1.91600 -3.35400 43.73600
C  0.60100 -3.49000 43.67300
C  0.20200 -4.91000 44.20400
C  1.52500 -5.56300 44.67000
C  2.49900 -4.42200 44.34700
C  -0.96100 -4.81800 45.26100
C  1.89400 -6.89800 43.90000
C  1.52100 -8.15100 44.65400
N  4.83000 -2.45200 43.81900
C  5.05200 -3.68300 44.42700
C  6.44100 -3.83800 44.66600
C  7.07500 -2.70200 44.16000
C  6.08000 -1.89000 43.54700
C  7.13600 -5.00100 45.37500
C  8.39900 -2.13400 43.84100
O  9.53400 -2.56900 44.02600
C  8.02100 -0.77900 42.99000
C  8.58500 0.48000 43.60600
O  9.25100 1.30400 43.00700
O  8.22700 0.76600 44.91800
C  8.77900 2.01800 45.50400
H  2.03700 2.23500 41.10300
H  -1.25700 -2.98300 43.15400
H  4.09500 -5.52100 45.09100
H  6.68100 2.14900 42.37700
H  4.55000 2.68200 40.52900
H  4.99300 3.41200 43.47200
H  3.29200 3.43400 42.98100
H  4.44100 4.41500 42.16600
H  7.66500 1.14100 40.42000
H  6.73900 2.48300 39.82400
H  5.11900 0.12900 39.62800
H  6.72000 -0.35000 38.98200
H  -0.07900 2.39200 40.08600
H  -0.93500 2.63500 41.68200
H  -1.68400 1.72800 40.37100
H  -2.64200 -1.82400 43.96800
H  -3.93200 -1.77900 42.70700
H  -3.95200 -0.61500 44.00000
H  -0.14200 -5.41800 43.30300
H  1.54300 -5.73500 45.74700
H  -1.59700 -3.94300 45.13000
H  -0.49900 -4.68900 46.24000
H  -1.57100 -5.71800 45.34400
H  2.93700 -6.95800 43.59000
H  1.31800 -7.01700 42.98200
H  0.79400 -8.79400 44.15800
H  1.14800 -7.84800 45.63300
H  2.38600 -8.79100 44.82300
H  7.55900 -5.71300 44.66600
H  6.43600 -5.54300 46.01100
H  7.95800 -4.62700 45.98500
H  8.49900 -0.80500 42.01000
H  8.94300 1.82000 46.56300
H  7.99200 2.75700 45.35600
H  9.64800 2.37200 44.94900
Mg 6.89500 56.29800 41.91800
C  5.90300 52.95600 41.95900
C  9.86200 55.25100 40.59900
C  7.57800 59.52600 41.26900
C  3.69400 57.28500 43.08800
N  7.68000 54.33400 41.17200
C  7.07000 53.12100 41.26300
C  7.99000 52.06800 40.54000
C  9.39800 52.77500 40.70200
C  8.98000 54.22400 40.79600
C  10.35400 52.28700 41.81200
C  7.69100 51.82700 39.01700
C  7.84800 50.41100 38.52400
H  7.02000 49.99900 37.33300
N  8.62500 57.30900 41.22200
C  9.75300 56.68300 40.79200
C  10.62800 57.71000 40.32400
C  9.98800 58.95600 40.43000
C  8.69000 58.68500 41.02700
C  11.98100 57.39900 39.63100
C  10.52900 60.31500 39.93400
O  11.55200 60.40300 39.26300
C  9.84000 61.67200 40.17500
N  5.75500 58.18500 42.03400
C  6.26600 59.33200 41.64500
C  5.34100 60.47700 41.82900
C  4.11700 59.82100 42.61000
C  4.47200 58.29300 42.53100
C  5.78900 61.83700 42.50200
C  2.70800 60.17800 41.99000
C  1.64700 60.87500 42.87200
N  5.07400 55.34000 42.42900
C  3.99300 55.84300 43.06100
C  3.12000 54.74800 43.51600
C  3.78300 53.63700 42.97000
C  5.00700 54.00100 42.41200
C  1.77400 54.83200 44.20200
C  3.74200 52.17900 42.74400
O  2.78500 51.39700 42.94000
C  5.12800 51.71200 42.25400
C  4.91500 50.78100 41.09600
O  4.50700 51.06100 39.95000
O  5.21800 49.51800 41.47300
C  4.63900 48.44500 40.66800
H  10.86700 54.87700 40.39200
H  7.77000 60.53600 40.90000
H  2.74700 57.49000 43.59100
H  8.05300 51.16000 41.14000
H  10.04800 52.79300 39.82700
H  9.98100 51.53700 42.50900
H  10.70800 53.10800 42.43500
H  11.12300 51.66700 41.34900
H  8.31100 52.54100 38.47500
H  6.63800 52.07600 38.88300
H  7.51300 49.81100 39.37000
H  8.90600 50.27200 38.30100
H  11.79100 57.66500 38.59100
H  12.14000 56.33000 39.48500
H  12.81700 57.96400 40.04200
H  9.59400 61.94500 41.20100
H  8.90600 61.61100 39.61600
H  10.47500 62.44000 39.73400
H  4.98300 60.67500 40.81900
H  4.10700 60.06000 43.67300
H  6.01400 62.42400 41.61200
H  6.70200 61.62900 43.05900
H  5.05200 62.28000 43.17300
H  2.20500 59.27900 41.63400
H  2.88100 60.80900 41.11800
H  1.90600 60.76900 43.92500
H  0.67500 60.41100 42.70800
H  1.59000 61.93800 42.63500
H  1.59900 54.10200 44.99300
H  1.12800 54.54300 43.37300
H  1.56300 55.85100 44.52700
H  5.72200 51.18600 43.00100
H  4.80000 48.68700 39.61800
H  3.56900 48.30300 40.82100
H  5.06400 47.47100 40.91000

