158

Mg 26.47300 -0.20500 28.81500
C  28.13800 -0.38400 31.87700
C  23.53800 0.53700 30.64200
C  24.67900 -0.26200 25.99000
C  29.32600 -0.83300 27.15700
N  25.91300 -0.01600 31.05200
C  26.81400 -0.05000 32.09600
C  26.14200 0.35900 33.35900
C  24.65400 0.67300 33.01300
C  24.67500 0.34400 31.47700
C  23.61300 -0.15300 33.84700
C  26.80400 1.58000 34.10900
C  26.98300 1.42000 35.63400
H  25.96900 0.61900 36.50300
N  24.39600 0.15200 28.36400
C  23.35800 0.36100 29.25000
C  22.16200 0.51600 28.49300
C  22.43500 0.15300 27.16900
C  23.87600 -0.04100 27.11400
C  20.86200 0.85900 29.13200
C  21.56000 -0.04700 25.98700
O  21.98000 -0.50100 24.95600
C  20.04300 0.28900 26.12400
N  26.96400 -0.48600 26.89000
C  26.08200 -0.41800 25.82900
C  26.75100 -0.59500 24.50100
C  28.28800 -0.53600 24.80300
C  28.21200 -0.65100 26.38200
C  26.37100 -1.83100 23.65900
C  28.86100 0.79600 24.29400
C  30.14800 0.72800 23.48600
N  28.29900 -0.79400 29.39500
C  29.40500 -0.96700 28.56100
C  30.60400 -1.11000 29.39700
C  30.12300 -0.98400 30.74600
C  28.74300 -0.71100 30.67400
C  32.02700 -1.32300 28.91900
C  30.47300 -1.03400 32.16500
O  31.51700 -1.18500 32.75300
C  29.20300 -0.60100 32.99800
C  28.79600 -1.61400 33.97400
O  28.17000 -2.62000 33.74000
O  29.42500 -1.34300 35.22500
C  29.41500 -2.42400 36.26400
H  22.66100 0.88700 31.19100
H  24.24500 -0.50600 25.01800
H  30.29800 -0.75300 26.66600
H  26.23300 -0.44900 34.08500
H  24.51500 1.75300 33.05900
H  23.91100 -0.76100 34.70100
H  23.04600 -0.79800 33.17500
H  22.98000 0.66000 34.20100
H  26.24200 2.51100 34.03700
H  27.79300 1.71600 33.67300
H  27.10100 2.42500 36.03700
H  27.92700 0.90700 35.81500
H  20.93500 1.21100 30.16100
H  20.24100 -0.03600 29.14000
H  20.25500 1.58300 28.58800
H  19.66800 0.19700 25.10500
H  19.96200 1.32000 26.47100
H  19.74500 -0.38400 26.92800
H  26.43200 0.21800 23.85000
H  28.83800 -1.37900 24.38500
H  27.21400 -2.41900 23.29600
H  25.81400 -1.60900 22.74900
H  25.70200 -2.46600 24.24000
H  29.10900 1.35700 25.19500
H  28.11500 1.24300 23.63600
H  31.08800 1.21600 23.74400
H  29.95000 1.13500 22.49400
H  30.40700 -0.30200 23.24500
H  32.71300 -0.93800 29.67400
H  32.15300 -0.94800 27.90300
H  32.22700 -2.39300 28.87500
H  29.56000 0.24400 33.58700
H  29.43600 -3.42900 35.84300
H  28.53800 -2.36900 36.90900
H  30.30000 -2.30500 36.88900
Mg 26.04700 50.04300 26.71000
C  24.20700 51.35800 29.32300
C  28.41100 48.98600 29.07800
C  28.21900 49.20200 24.24500
C  23.73200 51.08500 24.38500
N  26.36800 50.22800 28.89600
C  25.39300 50.70400 29.73000
C  25.69100 50.30900 31.28300
C  27.07200 49.71900 31.15400
C  27.36000 49.64600 29.62300
C  28.30600 50.32800 31.90300
C  24.63200 49.46600 31.92900
C  23.97400 50.13000 33.16000
H  23.66700 49.19300 34.32900
N  28.04000 49.13900 26.65800
C  28.79600 48.72200 27.74200
C  30.01800 48.08800 27.25600
C  30.00700 48.24300 25.79900
C  28.67900 48.90100 25.52900
C  31.11200 47.52000 28.10400
C  31.10700 47.87100 24.74100
O  30.98000 48.11500 23.56500
C  32.33200 47.13500 25.22700
N  26.05300 50.24000 24.58400
C  27.04900 49.79400 23.82000
C  26.67400 49.69500 22.32200
C  25.20500 50.20400 22.42500
C  24.89500 50.47400 23.87700
C  27.71000 50.32400 21.31700
C  24.22500 49.26400 21.62900
C  23.83400 47.90700 22.34100
N  24.25500 51.01300 26.78200
C  23.47400 51.40300 25.76100
C  22.37500 52.05300 26.30500
C  22.57300 52.11800 27.72800
C  23.76300 51.41400 28.01900
C  21.24100 52.68300 25.57800
C  22.08900 52.55400 28.97500
O  21.02300 53.13400 29.21000
C  23.15200 52.06800 30.14200
C  23.66800 53.21100 30.92400
O  24.70000 53.80700 30.71600
O  23.02800 53.18800 32.14400
C  23.59500 54.09400 33.11000
H  29.17600 48.60600 29.75900
H  28.80900 48.84700 23.39700
H  22.96200 51.38900 23.67400
H  25.82100 51.19800 31.89900
H  27.02900 48.65900 31.40600
H  29.07100 50.66600 31.20300
H  28.80200 49.64200 32.58900
H  28.09200 51.22500 32.48400
H  24.99000 48.47000 32.19100
H  23.93600 49.26200 31.11600
H  22.97100 50.41400 32.84100
H  24.48500 51.04500 33.46000
H  32.00900 48.12500 27.97200
H  31.24700 46.44300 28.00400
H  30.95800 47.66300 29.17300
H  33.02200 47.77600 25.77500
H  32.76400 46.84500 24.26900
H  31.99200 46.29500 25.83400
H  26.65200 48.60600 22.28600
H  25.29000 51.18300 21.95400
H  28.55400 50.80300 21.81400
H  27.06700 50.98300 20.73300
H  28.05600 49.52700 20.65800
H  24.70500 48.86100 20.73700
H  23.29000 49.80100 21.46900
H  24.18200 47.08000 21.72300
H  22.75600 47.74700 22.37700
H  24.11900 47.76000 23.38300
H  21.17400 52.38400 24.53200
H  21.49200 53.73800 25.69000
H  20.31400 52.56900 26.14000
H  22.51200 51.38000 30.69500
H  24.05700 54.98800 32.69000
H  24.25100 53.50300 33.75000
H  22.74300 54.37800 33.72800

