158

Mg -2.44200 16.94100 25.73900
C  -2.68000 14.82200 28.63500
C  -3.30300 19.55500 27.80100
C  -2.51100 18.89300 22.98500
C  -1.85700 14.06400 23.72800
N  -3.20900 17.08600 27.94800
C  -3.07900 16.17400 28.94600
C  -3.33100 16.82400 30.37300
C  -3.60700 18.34100 30.00500
C  -3.34800 18.37500 28.48600
C  -5.11400 18.76100 30.23100
C  -2.39600 16.49300 31.49200
C  -2.51600 17.26900 32.77100
H  -2.19400 16.43500 34.02600
N  -2.83400 18.95900 25.48700
C  -3.07100 19.86300 26.43900
C  -3.17400 21.10500 25.87500
C  -3.00000 21.05400 24.43600
C  -2.79600 19.57900 24.26900
C  -3.45300 22.42700 26.73900
C  -2.98000 22.15300 23.34000
O  -2.83400 21.96200 22.11500
C  -3.20100 23.65500 23.68600
N  -2.29700 16.53600 23.61900
C  -2.34300 17.56100 22.68500
C  -2.05300 17.02600 21.26700
C  -1.79400 15.45800 21.50800
C  -1.91600 15.36800 23.06100
C  -3.14400 17.33300 20.19900
C  -0.46700 14.91800 21.03600
C  0.76900 15.24900 21.93700
N  -2.35800 14.93700 26.06600
C  -2.08900 13.86600 25.11300
C  -2.00500 12.65600 25.80700
C  -2.09200 13.05000 27.20900
C  -2.40000 14.38600 27.34500
C  -1.69200 11.33400 25.34200
C  -1.97600 12.45700 28.53500
O  -1.65400 11.34900 28.89900
C  -2.39600 13.62300 29.52300
C  -1.33500 13.72500 30.49600
O  -0.28000 14.29300 30.23400
O  -1.60800 13.01300 31.59500
C  -0.63600 13.10300 32.73500
H  -3.38000 20.47400 28.38600
H  -2.38500 19.57900 22.14500
H  -1.61400 13.15500 23.17500
H  -4.29100 16.38600 30.64400
H  -2.85800 18.96200 30.49600
H  -5.74100 19.10300 29.40700
H  -5.06500 19.53800 30.99400
H  -5.70800 17.97300 30.69500
H  -1.41900 16.61200 31.02400
H  -2.59000 15.44400 31.71500
H  -3.48300 17.71500 33.00600
H  -1.79700 18.08800 32.74300
H  -4.15400 23.03900 26.17200
H  -2.52500 22.97600 26.89800
H  -3.84200 22.25600 27.74300
H  -2.81200 24.36400 22.95500
H  -2.73700 23.91800 24.63600
H  -4.26800 23.87600 23.71200
H  -1.10000 17.45200 20.95200
H  -2.65100 14.84400 21.23200
H  -3.92700 18.05400 20.43400
H  -3.66900 16.45000 19.83600
H  -2.63900 17.79200 19.34800
H  -0.32200 15.28200 20.01900
H  -0.49300 13.82900 21.04500
H  1.23600 14.35300 22.34800
H  0.43800 15.82400 22.80200
H  1.55900 15.76900 21.39500
H  -1.22600 10.79900 26.16900
H  -1.07900 11.28900 24.44200
H  -2.63600 10.81100 25.18900
H  -3.33200 13.37400 30.02200
H  0.38500 12.89100 32.42000
H  -0.93200 12.41800 33.52900
H  -0.67900 14.15200 33.03000
Mg 6.58800 54.32700 41.41200
C  6.23200 50.81700 41.14600
C  9.72100 53.84900 39.84400
C  6.66600 57.50100 40.89800
C  3.19200 54.51200 42.15800
N  7.72500 52.50000 40.39300
C  7.40200 51.19800 40.48200
C  8.62100 50.37100 40.01800
C  9.81300 51.38500 39.97300
C  9.04800 52.64600 40.07200
C  10.95900 51.13400 40.96300
C  8.34200 49.49300 38.74900
C  7.15700 49.85700 37.80000
H  6.40700 48.79600 37.05900
N  7.98700 55.51900 40.51200
C  9.15500 55.17300 39.99900
C  9.98800 56.37800 39.87900
C  9.15700 57.50000 40.12000
C  7.88400 56.86000 40.55500
C  11.44200 56.42800 39.49100
C  9.57700 58.95900 40.05500
O  10.71700 59.31800 39.77100
C  8.60100 60.11400 40.30900
N  5.09500 55.73000 41.27400
C  5.41800 56.97900 41.26000
C  4.28100 57.92600 41.63600
C  3.09200 56.97300 41.63800
C  3.84800 55.63100 41.72000
C  4.54700 58.66200 42.99900
C  2.37000 57.02800 40.24700
C  0.80200 57.15300 40.36700
N  5.08600 53.00900 41.89500
C  3.84000 53.24100 42.34400
C  3.29300 52.01200 42.82200
C  4.21200 51.01100 42.43100
C  5.30000 51.70100 41.80700
C  2.01500 51.79300 43.54500
C  4.53600 49.61700 42.45100
O  3.88900 48.70900 42.97700
C  5.72500 49.40500 41.58700
C  5.29200 48.50800 40.45500
O  4.50200 48.79500 39.54600
O  5.92000 47.27900 40.61200
C  5.44100 46.12800 39.84000
H  10.69400 53.74100 39.36000
H  6.58700 58.57400 41.08200
H  2.16200 54.58700 42.51200
H  8.81800 49.72500 40.87300
H  10.28300 51.42700 38.99000
H  10.67600 50.32100 41.63100
H  11.12600 52.01000 41.59000
H  11.90200 50.88200 40.47900
H  8.20600 48.44000 38.99500
H  9.23600 49.66200 38.14800
H  7.65800 50.52200 37.09700
H  6.52800 50.57200 38.33000
H  11.90100 57.21400 38.89300
H  11.72100 55.45300 39.09000
H  12.06000 56.36800 40.38700
H  8.44000 60.12300 41.38700
H  7.70900 60.00400 39.69200
H  9.11400 61.01000 39.95800
H  4.12400 58.75900 40.95000
H  2.42500 56.99800 42.49900
H  5.62200 58.76900 43.14400
H  3.92500 58.32300 43.82800
H  4.23100 59.67200 42.73900
H  2.41100 55.99800 39.89300
H  2.75500 57.75200 39.52800
H  0.57700 58.21900 40.34300
H  0.48700 56.75500 41.33100
H  0.33500 56.71300 39.48600
H  1.43000 51.02300 43.04100
H  1.37600 52.67400 43.48800
H  2.37400 51.42200 44.50500
H  6.48300 48.97000 42.23800
H  6.07200 45.26800 40.06400
H  5.39100 46.21800 38.75500
H  4.48900 45.85700 40.29500

