158

Mg 27.37500 49.01200 26.57800
C  25.27000 50.06300 29.17700
C  29.74200 48.16900 29.04700
C  29.47400 48.19800 24.08700
C  24.86700 50.13400 24.33600
N  27.44100 49.16700 28.83600
C  26.48400 49.51200 29.69500
C  26.80000 49.29500 31.16100
C  28.39200 48.98900 31.09100
C  28.57000 48.80400 29.57500
C  29.24100 50.07800 31.82700
C  25.82300 48.27500 31.69200
C  25.33200 48.21200 33.12800
H  26.13900 48.73800 34.31600
N  29.33200 48.26300 26.63200
C  30.09800 47.92000 27.71100
C  31.33300 47.44000 27.20000
C  31.33400 47.60500 25.77700
C  30.02400 48.07000 25.41400
C  32.39000 47.01100 28.14300
C  32.42400 47.26200 24.77700
O  32.24700 47.42300 23.57100
C  33.69100 46.55700 25.13900
N  27.21600 49.21600 24.57400
C  28.12000 48.66800 23.76000
C  27.62800 48.69400 22.30800
C  26.17400 49.27200 22.41200
C  26.08500 49.60300 23.87400
C  28.58700 49.47900 21.37900
C  25.12900 48.25100 21.80600
C  24.16500 48.95400 20.83500
N  25.47300 50.05100 26.68400
C  24.54800 50.37200 25.69400
C  23.36100 51.02300 26.30100
C  23.55600 50.84700 27.69800
C  24.87500 50.28100 27.83700
C  22.20500 51.66800 25.55900
C  23.00500 50.97700 28.98700
O  21.87200 51.34800 29.39400
C  24.03700 50.45700 30.01400
C  24.26800 51.56400 31.01200
O  25.06500 52.46600 30.77100
O  23.49900 51.37600 32.13800
C  23.65500 52.41700 33.18700
H  30.52400 47.96600 29.78300
H  30.07600 48.06300 23.18600
H  24.07400 50.25200 23.59500
H  26.58300 50.19800 31.73100
H  28.50900 47.98500 31.49800
H  29.39300 49.98800 32.90300
H  28.73700 51.01900 31.61100
H  30.24300 50.03200 31.40000
H  26.43100 47.37200 31.63500
H  25.01100 48.04700 31.00200
H  25.02100 47.20100 33.39300
H  24.38600 48.75000 33.18100
H  32.69300 45.97200 28.01600
H  32.18100 47.20600 29.19500
H  33.36500 47.46800 27.97400
H  34.26500 46.59600 24.21300
H  33.54000 45.50400 25.37900
H  34.30900 47.04900 25.89000
H  27.56500 47.71800 21.82600
H  26.02100 50.20800 21.87400
H  27.97900 50.18800 20.81800
H  29.13100 48.90900 20.62600
H  29.28800 50.01900 22.01600
H  24.43200 47.99500 22.60400
H  25.52100 47.36900 21.30000
H  23.19100 48.58100 21.15300
H  24.46400 48.78500 19.80000
H  23.99400 50.02300 20.96600
H  21.37400 51.59000 26.25900
H  22.11100 51.11000 24.62700
H  22.45900 52.71700 25.40800
H  23.57100 49.59500 30.49200
H  24.54100 52.10900 33.74100
H  22.75000 52.40500 33.79400
H  23.70100 53.35100 32.62600
Mg -2.20600 34.79300 26.34600
C  -3.72600 33.61200 29.32800
C  -0.36900 36.92500 28.40400
C  -0.97000 36.12500 23.67000
C  -4.10800 32.61000 24.41500
N  -2.20900 35.31200 28.57000
C  -2.78500 34.58600 29.60000
C  -2.28800 34.99900 31.01100
C  -1.34000 36.25300 30.68100
C  -1.28400 36.13300 29.12900
C  -2.00400 37.61800 31.13000
C  -1.60300 33.87500 31.82000
C  -1.59800 33.95700 33.34200
H  -2.52700 33.10300 34.15800
N  -0.78100 36.30900 26.02200
C  -0.11200 36.99200 27.02700
C  0.91200 37.81100 26.35800
C  0.78000 37.61900 24.93600
C  -0.40200 36.66500 24.82700
C  1.94100 38.62500 27.09400
C  1.76900 37.97700 23.85700
O  1.67700 37.49900 22.77000
C  3.05500 38.71800 24.24400
N  -2.53600 34.51700 24.36400
C  -1.95100 35.24500 23.37600
C  -2.19500 34.62400 22.03100
C  -2.88400 33.25000 22.25200
C  -3.18200 33.41700 23.76700
C  -2.87100 35.48800 20.94600
C  -2.00100 32.01800 22.00200
C  -2.68600 30.83400 21.18600
N  -3.66600 33.43900 26.72300
C  -4.29000 32.57500 25.86000
C  -5.12000 31.66500 26.63400
C  -4.93200 32.01100 27.95400
C  -4.04000 33.14200 27.99900
C  -6.01200 30.62900 26.07300
C  -5.28200 31.59300 29.32300
O  -5.96600 30.68400 29.78900
C  -4.56400 32.68500 30.21600
C  -5.70000 33.29000 30.88500
O  -6.68000 33.84800 30.41800
O  -5.58200 32.96600 32.19600
C  -6.70000 33.47100 33.08600
H  0.26800 37.47900 29.09600
H  -0.51300 36.53300 22.76600
H  -4.61400 31.84100 23.82800
H  -3.20100 35.22100 31.56300
H  -0.35800 36.13400 31.14000
H  -1.43600 38.00000 31.97800
H  -3.07000 37.47800 31.30900
H  -1.94900 38.39400 30.36600
H  -0.54900 33.87800 31.54000
H  -1.91300 32.87400 31.51900
H  -1.69500 34.97200 33.72700
H  -0.59100 33.68500 33.65800
H  1.80300 38.60400 28.17500
H  1.81400 39.69400 26.92300
H  3.00000 38.42400 26.93000
H  2.87100 39.57600 24.89100
H  3.56300 38.97900 23.31500
H  3.54300 37.92300 24.80800
H  -1.17200 34.45000 21.69800
H  -3.85500 33.29300 21.75800
H  -2.14900 35.83900 20.20900
H  -3.31200 36.38600 21.37800
H  -3.72600 34.95700 20.52600
H  -1.80900 31.58500 22.98300
H  -1.01900 32.22700 21.57800
H  -1.95400 30.03000 21.10900
H  -3.02200 31.19600 20.21500
H  -3.52900 30.49200 21.78600
H  -6.88900 31.20500 25.77800
H  -6.31600 29.89200 26.81700
H  -5.56900 30.17100 25.18900
H  -3.84700 32.24200 30.90700
H  -6.83400 34.53300 32.88200
H  -6.29100 33.48800 34.09700
H  -7.67100 32.98100 33.01300

