158

Mg 26.24800 1.81900 29.17000
C  27.96300 1.43600 32.10500
C  23.26900 1.76000 31.09500
C  24.39300 1.73200 26.32100
C  29.17400 1.26800 27.36300
N  25.75200 1.65300 31.34600
C  26.60800 1.57700 32.37500
C  25.95300 1.55200 33.73100
C  24.42500 1.37200 33.38100
C  24.44900 1.60900 31.83700
C  23.85500 -0.02700 33.85900
C  26.30300 2.81700 34.61300
C  26.88100 2.48900 35.96600
H  26.85600 3.54900 37.10000
N  24.14500 1.88700 28.71700
C  23.11000 1.86800 29.66200
C  21.82500 1.88500 28.92600
C  22.14300 1.96700 27.54700
C  23.59000 1.87600 27.46900
C  20.50000 1.94900 29.63600
C  21.22100 2.09200 26.38400
O  21.61300 2.10900 25.21900
C  19.66600 2.22200 26.60300
N  26.68400 1.36300 27.10900
C  25.75600 1.55100 26.12800
C  26.38500 1.58300 24.71600
C  27.90200 1.67500 25.10800
C  27.94200 1.47700 26.63400
C  26.06100 0.33400 23.84800
C  28.57500 3.02000 24.57700
C  28.21000 4.37300 25.14400
N  28.15500 1.39600 29.55600
C  29.30300 1.24000 28.74100
C  30.47900 1.14700 29.57700
C  30.02800 1.20400 30.92200
C  28.58100 1.36200 30.83300
C  31.88300 0.90800 29.20300
C  30.44500 1.20300 32.22600
O  31.58900 1.03400 32.61900
C  29.20500 1.41600 33.08800
C  29.03500 0.20600 34.09500
O  28.39300 -0.85400 34.04200
O  29.81100 0.56800 35.19800
C  29.68600 -0.31700 36.41000
H  22.33000 1.78200 31.65300
H  23.82300 1.74300 25.39000
H  30.03100 1.20100 26.69000
H  26.34400 0.63000 34.16200
H  23.85600 2.08700 33.97600
H  24.51100 -0.48900 34.59600
H  23.85400 -0.64700 32.96200
H  22.87400 0.06300 34.32400
H  25.43000 3.45500 34.75300
H  26.99500 3.45600 34.06300
H  27.91800 2.15200 35.96000
H  26.22900 1.72800 36.39500
H  20.47600 2.04800 30.72100
H  19.98200 1.08000 29.22900
H  20.02600 2.85100 29.24900
H  19.27200 1.43600 27.24800
H  19.08200 2.13900 25.68600
H  19.63900 3.23200 27.01200
H  26.13000 2.46300 24.12500
H  28.51200 0.83400 24.77700
H  26.92200 -0.23600 23.50000
H  25.69200 0.74400 22.90800
H  25.28800 -0.22300 24.37900
H  28.41200 3.13300 23.50500
H  29.65800 2.90200 24.55100
H  27.98300 5.01000 24.29000
H  29.01200 4.79200 25.75200
H  27.37900 4.35500 25.84900
H  32.03700 -0.10300 29.57900
H  32.43500 1.67500 29.74700
H  32.07500 0.95400 28.13100
H  29.34500 2.23000 33.79900
H  28.69600 -0.40000 36.85800
H  30.41400 0.11500 37.09800
H  30.01800 -1.30800 36.10200
Mg 41.47200 9.13800 29.85800
C  43.27200 10.30300 32.72400
C  39.10900 7.93500 32.06000
C  39.72100 8.15100 27.27400
C  44.01000 10.40100 27.89300
N  41.23400 9.14300 32.16800
C  42.07700 9.66700 33.09200
C  41.52700 9.59000 34.48800
C  40.42000 8.52200 34.25200
C  40.21300 8.50300 32.75800
C  40.62800 7.11100 34.84700
C  40.91200 10.87500 35.04700
C  40.92400 10.89100 36.59400
H  41.71700 11.93100 37.43900
N  39.70900 8.18100 29.70900
C  38.83600 7.84900 30.70800
C  37.64600 7.22100 30.14600
C  37.74400 7.44900 28.74700
C  39.09000 7.88700 28.50500
C  36.64600 6.59500 31.05700
C  36.69200 7.34500 27.62800
O  36.93700 7.60300 26.42900
C  35.20100 7.10100 28.08200
N  41.92000 9.24300 27.92000
C  41.02100 8.69000 27.00200
C  41.46500 8.97300 25.54400
C  42.72800 9.81400 25.72600
C  42.90400 9.87200 27.25300
C  41.54000 7.72700 24.65400
C  42.62300 11.28900 25.08400
C  41.64600 12.25100 25.73800
N  43.33800 10.03700 30.19600
C  44.28100 10.49400 29.28700
C  45.46600 10.98800 29.89200
C  45.04400 11.02800 31.27100
C  43.75600 10.45300 31.42300
C  46.71000 11.42100 29.21100
C  45.44000 11.40300 32.63900
O  46.41000 12.00300 33.04800
C  44.33000 10.97200 33.60300
C  44.90000 10.15200 34.79700
O  45.34400 9.03100 34.72500
O  44.69100 10.88900 35.99500
C  45.13600 10.11000 37.14300
H  38.31500 7.90100 32.80900
H  39.22400 7.95800 26.32100
H  44.84500 10.67100 27.24200
H  42.28400 9.02800 35.03500
H  39.47700 8.87300 34.67100
H  39.69600 6.81200 35.32600
H  41.35300 7.20200 35.65600
H  41.06700 6.40900 34.13700
H  39.89100 11.12100 34.75600
H  41.46200 11.74000 34.67600
H  41.23500 9.91900 36.97800
H  39.84700 10.97700 36.74100
H  35.71500 7.13400 30.88100
H  36.70000 6.73600 32.13600
H  36.61400 5.51500 30.91400
H  34.84000 7.94300 28.67200
H  35.34700 6.18300 28.65200
H  34.64600 6.84900 27.17800
H  40.67100 9.59900 25.13700
H  43.56400 9.28100 25.27300
H  42.48600 7.68800 24.11300
H  40.75900 7.82600 23.90000
H  41.37900 6.80500 25.21100
H  42.24900 11.12900 24.07300
H  43.64300 11.66900 25.03200
H  41.48600 11.89000 26.75400
H  40.75300 12.17400 25.11800
H  42.05800 13.25900 25.77600
H  46.87300 10.82300 28.31500
H  47.47700 11.51700 29.98000
H  46.47200 12.42200 28.85200
H  43.97300 11.93800 33.95800
H  46.21500 9.97200 37.07600
H  44.65900 9.14800 37.33300
H  44.93800 10.66300 38.06200

