158

Mg 41.73400 7.45400 30.19800
C  43.41600 8.78500 32.78800
C  39.42500 6.06400 32.34500
C  40.31400 5.70900 27.58600
C  44.70100 7.66500 28.32000
N  41.48700 7.34000 32.32000
C  42.21300 8.13000 33.20600
C  41.62100 8.04400 34.62700
C  40.42300 7.04200 34.50700
C  40.46300 6.77700 32.95500
C  40.59400 5.73000 35.28400
C  41.16500 9.43400 35.09800
C  40.77200 9.49900 36.54300
H  41.52000 10.53900 37.45700
N  40.05900 6.22800 30.00700
C  39.25500 5.77500 31.01800
C  38.17800 4.96300 30.44200
C  38.39800 4.86100 29.04000
C  39.65300 5.65100 28.83700
C  37.27300 4.18300 31.26500
C  37.49500 4.20900 27.98600
O  37.73900 4.21800 26.80400
C  36.17100 3.59900 28.47400
N  42.45000 6.71900 28.26300
C  41.65400 6.14100 27.36400
C  42.26700 6.05100 25.94800
C  43.60000 6.76900 26.14900
C  43.60900 7.03100 27.70400
C  42.27900 4.56000 25.47900
C  43.78600 7.99700 25.30800
C  42.81100 9.19500 25.53100
N  43.57500 8.23200 30.41500
C  44.62000 8.28400 29.54900
C  45.65200 9.13400 30.18900
C  45.18300 9.46800 31.44900
C  43.99100 8.79100 31.55100
C  46.94600 9.62700 29.67500
C  45.52900 10.06500 32.75100
O  46.52300 10.72100 33.05900
C  44.26200 9.63500 33.61600
C  44.74900 9.02100 34.79300
O  45.23200 7.91500 34.84600
O  44.82600 10.02200 35.75700
C  45.71000 9.83300 36.91500
H  38.61900 5.75600 33.01400
H  39.88900 5.13200 26.76200
H  45.61200 7.83800 27.74300
H  42.41800 7.72400 35.30000
H  39.62000 7.64200 34.93500
H  40.99300 5.00700 34.57200
H  39.57900 5.44200 35.55600
H  41.31500 5.82900 36.09500
H  40.32500 9.71400 34.46200
H  41.98600 10.11100 34.86200
H  40.87600 8.56400 37.09400
H  39.69500 9.64600 36.62400
H  37.47900 4.17700 32.33500
H  37.15300 3.13700 30.98100
H  36.32700 4.71000 31.14200
H  35.69300 4.21900 29.23300
H  36.42600 2.63300 28.90800
H  35.56800 3.49100 27.57300
H  41.50900 6.56300 25.35500
H  44.38400 6.13500 25.73500
H  41.32200 4.19800 25.10400
H  42.49100 3.92700 26.34100
H  43.05300 4.39300 24.73000
H  43.86400 7.59400 24.29800
H  44.77900 8.36800 25.56300
H  42.14800 9.22000 26.39500
H  42.06500 9.26200 24.74000
H  43.52300 10.00900 25.66700
H  46.95200 9.75600 28.59200
H  47.67600 8.91000 30.04900
H  47.17900 10.62200 30.05300
H  43.72800 10.57200 33.77300
H  45.17600 9.87000 37.86400
H  46.31600 10.73100 37.04400
H  46.37500 8.97200 36.84300
Mg 30.39100 58.52100 39.09900
C  27.40700 56.66500 37.77000
C  32.22600 55.81100 37.93500
C  33.09900 60.33800 39.22000
C  28.35500 61.35400 39.23800
N  29.76500 56.36100 38.28300
C  28.59400 55.91000 37.82900
C  28.77300 54.52700 37.19000
C  30.26800 54.19900 37.50300
C  30.82000 55.49100 38.02000
C  30.48100 53.08600 38.52700
C  28.43300 54.50300 35.66800
C  27.62200 53.25000 35.21900
H  26.88300 53.39500 33.91800
N  32.38500 58.05300 38.75500
C  32.92600 56.90100 38.31600
C  34.41100 56.95800 38.25500
C  34.65100 58.37200 38.51800
C  33.35000 58.99700 38.85600
C  35.36600 55.87700 37.91900
C  36.01900 59.02500 38.57300
O  36.95500 58.35900 38.08100
C  36.35600 60.45700 39.02900
N  30.67500 60.50200 39.07100
C  31.87200 61.05000 39.26300
C  31.81000 62.51600 39.75700
C  30.32300 62.82900 39.65000
C  29.72500 61.47700 39.30500
C  32.35500 62.80200 41.16700
C  30.00100 63.98200 38.63700
C  28.89400 64.98100 39.00200
N  28.25500 58.91200 38.79200
C  27.69300 60.12700 38.83400
C  26.29900 59.99600 38.46000
C  26.11300 58.69000 37.93700
C  27.30100 58.00100 38.22100
C  25.37600 61.14800 38.39300
C  25.29300 57.73200 37.28000
O  24.16000 57.95600 36.79000
C  26.08600 56.37800 37.18600
C  25.45100 55.25500 37.99800
O  25.43900 55.07900 39.21200
O  25.03700 54.34100 37.04300
C  24.74600 53.03900 37.67600
H  32.71000 54.84400 37.78100
H  33.96100 60.97100 39.44200
H  27.71900 62.22800 39.39700
H  28.10500 53.82900 37.69500
H  30.83200 53.95200 36.60400
H  30.45300 52.10100 38.06200
H  29.73500 53.17200 39.31700
H  31.52000 53.18600 38.83900
H  29.39900 54.45300 35.16500
H  27.98600 55.45400 35.37900
H  26.78300 53.04100 35.88300
H  28.35800 52.45700 35.08200
H  35.37900 55.66000 36.85100
H  34.90900 54.96800 38.31100
H  36.39500 56.03300 38.24300
H  37.44000 60.56700 39.08100
H  35.90900 60.76100 39.97600
H  36.02800 61.18500 38.28800
H  32.34800 63.18300 39.08300
H  29.89700 63.07000 40.62400
H  32.52700 61.86000 41.68600
H  31.79100 63.57200 41.69300
H  33.32200 63.24800 40.93500
H  29.86800 63.54400 37.64800
H  30.87000 64.63600 38.55700
H  28.37700 64.45900 39.80700
H  28.38900 65.25700 38.07700
H  29.20300 65.96900 39.34300
H  25.28600 61.54000 37.38000
H  25.59200 62.00800 39.02700
H  24.35000 60.81600 38.55100
H  26.12100 56.13900 36.12300
H  24.30600 52.35300 36.95200
H  24.04700 53.10000 38.51000
H  25.61200 52.58100 38.15500

