158

Mg 25.95800 0.49800 29.11000
C  28.05100 0.29000 32.10700
C  23.36100 0.79800 31.20800
C  24.31200 1.11800 26.35000
C  28.99000 0.35800 27.31800
N  25.82800 0.55900 31.43000
C  26.67300 0.45300 32.45700
C  26.02500 0.52800 33.81100
C  24.52100 0.29800 33.39000
C  24.52900 0.48300 31.86700
C  23.74400 -0.93300 33.78200
C  26.23300 1.87400 34.53300
C  25.50700 1.95000 35.84600
H  26.30400 2.27100 37.12200
N  23.99100 0.87600 28.81700
C  23.08400 1.04900 29.85900
C  21.83800 1.33500 29.21700
C  22.07700 1.43500 27.76300
C  23.49300 1.03700 27.56300
C  20.60300 1.55500 30.03000
C  21.24400 1.81100 26.63600
O  21.63600 1.76700 25.51600
C  19.78700 2.06600 26.86300
N  26.56500 0.54700 27.16800
C  25.65700 0.93200 26.17300
C  26.37600 1.24700 24.88000
C  27.81400 0.78700 25.15500
C  27.82200 0.59900 26.62800
C  25.76100 0.61200 23.56700
C  28.88600 1.77900 24.52900
C  30.16300 1.11600 23.88200
N  28.09200 0.23000 29.56800
C  29.20700 0.22000 28.71600
C  30.47500 0.06000 29.47700
C  30.04000 0.10800 30.78300
C  28.58600 0.19200 30.74100
C  31.86900 -0.08300 28.98300
C  30.44500 0.21600 32.14600
O  31.59700 0.17400 32.59700
C  29.18000 0.26300 33.03800
C  29.09900 -0.70400 34.11100
O  28.84900 -1.89900 34.01600
O  29.20200 -0.08800 35.38200
C  28.89100 -0.79300 36.59600
H  22.56700 0.73300 31.95400
H  23.88100 1.48200 25.41500
H  29.93700 0.31400 26.77500
H  26.34500 -0.24500 34.51100
H  23.86600 1.11800 33.68600
H  22.82500 -0.78100 34.34700
H  24.21600 -1.64900 34.45400
H  23.44000 -1.56100 32.94400
H  26.01900 2.73400 33.89900
H  27.31000 1.97800 34.67100
H  25.10600 0.95200 36.02400
H  24.70800 2.67800 35.70500
H  19.82700 0.91900 29.60400
H  20.28300 2.59600 29.98500
H  20.90000 1.37900 31.06400
H  19.62300 2.71000 27.72700
H  19.23000 1.13500 26.96400
H  19.28000 2.58800 26.05100
H  26.38700 2.33100 24.76900
H  28.06500 -0.18400 24.73000
H  24.89500 -0.01100 23.79000
H  26.40700 -0.14500 23.12300
H  25.51400 1.27800 22.74000
H  29.16800 2.37400 25.39800
H  28.35800 2.43600 23.83800
H  30.17400 1.09500 22.79200
H  30.37200 0.06500 24.08300
H  31.03000 1.71400 24.16300
H  31.81500 0.06100 27.90400
H  32.33700 -1.00500 29.32800
H  32.40300 0.80600 29.31700
H  29.21100 1.28400 33.41800
H  29.37000 -1.74900 36.80900
H  27.87500 -1.16600 36.45900
H  28.95400 -0.20700 37.51300
Mg 16.72300 51.70800 25.18300
C  18.73200 50.61400 27.89000
C  14.44200 52.65300 27.53200
C  14.98500 52.84800 22.66400
C  19.14200 50.42200 23.00300
N  16.65100 51.85200 27.43300
C  17.52400 51.21700 28.33400
C  17.14800 51.48800 29.83500
C  15.63800 51.90400 29.72500
C  15.58500 52.17800 28.14900
C  14.60800 50.90500 30.31900
C  18.01200 52.65800 30.37600
C  18.51100 52.64500 31.88000
H  17.52200 52.09400 32.94000
N  14.97200 52.64900 25.05300
C  14.17400 52.98100 26.11200
C  13.00900 53.60100 25.59700
C  13.10700 53.71400 24.23200
C  14.37700 53.05000 23.86100
C  11.86700 54.24200 26.54300
C  12.23500 54.38200 23.25700
O  12.46800 54.60800 22.08400
C  10.82000 54.84100 23.72400
N  17.02900 51.72500 23.08200
C  16.14900 52.20600 22.21000
C  16.53200 51.99100 20.71600
C  17.93900 51.37100 20.89200
C  18.03800 51.15700 22.38800
C  15.68800 51.13900 19.82500
C  19.11200 52.21000 20.32100
C  20.24700 51.33600 19.63800
N  18.58800 50.70900 25.35300
C  19.42000 50.16900 24.39700
C  20.46900 49.47100 24.99900
C  20.28900 49.63800 26.38400
C  19.08600 50.37600 26.54200
C  21.69200 48.75700 24.36000
C  20.76100 49.32300 27.67800
O  21.80900 48.85900 28.00600
C  19.84700 49.97200 28.76700
C  19.48900 49.05800 29.79700
O  18.65400 48.16000 29.67700
O  20.14400 49.29400 30.96100
C  19.65100 48.56300 32.14700
H  13.70700 52.96900 28.27600
H  14.36300 53.16900 21.82600
H  19.80400 49.92700 22.29000
H  17.28500 50.59200 30.44000
H  15.36400 52.84100 30.20900
H  13.85600 50.60000 29.59100
H  14.08700 51.35100 31.16600
H  15.06300 49.97900 30.67000
H  17.47200 53.60500 30.38500
H  18.93900 52.76700 29.81300
H  18.62600 53.70300 32.11700
H  19.41100 52.03100 31.89400
H  12.14500 54.40700 27.58400
H  10.98400 53.60800 26.47000
H  11.71900 55.24400 26.14100
H  10.33600 54.18900 24.45100
H  10.24400 54.95800 22.80600
H  10.84000 55.87600 24.06600
H  16.64700 52.94600 20.20400
H  17.99000 50.36400 20.48000
H  16.18600 50.54200 19.06100
H  14.95300 51.74700 19.29800
H  15.04000 50.48200 20.40400
H  19.51400 52.76100 21.17100
H  18.74700 53.00400 19.67000
H  20.34800 51.48600 18.56300
H  20.04500 50.27100 19.75600
H  21.24600 51.46700 20.05500
H  21.44900 48.39400 23.36100
H  21.97200 47.88700 24.95500
H  22.53000 49.44400 24.47500
H  20.54000 50.69200 29.20300
H  19.39100 47.59000 31.72900
H  18.79200 48.97200 32.67900
H  20.37000 48.53500 32.96500

