158

Mg 29.51000 59.21600 40.79600
C  26.38100 57.87000 39.90600
C  31.04800 56.56700 39.37000
C  32.39500 60.74800 41.38300
C  27.80600 62.14600 41.86800
N  28.77700 57.51700 39.67800
C  27.48800 57.13200 39.51600
C  27.43000 55.83100 38.68400
C  28.87000 55.28400 38.82900
C  29.62200 56.54600 39.35300
C  29.04900 54.08700 39.75400
C  27.04000 56.20100 37.21800
C  25.93100 55.41100 36.45800
H  26.30700 55.00400 34.96400
N  31.51200 58.78700 40.38800
C  31.93800 57.60600 39.78500
C  33.37900 57.52100 39.81000
C  33.81000 58.77500 40.36100
C  32.57800 59.56500 40.70900
C  34.23300 56.43400 39.30600
C  35.27100 59.15100 40.60600
O  36.16100 58.32900 40.36600
C  35.72900 60.43900 41.23600
N  30.03900 61.17100 41.40600
C  31.27500 61.53500 41.69900
C  31.39800 63.02000 42.16800
C  29.88400 63.52800 42.20200
C  29.22400 62.20200 41.82800
C  32.10400 63.17300 43.58800
C  29.54300 64.59100 41.09200
C  28.38000 65.53600 41.48000
N  27.52100 59.92000 40.92800
C  26.99700 61.07400 41.45800
C  25.52800 60.97600 41.45600
C  25.28500 59.82000 40.76400
C  26.53400 59.12100 40.54600
C  24.55000 62.03600 41.93000
C  24.26000 58.91600 40.31100
O  23.09000 59.00100 40.44800
C  24.86700 57.67200 39.64700
C  24.46400 56.39200 40.28600
O  24.65500 56.10200 41.45700
O  23.80500 55.59600 39.43300
C  23.31000 54.25600 39.83300
H  31.50700 55.61400 39.09700
H  33.35000 61.23100 41.60100
H  27.27300 63.00900 42.27300
H  26.62500 55.20100 39.06400
H  29.29100 55.19500 37.82800
H  29.38900 54.19100 40.78400
H  29.68300 53.36100 39.24500
H  28.09300 53.56400 39.70300
H  27.93500 56.25800 36.60000
H  26.66700 57.22300 37.27900
H  25.11100 56.12400 36.37600
H  25.68000 54.55400 37.08300
H  34.53700 55.82100 40.15500
H  35.03700 56.87600 38.71900
H  33.63500 55.84100 38.61400
H  36.81500 60.45400 41.14800
H  35.40700 60.56300 42.27000
H  35.33100 61.26800 40.65100
H  31.92400 63.60300 41.41100
H  29.46900 63.86400 43.15200
H  33.18300 63.01500 43.59200
H  31.60100 62.43900 44.21700
H  32.02600 64.16900 44.02400
H  29.45500 63.99700 40.18200
H  30.37600 65.22400 40.78500
H  28.02400 65.28500 42.47900
H  27.47100 65.51300 40.87900
H  28.77000 66.55200 41.54100
H  24.68600 62.96900 41.38500
H  24.45800 62.23500 42.99800
H  23.57700 61.61200 41.68400
H  24.60300 57.61800 38.59000
H  22.60800 54.51400 40.62500
H  24.10000 53.56800 40.13300
H  22.72800 53.85900 39.00100
Mg 8.93400 47.30400 25.86900
C  6.95000 47.66800 28.62400
C  11.44300 49.07000 27.38200
C  10.84400 47.51900 22.91600
C  6.08300 46.80400 23.81200
N  9.12200 48.31100 27.69900
C  8.26300 48.12000 28.82700
C  8.93500 48.67900 30.00400
C  10.00400 49.61200 29.40500
C  10.32000 48.89600 28.08100
C  9.53100 51.04700 29.09300
C  9.39800 47.63600 30.99500
C  8.80500 47.84300 32.43200
H  8.86600 46.51800 33.30900
N  11.05800 47.84900 25.29200
C  11.88100 48.53900 26.13400
C  13.22400 48.67500 25.53900
C  13.08600 48.21200 24.22700
C  11.58400 47.83500 24.05400
C  14.35000 49.23900 26.34400
C  14.11400 48.30000 23.01900
O  13.80400 47.98200 21.85400
C  15.50300 48.77700 23.28100
N  8.48000 47.26900 23.67500
C  9.41600 47.37200 22.67800
C  8.71000 47.32700 21.27900
C  7.20100 46.99100 21.63400
C  7.26100 47.01200 23.16300
C  8.85300 48.60100 20.51400
C  6.63300 45.53500 21.11100
C  5.37400 45.61700 20.35600
N  6.94200 47.24400 26.09500
C  5.87100 46.87700 25.24700
C  4.67300 46.73300 26.05900
C  5.01700 47.01500 27.37500
C  6.39400 47.32200 27.35200
C  3.26900 46.39200 25.67100
C  4.50900 47.09200 28.73200
O  3.35300 47.04700 29.10700
C  5.87000 47.30000 29.61500
C  6.20700 46.07800 30.34400
O  7.06000 45.24800 30.06300
O  5.40100 46.03000 31.44800
C  5.78500 45.00900 32.46100
H  12.23200 49.68300 27.82300
H  11.34200 47.49200 21.94400
H  5.21500 46.70400 23.15600
H  8.22000 49.34400 30.48900
H  10.93800 49.68900 29.96100
H  10.18600 51.76100 29.59300
H  8.53900 51.18200 29.52300
H  9.52700 51.33800 28.04300
H  10.47400 47.58500 31.15800
H  9.08100 46.66900 30.60600
H  7.75700 48.14300 32.42400
H  9.41700 48.58900 32.93800
H  14.23400 49.08000 27.41600
H  14.41200 50.27000 25.99600
H  15.19200 48.63800 26.00000
H  15.38500 49.47900 24.10700
H  15.89900 49.13300 22.33000
H  16.22100 47.97000 23.43200
H  9.08900 46.48800 20.69400
H  6.54300 47.83600 21.42600
H  7.90800 49.11400 20.33500
H  9.23500 48.31800 19.53300
H  9.61800 49.31300 20.82400
H  6.57100 44.80400 21.91700
H  7.38700 45.18600 20.40500
H  5.54800 45.55600 19.28200
H  4.90500 46.58600 20.52300
H  4.75100 44.77800 20.66400
H  2.61700 47.25000 25.84100
H  2.93300 45.54800 26.27300
H  3.26800 46.08500 24.62600
H  5.67800 48.15400 30.26500
H  5.27600 44.05400 32.33200
H  5.39400 45.42600 33.38900
H  6.85100 44.81800 32.58300

