158

Mg 35.01800 2.66700 30.09700
C  32.56300 3.53300 32.57100
C  37.36300 2.66200 32.52600
C  37.45200 2.27800 27.79100
C  32.59800 3.00600 27.70500
N  34.91800 2.91400 32.23700
C  33.86000 3.21900 33.03800
C  34.27700 3.27700 34.47900
C  35.80500 3.42600 34.44600
C  36.04700 2.92500 32.97000
C  36.39300 4.79800 34.97900
C  33.69800 2.14000 35.42400
C  33.23500 2.55800 36.87300
H  33.88400 3.76200 37.62700
N  37.05300 2.30700 30.19900
C  37.84200 2.37500 31.29500
C  39.29500 2.27500 30.93100
C  39.36400 2.17700 29.51900
C  37.93900 2.27100 29.07500
C  40.42600 2.35800 31.91500
C  40.58600 1.94900 28.58500
O  40.51300 1.83800 27.36800
C  42.04600 1.71900 29.05400
N  35.04500 2.54700 28.07300
C  36.12300 2.32500 27.31200
C  35.73100 2.24700 25.82100
C  34.19700 2.48800 25.81900
C  33.93700 2.68200 27.30400
C  36.48600 3.26100 24.92200
C  33.32300 1.34600 25.16400
C  32.50200 1.69500 23.93700
N  33.05200 3.18900 30.05400
C  32.15000 3.28100 29.07600
C  30.85700 3.68400 29.49300
C  30.99000 3.88600 30.89800
C  32.33100 3.46000 31.19200
C  29.64400 3.98200 28.61700
C  30.29600 4.26700 32.12000
O  29.15200 4.73300 32.30300
C  31.34900 4.09300 33.25000
C  31.55700 5.40500 33.90000
O  32.37800 6.23400 33.53000
O  30.65800 5.58800 34.94200
C  30.57900 6.94600 35.48100
H  38.06600 2.81800 33.34700
H  38.22600 2.24400 27.02000
H  31.91200 3.27600 26.89900
H  33.79900 4.18900 34.83800
H  36.22900 2.65600 35.09100
H  35.81600 5.46300 35.62200
H  36.60000 5.48900 34.16200
H  37.20900 4.50300 35.63900
H  34.35600 1.28000 35.54500
H  32.78700 1.82700 34.91300
H  33.23800 1.64000 37.46100
H  32.16800 2.76400 36.78700
H  41.00600 1.43800 31.84200
H  40.01600 2.33800 32.92500
H  41.04300 3.24000 31.74700
H  42.59500 1.14100 28.31100
H  42.10300 1.14200 29.97700
H  42.63000 2.63000 29.18800
H  35.86700 1.19200 25.58000
H  33.87800 3.36900 25.26200
H  36.79500 4.16400 25.44900
H  35.91200 3.44600 24.01400
H  37.37700 2.82500 24.46900
H  32.70500 0.96000 25.97500
H  33.99300 0.54300 24.85700
H  32.72200 2.69800 23.57200
H  31.44900 1.72200 24.21900
H  32.65400 0.96200 23.14400
H  29.70800 4.89300 28.02100
H  28.81800 4.08200 29.32000
H  29.49500 3.12400 27.96200
H  31.02900 3.50800 34.11200
H  30.42900 7.66600 34.67600
H  31.49500 7.30100 35.95500
H  29.72900 7.09000 36.14700
Mg 26.98500 51.02600 25.67900
C  25.34600 52.32500 28.43200
C  29.45100 49.78100 27.80100
C  28.77800 50.16400 23.07700
C  24.85700 52.85300 23.54200
N  27.40600 51.18600 27.85700
C  26.50200 51.60700 28.78700
C  26.91600 51.24700 30.25400
C  28.24000 50.53100 30.00200
C  28.41900 50.53100 28.46600
C  29.44900 51.21100 30.68700
C  25.82800 50.40400 31.07400
C  25.21800 51.23900 32.26900
H  25.29700 50.61700 33.67900
N  28.89700 50.22200 25.46900
C  29.67100 49.61800 26.42700
C  30.72700 48.85600 25.81200
C  30.46500 48.82600 24.40100
C  29.32400 49.85600 24.25300
C  31.92200 48.31100 26.60500
C  31.10300 48.06600 23.26000
O  30.68900 48.05800 22.13800
C  32.28400 47.12400 23.59300
N  26.85500 51.45400 23.62100
C  27.66500 50.90300 22.74500
C  27.27700 51.05800 21.23700
C  26.06300 52.05000 21.43800
C  25.79800 52.07200 22.93900
C  28.42000 51.76800 20.46600
C  24.79900 51.63700 20.64900
C  24.54800 52.50900 19.35400
N  25.32800 52.23600 25.88300
C  24.58200 52.93900 24.97700
C  23.54700 53.65000 25.70100
C  23.78400 53.39200 27.02600
C  24.94900 52.57100 27.09200
C  22.42500 54.37800 25.09300
C  23.25900 53.58100 28.32900
O  22.33100 54.30600 28.63800
C  24.24200 52.93500 29.36000
C  24.85400 54.02000 30.25700
O  26.02300 54.44700 30.07600
O  24.12000 54.27100 31.40500
C  24.83800 55.15100 32.41300
H  30.11000 49.20700 28.45600
H  29.30600 49.83800 22.17900
H  24.21900 53.54400 22.98800
H  27.12800 52.17300 30.78900
H  28.17800 49.49900 30.34600
H  29.71400 52.17100 30.24400
H  30.29900 50.54300 30.54500
H  29.18300 51.38500 31.72900
H  26.30900 49.56100 31.56900
H  24.96000 49.97100 30.57600
H  24.16000 51.34600 32.02800
H  25.74100 52.19100 32.35400
H  32.26100 48.97400 27.40100
H  32.76300 48.50700 25.94100
H  31.82800 47.24200 26.79300
H  31.92400 46.47700 24.39300
H  33.13400 47.79500 23.71600
H  32.50800 46.46100 22.75800
H  27.02300 50.04500 20.92700
H  26.38500 53.07000 21.22700
H  28.10500 52.74300 20.09200
H  28.47500 51.16400 19.56000
H  29.37000 51.87300 20.98900
H  23.94100 51.53800 21.31400
H  25.10200 50.65000 20.30000
H  24.44800 51.91700 18.44500
H  25.28500 53.28200 19.13500
H  23.60700 53.05600 19.41300
H  21.85600 53.70000 24.45700
H  22.82900 55.11100 24.39500
H  21.81200 54.81600 25.88100
H  23.69100 52.13800 29.86000
H  24.72800 56.20300 32.14900
H  25.90100 54.91000 32.41200
H  24.49800 55.06300 33.44400

