158

Mg 2.70200 -1.26200 44.86200
C  5.96400 -0.39000 44.43300
C  1.76100 1.15900 42.48500
C  -0.49800 -2.40500 44.97200
C  3.74500 -4.29000 46.54700
N  3.77500 0.05100 43.39500
C  5.16800 0.32000 43.58900
C  5.59700 1.42000 42.55900
C  4.27800 2.06900 42.20000
C  3.19200 1.04500 42.74200
C  4.15200 3.52900 42.67100
C  6.40000 0.74300 41.36400
C  7.85600 1.31700 41.24500
H  8.22600 1.72300 39.77900
N  0.85800 -0.65400 43.94000
C  0.74300 0.40400 43.05700
C  -0.69200 0.58500 42.81500
C  -1.41600 -0.50600 43.44000
C  -0.34900 -1.24800 44.15500
C  -1.23300 1.77600 42.06900
C  -2.92400 -0.53200 43.54500
O  -3.57000 0.25000 42.91600
C  -3.71000 -1.39100 44.45600
N  1.76300 -3.13700 45.63200
C  0.45800 -3.28200 45.58300
C  -0.06200 -4.54900 46.38300
C  1.35500 -5.21300 46.68300
C  2.38100 -4.18400 46.30800
C  -0.89800 -4.17800 47.65600
C  1.75300 -6.56500 46.05100
C  2.10500 -7.64900 47.08300
N  4.42400 -2.13900 45.56100
C  4.65900 -3.31600 46.28600
C  6.09100 -3.37800 46.53400
C  6.68300 -2.26300 45.89900
C  5.61800 -1.58800 45.19000
C  6.74800 -4.50500 47.36100
C  7.83200 -1.48000 45.62400
O  9.00800 -1.66200 46.03300
C  7.42000 -0.30200 44.65500
C  7.63300 0.99600 45.37600
O  7.47000 1.20500 46.59800
O  8.28300 1.85300 44.45200
C  8.42000 3.23800 44.94600
H  1.49000 1.82800 41.66600
H  -1.48900 -2.82400 44.78600
H  4.09500 -5.23100 46.97700
H  6.24000 2.06100 43.16200
H  4.23500 2.04800 41.11100
H  3.78400 4.16600 41.86700
H  5.14900 3.88000 42.93600
H  3.45400 3.80100 43.46400
H  5.82100 0.85600 40.44700
H  6.48400 -0.31200 41.62300
H  8.57200 0.60600 41.65600
H  8.01000 2.28600 41.71900
H  -2.17800 2.27600 42.28000
H  -1.10400 1.59300 41.00200
H  -0.50300 2.54800 42.31300
H  -4.68600 -0.97900 44.71200
H  -3.09800 -1.63200 45.32600
H  -3.87900 -2.32200 43.91700
H  -0.63000 -5.09000 45.62500
H  1.45400 -5.30400 47.76500
H  -1.87300 -3.91200 47.25000
H  -0.53100 -3.25700 48.11000
H  -0.92700 -5.07700 48.27200
H  2.62100 -6.42200 45.40700
H  0.90800 -6.90800 45.45300
H  3.17300 -7.87100 47.08600
H  1.62900 -8.60700 46.87300
H  1.81600 -7.41100 48.10700
H  6.64900 -5.39400 46.73800
H  6.26800 -4.54400 48.33900
H  7.83100 -4.42000 47.45700
H  7.99400 -0.30000 43.72900
H  7.44800 3.71800 45.06700
H  8.87200 3.85000 44.16600
H  9.15400 3.27900 45.75100
Mg 48.46200 45.15600 42.75400
C  45.13100 45.68200 41.73300
C  48.30400 42.01700 41.44900
C  51.76400 45.18000 42.65900
C  48.54700 48.44500 43.79600
N  46.93600 44.03400 41.76100
C  45.63700 44.41400 41.38500
C  44.87000 43.27500 40.86600
C  45.77700 42.06300 41.16300
C  47.09500 42.70000 41.55200
C  45.26000 41.02100 42.22300
C  44.49200 43.53800 39.42900
C  43.29700 42.87400 38.80700
H  43.36800 42.08500 37.49300
N  49.88100 43.65300 42.33700
C  49.64800 42.42200 41.77000
C  50.88900 41.83800 41.50900
C  51.86600 42.61800 42.09400
C  51.20000 43.86500 42.43900
C  51.08800 40.46900 40.94400
C  53.29700 42.19900 42.29100
O  53.74900 41.20900 41.69100
C  54.26500 43.12400 43.01300
N  49.90200 46.63200 43.23600
C  51.23900 46.39100 43.08600
C  52.07400 47.63100 43.55500
C  51.04600 48.55300 44.18200
C  49.72700 47.83600 43.79700
C  53.42500 47.40500 44.31100
C  51.13100 50.11100 43.73200
C  50.79700 51.12800 44.82500
N  47.12400 46.76100 42.82300
C  47.30900 48.04900 43.34200
C  46.05700 48.75000 43.25600
C  45.15200 47.79900 42.72500
C  45.87300 46.65900 42.42900
C  45.86700 50.16700 43.71000
C  43.80000 47.60400 42.27600
O  42.84500 48.33800 42.31400
C  43.73700 46.16200 41.67500
C  42.76700 45.33000 42.35900
O  41.70200 45.01500 41.85400
O  43.25900 44.89100 43.58700
C  42.41000 43.93300 44.31100
H  48.21600 40.99900 41.06300
H  52.83800 45.22400 42.46900
H  48.49200 49.40800 44.30800
H  43.94600 43.19900 41.44000
H  45.99600 41.60300 40.19900
H  45.79400 41.18400 43.15900
H  45.40900 40.01500 41.82900
H  44.19900 41.17400 42.42100
H  45.30300 43.12600 38.82900
H  44.49000 44.60600 39.21300
H  42.50600 43.62400 38.79200
H  43.08300 42.08700 39.53000
H  51.49700 40.78300 39.98400
H  50.15800 39.92500 40.77600
H  51.78700 39.77400 41.40900
H  53.71700 43.58500 43.83500
H  54.85700 43.75900 42.35300
H  54.87400 42.43500 43.59700
H  52.45400 48.05200 42.62500
H  51.06700 48.59000 45.27100
H  53.58800 46.35700 44.56200
H  53.41800 48.07500 45.17000
H  54.20100 47.79300 43.65100
H  50.31400 50.21800 43.01800
H  52.00200 50.52800 43.22800
H  51.32900 52.05700 44.61900
H  51.26800 50.81400 45.75600
H  49.76400 51.46100 44.92100
H  46.35400 50.85400 43.01800
H  46.47200 50.16800 44.61800
H  44.81900 50.46400 43.75200
H  43.50500 46.30000 40.61900
H  41.57400 44.46900 44.76100
H  43.00400 43.38000 45.03900
H  41.81400 43.27400 43.68000

