158

Mg 8.59300 2.93400 26.90700
C  9.71800 1.04200 29.67800
C  6.72600 4.75200 28.99000
C  7.57700 4.52100 24.08400
C  10.36900 0.67900 24.81200
N  8.25200 2.88000 29.13900
C  8.93900 2.14800 30.07300
C  8.87100 2.88100 31.45800
C  7.67000 3.93500 31.27400
C  7.39100 3.76800 29.70800
C  6.28200 3.80300 32.06500
C  10.28400 3.44500 31.86600
C  10.76700 2.92100 33.19500
H  11.04600 3.98100 34.21600
N  7.28600 4.33100 26.54200
C  6.62800 5.02300 27.57700
C  5.84000 6.06700 26.95200
C  6.13400 6.14600 25.60300
C  7.03200 4.99800 25.32300
C  4.90700 6.93300 27.72000
C  5.72800 7.14100 24.52900
O  6.25100 7.17600 23.45000
C  4.73700 8.20500 24.77800
N  8.85600 2.60900 24.68300
C  8.33600 3.40800 23.77000
C  8.68800 2.93700 22.38000
C  9.63500 1.72600 22.63100
C  9.70300 1.69000 24.12200
C  7.53000 2.61400 21.47800
C  10.94900 1.79000 21.84500
C  11.32900 0.45300 21.29200
N  9.74200 1.12500 27.13400
C  10.42800 0.37000 26.19500
C  11.03500 -0.76800 26.85500
C  10.85700 -0.48200 28.23600
C  10.00000 0.63200 28.36000
C  11.74400 -1.92200 26.16600
C  11.26100 -0.91900 29.58100
O  11.98700 -1.85800 29.96600
C  10.53600 0.09000 30.56700
C  9.76200 -0.65200 31.59400
O  8.86100 -1.44500 31.31900
O  10.36300 -0.46800 32.84200
C  9.58900 -0.98100 33.99000
H  6.23500 5.41900 29.70200
H  7.42600 5.18600 23.23100
H  10.90800 -0.16100 24.36700
H  8.65000 2.08400 32.16800
H  8.00600 4.95800 31.44300
H  5.85300 4.78700 32.25700
H  6.48200 3.23200 32.97200
H  5.58700 3.26300 31.42200
H  10.11100 4.52000 31.91400
H  11.03000 3.20100 31.10900
H  11.74400 2.44700 33.10200
H  10.07100 2.20100 33.62500
H  5.46600 7.73900 28.19500
H  4.46700 6.42600 28.57900
H  3.98000 7.24700 27.24000
H  3.76600 7.72100 24.88400
H  4.57300 8.81600 23.89000
H  5.05000 8.75800 25.66300
H  9.31600 3.74100 21.99500
H  9.12600 0.80700 22.33900
H  7.64300 1.68800 20.91400
H  7.42600 3.44800 20.78300
H  6.58700 2.61500 22.02500
H  11.63900 2.16600 22.60100
H  10.87400 2.49400 21.01700
H  11.95500 -0.11800 21.97700
H  11.94700 0.62200 20.41000
H  10.39000 -0.07700 21.13200
H  12.50300 -1.55200 25.47700
H  10.97600 -2.58000 25.76000
H  12.39100 -2.49900 26.82800
H  11.34300 0.66100 31.02700
H  9.56400 -0.18700 34.73600
H  10.04600 -1.89600 34.36800
H  8.56500 -1.25300 33.73800
Mg 46.85200 25.09500 28.75700
C  47.71800 27.27700 31.33700
C  45.87200 22.83200 31.07800
C  46.58500 22.87900 26.33900
C  48.60000 27.26200 26.50400
N  46.83900 25.07600 30.93700
C  47.25200 26.06400 31.77500
C  46.93700 25.66600 33.22600
C  46.61100 24.16000 33.09100
C  46.37500 24.00400 31.62300
C  47.60900 23.09900 33.75500
C  45.89400 26.66900 33.81300
C  46.37700 27.45600 35.07100
H  45.44700 27.28500 36.23800
N  46.20600 23.13000 28.69900
C  45.78400 22.39300 29.73800
C  45.20400 21.15600 29.23800
C  45.53400 21.07700 27.87900
C  46.22500 22.38700 27.56700
C  44.65600 20.05400 30.19000
C  45.17900 19.92000 26.85700
O  45.46500 20.03000 25.66100
C  44.61300 18.69500 27.30100
N  47.45600 25.12700 26.69100
C  47.17700 24.06800 25.93200
C  47.59800 24.32600 24.46600
C  48.07300 25.74700 24.48900
C  48.04500 26.10000 25.96500
C  48.51500 23.25000 23.80500
C  47.24400 26.70800 23.49700
C  45.89500 27.13400 24.18900
N  47.78900 27.01300 28.82500
C  48.56900 27.67500 27.87000
C  49.11100 28.91400 28.50500
C  48.81200 28.78100 29.85400
C  48.01900 27.62800 29.96500
C  49.89500 29.99300 27.81400
C  49.03200 29.42400 31.12400
O  49.74300 30.37400 31.40000
C  48.30300 28.49000 32.18400
C  49.28300 28.04100 33.27800
O  49.88300 26.99100 33.23100
O  49.24300 28.89900 34.35800
C  50.15300 28.60200 35.52000
H  45.62300 22.11500 31.86300
H  46.49400 22.21900 25.47400
H  49.11600 28.00200 25.88900
H  47.80300 25.75500 33.88200
H  45.63800 23.92700 33.52300
H  47.27300 22.52800 34.62100
H  48.48400 23.62200 34.13900
H  47.75300 22.32200 33.00400
H  44.99600 26.16800 34.17500
H  45.65600 27.39400 33.03500
H  46.26300 28.51600 34.84600
H  47.39800 27.20400 35.35700
H  45.34200 19.20700 30.18800
H  43.78400 19.57000 29.74900
H  44.51300 20.27300 31.24800
H  43.64900 18.77600 27.80300
H  45.33000 18.18900 27.94700
H  44.66800 17.96700 26.49100
H  46.61100 24.40200 24.01000
H  49.10900 25.69100 24.15600
H  47.92900 22.75800 23.03000
H  48.91200 22.49500 24.48400
H  49.41500 23.58000 23.28700
H  46.95600 26.17600 22.59000
H  47.83200 27.53600 23.10100
H  45.03800 26.83500 23.58500
H  45.78800 28.21600 24.26000
H  45.68500 26.62000 25.12700
H  50.42700 29.58800 26.95300
H  50.66900 30.25800 28.53400
H  49.12600 30.71600 27.54000
H  47.51000 29.08800 32.63400
H  50.65400 29.56300 35.62900
H  50.96500 27.88800 35.37800
H  49.52100 28.43500 36.39300

