158

Mg 7.66100 3.28300 27.02300
C  8.59800 1.50600 29.95900
C  5.80800 5.46600 29.03200
C  6.53400 4.82200 24.28400
C  9.23300 0.93200 25.16500
N  7.31300 3.50000 29.13300
C  7.87400 2.69000 30.15400
C  7.64900 3.30200 31.57200
C  6.57600 4.40800 31.25100
C  6.52300 4.43800 29.70700
C  5.20300 4.12200 31.88400
C  8.92000 3.84800 32.22400
C  8.71500 4.63500 33.58200
H  9.47000 4.06400 34.77600
N  6.30300 4.81100 26.71100
C  5.70900 5.61100 27.66300
C  4.95000 6.65800 26.99700
C  5.12900 6.50800 25.63500
C  6.00200 5.34100 25.46700
C  3.95700 7.53200 27.83200
C  4.59400 7.44700 24.56800
O  4.74700 7.15600 23.36700
C  3.80200 8.65900 24.89300
N  7.88900 2.89000 25.00000
C  7.31400 3.70100 24.06000
C  7.69800 3.29500 22.63700
C  8.62800 2.03800 22.84600
C  8.59900 1.91000 24.41600
C  6.50600 3.10600 21.66600
C  9.99300 2.12400 22.24300
C  10.39800 0.87800 21.50100
N  8.69500 1.54300 27.42900
C  9.34700 0.71600 26.56800
C  9.98200 -0.38100 27.26900
C  9.70600 -0.11800 28.62800
C  8.96800 1.09000 28.67100
C  10.83200 -1.45600 26.58400
C  9.90900 -0.55400 29.96700
O  10.53300 -1.53100 30.40500
C  9.21600 0.46300 30.91200
C  8.25300 -0.26400 31.71600
O  7.31300 -0.89300 31.34600
O  8.38900 0.03700 33.14000
C  7.19400 -0.32100 34.00000
H  5.45900 6.23300 29.72600
H  6.16700 5.35900 23.40700
H  9.85100 0.25500 24.57100
H  7.21700 2.44700 32.09100
H  6.83000 5.41400 31.58400
H  5.24000 3.14100 32.35700
H  4.44200 4.09000 31.10500
H  5.05200 4.89400 32.63900
H  9.34100 4.50900 31.46600
H  9.57700 3.00900 32.45400
H  7.65700 4.65200 33.84600
H  8.94200 5.69600 33.48500
H  2.99700 7.33600 27.35500
H  4.16400 8.59500 27.71200
H  3.86200 7.29100 28.89100
H  2.83400 8.47800 25.36000
H  3.63400 9.10100 23.91100
H  4.35300 9.33700 25.54400
H  8.31200 4.10500 22.24500
H  8.10400 1.14900 22.49500
H  5.52100 3.43000 22.00300
H  6.34300 2.04500 21.47400
H  6.66100 3.73300 20.78800
H  10.79000 2.31300 22.96200
H  9.95500 2.98700 21.57800
H  10.48600 1.16500 20.45300
H  9.74300 0.00700 21.48000
H  11.35700 0.58200 21.92600
H  10.53400 -1.47400 25.53600
H  10.55100 -2.45900 26.90700
H  11.90600 -1.27700 26.62100
H  9.95500 0.89300 31.58800
H  6.87000 0.60800 34.46900
H  7.42000 -1.02500 34.80100
H  6.33600 -0.67000 33.42700
Mg -6.15300 24.73600 27.09600
C  -5.13900 26.35500 30.17700
C  -8.14700 22.75300 29.20100
C  -7.13700 23.08800 24.38400
C  -4.02400 26.82800 25.36800
N  -6.57300 24.53900 29.43400
C  -5.99400 25.27700 30.43500
C  -6.44000 24.83000 31.88000
C  -7.14100 23.49600 31.46300
C  -7.37700 23.61500 29.95500
C  -6.44900 22.12200 31.66700
C  -7.33800 26.00900 32.54700
C  -7.16400 26.12100 34.07600
H  -6.60400 24.92300 34.82200
N  -7.49400 23.22300 26.76700
C  -8.19100 22.60200 27.78000
C  -9.10400 21.60600 27.19800
C  -8.78700 21.57200 25.83100
C  -7.75500 22.67500 25.59900
C  -10.00500 20.70800 27.94700
C  -9.39000 20.73700 24.72800
O  -8.96300 20.78300 23.58000
C  -10.37800 19.64600 25.03600
N  -5.57200 24.91000 25.17900
C  -6.16700 24.11900 24.21400
C  -5.64000 24.51100 22.83300
C  -4.75000 25.80500 23.15000
C  -4.71600 25.83900 24.66400
C  -4.94100 23.38400 22.00200
C  -5.37500 27.06700 22.45800
C  -4.53700 28.18600 21.74900
N  -4.91300 26.22600 27.61900
C  -4.07800 26.93600 26.77600
C  -3.23800 27.80900 27.60400
C  -3.61200 27.62800 28.89900
C  -4.68700 26.67500 28.83800
C  -2.10900 28.72000 27.18700
C  -3.28300 27.99600 30.27500
O  -2.40100 28.72200 30.70600
C  -4.31500 27.23000 31.15100
C  -3.45400 26.44600 32.07000
O  -2.50700 25.81500 31.78600
O  -3.88500 26.64700 33.33100
C  -3.01700 26.30700 34.44500
H  -8.82500 22.15200 29.81000
H  -7.29300 22.51200 23.46900
H  -3.48000 27.55900 24.76600
H  -5.51200 24.64800 32.42400
H  -8.07500 23.56200 32.02100
H  -5.51100 22.30200 32.19200
H  -6.28900 21.50600 30.78300
H  -7.10800 21.59900 32.36100
H  -8.38500 25.92400 32.25500
H  -6.90400 26.95500 32.22600
H  -8.07300 26.33500 34.63700
H  -6.41000 26.89700 34.20600
H  -10.93900 20.83000 27.39900
H  -10.25400 21.13700 28.91800
H  -9.63200 19.68400 27.95500
H  -9.90300 18.90500 25.68000
H  -10.62400 19.12800 24.10900
H  -11.27200 20.21200 25.29500
H  -6.57300 24.80600 22.35400
H  -3.72800 25.73000 22.78000
H  -3.87700 23.54800 22.17700
H  -5.14500 23.39400 20.93200
H  -5.27400 22.40800 22.35500
H  -5.98900 27.63500 23.15600
H  -6.00800 26.75800 21.62500
H  -5.28600 28.77300 21.21800
H  -3.92000 27.67400 21.01000
H  -3.95800 28.73800 22.48900
H  -1.57300 28.27000 26.35200
H  -1.40400 28.75000 28.01900
H  -2.42200 29.69500 26.81600
H  -4.91100 27.98600 31.66400
H  -2.52100 25.33800 34.40700
H  -3.61800 26.38400 35.35200
H  -2.19900 27.02300 34.53400

