158

Mg 9.13800 2.81700 26.66900
C  10.52200 1.15500 29.51800
C  7.28900 4.70700 28.75300
C  7.96400 4.04700 24.07300
C  10.74600 0.15200 24.77600
N  9.00700 2.95100 28.90200
C  9.67000 2.23400 29.90500
C  9.23900 2.68400 31.29800
C  8.03600 3.72300 31.01000
C  8.18800 3.88200 29.50200
C  6.61400 3.19600 31.45000
C  10.48300 3.09500 32.23000
C  10.39100 4.14400 33.37500
H  10.96000 3.86700 34.76000
N  7.81900 4.17400 26.43900
C  7.15900 4.94200 27.36500
C  6.34900 5.95500 26.70700
C  6.57700 5.86400 25.27400
C  7.45200 4.61800 25.21300
C  5.72100 7.00900 27.44600
C  6.08600 6.75900 24.13900
O  6.45000 6.56900 22.98900
C  5.07800 7.89300 24.40800
N  9.39800 2.22800 24.69500
C  8.79400 2.93700 23.75300
C  9.15800 2.48600 22.32100
C  10.02200 1.23200 22.57400
C  10.15500 1.25600 24.12400
C  7.97500 2.24800 21.36500
C  11.39300 1.20800 21.84400
C  11.19700 1.07900 20.31600
N  10.39100 1.08800 27.03200
C  10.92800 0.10000 26.15600
C  11.56100 -0.95200 26.90600
C  11.52200 -0.46200 28.24600
C  10.81800 0.71800 28.27000
C  12.11900 -2.16800 26.38300
C  11.92900 -0.83900 29.53900
O  12.56700 -1.79200 29.87300
C  11.23600 0.18900 30.49900
C  10.30800 -0.56600 31.39100
O  9.24000 -1.02800 31.09800
O  10.84200 -0.60400 32.64400
C  10.08800 -1.30100 33.71700
H  6.63700 5.31200 29.38600
H  7.48800 4.44500 23.17400
H  11.21700 -0.61600 24.15900
H  8.73200 1.80600 31.69900
H  8.15900 4.63700 31.59100
H  5.97200 3.06600 30.57900
H  6.19400 3.93100 32.13600
H  6.83000 2.26600 31.97600
H  11.22200 3.64300 31.64500
H  10.92900 2.20500 32.67500
H  9.33100 4.39000 33.44400
H  10.91900 5.02500 33.01200
H  6.22300 7.96500 27.29600
H  5.71900 6.69800 28.49100
H  4.74000 7.12200 26.98400
H  4.16800 7.43300 24.79500
H  4.85000 8.30600 23.42500
H  5.55000 8.58000 25.11000
H  9.80100 3.26700 21.91500
H  9.40300 0.39600 22.24900
H  7.02700 2.64400 21.73000
H  7.93100 1.21000 21.03500
H  8.20400 2.77800 20.44100
H  11.85500 0.25600 22.10800
H  12.00900 2.07700 22.07700
H  10.16800 1.34600 20.07600
H  11.37300 0.05100 19.99900
H  11.85600 1.76300 19.78100
H  11.35000 -2.49900 25.68500
H  12.14500 -2.84400 27.23800
H  13.04200 -1.95700 25.84300
H  11.90800 0.74600 31.15300
H  10.48100 -2.28900 33.95700
H  9.05200 -1.39900 33.39300
H  9.97400 -0.73800 34.64400
Mg 35.76800 49.50600 25.25300
C  35.83700 47.52100 28.12100
C  35.04100 52.30800 27.22800
C  35.38200 51.20700 22.39100
C  36.36400 46.61600 23.36500
N  35.24100 49.81600 27.30100
C  35.54800 48.86700 28.33600
C  35.41200 49.56900 29.72800
C  34.83000 51.01800 29.42100
C  35.14000 51.07800 27.85300
C  33.32500 51.07500 29.90900
C  36.85000 49.57600 30.36900
C  36.84100 49.42700 31.89800
H  35.68000 49.93600 32.74300
N  35.43500 51.47000 24.88300
C  35.15700 52.52600 25.80600
C  35.01000 53.76500 25.07800
C  35.12000 53.45100 23.67800
C  35.34300 51.97900 23.58300
C  34.88900 55.05700 25.73900
C  35.05200 54.38200 22.53100
O  35.07600 53.98000 21.34200
C  35.05700 55.88000 22.83000
N  36.03500 49.03700 23.20000
C  35.63200 49.86100 22.19200
C  35.64800 49.21300 20.83300
C  36.21600 47.83800 21.14900
C  36.26500 47.84200 22.68900
C  34.29200 49.19400 19.92000
C  37.61800 47.50000 20.63800
C  38.03200 46.00400 20.40800
N  36.01800 47.42900 25.61000
C  36.28600 46.38600 24.75900
C  36.40800 45.21600 25.51000
C  36.22600 45.61300 26.86300
C  35.95900 46.96100 26.85400
C  36.72300 43.88300 24.90000
C  36.29900 45.16100 28.20300
O  36.63100 44.06500 28.62300
C  35.98300 46.35600 29.07400
C  34.71100 46.12400 29.79600
O  33.60400 46.36300 29.36200
O  35.05100 45.72000 31.03900
C  33.91000 45.76000 31.96800
H  34.76800 53.17200 27.83600
H  35.16600 51.76900 21.48000
H  36.60700 45.78600 22.69900
H  34.77900 48.98900 30.40000
H  35.43600 51.71800 29.99700
H  33.09300 52.11100 30.15600
H  33.26800 50.57600 30.87700
H  32.50300 50.80300 29.24800
H  37.36700 50.45100 29.97400
H  37.41800 48.75400 29.93400
H  37.69000 50.05400 32.17200
H  37.21200 48.44300 32.18400
H  35.73500 55.71500 25.53800
H  34.77300 55.05700 26.82300
H  33.99600 55.59500 25.42000
H  34.11800 56.11100 23.33400
H  35.03900 56.43200 21.89100
H  35.99100 56.10100 23.34500
H  36.36000 49.64400 20.12900
H  35.57400 47.10800 20.65700
H  33.43000 49.67300 20.38400
H  34.00800 48.17600 19.65400
H  34.48600 49.61900 18.93500
H  38.40000 47.94100 21.25500
H  37.77700 47.89500 19.63500
H  38.87500 45.97500 19.71800
H  37.29200 45.49800 19.78900
H  38.22800 45.47500 21.34100
H  37.24800 43.24200 25.60800
H  37.46400 43.92700 24.10200
H  35.89700 43.37500 24.40400
H  36.83400 46.36400 29.75400
H  34.23000 45.27800 32.89200
H  33.01300 45.20700 31.68800
H  33.61200 46.76300 32.27500

