158

Mg 44.39400 3.04400 46.66300
C  42.56700 5.95600 46.21100
C  41.57100 1.26100 46.15700
C  46.50000 0.42100 46.40100
C  47.36300 5.12900 46.27000
N  42.26700 3.56100 46.05100
C  41.75400 4.84400 45.95800
C  40.17700 4.75600 45.98300
C  39.95600 3.27300 46.11400
C  41.30300 2.63800 46.17100
C  39.04400 2.75900 47.22700
C  39.55000 5.43000 44.76300
C  40.10700 4.80200 43.39600
H  40.99500 5.53800 42.49200
N  44.07400 1.15400 46.28500
C  42.80400 0.57300 46.10800
C  43.01900 -0.87100 46.00100
C  44.41400 -1.10000 45.93700
C  45.12000 0.20300 46.24000
C  41.92300 -1.87400 45.89000
C  45.16000 -2.44600 45.67100
O  44.61500 -3.49300 45.45000
C  46.58400 -2.54900 45.50400
N  46.59700 2.80800 46.43900
C  47.20600 1.60500 46.55800
C  48.76100 1.71900 46.69800
C  48.92900 3.22900 46.30800
C  47.52200 3.71700 46.38800
C  49.17500 1.22500 48.15200
C  49.60800 3.43300 44.92200
C  51.10500 3.70800 44.92200
N  44.90900 5.09000 46.40100
C  46.10600 5.78900 46.34500
C  45.92000 7.21700 46.36000
C  44.48500 7.28100 46.36700
C  43.97300 5.98900 46.33800
C  46.99200 8.17900 46.37100
C  43.43500 8.21200 46.33900
O  43.47300 9.47800 46.31300
C  42.08300 7.41900 46.17700
C  41.27000 7.61800 47.47500
O  41.09000 6.79100 48.36100
O  40.53600 8.83000 47.44600
C  39.42000 8.91100 48.37000
H  40.68100 0.64000 46.03300
H  47.24700 -0.35900 46.56000
H  48.20800 5.81700 46.35400
H  39.71100 5.23900 46.84100
H  39.64800 2.80400 45.18000
H  38.16500 2.27700 46.80100
H  38.79100 3.58300 47.89500
H  39.47700 1.97700 47.85200
H  39.83700 6.48100 44.71100
H  38.46100 5.38400 44.78300
H  39.20000 4.68000 42.80400
H  40.58900 3.82600 43.46300
H  41.52000 -1.94000 44.87900
H  41.07000 -1.59900 46.51000
H  42.16000 -2.90500 46.15100
H  46.93300 -1.72800 44.87700
H  46.80500 -3.54000 45.10700
H  47.05200 -2.55800 46.48800
H  49.13800 0.95000 46.02400
H  49.50700 3.80600 47.03000
H  49.77600 1.95800 48.69100
H  49.72400 0.28500 48.11100
H  48.29300 1.09200 48.77900
H  49.06600 4.00500 44.16800
H  49.70700 2.46300 44.43300
H  51.55600 3.77900 45.91100
H  51.19000 4.64600 44.37200
H  51.62100 2.94300 44.34200
H  47.51900 8.17000 47.32500
H  46.54500 9.17100 46.31300
H  47.57300 7.97100 45.47300
H  41.45500 7.69300 45.32900
H  39.17100 9.96500 48.49500
H  39.45900 8.41600 49.34000
H  38.60100 8.40700 47.85800
Mg 26.38800 51.10500 26.57200
C  24.21100 52.21000 29.20300
C  28.81800 50.49700 28.98500
C  28.49400 50.75300 24.02700
C  23.99000 52.38400 24.44600
N  26.51100 51.42500 28.76900
C  25.48700 51.76700 29.61500
C  25.96900 51.57300 31.09600
C  27.53100 51.32700 30.97000
C  27.65100 51.02000 29.49400
C  28.55300 52.50700 31.35400
C  25.14200 50.45600 31.92200
C  24.34700 50.86400 33.20300
H  24.60100 49.92800 34.38800
N  28.34600 50.55500 26.51800
C  29.15400 50.27800 27.60500
C  30.36500 49.71200 27.19400
C  30.28200 49.70900 25.71300
C  29.02700 50.37900 25.35900
C  31.37500 49.09700 28.17000
C  31.32400 49.18200 24.67500
O  31.11300 49.29000 23.45600
C  32.53100 48.56900 25.22800
N  26.33200 51.70400 24.56500
C  27.29500 51.35800 23.66600
C  26.89800 51.73800 22.21800
C  25.37400 51.91100 22.38400
C  25.23100 52.05900 23.88700
C  27.73300 52.99000 21.77100
C  24.52700 50.75700 21.87600
C  23.06500 51.09600 21.62600
N  24.50200 52.03200 26.74700
C  23.63100 52.43100 25.76100
C  22.32000 52.78900 26.29900
C  22.55400 52.81600 27.68000
C  23.86800 52.32700 27.84600
C  21.06000 53.11700 25.48900
C  21.94700 53.02800 28.97500
O  20.85200 53.46300 29.32800
C  23.00200 52.65900 29.98200
C  23.23700 53.90900 30.80200
O  23.94000 54.91600 30.51000
O  22.64900 53.79000 32.02100
C  22.97600 54.84200 33.04800
H  29.55700 50.27700 29.75800
H  29.16400 50.67200 23.16900
H  23.25800 52.76800 23.73200
H  25.88100 52.59100 31.47600
H  27.86900 50.45100 31.52400
H  29.01600 52.42600 32.33700
H  28.00300 53.44800 31.36200
H  29.33200 52.61700 30.59900
H  25.82300 49.66400 32.23400
H  24.46200 49.99400 31.20700
H  23.27400 50.87500 33.01000
H  24.42900 51.93300 33.40000
H  31.08300 48.04700 28.19600
H  31.34600 49.49400 29.18400
H  32.38500 49.22100 27.77900
H  33.13300 49.31800 25.74100
H  33.08000 48.17300 24.37300
H  32.34000 47.78800 25.96400
H  27.10900 50.91000 21.54000
H  25.04800 52.82200 21.88100
H  28.64100 53.03300 22.37100
H  27.15800 53.91600 21.80500
H  28.07700 52.78200 20.75800
H  24.65600 50.01500 22.66300
H  24.90600 50.38300 20.92500
H  22.54400 50.56200 22.42000
H  22.73300 50.63400 20.69600
H  22.92300 52.17500 21.67400
H  21.10700 54.20600 25.50000
H  20.12400 52.81400 25.95900
H  21.18400 52.67900 24.49800
H  22.71100 51.80100 30.58800
H  23.66100 55.63600 32.75000
H  23.33600 54.28400 33.91200
H  22.12000 55.46100 33.31600

