158

Mg 1.15900 8.32700 25.08300
C  1.93500 10.35500 27.96400
C  1.32100 5.65100 27.17200
C  0.84700 6.41800 22.45300
C  1.50900 11.16700 23.10300
N  1.61300 8.11200 27.39900
C  1.75300 9.01300 28.32200
C  1.64900 8.36000 29.73700
C  1.67300 6.83300 29.40500
C  1.55700 6.80300 27.85300
C  2.91600 6.02600 29.96200
C  0.46500 8.79800 30.65200
C  0.77200 9.23000 32.03200
H  1.74600 8.48400 32.94400
N  1.07000 6.29100 24.79500
C  1.09400 5.36200 25.79300
C  0.92500 3.95400 25.28500
C  0.77500 4.19600 23.83900
C  0.91400 5.67300 23.61400
C  0.90400 2.70800 26.12800
C  0.54300 3.23300 22.80600
O  0.46300 3.58200 21.62400
C  0.37100 1.79400 23.14200
N  1.50400 8.65000 22.91500
C  1.04300 7.72000 22.10000
C  0.84400 8.22700 20.69200
C  1.13100 9.76600 20.86000
C  1.33600 9.89900 22.38300
C  1.75400 7.56800 19.51000
C  0.02800 10.67000 20.27500
C  -1.19000 11.12500 21.17500
N  1.53100 10.34500 25.34600
C  1.69900 11.36100 24.41100
C  2.04800 12.60600 25.14800
C  2.04300 12.24300 26.50100
C  1.80600 10.86300 26.54500
C  2.20800 14.03300 24.47700
C  2.20700 12.74900 27.83100
O  2.37000 13.93200 28.16900
C  2.10200 11.61100 28.89900
C  3.28100 11.66300 29.82400
O  4.37400 11.30900 29.35100
O  2.98000 11.97400 31.14900
C  4.06800 12.03000 32.09000
H  1.32100 4.75700 27.79800
H  0.62100 5.90300 21.51600
H  1.50700 11.99300 22.38900
H  2.60200 8.55800 30.22700
H  0.80100 6.30000 29.78300
H  2.56900 5.41000 30.79100
H  3.72400 6.61500 30.39500
H  3.29100 5.29400 29.24600
H  -0.25600 7.98100 30.67000
H  0.05100 9.67300 30.15100
H  -0.18300 9.29800 32.55300
H  1.03100 10.28500 31.94100
H  0.53400 1.77300 25.70800
H  0.27900 2.97300 26.98000
H  1.90200 2.54800 26.53500
H  1.20600 1.38300 23.70900
H  0.21300 1.04700 22.36500
H  -0.58500 1.71600 23.66000
H  -0.18000 8.05000 20.36100
H  2.08100 10.14700 20.48600
H  2.48600 6.87500 19.92600
H  2.27700 8.32100 18.92000
H  1.13500 7.06000 18.77100
H  -0.42000 10.13300 19.43900
H  0.43700 11.63300 19.96900
H  -1.04900 12.14500 21.53000
H  -1.17700 10.34400 21.93500
H  -2.16600 11.05700 20.69500
H  1.27700 14.59800 24.52300
H  2.32600 13.96100 23.39600
H  2.92200 14.71900 24.93300
H  1.18600 11.67000 29.48800
H  4.36300 13.06100 32.28500
H  4.84600 11.31700 31.81400
H  3.57600 11.71000 33.00800
Mg 26.24100 -1.19200 29.90900
C  28.09600 -0.81400 32.72600
C  23.49300 -0.67700 31.83100
C  24.30500 -1.63900 27.14300
C  29.19600 -1.73100 28.03500
N  25.80000 -0.80000 32.00700
C  26.70400 -0.51700 32.97900
C  26.05400 -0.28300 34.39800
C  24.54200 -0.69400 34.11800
C  24.55000 -0.78500 32.57700
C  23.94000 -1.91200 34.90700
C  26.34300 1.15000 35.00500
C  26.87800 0.97000 36.47800
H  26.12800 1.84500 37.54500
N  24.18500 -1.27600 29.60000
C  23.25100 -0.96800 30.51600
C  21.92900 -0.93600 29.86800
C  22.16500 -1.22800 28.51000
C  23.59100 -1.39500 28.38400
C  20.61900 -0.65500 30.66800
C  21.20900 -1.17200 27.30700
O  21.57200 -1.40800 26.14500
C  19.75900 -0.84500 27.58400
N  26.68800 -1.86800 27.91800
C  25.69900 -1.78800 26.95200
C  26.36300 -1.85600 25.52800
C  27.89100 -1.82800 25.83800
C  28.02700 -1.72900 27.35400
C  25.97400 -3.13600 24.64900
C  28.61000 -0.58300 25.14000
C  28.40600 0.87500 25.66600
N  28.22100 -1.36400 30.26000
C  29.34400 -1.60700 29.41600
C  30.52400 -1.49000 30.24200
C  30.07300 -1.21600 31.57200
C  28.64400 -1.16300 31.50500
C  31.79300 -1.72200 29.68100
C  30.53000 -0.94700 32.93200
O  31.65400 -0.96800 33.38800
C  29.20600 -0.70800 33.77300
C  29.18900 -1.60800 34.98800
O  28.56100 -2.62200 35.13200
O  29.86700 -0.96900 35.97100
C  29.67900 -1.42100 37.39000
H  22.61200 -0.58500 32.46900
H  23.77000 -1.69100 26.19200
H  30.10200 -1.94400 27.46500
H  26.65300 -1.08600 34.82900
H  23.91700 0.13800 34.44300
H  23.23400 -1.62200 35.68500
H  24.61200 -2.60400 35.41500
H  23.58800 -2.65700 34.19300
H  25.45900 1.78600 35.04900
H  27.04800 1.71200 34.39100
H  27.90800 1.31600 36.39400
H  26.87900 -0.01900 36.93500
H  20.17800 0.33400 30.54100
H  20.84300 -0.83400 31.71900
H  19.93500 -1.40800 30.27900
H  19.31900 -0.63600 26.60900
H  19.69300 0.12500 28.07700
H  19.29700 -1.69700 28.08300
H  25.93800 -1.04000 24.94300
H  28.27500 -2.75100 25.40400
H  25.81900 -3.96200 25.34300
H  26.75400 -3.39900 23.93400
H  25.10500 -2.85100 24.05600
H  28.20800 -0.57700 24.12700
H  29.64700 -0.92000 25.13600
H  29.33300 1.17800 26.15400
H  27.69500 0.92600 26.49100
H  28.21400 1.65400 24.92800
H  31.91800 -1.65900 28.60000
H  32.13300 -2.69400 30.03800
H  32.49100 -1.00200 30.10800
H  29.29200 0.35200 34.01300
H  30.36500 -2.25000 37.56400
H  28.67100 -1.80600 37.54300
H  29.99900 -0.76500 38.19900

