158

Mg 35.52300 1.29300 29.64700
C  33.31500 1.95800 32.29700
C  38.14700 1.12400 31.86200
C  37.68300 0.52400 27.06700
C  32.88600 1.34000 27.42800
N  35.64600 1.60500 31.78700
C  34.64500 1.86100 32.69200
C  35.17400 1.86800 34.04700
C  36.68400 1.94400 33.88000
C  36.89400 1.43200 32.41500
C  37.41700 3.31200 34.06700
C  34.74700 0.55100 34.81000
C  34.19400 0.71100 36.28200
H  34.80900 1.77400 37.16600
N  37.58900 0.92700 29.46800
C  38.44000 0.77500 30.58900
C  39.78800 0.38900 30.11100
C  39.77700 0.35900 28.70400
C  38.30000 0.53900 28.35600
C  41.00300 0.07000 31.03600
C  40.85100 0.00800 27.60700
O  40.73300 0.32000 26.45200
C  42.14700 -0.47900 28.03900
N  35.31600 0.94100 27.52100
C  36.39500 0.66500 26.66200
C  35.94300 0.65100 25.21100
C  34.41500 0.76300 25.36300
C  34.16300 1.07100 26.83100
C  36.70100 1.54100 24.16200
C  33.53500 -0.47000 24.82800
C  32.20100 -0.14500 24.05800
N  33.59000 1.74000 29.78600
C  32.66200 1.82300 28.73000
C  31.36800 2.15100 29.27800
C  31.53200 2.06900 30.66300
C  32.90900 1.87300 30.95400
C  30.20100 2.49900 28.45400
C  30.87200 2.16900 31.95100
O  29.68500 2.33600 32.08200
C  31.94200 2.12700 33.00400
C  31.81300 3.37800 33.80500
O  32.20100 4.48700 33.40300
O  31.27500 3.10800 35.03500
C  31.18500 4.29800 35.89600
H  38.97100 1.11900 32.57800
H  38.35000 0.38000 26.21500
H  32.04200 1.30000 26.73700
H  34.77800 2.72700 34.58800
H  37.19000 1.22700 34.52600
H  37.61100 3.68300 33.06000
H  38.30200 3.01700 34.63100
H  36.83100 3.97200 34.70700
H  35.51300 -0.21500 34.92600
H  33.91200 0.27300 34.16700
H  34.32900 -0.23800 36.80000
H  33.16600 1.07000 36.23300
H  40.73800 -0.13900 32.07200
H  41.80900 0.79700 30.94400
H  41.39100 -0.85400 30.60700
H  42.43000 0.17400 28.86500
H  42.85700 -0.35100 27.22200
H  42.09600 -1.51300 28.38000
H  36.16200 -0.32800 24.78500
H  34.03800 1.63200 24.82500
H  35.88300 1.92900 23.55500
H  37.48800 1.03300 23.60400
H  37.18000 2.32200 24.75100
H  33.30700 -1.08800 25.69700
H  34.20100 -0.94200 24.10500
H  32.49000 -0.03800 23.01300
H  31.91300 0.89600 24.19800
H  31.38400 -0.86400 24.11700
H  29.87800 3.46100 28.85300
H  29.52700 1.65100 28.57200
H  30.50800 2.60700 27.41400
H  31.57200 1.34100 33.66200
H  32.16200 4.76200 36.03300
H  30.90900 4.10700 36.93300
H  30.46900 4.93300 35.37400
Mg 36.50300 49.48900 25.05200
C  36.73500 47.73000 28.20000
C  35.63100 52.35600 26.83100
C  36.41000 51.16300 22.20200
C  37.24700 46.45900 23.49900
N  36.20100 49.88700 27.21400
C  36.52100 49.10900 28.31100
C  36.41100 49.90500 29.63200
C  35.85000 51.29500 29.19600
C  35.81100 51.19500 27.60900
C  34.51000 51.74000 29.89700
C  37.81400 50.05400 30.25300
C  38.04300 50.17800 31.83700
H  36.76300 50.40100 32.67100
N  36.02900 51.52500 24.58500
C  35.63700 52.50800 25.41100
C  35.49200 53.75400 24.66800
C  35.67400 53.41600 23.23800
C  35.98900 51.97800 23.31400
C  34.99200 55.01200 25.27400
C  35.56200 54.26900 22.01300
O  35.69000 53.83400 20.82800
C  35.38500 55.67900 22.27600
N  36.60800 48.87400 23.10700
C  36.65200 49.81000 22.07700
C  37.11600 49.13500 20.75200
C  37.60000 47.64700 21.24300
C  37.14300 47.62700 22.70700
C  36.04400 49.13500 19.57200
C  39.14300 47.48000 21.09000
C  39.55700 46.04100 20.69100
N  36.75600 47.50900 25.62400
C  37.06900 46.40200 24.86000
C  37.14500 45.26400 25.70600
C  37.01500 45.78600 27.01000
C  36.76900 47.13900 26.93500
C  37.60200 43.96700 25.35200
C  37.12100 45.37200 28.39200
O  37.46500 44.36300 28.94000
C  36.84700 46.65900 29.23400
C  35.63500 46.37300 30.11300
O  34.65900 45.85200 29.62500
O  35.94200 46.69300 31.40500
C  34.78000 46.39500 32.29400
H  35.48900 53.24100 27.45400
H  36.33600 51.65600 21.23000
H  37.51100 45.55200 22.95100
H  35.68300 49.47800 30.32300
H  36.50700 52.15000 29.35400
H  34.67400 52.61600 30.52500
H  34.13200 51.05600 30.65600
H  33.66500 51.94400 29.23900
H  38.34300 50.86600 29.75400
H  38.37500 49.17100 29.94600
H  38.70600 51.04200 31.88000
H  38.56000 49.31500 32.25700
H  35.67900 55.82400 25.03300
H  35.13200 55.09300 26.35300
H  33.96900 55.35800 25.13000
H  36.13300 56.06100 22.97100
H  34.35100 55.95700 22.47800
H  35.63500 56.14800 21.32500
H  37.96800 49.73600 20.43500
H  36.95100 46.95900 20.70000
H  35.07800 49.12900 20.07600
H  36.09700 48.32400 18.84600
H  36.22500 50.08800 19.07500
H  39.71300 47.44600 22.01900
H  39.63800 48.21900 20.46000
H  38.68100 45.39300 20.71800
H  40.28200 45.61200 21.38300
H  40.05500 46.09500 19.72300
H  38.42200 43.65200 25.99600
H  37.80600 43.81400 24.29300
H  36.72000 43.34700 25.51200
H  37.70900 46.90400 29.85500
H  34.55800 45.33300 32.19400
H  33.94700 47.06900 32.09400
H  34.99600 46.46800 33.36000

