158

Mg 24.72000 -6.06900 45.67900
C  26.80600 -3.70700 44.39200
C  22.18200 -4.91400 43.73300
C  22.96700 -8.95000 46.33600
C  27.45800 -7.30100 47.54900
N  24.57500 -4.44700 44.17000
C  25.58800 -3.67300 43.75100
C  25.12400 -2.74200 42.52500
C  23.56300 -2.96100 42.63200
C  23.40300 -4.15700 43.53900
C  22.70000 -1.78800 43.08900
C  25.72300 -3.29000 41.19200
C  26.44700 -2.24500 40.27800
H  25.94100 -2.22200 38.76100
N  22.75200 -6.82000 45.18000
C  21.91700 -6.16700 44.38200
C  20.71800 -7.00000 44.30400
C  20.88800 -8.15100 44.98200
C  22.25600 -8.00900 45.57400
C  19.59600 -6.62300 43.30800
C  19.86900 -9.29600 45.10000
O  18.72600 -9.11400 44.62400
C  20.13600 -10.50900 45.86000
N  25.12600 -7.82900 46.78900
C  24.25700 -8.84000 46.93600
C  24.84100 -10.04000 47.75300
C  26.19000 -9.46800 48.22800
C  26.29900 -8.11900 47.47100
C  23.87800 -10.59500 48.84000
C  27.34100 -10.51000 48.09200
C  28.32200 -10.54900 49.29600
N  26.67400 -5.47100 46.19600
C  27.70200 -6.14900 46.83500
C  28.94400 -5.46500 46.61900
C  28.61800 -4.41700 45.69300
C  27.30300 -4.54500 45.45600
C  30.30400 -5.73900 47.22600
C  29.15600 -3.29500 44.99200
O  30.31100 -2.88600 44.96500
C  28.01400 -2.91600 43.96900
C  27.69300 -1.46600 44.02900
O  26.96400 -0.98000 44.84900
O  28.30100 -0.90000 42.95700
C  28.28500 0.55900 42.99900
H  21.42200 -4.41400 43.12800
H  22.41600 -9.87900 46.49900
H  28.32800 -7.80200 47.98100
H  25.41200 -1.72700 42.79900
H  23.23900 -3.43100 41.70300
H  22.18200 -2.10800 43.99300
H  22.05000 -1.43000 42.29000
H  23.27700 -0.95500 43.49100
H  24.95200 -3.80400 40.61900
H  26.47700 -4.02200 41.48300
H  27.40300 -2.76900 40.27000
H  26.50500 -1.26500 40.75100
H  20.00000 -6.05500 42.47000
H  18.70800 -6.19000 43.76800
H  19.35500 -7.55400 42.79500
H  19.23100 -11.11100 45.78800
H  20.34300 -10.27900 46.90500
H  20.95400 -11.02000 45.35200
H  24.95200 -10.74800 46.93200
H  26.07300 -9.27500 49.29400
H  23.60100 -11.59200 48.49800
H  23.02500 -9.92900 48.97100
H  24.38500 -10.63700 49.80400
H  27.87200 -10.27000 47.17100
H  26.86900 -11.48800 47.99600
H  29.34900 -10.87700 49.13800
H  27.93100 -11.16300 50.10700
H  28.34800 -9.49800 49.58400
H  30.39400 -5.27500 48.20800
H  31.05700 -5.37300 46.52800
H  30.63300 -6.76300 47.40200
H  28.27500 -3.28400 42.97700
H  28.45000 0.82400 41.95500
H  29.12500 1.03400 43.50600
H  27.34300 1.00600 43.31500
Mg 41.25900 40.95600 27.33600
C  40.95000 43.51600 29.67600
C  42.52200 38.94300 29.88100
C  42.24500 38.70100 24.96600
C  40.42600 43.16100 24.79500
N  41.82200 41.31200 29.53500
C  41.45600 42.36700 30.26600
C  41.55400 42.12800 31.74800
C  42.25500 40.68800 31.85700
C  42.19900 40.27700 30.37200
C  43.66300 40.65000 32.44500
C  40.20500 42.11100 32.48300
C  40.11200 43.12000 33.73900
H  39.45400 42.62600 35.01600
N  42.33300 39.13800 27.36600
C  42.67100 38.46900 28.53400
C  43.27400 37.21100 28.21900
C  43.12800 37.08500 26.80600
C  42.52300 38.35200 26.30200
C  43.81400 36.22100 29.27500
C  43.54800 35.97700 25.91500
O  43.43400 36.06700 24.72400
C  44.07200 34.69200 26.43500
N  41.58200 41.03800 25.20400
C  42.00000 39.98600 24.40600
C  41.68100 40.12600 22.92200
C  40.93500 41.49800 22.95800
C  40.87800 41.89400 24.45400
C  42.96900 39.99500 21.94500
C  39.61300 41.42900 22.29000
C  38.38800 41.14200 23.19500
N  40.83200 42.90800 27.15200
C  40.45900 43.67300 26.10900
C  40.17000 44.98300 26.55900
C  40.25100 44.94000 27.98400
C  40.78100 43.68200 28.29100
C  40.00400 46.16000 25.52200
C  40.19200 45.74000 29.12800
O  39.86200 46.88700 29.27300
C  40.62200 44.79300 30.31500
C  41.70400 45.59800 31.02000
O  42.56300 46.26200 30.41900
O  41.46800 45.76100 32.35200
C  41.97500 47.02000 32.93300
H  42.82100 38.40200 30.78100
H  42.32800 38.00100 24.13100
H  40.02900 43.82100 24.02100
H  42.26600 42.89300 32.05900
H  41.72900 39.92300 32.42800
H  43.77700 39.76700 33.07400
H  43.80000 41.56300 33.02400
H  44.41600 40.69100 31.65700
H  39.89300 41.13600 32.85700
H  39.39800 42.38500 31.80400
H  39.52000 43.96800 33.39300
H  41.11200 43.48700 33.96800
H  43.60100 35.15900 29.15600
H  43.55500 36.43300 30.31200
H  44.90100 36.28500 29.23100
H  43.96300 33.89100 25.70300
H  43.42500 34.26500 27.20100
H  45.08900 34.82600 26.80300
H  41.03500 39.27300 22.71100
H  41.58100 42.24600 22.49900
H  42.77800 40.59100 21.05300
H  42.92600 38.92300 21.75400
H  43.86300 40.38900 22.42900
H  39.58600 40.66800 21.51100
H  39.44800 42.43000 21.89300
H  37.87300 40.26300 22.80800
H  37.75400 42.02100 23.07300
H  38.64300 40.92800 24.23300
H  39.46500 46.99600 25.96900
H  39.72600 45.67200 24.58800
H  41.04900 46.41400 25.34600
H  39.85700 44.72900 31.08900
H  43.02800 46.91400 33.19400
H  41.48700 47.25400 33.87900
H  41.88400 47.81300 32.19100

