158

Mg 47.14600 16.58000 28.47000
C  45.16300 16.32700 31.40700
C  49.37800 18.37400 30.12700
C  48.52000 17.10600 25.54400
C  44.40900 15.11300 26.77700
N  47.18600 17.24300 30.62100
C  46.38400 16.98200 31.63400
C  46.98500 17.50000 32.97500
C  48.18600 18.34800 32.42900
C  48.32100 17.91400 30.99000
C  47.76700 19.83800 32.50000
C  47.43700 16.37400 33.92400
C  46.85400 16.45800 35.33000
H  46.96000 17.84700 36.00200
N  48.77500 17.50200 27.95500
C  49.65400 18.12100 28.81400
C  50.83400 18.39800 28.09700
C  50.56300 18.20300 26.70400
C  49.21400 17.57700 26.67700
C  52.07900 18.68200 28.95600
C  51.34300 18.47600 25.45900
O  50.95600 18.17900 24.32500
C  52.69600 19.19300 25.59100
N  46.56700 16.12000 26.43900
C  47.26500 16.50600 25.41400
C  46.70300 16.07800 24.09600
C  45.46500 15.22400 24.52000
C  45.46900 15.53400 25.99600
C  46.39000 17.30200 23.08300
C  45.68900 13.71500 24.19400
C  45.08300 13.40500 22.80000
N  45.19300 15.95700 28.85200
C  44.21300 15.41000 28.09000
C  43.02700 15.07900 28.89600
C  43.42700 15.44200 30.20300
C  44.70200 15.97300 30.11100
C  41.72000 14.48200 28.37100
C  42.98100 15.45900 31.56300
O  41.89700 15.09800 32.04000
C  44.20200 15.91800 32.40400
C  43.71500 16.98400 33.37400
O  43.58200 18.19100 33.19100
O  43.32400 16.37000 34.55300
C  42.57400 17.25000 35.45900
H  50.10400 18.99700 30.65300
H  49.06500 17.03100 24.60100
H  43.47200 14.67900 26.42400
H  46.09100 17.95300 33.40300
H  49.16700 18.20500 32.88100
H  47.23000 20.08700 31.58500
H  48.71600 20.34600 32.67100
H  47.07300 19.97400 33.33000
H  48.50400 16.23900 34.10200
H  47.13800 15.42700 33.47500
H  47.29100 15.70400 35.98500
H  45.78900 16.24900 35.22800
H  52.96500 18.36600 28.40600
H  52.02400 18.01100 29.81300
H  52.16400 19.72200 29.27200
H  53.25200 19.29900 24.66000
H  53.26600 18.44500 26.14200
H  52.42100 20.16100 26.00900
H  47.32900 15.37000 23.55200
H  44.54000 15.63100 24.11400
H  47.09500 17.29000 22.25200
H  46.40900 18.23100 23.65200
H  45.39000 17.20000 22.66200
H  45.13800 13.13300 24.93300
H  46.74600 13.46700 24.28500
H  45.14300 14.25000 22.11400
H  44.03700 13.10100 22.82200
H  45.69700 12.56300 22.47900
H  41.42600 14.75900 27.35900
H  40.87500 14.75000 29.00500
H  41.91200 13.41200 28.45300
H  44.53800 14.97100 32.82800
H  41.53000 17.27600 35.14700
H  42.96400 18.23900 35.69900
H  42.52300 16.76000 36.43200
Mg 49.08700 35.60000 27.79300
C  47.14000 33.89600 30.20900
C  49.65100 38.17700 30.14600
C  50.88400 36.98600 25.46500
C  47.88800 33.15300 25.49300
N  48.51200 35.95100 29.87200
C  47.75000 35.09700 30.65800
C  47.92000 35.60400 32.11100
C  48.21500 37.16000 31.90200
C  48.95300 37.04200 30.57200
C  46.89900 37.95700 31.89000
C  49.04600 34.74100 32.79900
C  48.81500 34.35800 34.27500
H  47.97500 35.26900 35.12600
N  50.01100 37.39600 27.84800
C  50.25000 38.28000 28.85900
C  51.06700 39.39900 28.37700
C  51.44900 39.05000 27.04700
C  50.77200 37.74800 26.72000
C  51.37800 40.59400 29.25200
C  52.43000 39.74800 26.11600
O  52.77200 39.30100 25.05500
C  53.11600 41.01000 26.55500
N  49.24100 35.26000 25.82100
C  50.19200 35.88200 25.06300
C  50.37700 35.26300 23.70600
C  49.62700 33.91300 23.86900
C  48.87100 34.07800 25.15600
C  49.91600 36.15600 22.52300
C  50.35800 32.56900 23.89100
C  50.04400 31.59800 22.82400
N  47.93300 33.76300 27.81500
C  47.51100 32.95500 26.77900
C  46.70000 31.86500 27.36600
C  46.43300 32.22900 28.63100
C  47.18800 33.41000 28.86600
C  46.13300 30.62100 26.67100
C  45.64600 31.91000 29.80200
O  44.96000 30.91700 30.07800
C  46.01500 33.08500 30.83500
C  46.45500 32.45600 32.10800
O  47.46200 31.75600 32.29500
O  45.43300 32.61000 33.03800
C  45.69400 31.96500 34.33500
H  49.77100 39.01800 30.83200
H  51.57300 37.34500 24.69800
H  47.68200 32.41100 24.71800
H  46.94400 35.42800 32.56300
H  48.92200 37.57900 32.61900
H  46.88400 38.53000 32.81600
H  45.96000 37.40300 31.90600
H  46.88100 38.61500 31.02200
H  49.88300 35.42400 32.65800
H  49.23700 33.87300 32.16800
H  49.71900 34.37200 34.88500
H  48.33400 33.38000 34.24000
H  52.31800 40.42200 29.77500
H  50.65500 40.89600 30.01000
H  51.44300 41.48900 28.63200
H  53.49400 40.98200 27.57700
H  52.36400 41.79700 26.50100
H  54.00200 41.33800 26.01100
H  51.42000 34.94600 23.69300
H  48.84000 33.84300 23.11800
H  50.74300 36.27000 21.82300
H  49.56500 37.14700 22.81100
H  49.06500 35.73900 21.98300
H  50.28700 32.07400 24.86000
H  51.41400 32.81300 23.78100
H  51.01100 31.50100 22.33000
H  49.29800 31.97000 22.12100
H  49.67600 30.63200 23.16900
H  46.94200 30.18600 26.08300
H  45.54900 30.87300 25.78600
H  45.64600 29.84200 27.25800
H  45.11000 33.68500 30.92600
H  45.84400 30.90300 34.14100
H  44.90800 32.19000 35.05600
H  46.64000 32.38200 34.68100

