158

Mg 45.14800 4.34400 46.77300
C  42.96600 7.10700 46.66900
C  42.42400 2.31200 46.05300
C  47.13300 1.70500 45.90200
C  47.86000 6.33800 46.86300
N  42.92800 4.78500 46.32600
C  42.23700 5.92000 46.48700
C  40.67900 5.65400 46.58000
C  40.63000 4.04900 46.68000
C  42.09500 3.66300 46.35200
C  40.22900 3.45200 48.00500
C  39.91600 6.15000 45.33100
C  40.40600 5.81700 43.85500
H  40.19400 6.79100 42.63100
N  44.80800 2.30000 46.23300
C  43.62300 1.67800 46.06500
C  43.76500 0.24100 45.76100
C  45.15800 0.04600 45.57900
C  45.81200 1.43500 45.94500
C  42.64800 -0.84200 45.53200
C  45.79700 -1.22300 45.11300
O  45.14300 -2.16000 44.71900
C  47.26900 -1.53400 45.11000
N  47.25800 4.05900 46.46100
C  47.84800 2.88300 46.21700
C  49.37400 2.92200 46.27900
C  49.62700 4.40700 46.69800
C  48.18600 4.97000 46.70400
C  50.05500 1.90500 47.25700
C  50.65000 5.16600 45.89100
C  51.92900 5.71100 46.50000
N  45.45200 6.37700 46.77200
C  46.59700 7.05700 46.89200
C  46.31800 8.48200 46.83000
C  44.87100 8.53600 46.81100
C  44.41600 7.21600 46.67900
C  47.29900 9.61800 47.10400
C  43.74500 9.48300 46.81600
O  43.70400 10.71700 46.99300
C  42.41200 8.57000 46.66900
C  41.51000 8.79300 47.87100
O  41.71400 8.39100 49.02300
O  40.31900 9.28800 47.37100
C  39.32400 9.77100 48.40700
H  41.55200 1.65600 46.09200
H  47.88600 0.97900 45.58800
H  48.74400 6.93000 47.10800
H  40.23000 6.14500 47.44300
H  39.87600 3.68700 45.98200
H  40.01200 4.28900 48.66800
H  41.08000 2.92600 48.43700
H  39.38300 2.76800 47.94600
H  39.71100 7.22100 45.31500
H  38.91900 5.72000 45.42400
H  39.87200 4.93600 43.49800
H  41.42900 5.44400 43.82400
H  42.99500 -1.75900 46.00900
H  42.45000 -0.80500 44.46100
H  41.71800 -0.48900 45.97900
H  47.69200 -1.04000 45.98500
H  47.62200 -1.25000 44.11900
H  47.52500 -2.57300 45.31900
H  49.77900 2.77000 45.27900
H  50.05500 4.47800 47.69800
H  50.37600 0.98300 46.77300
H  49.35800 1.68400 48.06500
H  51.06300 2.17400 47.57200
H  50.31700 6.06600 45.37400
H  51.03500 4.43600 45.18000
H  51.75700 5.78700 47.57400
H  52.30600 6.70800 46.27100
H  52.78800 5.12200 46.18100
H  46.69500 10.52100 47.00900
H  48.21500 9.60400 46.51300
H  47.61300 9.78800 48.13400
H  41.90100 8.71000 45.71600
H  39.17900 10.84900 48.32600
H  39.48400 9.50500 49.45100
H  38.40900 9.25800 48.11200
Mg 7.21900 53.08900 40.09900
C  6.62100 49.61400 39.90400
C  10.60500 52.37000 39.58100
C  7.74800 56.28700 39.57500
C  3.76100 53.53100 40.06700
N  8.40300 51.25600 39.62500
C  7.96900 49.96000 39.90400
C  9.12900 48.93000 39.67800
C  10.39500 49.87400 39.81500
C  9.72000 51.21600 39.62600
C  11.16000 49.65800 41.13900
C  9.16700 48.14400 38.36500
C  9.04300 48.99800 37.04300
H  7.92600 48.56600 36.12000
N  8.93500 54.17500 39.74300
C  10.22400 53.69400 39.50600
C  11.11000 54.82700 39.27500
C  10.32500 56.00600 39.25700
C  8.94800 55.52700 39.59100
C  12.60000 54.70700 39.02100
C  10.80400 57.35800 38.81900
O  11.94800 57.53900 38.36800
C  9.96700 58.55200 38.98900
N  5.91900 54.67600 39.91000
C  6.40800 55.96400 39.87200
C  5.37600 56.93900 40.12400
C  4.04100 56.06600 40.03200
C  4.54800 54.65600 39.97300
C  5.53400 57.74800 41.42600
C  2.91200 56.51300 39.00300
C  1.56500 56.79500 39.62800
N  5.53100 51.90800 39.95600
C  4.20600 52.20700 39.97100
C  3.41700 51.04300 40.15500
C  4.30600 49.94900 40.15500
C  5.57100 50.52700 39.94500
C  1.93300 51.05900 40.36000
C  4.34000 48.51900 40.32500
O  3.49200 47.67100 40.34800
C  5.89400 48.23500 40.08300
C  5.93600 47.36800 38.91700
O  5.63500 47.64300 37.80000
O  6.29300 46.12600 39.34500
C  6.31500 45.07200 38.38000
H  11.63800 52.09900 39.35500
H  8.05600 57.33200 39.51100
H  2.68200 53.69300 40.00400
H  9.13500 48.16500 40.45500
H  11.17100 49.71500 39.06600
H  12.23100 49.48600 41.03800
H  10.66200 48.86200 41.69300
H  11.17400 50.55000 41.76700
H  8.49500 47.28900 38.43900
H  10.12600 47.64500 38.22600
H  9.87100 48.65100 36.42500
H  9.07000 50.06200 37.27600
H  13.00900 53.70400 39.15000
H  13.15800 55.37000 39.68200
H  12.83900 55.08400 38.02700
H  9.59200 58.70500 40.00100
H  9.15500 58.42300 38.27300
H  10.43000 59.49100 38.68600
H  5.26200 57.65000 39.30500
H  3.54100 56.17900 40.99400
H  6.42400 57.39800 41.94900
H  4.70300 57.55500 42.10400
H  5.52000 58.82900 41.28400
H  2.81300 55.76400 38.21700
H  3.32600 57.35900 38.45500
H  1.57300 56.49400 40.67600
H  0.78700 56.28000 39.06500
H  1.40300 57.85700 39.44500
H  1.41100 50.18000 39.98200
H  1.39800 51.85200 39.83800
H  1.73000 51.27200 41.41000
H  6.26900 47.81200 41.01500
H  7.34200 44.94600 38.03500
H  5.63000 45.19700 37.54200
H  6.11800 44.11400 38.86100

