158

Mg 1.96300 42.72000 26.41100
C  3.43500 42.61400 29.49400
C  -1.06700 41.69500 28.28200
C  0.39900 42.10600 23.57700
C  4.92000 42.95600 24.79100
N  1.31700 42.32100 28.67900
C  2.06100 42.46500 29.67700
C  1.35500 42.38900 31.10700
C  -0.09600 41.97100 30.60900
C  0.03500 42.07900 29.05700
C  -0.55100 40.56700 31.06900
C  1.39500 43.76900 31.73800
C  1.90800 43.80500 33.22300
H  1.49500 42.69600 34.21900
N  -0.09900 42.22900 25.93700
C  -1.13100 41.79900 26.83300
C  -2.33000 41.47200 26.07800
C  -1.96500 41.63700 24.73200
C  -0.53500 41.98700 24.66800
C  -3.62200 40.97200 26.70000
C  -2.76200 41.35100 23.42400
O  -2.31600 41.45100 22.25200
C  -4.08100 40.82500 23.51900
N  2.60500 42.72400 24.33700
C  1.77400 42.43700 23.33900
C  2.51700 42.43300 21.95100
C  3.96600 42.71500 22.42900
C  3.85400 42.84800 23.91600
C  2.29400 41.12300 21.17700
C  4.44800 44.00500 21.75900
C  3.90300 45.33600 22.37700
N  3.77700 42.85300 26.90300
C  4.94800 42.93100 26.22200
C  6.05400 43.00800 27.06500
C  5.50600 42.96600 28.38600
C  4.10500 42.85000 28.20000
C  7.45400 43.18000 26.62100
C  5.87300 42.95100 29.84100
O  6.98500 43.02200 30.39800
C  4.50100 42.71200 30.55600
C  4.76700 41.47100 31.36900
O  4.59300 40.33700 30.98500
O  5.21800 41.86600 32.57600
C  5.52600 40.76100 33.46300
H  -2.04900 41.51000 28.72100
H  -0.02900 41.87000 22.60100
H  5.86800 43.07700 24.26100
H  1.76400 41.70100 31.84700
H  -0.87700 42.60500 31.02800
H  -1.24700 40.64500 31.90500
H  0.35200 40.08900 31.45100
H  -0.94800 40.01300 30.21800
H  0.44400 44.24200 31.49300
H  2.13500 44.43700 31.29700
H  1.47000 44.77400 33.46200
H  2.97900 43.98300 33.32500
H  -4.42400 41.71000 26.70700
H  -3.47300 40.37900 27.60300
H  -4.00100 40.24000 25.98700
H  -4.63700 41.01700 22.60200
H  -4.56800 41.50700 24.21600
H  -4.03500 39.79200 23.86600
H  2.10800 43.27700 21.39600
H  4.67400 41.89300 22.31700
H  1.85200 41.36000 20.20900
H  1.68300 40.41200 21.73300
H  3.22900 40.59900 20.97900
H  4.23000 44.00100 20.69100
H  5.53600 43.98000 21.69200
H  3.47100 45.96100 21.59500
H  4.82000 45.78000 22.76400
H  3.16900 45.29300 23.18200
H  7.53100 42.96000 25.55600
H  8.16800 42.59100 27.19700
H  7.70400 44.23800 26.69400
H  4.33600 43.59200 31.17800
H  5.99900 41.19200 34.34500
H  6.33600 40.20200 32.99500
H  4.65000 40.12300 33.58300
Mg -11.56200 16.23500 41.24100
C  -8.48100 14.65800 40.76100
C  -10.12800 19.13500 39.74500
C  -14.62500 17.58000 41.04100
C  -13.00900 13.05600 41.59300
N  -9.47500 16.79100 40.15600
C  -8.33000 16.00200 40.32000
C  -7.12400 16.69500 39.73800
C  -7.65200 18.15600 39.52300
C  -9.20700 18.05200 39.89100
C  -6.82100 19.21100 40.38700
C  -6.63700 16.00100 38.43600
C  -5.10400 16.31200 37.99800
H  -5.11900 17.03400 36.57000
N  -12.22700 18.10200 40.72300
C  -11.50000 19.16300 40.17900
C  -12.34900 20.35800 40.19900
C  -13.69200 19.96100 40.58000
C  -13.56500 18.48900 40.88300
C  -11.89400 21.79100 39.76000
C  -14.89500 20.84300 40.49500
O  -14.79300 22.03000 40.25500
C  -16.16600 20.38100 41.11600
N  -13.55400 15.38600 41.36800
C  -14.57800 16.17300 41.18200
C  -15.88200 15.33900 41.34500
C  -15.35700 13.92300 41.28400
C  -13.87000 14.09300 41.42900
C  -16.65200 15.79100 42.61600
C  -15.60900 13.17700 39.92900
C  -16.53300 11.88000 39.91900
N  -10.90000 14.30000 41.38900
C  -11.59500 13.11400 41.52700
C  -10.60400 12.03700 41.78900
C  -9.35700 12.60300 41.48100
C  -9.65100 13.98400 41.18700
C  -10.90000 10.54300 41.99400
C  -8.02200 12.32200 41.30800
O  -7.46300 11.25000 41.45100
C  -7.36800 13.63300 40.96700
C  -6.46800 14.06400 42.07300
O  -6.76900 14.44900 43.17800
O  -5.14100 13.75100 41.66600
C  -4.13900 13.75800 42.73600
H  -9.66100 20.10900 39.58500
H  -15.63100 18.00400 41.07600
H  -13.46500 12.07800 41.75700
H  -6.36600 16.65200 40.52000
H  -7.63600 18.42600 38.46700
H  -6.46600 19.95300 39.67200
H  -6.15100 18.68700 41.06800
H  -7.53100 19.67600 41.07200
H  -7.27800 16.38800 37.64400
H  -6.90400 14.94500 38.40200
H  -4.53700 15.39300 37.84800
H  -4.73000 16.99800 38.75800
H  -12.56900 21.91500 38.91400
H  -10.82600 21.79800 39.54100
H  -12.14300 22.57500 40.47600
H  -16.75200 21.26300 41.37300
H  -16.02100 19.89600 42.08200
H  -16.79800 19.80400 40.44200
H  -16.43700 15.61900 40.44900
H  -15.72700 13.43300 42.18400
H  -16.71200 16.87700 42.67700
H  -16.06600 15.42500 43.46000
H  -17.64100 15.33400 42.64700
H  -14.69300 12.80000 39.47500
H  -16.19900 13.81900 39.27400
H  -15.96100 10.97300 39.72800
H  -17.36100 11.89300 39.21000
H  -16.95200 11.73100 40.91400
H  -11.40300 10.11500 41.12700
H  -11.57800 10.39500 42.83400
H  -9.93100 10.06800 42.14600
H  -6.71900 13.50400 40.10000
H  -4.39000 12.95700 43.43100
H  -4.08800 14.67200 43.32900
H  -3.11300 13.62100 42.39300

