158

Mg 53.79900 24.69400 44.65300
C  50.89100 26.42300 43.82800
C  52.62100 21.86500 43.13000
C  56.87300 23.24900 44.88300
C  55.15100 27.79400 45.67600
N  52.09600 24.25800 43.38800
C  50.97900 25.14600 43.28100
C  49.87500 24.51700 42.34700
C  50.21400 23.01400 42.49300
C  51.72700 22.96600 43.02900
C  49.24700 22.20100 43.44600
C  49.98200 25.03400 40.91400
C  48.57400 25.36000 40.20600
H  48.17900 24.46700 39.02300
N  54.69200 22.81300 44.12600
C  53.99500 21.75300 43.64900
C  54.78500 20.55900 43.60800
C  56.00300 20.86600 44.12300
C  55.93400 22.37300 44.37900
C  54.26100 19.17200 43.16900
C  57.25900 19.94500 44.35900
O  57.18300 18.71100 44.11100
C  58.66900 20.45800 44.77500
N  55.70900 25.42100 44.96400
C  56.82000 24.58800 45.07900
C  58.10400 25.37200 45.48100
C  57.58000 26.89200 45.63800
C  56.03800 26.73500 45.44800
C  58.93600 24.94100 46.70600
C  58.12200 27.83200 44.53600
C  59.13700 28.85400 44.95900
N  53.15600 26.77800 44.82100
C  53.77300 27.85000 45.37700
C  52.84800 28.95700 45.43200
C  51.61700 28.42200 44.90700
C  51.88200 27.14500 44.48900
C  53.17300 30.22100 46.03800
C  50.29100 28.73700 44.59400
O  49.65000 29.80000 44.70500
C  49.73600 27.46200 43.88100
C  49.29400 27.98100 42.59700
O  50.03200 28.36200 41.65300
O  47.89500 28.09600 42.57000
C  47.30800 28.68900 41.39000
H  52.13700 20.95000 42.78200
H  57.89400 22.86800 44.95900
H  55.68600 28.70300 45.96000
H  48.88100 24.71800 42.74800
H  50.20600 22.50700 41.52800
H  48.64100 21.55700 42.81000
H  48.63300 22.96600 43.92300
H  49.70000 21.50800 44.15500
H  50.50200 24.24000 40.37700
H  50.57300 25.94000 40.78000
H  48.85000 26.27600 39.68400
H  47.77400 25.47300 40.93800
H  54.74800 18.98000 42.21400
H  53.17200 19.21800 43.14200
H  54.56700 18.47300 43.94700
H  59.19600 21.05000 44.02700
H  59.26300 19.54700 44.85500
H  58.60100 20.94700 45.74700
H  58.85400 25.24500 44.70000
H  57.72600 27.29300 46.64100
H  59.80100 24.30000 46.53700
H  58.30500 24.32000 47.34100
H  59.35900 25.78800 47.24600
H  57.28000 28.48500 44.30500
H  58.43400 27.33700 43.61700
H  59.25800 29.55200 44.13100
H  60.12300 28.39400 45.01600
H  58.94400 29.32200 45.92400
H  54.06100 30.06400 46.65000
H  52.31000 30.56100 46.61000
H  53.33300 31.03000 45.32500
H  48.88900 27.13100 44.48100
H  47.06000 27.88800 40.69300
H  47.85000 29.55400 41.00900
H  46.38800 29.17600 41.71500
Mg 46.84300 24.51200 28.35600
C  47.54000 26.71500 30.93100
C  46.15800 22.06600 30.75600
C  46.79400 22.14400 25.99800
C  47.83000 26.95500 26.05900
N  46.87000 24.45400 30.54600
C  47.06700 25.47000 31.36800
C  46.85700 25.05200 32.85700
C  46.61100 23.54400 32.78300
C  46.56700 23.31200 31.27400
C  47.61100 22.67600 33.57700
C  45.72000 25.85300 33.53300
C  46.15800 26.61900 34.85700
H  45.05900 26.87600 35.94000
N  46.27100 22.39900 28.32900
C  45.95700 21.67400 29.40300
C  45.71400 20.30000 28.90700
C  45.92900 20.24500 27.53600
C  46.33500 21.60800 27.22500
C  45.49100 19.10200 29.80900
C  45.67000 19.07500 26.54800
O  45.97000 19.17800 25.37200
C  45.09200 17.89700 27.01100
N  47.30900 24.53700 26.35500
C  47.12000 23.51200 25.60500
C  47.61300 23.79700 24.16700
C  47.53700 25.33900 24.09400
C  47.61300 25.62200 25.59600
C  48.96400 23.24000 23.70600
C  46.24100 25.86300 23.49100
C  44.90200 25.99100 24.28400
N  47.53300 26.44600 28.39400
C  47.85600 27.37100 27.41400
C  48.19200 28.65600 27.96800
C  48.09000 28.36400 29.39200
C  47.72500 27.06400 29.54100
C  48.65700 29.88400 27.24800
C  48.24800 28.99700 30.70300
O  48.52800 30.18000 30.94000
C  47.91000 27.93700 31.72900
C  49.04300 27.72300 32.66700
O  50.04300 27.02400 32.40500
O  48.83000 28.35900 33.84100
C  49.61200 27.98400 35.02400
H  45.95300 21.21500 31.40900
H  46.99400 21.37800 25.24700
H  47.93400 27.70200 25.26900
H  47.84200 25.32300 33.23700
H  45.59500 23.33800 33.12200
H  48.21200 23.20900 34.31400
H  48.31600 22.15900 32.92500
H  47.06300 21.86900 34.06200
H  44.81700 25.25700 33.66000
H  45.31900 26.53600 32.78400
H  46.38800 27.63800 34.54400
H  47.08700 26.26200 35.30300
H  45.54600 19.14400 30.89700
H  46.13700 18.29800 29.45700
H  44.46800 18.74600 29.68000
H  44.83900 17.18100 26.22800
H  44.19800 18.17400 27.57000
H  45.81700 17.41400 27.66600
H  46.94300 23.26500 23.49100
H  48.34100 25.83300 23.54800
H  49.07500 22.35200 24.32800
H  49.73700 24.00600 23.65300
H  48.77200 22.91200 22.68400
H  45.99500 25.33400 22.57100
H  46.55100 26.84500 23.13200
H  44.08700 25.73900 23.60600
H  44.81700 26.97200 24.75100
H  44.92600 25.22600 25.05900
H  48.18600 30.04700 26.27900
H  49.69000 29.82600 26.90600
H  48.62900 30.78100 27.86700
H  47.09600 28.24300 32.38500
H  50.22900 27.08600 35.05000
H  48.86400 27.72600 35.77300
H  50.24000 28.84100 35.26700

