158

Mg 48.46500 46.29400 43.52900
C  45.33900 46.69300 42.37800
C  48.48600 43.20600 42.14900
C  51.82300 46.24300 44.22100
C  48.54700 49.62800 44.68700
N  47.09100 45.28200 42.23000
C  45.81400 45.49700 41.89000
C  45.14600 44.45500 40.97600
C  46.09900 43.28500 41.20600
C  47.30300 43.94200 41.96800
C  45.43600 42.04400 41.94000
C  44.99100 44.77200 39.41500
C  43.62200 44.47900 38.85200
H  43.65100 43.40700 37.82800
N  49.94600 44.89700 43.24900
C  49.76800 43.69600 42.63400
C  51.06900 43.03200 42.55000
C  52.03800 43.83100 43.18900
C  51.34600 45.03100 43.54500
C  51.22800 41.72200 41.81600
C  53.52700 43.46100 43.36300
O  54.08500 42.53400 42.83800
C  54.29400 44.23800 44.29500
N  49.97900 47.77300 44.39400
C  51.22100 47.42600 44.64300
C  52.07500 48.49400 45.24600
C  51.06600 49.72300 45.25300
C  49.79400 49.07400 44.73200
C  52.69800 48.14800 46.58300
C  51.43500 51.00300 44.35800
C  51.10500 52.35100 45.06900
N  47.26700 47.83600 43.65300
C  47.37400 49.04700 44.18100
C  46.08100 49.74700 44.15300
C  45.27000 48.86200 43.45200
C  46.00300 47.71800 43.20300
C  45.80600 51.14700 44.72100
C  43.91800 48.66100 43.00100
O  42.93400 49.39300 43.03000
C  43.95200 47.29500 42.26700
C  42.88700 46.43700 42.79900
O  42.89200 45.69600 43.79600
O  41.84300 46.52100 41.91700
C  40.81900 45.50600 42.27300
H  48.47100 42.17700 41.78500
H  52.87100 46.31600 44.51900
H  48.49200 50.66900 45.01200
H  44.18800 44.27900 41.46600
H  46.37100 42.82700 40.25500
H  44.43700 41.85500 41.54800
H  45.44600 42.15600 43.02400
H  46.05200 41.15100 41.82600
H  45.67600 44.22200 38.76900
H  45.16300 45.83900 39.27400
H  43.06000 45.31600 38.43700
H  43.03000 44.11500 39.69200
H  52.16800 41.78000 41.26700
H  50.45300 41.45000 41.10000
H  51.17600 40.89500 42.52500
H  53.60500 44.53300 45.08600
H  54.68100 45.06800 43.70500
H  55.11400 43.62900 44.67600
H  52.81800 48.60300 44.45600
H  50.79800 49.95500 46.28400
H  53.66700 47.66600 46.45100
H  52.03800 47.45800 47.10900
H  53.01700 49.05400 47.09700
H  50.96900 50.79700 43.39400
H  52.51600 50.93300 44.23600
H  50.74600 52.99300 44.26500
H  52.07600 52.68000 45.44100
H  50.30800 52.28400 45.81000
H  46.30400 51.19900 45.68900
H  44.73600 51.33700 44.80500
H  46.21200 51.95500 44.11200
H  43.71400 47.43100 41.21200
H  40.16900 45.82500 43.08800
H  41.24200 44.52400 42.48400
H  40.23600 45.52200 41.35200
Mg 30.07900 58.36300 38.19300
C  27.21500 56.29500 37.42900
C  32.03100 55.60000 38.02600
C  32.73500 60.29100 38.23000
C  27.96500 61.05900 37.82800
N  29.61900 56.19800 37.82600
C  28.41000 55.61100 37.47900
C  28.55800 54.10200 37.28400
C  30.05100 53.90700 37.86000
C  30.62600 55.32100 37.95400
C  30.13900 53.14600 39.18800
C  28.27700 53.66200 35.82200
C  29.15500 54.36800 34.78000
H  28.55000 55.08400 33.54500
N  32.14600 57.99300 38.12400
C  32.75400 56.78500 38.15400
C  34.16400 56.90900 38.18400
C  34.42700 58.26800 38.27100
C  33.11700 58.94400 38.24100
C  35.19400 55.71400 37.99800
C  35.80700 58.93600 38.27600
O  36.79200 58.21000 38.28500
C  35.96600 60.40900 38.49900
N  30.39600 60.34000 37.88300
C  31.59900 60.93500 37.99700
C  31.58400 62.46900 37.96400
C  30.03300 62.78600 37.84700
C  29.41000 61.30400 37.88300
C  32.34300 63.20500 39.13400
C  29.70200 63.62800 36.54300
C  29.01000 64.97800 36.70500
N  27.92000 58.65500 37.91400
C  27.28100 59.83800 37.77600
C  25.87700 59.62500 37.76100
C  25.72800 58.19500 37.54100
C  27.04500 57.71700 37.66800
C  24.82800 60.75700 37.73800
C  24.88100 57.11000 37.28400
O  23.69400 57.07400 37.11600
C  25.87100 55.82600 37.10500
C  25.37200 54.84200 38.14500
O  25.48400 54.94600 39.39200
O  24.90800 53.73500 37.50300
C  24.21100 52.76600 38.39200
H  32.56700 54.65800 37.89200
H  33.52600 61.03100 38.09200
H  27.41500 61.99700 37.73500
H  27.79400 53.62300 37.89700
H  30.64300 53.35000 37.13400
H  30.30200 52.08200 39.01700
H  29.37600 53.23300 39.96100
H  30.96200 53.55700 39.77400
H  27.22200 53.72300 35.55700
H  28.51300 52.59800 35.86600
H  29.93900 53.66200 34.50500
H  29.83600 55.08100 35.24500
H  35.91300 55.71400 37.17900
H  34.70700 54.77100 37.75100
H  35.69300 55.64900 38.96500
H  35.46100 60.69800 39.42100
H  35.53000 60.88800 37.62200
H  37.01800 60.69200 38.52000
H  32.08100 62.81800 37.05900
H  29.50100 63.22900 38.69000
H  31.67800 63.70700 39.83600
H  33.05300 63.94500 38.76400
H  32.96200 62.56300 39.76000
H  28.95600 63.00800 36.04600
H  30.62800 63.74300 35.98000
H  28.97200 65.22800 37.76600
H  27.96900 64.91200 36.38700
H  29.56500 65.75000 36.17300
H  24.11600 60.54200 38.53500
H  24.39800 60.73600 36.73600
H  25.27200 61.71400 38.01200
H  25.92900 55.42100 36.09500
H  23.42400 53.29400 38.93000
H  24.88900 52.31900 39.12000
H  23.74700 51.96800 37.81200

