158

Mg 36.59900 48.50500 25.83900
C  36.04700 46.50200 28.72300
C  35.97300 51.32100 27.63000
C  36.34100 50.32000 22.98300
C  36.62100 45.59400 23.98600
N  36.04100 48.81200 27.91800
C  35.95400 47.89300 28.96200
C  35.86500 48.65000 30.32100
C  35.48500 50.09000 29.85600
C  35.83500 50.12700 28.39300
C  34.06800 50.65900 30.08700
C  37.29300 48.57500 31.08400
C  37.22700 48.01100 32.49500
H  35.85300 48.27900 33.20400
N  36.44400 50.56100 25.38700
C  36.17000 51.59100 26.25900
C  36.19600 52.88500 25.63400
C  36.43700 52.58700 24.22600
C  36.47200 51.10100 24.12200
C  35.95100 54.15500 26.42900
C  36.63700 53.58000 23.09200
O  36.94400 53.24500 21.96000
C  36.45300 55.09300 23.33500
N  36.36700 48.04100 23.77300
C  36.40700 48.96400 22.78000
C  36.31900 48.27400 21.37400
C  36.73600 46.81500 21.76900
C  36.57400 46.78000 23.25200
C  34.91400 48.23900 20.66600
C  38.19700 46.65400 21.40700
C  38.67700 46.16500 20.01600
N  36.37100 46.39900 26.20900
C  36.57100 45.40400 25.33700
C  36.64700 44.15900 26.12100
C  36.46800 44.58000 27.43800
C  36.24300 45.92800 27.42700
C  36.91500 42.75100 25.60800
C  36.47600 44.04100 28.80900
O  36.67000 42.89100 29.24400
C  36.34200 45.32100 29.74500
C  35.23100 45.19400 30.65900
O  34.09200 45.55400 30.40600
O  35.63600 44.60000 31.77300
C  34.61400 44.41300 32.81600
H  35.88000 52.25600 28.18600
H  36.26700 50.84000 22.02500
H  36.82800 44.70400 23.38800
H  35.01300 48.15900 30.79300
H  36.06200 50.86300 30.36200
H  34.05500 51.57200 30.68200
H  33.49700 49.88400 30.60000
H  33.43900 50.87000 29.22300
H  37.78400 49.54400 31.17700
H  37.95000 47.98600 30.44500
H  37.99900 48.29900 33.20900
H  37.44100 46.96800 32.26400
H  35.43400 54.05500 27.38300
H  35.26900 54.77400 25.84700
H  36.93200 54.58900 26.62200
H  36.74800 55.55800 22.39500
H  37.23500 55.42200 24.02100
H  35.43000 55.37300 23.58500
H  36.97800 48.77100 20.66200
H  36.10100 46.07600 21.28200
H  34.69400 47.17400 20.59900
H  35.05000 48.73300 19.70300
H  34.02400 48.64200 21.14900
H  38.65200 46.00200 22.15300
H  38.69600 47.61800 21.49800
H  39.29100 46.95600 19.58600
H  37.85800 45.83200 19.37800
H  39.31000 45.29400 20.18400
H  37.99300 42.62200 25.51100
H  36.25900 42.48800 24.77800
H  36.55500 42.09000 26.39600
H  37.28900 45.57300 30.22300
H  34.08300 45.33100 33.07000
H  35.11200 43.96400 33.67500
H  33.86400 43.63900 32.64800
Mg -4.65400 25.79100 25.79500
C  -3.76200 27.62500 28.64600
C  -6.12900 23.44300 27.61900
C  -5.18100 24.03400 22.99500
C  -2.69100 28.05600 23.90300
N  -4.76100 25.56000 27.90500
C  -4.51900 26.47900 28.93300
C  -5.00700 25.96700 30.33100
C  -5.64100 24.62400 29.90600
C  -5.52700 24.51800 28.33700
C  -4.99200 23.39800 30.54100
C  -6.06300 27.01000 30.96200
C  -6.40500 26.65600 32.44500
H  -5.73900 25.43800 33.13600
N  -5.59800 23.99000 25.40300
C  -6.27300 23.30800 26.23400
C  -7.09500 22.32100 25.59500
C  -6.72200 22.34200 24.20600
C  -5.81600 23.54500 24.15700
C  -8.07100 21.47000 26.43900
C  -7.19000 21.60500 23.06800
O  -6.75500 21.61600 21.91200
C  -8.33600 20.63800 23.30400
N  -4.11700 26.04700 23.64300
C  -4.35100 25.14300 22.76600
C  -3.61300 25.42400 21.45000
C  -2.86100 26.83300 21.62000
C  -3.26500 27.04800 23.15700
C  -2.64500 24.23300 20.94500
C  -3.48700 27.97300 20.72900
C  -4.93500 28.44400 21.07500
N  -3.48500 27.47900 26.13900
C  -2.71000 28.26200 25.25500
C  -2.06400 29.24200 26.04000
C  -2.48100 29.08000 27.35100
C  -3.30900 27.98200 27.40300
C  -1.21400 30.39000 25.55100
C  -2.34300 29.62300 28.65300
O  -1.61200 30.55100 29.08100
C  -3.13400 28.71100 29.59500
C  -2.21100 28.03500 30.60200
O  -1.06600 27.69100 30.41800
O  -2.80500 27.75500 31.83100
C  -2.08300 26.90400 32.83700
H  -6.64000 22.79700 28.33700
H  -5.27200 23.38200 22.12400
H  -2.09200 28.63100 23.19400
H  -4.17400 25.71200 30.98600
H  -6.69100 24.53300 30.18400
H  -5.78700 22.84500 31.04100
H  -4.13500 23.50700 31.20500
H  -4.66400 22.63400 29.83700
H  -6.87200 27.07500 30.23500
H  -5.64500 28.01600 30.93200
H  -7.45200 26.36700 32.34800
H  -6.38700 27.49000 33.14700
H  -7.96100 20.41700 26.18000
H  -9.11600 21.77600 26.39700
H  -7.84600 21.46400 27.50500
H  -8.63600 20.25500 22.32900
H  -9.19700 21.13600 23.75000
H  -7.93000 19.88000 23.97400
H  -4.34000 25.64600 20.66900
H  -1.77800 26.77900 21.51200
H  -1.61400 24.56200 21.07500
H  -2.92500 23.98000 19.92300
H  -2.91500 23.39800 21.59200
H  -3.38300 27.69000 19.68200
H  -2.86800 28.86600 20.81400
H  -5.36000 28.39300 20.07300
H  -4.83900 29.42700 21.53700
H  -5.38700 27.77400 21.80600
H  -0.67500 30.19100 24.62500
H  -0.43500 30.56900 26.29200
H  -1.70300 31.35300 25.40100
H  -3.91600 29.30400 30.07000
H  -1.01500 27.08800 32.95100
H  -2.18900 25.91300 32.39700
H  -2.65700 27.01400 33.75700

