158

Mg 42.59300 40.64600 25.67500
C  41.69500 42.81800 28.18400
C  43.53000 38.37300 28.09200
C  43.80700 38.62100 23.18600
C  42.05600 43.09900 23.32400
N  42.54800 40.68700 27.84600
C  41.98700 41.57800 28.67300
C  41.94600 41.11300 30.21000
C  42.78500 39.78200 30.11800
C  42.94900 39.55500 28.57600
C  44.02200 39.74700 30.93000
C  40.59000 41.11900 30.92500
C  40.43900 40.65300 32.39400
H  39.70900 41.52200 33.46200
N  43.46900 38.75200 25.62600
C  43.75400 37.98300 26.75200
C  44.28400 36.72800 26.27700
C  44.29900 36.67200 24.81400
C  43.85300 38.06500 24.47900
C  44.59400 35.55700 27.21700
C  44.71400 35.60500 23.86100
O  44.83700 35.82300 22.63900
C  45.07000 34.18200 24.36900
N  42.83000 40.82400 23.46600
C  43.27300 39.79900 22.68500
C  43.31800 40.18500 21.20600
C  42.69000 41.62800 21.31100
C  42.51500 41.91200 22.77700
C  44.76600 40.14100 20.50400
C  41.35800 41.89100 20.54100
C  40.18500 40.99600 21.01300
N  42.00200 42.55800 25.67600
C  41.88300 43.48800 24.69000
C  41.62300 44.73800 25.27600
C  41.46600 44.51900 26.63300
C  41.75500 43.19300 26.86200
C  41.46500 46.00900 24.53400
C  41.13100 45.12500 27.88600
O  40.73200 46.23100 28.23000
C  41.17600 44.00700 28.95300
C  42.05900 44.50500 30.01600
O  43.28900 44.51100 29.97100
O  41.28900 44.79300 31.09300
C  41.95600 45.42600 32.23000
H  43.87400 37.65200 28.83700
H  44.29000 38.11700 22.34700
H  41.89900 43.95000 22.65700
H  42.55600 41.86400 30.71300
H  42.15300 38.95800 30.44800
H  44.10300 38.73700 31.33100
H  44.05800 40.56900 31.64600
H  44.81300 39.91700 30.19900
H  39.95500 40.64900 30.17400
H  40.35300 42.18100 30.86000
H  41.46800 40.39100 32.64200
H  39.85100 39.73600 32.35100
H  43.81200 34.82700 27.00700
H  44.61800 35.80200 28.27900
H  45.57700 35.14700 26.98500
H  45.22700 33.57000 23.48100
H  44.21700 33.66300 24.80600
H  45.91200 34.14100 25.05900
H  42.63900 39.47000 20.74100
H  43.34400 42.39000 20.88500
H  45.20700 41.09900 20.23000
H  44.61100 39.84200 19.46700
H  45.37400 39.37100 20.97700
H  41.56800 41.62000 19.50600
H  41.04000 42.93400 20.54200
H  40.03600 40.17800 20.30800
H  39.31400 41.59700 21.27600
H  40.48300 40.44800 21.90700
H  40.53700 45.87800 23.97900
H  42.33200 46.43400 24.02800
H  41.09300 46.66400 25.32200
H  40.16000 43.80100 29.28900
H  42.13400 44.63800 32.96200
H  41.40600 46.28500 32.61500
H  42.94400 45.86400 32.09100
Mg 6.30600 53.11700 41.53300
C  5.61800 49.70000 41.39700
C  9.63400 52.45100 40.83900
C  6.97600 56.56500 41.44700
C  2.95000 53.86000 41.87600
N  7.45300 51.19600 40.92500
C  6.98000 49.94600 41.06000
C  8.15500 48.90200 40.88300
C  9.45200 49.88800 40.84000
C  8.85500 51.29100 40.99100
C  10.52700 49.47500 41.93800
C  8.12700 48.17400 39.56800
C  8.08000 48.96000 38.26000
H  7.15700 48.45200 37.19800
N  8.08800 54.34100 41.21200
C  9.35400 53.82200 41.01500
C  10.28600 54.95500 40.75500
C  9.55100 56.09100 40.90000
C  8.11700 55.71600 41.31200
C  11.81100 54.84900 40.51900
C  10.15700 57.53100 40.68900
O  11.34600 57.60500 40.42500
C  9.39200 58.80000 40.69300
N  5.14400 54.93000 41.59200
C  5.63500 56.20400 41.62600
C  4.54300 57.18600 41.60300
C  3.22900 56.36500 41.71500
C  3.78100 54.97800 41.65800
C  4.60500 58.31900 42.67500
C  2.05500 56.49800 40.64300
C  1.01000 57.54100 41.16000
N  4.62600 52.02900 41.57100
C  3.31100 52.49000 41.77300
C  2.42700 51.33600 42.11700
C  3.30500 50.20700 41.87600
C  4.60600 50.69100 41.62000
C  1.03200 51.35800 42.56400
C  3.38700 48.73800 41.98000
O  2.51800 47.92700 42.36100
C  4.81200 48.37500 41.60100
C  4.83600 47.49500 40.46400
O  4.41800 47.76400 39.36000
O  5.36700 46.29200 40.76400
C  5.41400 45.36500 39.61900
H  10.65500 52.14900 40.59600
H  7.15300 57.64200 41.44500
H  1.92700 54.13400 42.14100
H  8.27700 48.17100 41.68200
H  10.08700 49.78100 39.96000
H  11.47700 49.08900 41.56700
H  10.04900 48.90200 42.73300
H  10.77500 50.45900 42.33600
H  7.32900 47.43200 39.57700
H  9.08200 47.64900 39.57800
H  9.05600 48.80300 37.80200
H  7.76200 49.98800 38.43500
H  12.09900 55.34200 39.59100
H  12.10200 53.81100 40.36400
H  12.31700 55.31400 41.36600
H  8.58000 58.77300 39.96700
H  9.93500 59.72300 40.48800
H  9.07900 59.01300 41.71500
H  4.54600 57.56100 40.58000
H  2.76300 56.43700 42.69800
H  3.68500 58.49400 43.23200
H  4.77600 59.30200 42.23700
H  5.41900 58.11300 43.37100
H  1.51500 55.57200 40.44500
H  2.37300 56.88300 39.67400
H  0.85600 58.19100 40.29900
H  1.41400 58.13800 41.97700
H  0.00800 57.21800 41.44200
H  0.76100 50.79100 43.45500
H  0.58000 50.92800 41.67000
H  0.76600 52.40200 42.73100
H  5.24500 47.79300 42.41500
H  5.91500 44.41000 39.77700
H  5.97000 45.76600 38.77200
H  4.40700 45.19200 39.23700

