158

Mg 16.34100 51.79100 25.62800
C  18.00200 50.30600 28.50600
C  14.08500 53.03200 27.89200
C  14.62900 52.57900 22.99400
C  18.78700 50.08300 23.67800
N  16.14000 51.71700 27.90700
C  16.89600 51.04600 28.85000
C  16.55400 51.43800 30.28800
C  15.19400 52.12500 30.07700
C  15.11000 52.28400 28.51400
C  13.85400 51.54200 30.64300
C  17.53000 52.56000 30.83600
C  17.86400 52.46400 32.31100
H  16.96000 51.65400 33.29000
N  14.62300 52.65000 25.43100
C  13.77500 53.20300 26.44600
C  12.68100 53.87400 25.88200
C  12.82300 53.76000 24.49500
C  14.03800 52.94200 24.20900
C  11.68100 54.62600 26.69700
C  11.86000 54.15800 23.33700
O  12.14000 53.91000 22.14400
C  10.61600 54.93100 23.58000
N  16.61500 51.32900 23.63500
C  15.81100 51.91900 22.75100
C  16.30200 51.68200 21.34900
C  17.70900 51.13800 21.55800
C  17.72900 50.78400 23.03600
C  15.26800 50.68400 20.63600
C  18.82700 52.17000 21.33700
C  19.85100 51.86600 20.29500
N  18.11800 50.53400 25.97300
C  18.94700 49.90300 25.08100
C  20.03400 49.27500 25.82300
C  19.66200 49.42600 27.16600
C  18.46400 50.11400 27.18100
C  21.22500 48.50300 25.33900
C  20.07900 49.06900 28.51100
O  21.09300 48.47500 28.82800
C  19.01700 49.63900 29.49200
C  18.49700 48.46700 30.25600
O  17.48800 47.80500 30.02000
O  19.34300 48.19800 31.29700
C  19.01400 46.99300 32.09200
H  13.39800 53.47200 28.61800
H  14.09900 52.81800 22.06900
H  19.65300 49.75300 23.10200
H  16.55300 50.56700 30.94300
H  15.09900 53.06500 30.62000
H  14.12400 50.63300 31.17900
H  13.16500 51.23800 29.85500
H  13.32300 52.19600 31.33400
H  17.26300 53.56500 30.50900
H  18.43300 52.43800 30.23700
H  17.78500 53.47900 32.70100
H  18.91100 52.18500 32.43500
H  11.40600 55.53700 26.16600
H  11.99100 54.85500 27.71700
H  10.77700 54.01700 26.71200
H  9.92500 55.07500 22.74900
H  10.99500 55.92200 23.83000
H  10.09700 54.60200 24.48000
H  16.14200 52.59100 20.76900
H  17.87300 50.18900 21.04800
H  14.79500 49.99900 21.34000
H  15.81000 50.04200 19.94300
H  14.54100 51.29900 20.10600
H  19.35300 52.36700 22.27100
H  18.39900 53.12900 21.04400
H  20.27800 52.73700 19.79900
H  19.57700 51.17900 19.49400
H  20.64200 51.43500 20.90800
H  22.04200 49.17500 25.07500
H  21.03200 47.85500 24.48400
H  21.46100 47.72800 26.06700
H  19.56700 50.31600 30.14500
H  19.77800 46.78500 32.84100
H  19.02200 46.20900 31.33400
H  18.08500 47.20800 32.62000
Mg -4.55600 25.72400 25.76800
C  -3.34700 27.06600 28.62300
C  -6.21500 23.32400 27.85300
C  -6.01300 24.28500 23.07600
C  -2.70700 27.67400 23.87500
N  -4.88800 25.30600 28.10100
C  -4.29900 26.05800 28.98200
C  -4.77000 25.65200 30.33800
C  -5.58900 24.30300 30.12000
C  -5.55600 24.29600 28.62800
C  -5.00300 22.98500 30.77000
C  -5.58700 26.80500 31.02500
C  -5.69400 27.00900 32.57900
H  -5.28600 25.85300 33.56100
N  -5.84000 24.06800 25.47900
C  -6.29100 23.19200 26.42100
C  -7.10700 22.18400 25.79600
C  -7.08700 22.40500 24.35500
C  -6.29000 23.62000 24.22600
C  -7.84600 21.01900 26.58800
C  -7.62900 21.51300 23.28400
O  -7.43000 21.67800 22.06800
C  -8.55700 20.32900 23.62100
N  -4.30400 25.81700 23.71400
C  -5.13200 25.40300 22.84500
C  -5.06700 26.05700 21.47300
C  -3.93300 27.09700 21.66400
C  -3.64300 26.86800 23.19800
C  -4.71000 24.94700 20.29800
C  -4.18100 28.44700 21.20100
C  -4.70500 28.62300 19.78700
N  -3.26200 27.10000 26.09900
C  -2.52600 27.80700 25.24900
C  -1.73300 28.79400 25.99800
C  -1.96600 28.44200 27.32700
C  -2.96100 27.49200 27.32200
C  -0.89000 29.91300 25.40000
C  -1.72100 28.84800 28.63400
O  -1.08800 29.84000 29.04800
C  -2.61200 28.03000 29.53300
C  -1.80500 27.28900 30.43800
O  -1.10200 26.42200 30.08600
O  -2.01800 27.69300 31.70700
C  -1.36700 26.90300 32.77000
H  -6.77400 22.60300 28.45300
H  -6.54500 23.93200 22.19000
H  -2.20900 28.33600 23.16300
H  -3.99200 25.42000 31.06500
H  -6.57200 24.30100 30.59100
H  -4.69300 23.14800 31.80200
H  -4.06400 22.72100 30.28300
H  -5.73900 22.18200 30.75700
H  -6.59100 26.76200 30.60200
H  -5.18000 27.75300 30.67400
H  -6.73400 27.22600 32.82300
H  -5.17500 27.93600 32.81900
H  -7.83900 20.12900 25.95900
H  -8.87100 21.30200 26.82700
H  -7.29200 20.89100 27.51800
H  -7.81900 19.57700 23.90100
H  -9.16000 20.09900 22.74300
H  -9.25600 20.65600 24.39000
H  -6.03700 26.51800 21.28200
H  -3.04900 26.70200 21.16300
H  -4.04000 24.21200 20.74300
H  -4.21800 25.42000 19.44900
H  -5.61800 24.48400 19.91100
H  -3.24400 29.00200 21.25400
H  -4.94100 28.92300 21.82000
H  -4.92200 27.70000 19.25000
H  -3.96800 29.20400 19.23300
H  -5.58800 29.26200 19.75300
H  -1.17500 30.04600 24.35600
H  0.17400 29.68200 25.44000
H  -1.04900 30.83800 25.95500
H  -3.26600 28.73700 30.04400
H  -0.45500 27.39800 33.10500
H  -1.19400 25.87500 32.45100
H  -1.95100 26.76300 33.67900

