158

Mg 46.03300 17.38100 29.14600
C  43.83700 16.80300 31.94300
C  48.19900 19.04100 31.08200
C  47.56700 18.17400 26.33300
C  43.33800 15.90900 27.15500
N  45.99600 17.88600 31.19200
C  45.03200 17.54700 32.17500
C  45.67900 17.80900 33.53000
C  46.77600 18.84800 33.19100
C  47.01800 18.61000 31.74100
C  46.31700 20.27900 33.61800
C  46.09300 16.50000 34.28700
C  45.54300 16.37200 35.77000
H  45.70400 17.71300 36.45500
N  47.72000 18.31600 28.75600
C  48.58100 18.89300 29.69500
C  49.76900 19.30500 29.05200
C  49.61700 19.19600 27.65000
C  48.29200 18.50900 27.51800
C  50.86600 19.77600 29.84600
C  50.53400 19.49700 26.56100
O  50.41800 19.01400 25.43600
C  51.59700 20.42300 26.78600
N  45.55500 16.98700 27.10300
C  46.30600 17.57000 26.14500
C  45.80700 17.25100 24.70500
C  44.58900 16.34700 25.04200
C  44.45900 16.45200 26.54200
C  45.37100 18.53900 23.87700
C  44.70400 14.83000 24.50000
C  43.72300 14.47700 23.37900
N  44.00300 16.38100 29.45800
C  43.07400 15.79600 28.55100
C  42.00000 15.26100 29.32500
C  42.30100 15.61100 30.67500
C  43.47900 16.31400 30.66100
C  40.75300 14.57400 28.81800
C  41.77100 15.58400 32.06800
O  40.72700 15.10600 32.50200
C  42.86500 16.25800 32.98100
C  42.30800 17.33400 33.71200
O  41.93400 18.41700 33.23200
O  42.16500 16.97700 35.02900
C  41.57600 17.99300 35.92600
H  48.91800 19.56900 31.71300
H  48.06000 18.47000 25.40400
H  42.54200 15.45400 26.56100
H  44.86000 18.22800 34.11400
H  47.68200 18.62500 33.75300
H  46.15400 20.83500 32.69500
H  47.12200 20.77000 34.16500
H  45.36100 20.20100 34.13600
H  47.16600 16.30400 34.27700
H  45.59200 15.72000 33.71300
H  46.25400 15.78700 36.35400
H  44.53000 16.00400 35.93300
H  51.78900 19.29300 29.52600
H  50.73700 19.47700 30.88600
H  50.95000 20.86300 29.86700
H  52.03300 20.79800 25.86000
H  52.36400 19.94900 27.39900
H  51.09500 21.24300 27.29800
H  46.51000 16.69900 24.08200
H  43.70400 16.84400 24.64300
H  45.47100 19.45800 24.45500
H  44.39400 18.59300 23.39700
H  46.09300 18.63400 23.06600
H  44.53900 14.14600 25.33200
H  45.72400 14.72900 24.12900
H  42.98300 13.80900 23.81900
H  44.30900 14.08300 22.54900
H  43.16800 15.36400 23.07000
H  39.88500 14.87500 29.40400
H  40.86300 13.49100 28.87300
H  40.64500 14.75300 27.74800
H  43.21900 15.42300 33.58500
H  42.04900 17.73300 36.87200
H  40.50400 17.88400 36.08800
H  41.69200 19.04700 35.67100
Mg 7.47100 52.86000 42.07200
C  6.98200 49.44400 41.52100
C  10.48900 52.69700 40.55400
C  7.66600 56.19300 42.36000
C  4.25900 53.05600 43.36500
N  8.50600 51.24600 40.95700
C  8.17100 49.95900 40.93300
C  9.30200 49.17100 40.18000
C  10.53200 50.14600 40.22500
C  9.83300 51.44900 40.64600
C  11.79600 49.69500 41.00500
C  8.81900 48.71900 38.77200
C  7.96200 49.71900 37.92700
H  7.72000 49.37700 36.46400
N  8.88400 54.30900 41.48800
C  10.06900 54.05900 40.84800
C  10.86900 55.23600 40.80400
C  10.08500 56.25200 41.31600
C  8.81700 55.57700 41.81600
C  12.20900 55.28900 40.02000
C  10.44600 57.79200 41.38300
O  11.50100 58.17300 40.87200
C  9.47300 58.82800 41.78300
N  6.11900 54.47300 42.55200
C  6.43100 55.73300 42.70000
C  5.15800 56.65900 42.95500
C  4.15500 55.50600 43.34900
C  4.86900 54.24700 43.06900
C  5.28900 57.90400 43.96300
C  2.75800 55.58000 42.61400
C  1.51600 55.47200 43.53000
N  5.85500 51.59300 42.42500
C  4.66000 51.76500 43.03900
C  3.99400 50.55200 43.12900
C  4.94100 49.57700 42.72800
C  5.98200 50.28900 42.15700
C  2.56800 50.26800 43.58800
C  5.25900 48.15800 42.63300
O  4.66000 47.14200 42.99100
C  6.60700 48.08700 41.75600
C  6.27100 47.38600 40.45600
O  5.57700 47.77800 39.50800
O  6.73500 46.11400 40.53500
C  6.31500 45.13900 39.55400
H  11.52300 52.61100 40.21200
H  7.87700 57.21400 42.68300
H  3.30400 53.00800 43.89200
H  9.53700 48.22000 40.66000
H  10.90600 50.31900 39.21600
H  12.63500 49.51700 40.33300
H  11.62800 48.75200 41.52400
H  11.88100 50.44600 41.79100
H  8.47700 47.68800 38.86100
H  9.72500 48.70400 38.16600
H  8.53600 50.64500 37.87900
H  7.04100 50.03200 38.42000
H  12.07800 55.25100 38.93900
H  12.76500 54.42900 40.39400
H  12.76400 56.21800 40.15000
H  9.19700 58.79000 42.83700
H  8.55800 58.66000 41.21400
H  9.87700 59.80300 41.51000
H  4.85000 57.10600 42.01000
H  4.08000 55.66100 44.42500
H  4.46100 57.76500 44.65800
H  5.31000 58.91400 43.55200
H  6.25400 57.91300 44.47000
H  2.65200 54.72500 41.94700
H  2.74700 56.49300 42.01900
H  0.97600 54.57200 43.23400
H  0.88600 56.36100 43.55000
H  1.92800 55.33900 44.53100
H  1.93800 51.14800 43.45700
H  2.54500 49.90200 44.61500
H  2.15700 49.39000 43.08900
H  7.43000 47.66300 42.33200
H  6.90300 45.34900 38.66100
H  5.26200 45.20500 39.27900
H  6.49100 44.08700 39.78100

