158

Mg 8.70200 3.21000 27.47200
C  10.19400 1.72300 30.15500
C  6.76800 5.08300 29.61600
C  7.36600 4.58300 24.81300
C  10.32200 0.82500 25.48600
N  8.41400 3.25800 29.67500
C  9.31600 2.70000 30.61100
C  9.06900 3.28900 32.00600
C  7.85400 4.28200 31.80000
C  7.66200 4.25600 30.24800
C  6.60100 4.08400 32.62300
C  10.32200 3.89100 32.68300
C  10.15500 4.47700 34.09500
H  11.16300 4.11200 35.15600
N  7.29700 4.59200 27.28400
C  6.61200 5.35100 28.22300
C  5.75900 6.27800 27.64900
C  5.80500 6.09900 26.22800
C  6.87000 5.06000 26.05100
C  4.90700 7.23000 28.49800
C  5.02800 6.74200 25.13800
O  5.06500 6.40000 23.96200
C  4.06900 7.88800 25.40400
N  8.91400 2.78100 25.42800
C  8.32800 3.58000 24.54200
C  8.74100 3.24400 23.05900
C  9.66700 1.95200 23.24800
C  9.68600 1.86400 24.79100
C  7.49900 3.11900 22.11000
C  11.16600 2.04500 22.57400
C  11.55300 0.88500 21.54100
N  9.92600 1.50000 27.68300
C  10.52100 0.66200 26.77300
C  11.46600 -0.16700 27.49200
C  11.34600 0.20800 28.82600
C  10.35100 1.20400 28.86800
C  12.43100 -1.22800 26.88700
C  11.75400 -0.11700 30.17600
O  12.56800 -0.86600 30.58700
C  11.13100 0.91500 31.01700
C  10.52600 0.29300 32.22800
O  9.41100 -0.16000 32.34300
O  11.36200 0.44000 33.29200
C  10.84300 0.04500 34.61700
H  6.44000 5.80700 30.36400
H  6.89600 5.02200 23.93000
H  10.80200 0.14000 24.78400
H  8.67700 2.44100 32.56700
H  8.17300 5.30100 32.02100
H  6.42800 4.89400 33.33200
H  6.65500 3.22400 33.29000
H  5.72200 4.06400 31.97900
H  10.65500 4.69200 32.02300
H  11.15200 3.18900 32.59900
H  9.14100 4.44400 34.49300
H  10.32900 5.54400 33.96000
H  5.04500 7.14900 29.57600
H  3.83700 7.05400 28.39000
H  5.24000 8.24000 28.25900
H  4.59400 8.67800 25.94100
H  3.25400 7.58700 26.06300
H  3.54100 8.22200 24.51100
H  9.29300 4.16200 22.85800
H  9.18100 1.04500 22.88900
H  7.16500 2.09800 22.29400
H  7.82400 3.29500 21.08400
H  6.60900 3.67900 22.39900
H  11.92800 2.12200 23.34900
H  11.04700 2.96100 21.99600
H  12.17100 0.14600 22.05300
H  12.02600 1.35900 20.68100
H  10.61700 0.41400 21.24200
H  11.86000 -1.50900 26.00200
H  12.55000 -1.97800 27.66900
H  13.45500 -0.93100 26.65800
H  11.93200 1.51000 31.45600
H  10.69400 0.92100 35.24800
H  11.75700 -0.42900 34.97400
H  9.97800 -0.61400 34.69300
Mg 54.50800 24.77400 44.00800
C  51.42300 26.75400 43.36300
C  52.72600 22.06400 42.84900
C  57.36800 23.10200 43.89400
C  56.07800 27.70800 44.91900
N  52.23400 24.47600 43.22100
C  51.20100 25.36500 43.06400
C  49.97700 24.68500 42.37000
C  50.35700 23.19000 42.60700
C  51.88300 23.24100 42.85300
C  49.70000 22.50700 43.85800
C  50.00500 24.97800 40.84500
C  51.34300 25.22700 40.12300
H  51.37700 26.01400 38.76300
N  54.96900 22.82300 43.45200
C  54.06700 21.88200 43.08300
C  54.75700 20.63800 42.99800
C  56.16600 20.84700 43.22600
C  56.23200 22.29200 43.54100
C  54.14500 19.27800 42.65300
C  57.22600 19.82200 43.20300
O  57.02900 18.65100 42.89300
C  58.69300 20.28600 43.30600
N  56.47300 25.36800 44.21700
C  57.49400 24.46200 44.27700
C  58.87300 25.14500 44.46200
C  58.42600 26.66600 44.79200
C  56.86800 26.57800 44.61900
C  59.66900 24.62000 45.59900
C  59.05300 27.73100 43.81100
C  59.41300 29.11300 44.42100
N  53.91100 26.75300 44.21200
C  54.68000 27.80400 44.68500
C  53.75200 28.96300 44.84500
C  52.54000 28.55000 44.30600
C  52.63000 27.23200 43.92600
C  54.04100 30.26600 45.51000
C  51.14400 29.04300 44.02800
O  50.69900 30.16000 44.18900
C  50.39700 27.81200 43.45900
C  49.73300 28.14100 42.15800
O  50.36400 28.52500 41.19900
O  48.37700 28.07400 42.30000
C  47.63600 28.42800 41.05800
H  52.22700 21.15800 42.49900
H  58.33900 22.61100 43.98200
H  56.58900 28.62000 45.23500
H  49.02000 24.93800 42.82500
H  50.17000 22.58100 41.72200
H  50.19900 21.54600 43.97600
H  48.63700 22.36900 43.65500
H  49.86800 23.03500 44.79600
H  49.46100 25.91300 40.71100
H  49.52900 24.23200 40.20900
H  51.67500 24.21500 39.89200
H  52.03100 25.77600 40.76500
H  54.17500 18.96900 41.60900
H  53.06700 19.29400 42.81700
H  54.43800 18.50100 43.35800
H  59.18200 20.42100 44.27000
H  58.74500 21.22000 42.74600
H  59.26400 19.52200 42.78000
H  59.21600 25.04300 43.43200
H  58.63400 27.03400 45.79600
H  59.81200 25.34200 46.40300
H  60.68000 24.41700 45.24700
H  59.18900 23.74000 46.02700
H  58.34400 27.92600 43.00700
H  59.93900 27.32100 43.32400
H  59.59000 28.87500 45.47000
H  58.43300 29.58800 44.38900
H  60.09900 29.77400 43.89100
H  53.33000 30.46800 46.31200
H  54.08700 31.03200 44.73600
H  55.00800 30.15500 46.00200
H  49.66700 27.60000 44.23900
H  47.80400 29.48100 40.83000
H  46.58500 28.14100 41.09500
H  48.10100 27.88100 40.23800

