158

Mg 49.22200 36.53000 27.34500
C  47.17900 34.79300 29.74800
C  48.99100 39.31400 29.29500
C  50.76900 38.12100 24.91600
C  48.61500 33.76500 25.26900
N  48.18100 36.97800 29.29500
C  47.55000 36.09700 30.11700
C  47.16500 36.81300 31.43200
C  47.60700 38.29100 31.18300
C  48.32200 38.19600 29.83500
C  46.57500 39.45500 31.30100
C  47.81500 36.23100 32.80400
C  46.73900 36.04000 33.99200
H  46.50200 37.18600 35.02600
N  49.86000 38.48700 27.15100
C  49.78100 39.46000 28.09900
C  50.53700 40.63600 27.62400
C  51.12500 40.29700 26.29000
C  50.62100 38.94500 26.06900
C  50.71100 41.84300 28.59500
C  51.97100 41.16300 25.41400
O  52.32600 40.76300 24.29700
C  52.35100 42.59800 25.82900
N  49.48300 36.09600 25.43200
C  50.24800 36.86900 24.68600
C  50.56100 36.22400 23.28500
C  50.19900 34.69800 23.59000
C  49.33300 34.82300 24.81600
C  49.60600 36.86800 22.27000
C  51.40600 33.66700 23.67000
C  51.23200 32.31300 22.94100
N  48.16800 34.59200 27.46200
C  47.93700 33.63900 26.48700
C  46.98800 32.59500 27.00800
C  46.80400 32.98000 28.34100
C  47.46800 34.17800 28.52800
C  46.51200 31.39800 26.27800
C  46.09700 32.59600 29.60500
O  45.39100 31.62200 29.93300
C  46.44600 33.70900 30.58400
C  47.03700 33.01200 31.82000
O  48.16300 32.85000 32.17300
O  45.95000 32.61100 32.59600
C  46.30100 31.80000 33.74200
H  48.92700 40.12800 30.02000
H  51.20200 38.67400 24.08000
H  48.42000 32.97800 24.53800
H  46.08200 36.73100 31.51900
H  48.35800 38.60100 31.90900
H  46.57200 40.01700 30.36700
H  46.76200 40.19000 32.08300
H  45.65400 38.93000 31.55700
H  48.53100 36.99200 33.11500
H  48.35700 35.28900 32.72400
H  46.93900 35.08000 34.46900
H  45.72800 35.95300 33.59300
H  50.75700 41.44600 29.61000
H  49.91900 42.57200 28.43000
H  51.61900 42.44600 28.58200
H  52.98000 42.46600 26.70900
H  51.52800 43.25900 26.10000
H  52.90700 43.16700 25.08500
H  51.56700 36.42600 22.91600
H  49.48100 34.38900 22.83000
H  49.23600 37.75000 22.79300
H  48.86100 36.18300 21.86500
H  50.17700 37.30200 21.44900
H  51.57600 33.50500 24.73400
H  52.26300 34.27600 23.37800
H  51.42000 31.49300 23.63300
H  51.95900 32.37400 22.13200
H  50.24100 32.26900 22.48900
H  45.48700 31.60600 25.97200
H  46.60700 30.52200 26.92000
H  47.10600 31.21800 25.38100
H  45.46700 34.17500 30.69900
H  46.50700 30.77500 33.43500
H  45.43500 31.78400 34.40300
H  47.21200 32.10600 34.25600
Mg -11.71000 15.70000 42.30700
C  -8.66800 13.85200 41.86600
C  -10.13000 18.42300 41.13600
C  -14.73300 17.10700 42.14000
C  -13.27700 12.57100 43.21500
N  -9.69500 15.98000 41.31700
C  -8.62300 15.19600 41.46700
C  -7.41900 15.96500 41.02700
C  -7.81900 17.44600 41.22500
C  -9.34800 17.29700 41.27000
C  -7.12200 18.19700 42.36200
C  -6.88200 15.53400 39.69600
C  -5.36800 15.72400 39.36900
H  -4.79600 16.72600 38.38700
N  -12.27800 17.57900 41.83000
C  -11.50200 18.62100 41.31400
C  -12.22300 19.79300 41.17900
C  -13.62800 19.37600 41.46400
C  -13.60400 17.96400 41.88800
C  -11.61700 21.13600 40.65500
C  -14.82700 20.31800 41.35800
O  -14.74500 21.48400 40.94400
C  -16.13600 19.84200 41.87400
N  -13.67200 14.91200 42.62900
C  -14.74700 15.78100 42.49000
C  -16.03800 14.96200 42.46400
C  -15.69400 13.55100 43.14500
C  -14.10500 13.66300 42.93500
C  -17.17300 15.57600 43.39600
C  -16.34400 12.32000 42.50000
C  -16.81000 11.18300 43.42400
N  -11.12700 13.62200 42.59400
C  -11.84600 12.51800 43.02300
C  -10.89900 11.36400 43.21800
C  -9.65600 11.85400 42.72000
C  -9.86800 13.22700 42.29500
C  -11.18500 10.06600 43.81600
C  -8.25100 11.53500 42.50700
O  -7.67600 10.46400 42.63600
C  -7.55900 12.76400 41.92100
C  -6.52100 13.28100 42.88900
O  -6.64500 13.84900 43.95800
O  -5.30200 13.16700 42.30200
C  -4.18900 13.54800 43.07500
H  -9.56700 19.32200 40.87500
H  -15.71600 17.53200 41.92700
H  -13.71000 11.68800 43.68900
H  -6.57100 15.95100 41.71300
H  -7.45300 18.03400 40.38300
H  -7.86300 18.77000 42.92000
H  -6.38900 18.85700 41.89900
H  -6.61900 17.56900 43.09800
H  -7.45400 16.23600 39.08900
H  -7.30000 14.55900 39.44700
H  -5.01100 14.73200 39.09100
H  -4.90600 16.02700 40.30900
H  -10.55800 21.18900 40.90600
H  -12.17800 21.97100 41.07600
H  -11.81600 21.25000 39.58900
H  -16.51300 19.13600 41.13400
H  -16.76800 20.72900 41.84000
H  -16.06100 19.43800 42.88400
H  -16.38300 14.92600 41.43100
H  -15.69300 13.41800 44.22700
H  -18.14200 15.49200 42.90500
H  -16.95400 16.64100 43.46000
H  -17.30400 15.08800 44.36200
H  -15.75600 11.85800 41.70700
H  -17.21400 12.77000 42.02100
H  -16.47500 11.23400 44.46000
H  -16.33900 10.31100 42.97000
H  -17.88600 11.01600 43.46500
H  -10.78200 9.30200 43.15100
H  -12.25600 9.88700 43.91300
H  -10.63200 9.89100 44.73900
H  -7.14200 12.34800 41.00400
H  -3.31500 13.75700 42.45800
H  -3.92300 12.71100 43.72100
H  -4.30300 14.46000 43.66100

