158

Mg 46.49600 25.73100 29.24800
C  47.35000 27.80400 31.73000
C  45.70600 23.21500 31.71200
C  46.24100 23.18700 26.95100
C  48.13500 27.59200 26.87500
N  46.58400 25.55200 31.43700
C  46.77300 26.60600 32.27400
C  46.51900 26.31500 33.77900
C  46.36800 24.75100 33.73800
C  46.17300 24.44600 32.23200
C  47.49700 23.85700 34.38200
C  45.43000 27.21800 34.36200
C  45.69000 27.94200 35.69100
H  46.33500 27.22500 36.95900
N  45.72800 23.69600 29.24100
C  45.48000 22.87400 30.35700
C  44.81000 21.68300 29.90400
C  45.13300 21.62300 28.47700
C  45.66100 22.92100 28.16100
C  44.20000 20.65000 30.85400
C  45.00700 20.42700 27.56700
O  45.24500 20.36600 26.39300
C  44.37000 19.19700 28.11000
N  47.09400 25.41500 27.13700
C  46.89700 24.33600 26.42300
C  47.44900 24.35300 25.04400
C  47.97300 25.87500 24.99000
C  47.75100 26.31100 26.42300
C  48.45300 23.17800 24.81800
C  47.32900 26.84900 23.88400
C  48.32500 27.37900 22.84900
N  47.44900 27.44500 29.21100
C  47.98300 28.16900 28.18400
C  48.68700 29.33100 28.76000
C  48.35700 29.27700 30.12900
C  47.63600 28.09100 30.36300
C  49.36100 30.48600 28.14300
C  48.47300 29.93800 31.40000
O  48.95000 31.04300 31.57500
C  47.91400 28.98500 32.44100
C  49.06500 28.62000 33.26300
O  49.91000 27.80500 32.89700
O  49.00200 29.28600 34.45700
C  50.10200 29.14000 35.42500
H  45.35200 22.67000 32.59000
H  46.20500 22.46200 26.13600
H  48.76300 28.22700 26.24600
H  47.39900 26.72500 34.27400
H  45.48000 24.68300 34.36500
H  48.47100 24.27500 34.12600
H  47.41100 22.87600 33.91300
H  47.37400 23.77400 35.46200
H  44.43800 26.76900 34.41500
H  45.31700 28.11000 33.74700
H  44.67700 28.21800 35.98400
H  46.30500 28.81900 35.48900
H  43.23100 20.58400 30.36000
H  44.00400 21.08100 31.83600
H  44.84700 19.78000 30.96500
H  45.11800 18.83200 28.81400
H  44.29800 18.44700 27.32300
H  43.37400 19.30600 28.54100
H  46.64100 24.26700 24.31800
H  49.05800 25.92800 24.90100
H  48.04000 22.52800 24.04700
H  48.66900 22.64600 25.74400
H  49.39500 23.62100 24.49400
H  46.91900 27.74100 24.35600
H  46.50200 26.33100 23.39700
H  47.99700 27.16100 21.83200
H  49.37700 27.10500 22.92700
H  48.39200 28.46100 22.95700
H  48.80200 31.40500 28.32300
H  49.52700 30.29200 27.08400
H  50.24900 30.67000 28.74700
H  47.13700 29.54000 32.96700
H  51.00900 28.71000 35.00000
H  49.84900 28.71000 36.39400
H  50.43600 30.16100 35.61400
Mg -5.84500 24.37000 25.51200
C  -4.35400 25.77000 28.47100
C  -7.64900 22.32700 27.58900
C  -6.76500 22.79700 22.80800
C  -3.72400 26.55300 23.60700
N  -6.10000 24.30500 27.76800
C  -5.42400 24.93400 28.70500
C  -5.84700 24.50800 30.17000
C  -6.76100 23.27900 29.90500
C  -6.87400 23.26800 28.31800
C  -6.30900 21.87800 30.41000
C  -6.49900 25.65500 30.93400
C  -6.10400 25.69700 32.40500
H  -5.57600 24.39600 33.02600
N  -7.05500 22.83700 25.21300
C  -7.78900 22.13900 26.18800
C  -8.71100 21.25200 25.50300
C  -8.27000 21.21100 24.14700
C  -7.32900 22.31500 24.02500
C  -9.78500 20.46800 26.29900
C  -8.90000 20.46200 23.00300
O  -8.53500 20.52200 21.83400
C  -10.00500 19.49700 23.26500
N  -5.39100 24.73700 23.54500
C  -5.89000 23.81300 22.62500
C  -5.21500 24.05900 21.26800
C  -4.36300 25.40200 21.37300
C  -4.49600 25.61300 22.94400
C  -4.50800 22.96600 20.45200
C  -4.91700 26.68600 20.58700
C  -4.03200 27.47000 19.56100
N  -4.44000 25.93900 25.89600
C  -3.60700 26.70600 25.01500
C  -2.63100 27.46000 25.73900
C  -2.85400 27.11600 27.09600
C  -4.00700 26.27400 27.14800
C  -1.60900 28.28300 25.20100
C  -2.24800 27.23000 28.39000
O  -1.20900 27.79200 28.71400
C  -3.32700 26.47800 29.40300
C  -2.48600 25.67200 30.38400
O  -1.84500 24.69100 30.03100
O  -2.58100 26.11100 31.67200
C  -1.61400 25.47400 32.57100
H  -8.21700 21.74800 28.32100
H  -6.97400 22.22100 21.90400
H  -3.09400 27.19600 22.98900
H  -4.97500 24.04400 30.63200
H  -7.79000 23.53600 30.15800
H  -5.47000 22.05100 31.08400
H  -6.00500 21.22800 29.59000
H  -7.10200 21.46300 31.03200
H  -7.58600 25.58200 30.92300
H  -6.18800 26.51400 30.34000
H  -6.90100 26.20800 32.94600
H  -5.22800 26.34500 32.40700
H  -9.33500 19.59800 26.77800
H  -10.60600 20.04400 25.72200
H  -10.17300 21.09600 27.10100
H  -9.68400 18.86900 24.09700
H  -10.27200 18.90600 22.38900
H  -10.79700 20.15100 23.63100
H  -6.08000 24.36700 20.68000
H  -3.31200 25.25900 21.12100
H  -4.30100 22.13000 21.12000
H  -3.51300 23.23400 20.09500
H  -5.13200 22.70100 19.59900
H  -5.34600 27.40100 21.28900
H  -5.79200 26.37600 20.01700
H  -4.31900 27.29500 18.52400
H  -2.99600 27.15700 19.69000
H  -4.04000 28.55500 19.66600
H  -0.82200 28.43200 25.94100
H  -1.99800 29.28700 25.02900
H  -1.23600 27.94400 24.23500
H  -3.94200 27.11800 30.03600
H  -1.60500 24.38500 32.51600
H  -1.91600 25.73600 33.58500
H  -0.60800 25.76600 32.26900

