158

Mg 5.29100 53.92100 41.11200
C  4.97000 50.30800 40.60800
C  8.47700 53.66800 40.02100
C  5.13300 57.17600 40.84700
C  1.70300 53.82000 41.82200
N  6.51900 52.17500 40.28200
C  6.26300 50.86900 40.16900
C  7.48200 50.05600 39.80600
C  8.64900 51.14800 39.96200
C  7.82900 52.42800 40.14100
C  9.68800 50.89400 41.08400
C  7.47300 49.35500 38.35800
C  7.58900 50.15700 37.02100
H  6.55900 49.96800 35.85900
N  6.59600 55.26000 40.39000
C  7.88800 54.95500 40.05300
C  8.54000 56.20900 39.79500
C  7.64200 57.27000 40.05400
C  6.37800 56.62100 40.45100
C  10.02100 56.29100 39.62400
C  7.90900 58.82600 39.89600
O  9.00000 59.15700 39.51200
C  6.86900 60.00300 40.12400
N  3.64000 55.29400 41.34900
C  3.90100 56.58900 41.19100
C  2.67000 57.44400 41.55100
C  1.47800 56.36000 41.57400
C  2.33000 55.06700 41.54400
C  2.77800 58.23300 42.91700
C  0.51000 56.52300 40.30800
C  -1.01300 56.29200 40.45700
N  3.68700 52.45600 41.38600
C  2.30500 52.58600 41.67600
C  1.72000 51.27100 41.94200
C  2.74500 50.37400 41.44100
C  3.88500 51.10300 41.13300
C  0.22800 50.90400 42.45100
C  2.98800 48.97200 41.20800
O  2.21800 48.01600 41.28100
C  4.49400 48.81700 40.67200
C  4.53600 48.04900 39.39900
O  4.06000 48.37500 38.32200
O  5.15100 46.82700 39.52200
C  5.11600 45.91300 38.40600
H  9.56600 53.62700 39.95100
H  5.18800 58.26400 40.91400
H  0.63700 53.73100 42.04000
H  7.67900 49.16000 40.39300
H  9.21600 51.21400 39.03300
H  9.81100 49.82200 41.24000
H  9.37800 51.50100 41.93500
H  10.64600 51.33200 40.80400
H  6.54300 48.79100 38.28500
H  8.32700 48.67800 38.35100
H  8.59100 49.97300 36.63400
H  7.54900 51.23600 37.17400
H  10.34200 55.40900 39.06900
H  10.52000 56.47800 40.57400
H  10.29600 56.96900 38.81600
H  6.56900 59.99000 41.17200
H  5.97300 59.80400 39.53700
H  7.29600 60.86800 39.61600
H  2.59200 58.18700 40.75800
H  0.93900 56.40500 42.52000
H  2.36300 59.22600 42.74200
H  3.83100 58.36900 43.16300
H  2.19700 57.75300 43.70500
H  0.87300 55.79500 39.58200
H  0.63500 57.41400 39.69300
H  -1.40800 56.40300 41.46700
H  -1.45000 55.39900 40.01000
H  -1.44700 57.07100 39.82900
H  -0.44800 51.12900 41.62600
H  0.08600 51.45700 43.37900
H  0.09100 49.89400 42.83700
H  5.08800 48.25400 41.39300
H  4.68100 45.00100 38.81600
H  6.17300 45.82600 38.15300
H  4.41100 46.20100 37.62700
Mg -4.84500 25.19800 25.56800
C  -3.34400 26.12600 28.62500
C  -6.79400 22.88500 27.56700
C  -5.72600 23.62000 22.88300
C  -2.56800 27.21900 23.88500
N  -4.92800 24.53700 27.89200
C  -4.29500 25.19100 28.87400
C  -4.87500 24.87900 30.26100
C  -5.72500 23.61500 29.84400
C  -5.88500 23.70800 28.31700
C  -5.11600 22.27900 30.27100
C  -5.75200 26.12400 30.79200
C  -5.55200 26.46500 32.32500
H  -4.69700 25.57000 33.16200
N  -6.26400 23.66300 25.21600
C  -6.95000 22.89800 26.11800
C  -7.95500 22.17000 25.44200
C  -7.60000 22.26500 24.06500
C  -6.48300 23.19000 23.95400
C  -9.06200 21.40300 26.19500
C  -8.32300 21.63400 22.87700
O  -7.98300 21.84200 21.72500
C  -9.62800 20.84900 23.10700
N  -4.14000 25.31600 23.63100
C  -4.62100 24.47900 22.67300
C  -3.96900 24.83700 21.28700
C  -3.26200 26.23000 21.50000
C  -3.34200 26.30000 23.05700
C  -2.90500 23.74500 20.81600
C  -3.98900 27.38700 20.76600
C  -3.09200 28.60300 20.54000
N  -3.22800 26.38000 26.07200
C  -2.46700 27.21300 25.28600
C  -1.61900 28.01200 26.11700
C  -1.91700 27.59100 27.40300
C  -2.92400 26.61100 27.35300
C  -0.76500 29.07600 25.63800
C  -1.63400 27.86000 28.76100
O  -0.82400 28.63200 29.33300
C  -2.49200 26.85400 29.62600
C  -1.56300 26.19100 30.52400
O  -1.03100 25.10400 30.29900
O  -1.50900 26.90600 31.73200
C  -0.54800 26.27600 32.71600
H  -7.49500 22.20000 28.05000
H  -6.13200 23.12000 22.00100
H  -1.96200 27.84800 23.23000
H  -4.19200 24.55700 31.04700
H  -6.66500 23.63900 30.39500
H  -5.86200 21.86800 30.95100
H  -4.11500 22.35600 30.69600
H  -4.97000 21.64000 29.40100
H  -6.82100 25.91400 30.74300
H  -5.67700 27.02400 30.18200
H  -6.51600 26.67500 32.79000
H  -5.09600 27.45500 32.31300
H  -9.73200 20.66800 25.74900
H  -9.72300 22.12000 26.68300
H  -8.56600 20.89700 27.02400
H  -9.29200 19.95200 23.62600
H  -9.94900 20.63500 22.08700
H  -10.30100 21.39500 23.76800
H  -4.78600 24.81200 20.56600
H  -2.24000 26.25900 21.12200
H  -1.95900 24.17400 20.48400
H  -3.39800 23.07600 20.11000
H  -2.55100 23.12100 21.63700
H  -4.93400 27.67500 21.22500
H  -4.18300 26.92800 19.79600
H  -2.95600 28.75600 19.46900
H  -2.15900 28.44300 21.08000
H  -3.58800 29.52200 20.85100
H  -0.56600 29.80500 26.42400
H  -1.23900 29.59200 24.80300
H  0.20700 28.61600 25.45800
H  -3.08900 27.55000 30.21500
H  -0.52900 25.18700 32.77000
H  -0.71300 26.64800 33.72800
H  0.47700 26.57000 32.49100

