158

Mg 48.58200 44.60800 43.19400
C  45.10000 44.26100 42.98500
C  48.79000 40.98600 43.01900
C  51.92300 44.95600 42.92700
C  48.17700 48.05800 42.68700
N  47.06600 42.93400 43.04500
C  45.70300 42.98300 43.09700
C  44.98900 41.60200 43.01800
C  46.21100 40.66000 43.41600
C  47.45800 41.52900 43.11900
C  46.15000 40.17500 44.90600
C  44.25200 41.27000 41.72200
C  45.16500 41.50600 40.43500
H  45.50800 40.26400 39.50300
N  50.19400 43.14500 42.97800
C  50.07000 41.73900 42.93300
C  51.43300 41.22900 42.91900
C  52.38000 42.32000 42.98400
C  51.56000 43.54600 43.02300
C  51.59800 39.75600 42.72900
C  53.89500 42.18800 42.99300
O  54.40500 41.10200 43.09100
C  54.70300 43.35400 42.66100
N  49.88100 46.28500 42.76300
C  51.20100 46.16100 42.86800
C  51.95400 47.43900 42.45000
C  50.71500 48.44400 42.64800
C  49.48800 47.60500 42.70600
C  53.16300 47.92300 43.29700
C  50.62800 49.56000 41.54600
C  51.93100 50.23200 41.03300
N  47.03400 45.97600 43.03100
C  46.99400 47.32400 42.85900
C  45.60200 47.84000 42.81300
C  44.82400 46.66500 42.83600
C  45.73000 45.54200 43.03100
C  45.19800 49.21300 42.67400
C  43.52000 46.19400 42.72800
O  42.50300 46.82000 42.64700
C  43.57200 44.61300 42.91600
C  42.69700 44.12000 44.09500
O  41.78500 43.36500 44.04700
O  43.09600 44.69600 45.24200
C  42.44000 44.13000 46.48300
H  48.78500 39.89900 43.12100
H  52.98500 45.13000 42.74100
H  47.94300 49.12400 42.73800
H  44.38200 41.63000 43.92200
H  46.17100 39.79300 42.75700
H  46.82600 40.79800 45.49300
H  46.55500 39.16300 44.92600
H  45.13300 40.18700 45.29800
H  43.36400 41.89500 41.63100
H  43.90900 40.24600 41.86600
H  46.12500 41.83800 40.82900
H  44.74800 42.27900 39.79000
H  51.00000 39.53600 41.84500
H  51.17800 39.26200 43.60600
H  52.61000 39.40600 42.53000
H  54.25600 43.85700 41.80400
H  55.72600 43.04300 42.44900
H  54.78900 43.90800 43.59600
H  52.20900 47.54200 41.39500
H  50.84600 48.97800 43.58900
H  53.32800 47.08600 43.97700
H  53.18400 48.89000 43.80000
H  54.10000 47.97400 42.74200
H  49.98400 50.38800 41.84300
H  50.18500 49.10800 40.65900
H  52.80000 49.78800 41.51900
H  51.94000 51.27500 41.34900
H  52.14700 50.21600 39.96500
H  45.22600 49.58100 41.64800
H  45.73000 49.89700 43.33600
H  44.15900 49.34400 42.97800
H  43.15600 44.13300 42.02900
H  42.60700 43.05400 46.53500
H  41.35200 44.11100 46.42000
H  42.80800 44.73900 47.30800
Mg 42.16500 41.13300 26.09600
C  41.18100 43.59300 28.56100
C  43.05300 39.01300 28.77000
C  43.34600 38.86900 23.93500
C  41.83000 43.45000 23.78600
N  42.20400 41.30200 28.37600
C  41.61800 42.34600 29.14500
C  41.54400 41.97600 30.62700
C  42.43300 40.62500 30.67200
C  42.62500 40.28200 29.21100
C  43.77300 40.64200 31.37500
C  40.06700 41.83800 31.33600
C  40.00800 41.23300 32.75400
H  39.50100 42.07700 33.93600
N  43.03600 39.17600 26.36900
C  43.31200 38.46600 27.50600
C  43.85900 37.16800 27.19400
C  43.95400 37.11000 25.77600
C  43.45700 38.39100 25.30900
C  44.07200 36.06800 28.25200
C  44.44100 36.03800 24.87600
O  44.59800 36.17300 23.64400
C  44.75500 34.60200 25.48000
N  42.65400 41.15600 24.19000
C  42.94300 40.09500 23.46500
C  42.98900 40.50000 21.97100
C  42.45000 41.95900 21.90100
C  42.31600 42.22600 23.41700
C  44.33400 40.34600 21.21900
C  41.08600 42.07200 21.22100
C  39.88700 41.22700 21.76000
N  41.67800 43.06400 26.06100
C  41.61300 43.93900 25.02200
C  41.15400 45.26700 25.42600
C  40.91400 45.11100 26.78700
C  41.24900 43.78700 27.16300
C  40.98000 46.46400 24.51700
C  40.46300 45.79900 27.98600
O  40.02400 46.89100 28.12800
C  40.63500 44.78200 29.19700
C  41.49000 45.33200 30.30400
O  42.55700 45.78400 30.13600
O  40.85400 45.16400 31.49600
C  41.63500 45.51600 32.69800
H  43.25600 38.33800 29.60400
H  43.69900 38.27600 23.08900
H  41.64100 44.22300 23.03800
H  42.03200 42.81600 31.12200
H  41.83000 39.87700 31.18800
H  43.79100 39.92700 32.19700
H  43.97300 41.58300 31.88700
H  44.61800 40.49900 30.70100
H  39.40400 41.36600 30.61100
H  39.50700 42.74500 31.56000
H  41.04800 40.93400 32.88600
H  39.36700 40.35500 32.67900
H  43.95500 36.35400 29.29700
H  45.09700 35.75300 28.05700
H  43.36500 35.27900 27.99800
H  45.45400 34.76900 26.29900
H  45.19400 33.98600 24.69500
H  43.86900 34.13500 25.91000
H  42.30600 39.76200 21.54800
H  43.17900 42.67800 21.52900
H  45.04100 40.09000 22.00800
H  44.64800 41.27100 20.73500
H  44.18200 39.44700 20.62100
H  41.25500 41.76900 20.18700
H  40.84900 43.13600 21.20000
H  39.72000 40.43600 21.02900
H  39.01600 41.87600 21.85800
H  40.06500 40.91000 22.78800
H  40.95500 46.16900 23.46800
H  41.82000 47.11100 24.76800
H  40.02800 46.96200 24.70200
H  39.65500 44.50900 29.59000
H  41.26700 44.95800 33.56000
H  41.61300 46.58100 32.92800
H  42.65600 45.13800 32.65400

