158

Mg 41.40900 9.03200 30.13700
C  43.43900 10.00500 32.86300
C  38.92500 8.06100 32.45900
C  39.61300 8.14100 27.66800
C  44.11500 9.62400 27.99700
N  41.23700 9.02800 32.40000
C  42.14400 9.59600 33.27700
C  41.54800 9.64800 34.70400
C  40.18100 8.82000 34.57700
C  40.12800 8.60300 33.06200
C  40.14200 7.52500 35.41900
C  41.49400 11.11900 35.33700
C  40.65400 11.36500 36.59000
H  41.29300 12.34200 37.56600
N  39.51200 8.16200 30.08500
C  38.62300 7.84800 31.10100
C  37.44100 7.23500 30.51000
C  37.63900 7.24700 29.12000
C  38.95100 7.82300 28.85500
C  36.36100 6.60900 31.25700
C  36.72600 6.72100 28.02700
O  37.14400 6.38100 26.97800
C  35.19700 6.63600 28.31700
N  41.78600 8.87200 28.04000
C  40.85900 8.51300 27.25300
C  41.24400 8.67300 25.81100
C  42.64700 9.29300 25.89400
C  42.92400 9.18200 27.40100
C  41.03200 7.48100 24.83300
C  42.79800 10.70400 25.38300
C  44.12300 11.09300 24.78500
N  43.41400 9.63100 30.34400
C  44.42400 9.75700 29.37800
C  45.60800 10.20300 30.02500
C  45.29100 10.34000 31.37800
C  43.93000 9.96300 31.56000
C  46.88700 10.53300 29.40700
C  45.79900 10.82200 32.64700
O  46.85000 11.28600 32.97200
C  44.55200 10.74700 33.61000
C  45.09300 10.17300 34.83100
O  45.49000 9.03400 34.91300
O  45.18700 11.11300 35.83200
C  46.00900 10.91000 37.05400
H  38.13500 7.88300 33.19100
H  39.12800 7.82100 26.74400
H  44.97600 9.95300 27.41100
H  42.30900 9.15700 35.31100
H  39.28200 9.32200 34.93400
H  40.08800 6.63600 34.79200
H  39.29100 7.55000 36.09900
H  40.98400 7.47400 36.11000
H  40.95500 11.59100 34.51600
H  42.51400 11.50300 35.37000
H  40.64300 10.39100 37.08000
H  39.66200 11.68800 36.27400
H  35.42500 7.16000 31.35300
H  36.74500 6.49900 32.27100
H  36.09400 5.65900 30.79400
H  34.64700 7.55900 28.50200
H  34.87100 6.03900 29.16900
H  34.68300 6.19600 27.46300
H  40.61900 9.47000 25.40800
H  43.32000 8.56100 25.44700
H  40.58400 6.65400 25.38300
H  41.97800 7.20900 24.36600
H  40.30800 7.85300 24.10800
H  42.63100 11.39000 26.21400
H  41.99800 10.85300 24.65800
H  44.47900 12.00300 25.26700
H  44.19700 11.33600 23.72500
H  44.87500 10.34700 25.04100
H  47.12700 11.58300 29.24000
H  46.90000 10.13300 28.39300
H  47.72300 10.11500 29.96800
H  44.27800 11.78400 33.80300
H  45.38100 10.95000 37.94300
H  46.84800 11.59000 37.20300
H  46.38900 9.88900 37.07500
Mg 49.24100 16.19800 28.38500
C  47.07100 15.79300 31.00400
C  51.26700 18.15800 30.31500
C  51.21700 16.51000 25.78300
C  46.81700 14.68200 26.34500
N  49.07000 16.96500 30.35800
C  48.24800 16.49000 31.33900
C  48.53100 17.11300 32.68400
C  49.73400 18.11900 32.38500
C  50.06900 17.73200 30.93500
C  49.42000 19.62700 32.61800
C  48.71100 16.08800 33.77200
C  48.10900 16.41000 35.17200
H  48.05900 17.85400 35.68800
N  51.06000 17.15100 28.13900
C  51.80800 17.86100 29.01100
C  53.08900 18.21700 28.46000
C  53.08900 17.75500 27.15200
C  51.73500 17.08000 26.94300
C  54.03500 19.06000 29.18000
C  54.12700 17.76200 26.09200
O  54.02900 17.19900 25.02800
C  55.40500 18.50800 26.27200
N  49.15400 15.51500 26.38600
C  50.06900 15.83100 25.51500
C  49.64100 15.33800 24.07000
C  48.29800 14.55300 24.36000
C  48.08400 14.92000 25.80300
C  49.52000 16.57500 23.14600
C  48.50700 13.03500 24.18100
C  47.47400 12.29700 23.30900
N  47.28800 15.40100 28.52600
C  46.47400 14.77200 27.67000
C  45.24600 14.31400 28.35900
C  45.47500 14.63400 29.68400
C  46.69600 15.34000 29.72000
C  44.06900 13.55900 27.68400
C  44.91900 14.56400 31.07100
O  43.88800 14.09600 31.48200
C  45.89800 15.44500 31.93300
C  45.01300 16.51100 32.42500
O  44.57800 17.53000 31.84200
O  44.86000 16.19100 33.76600
C  43.97700 16.99500 34.61400
H  51.93300 18.82800 30.86300
H  51.75500 16.49000 24.83300
H  46.16000 14.07400 25.71900
H  47.61300 17.67000 32.87200
H  50.62300 17.79300 32.92400
H  48.46400 19.89600 33.06800
H  49.26800 20.11600 31.65600
H  50.19100 19.94900 33.31800
H  49.76400 15.94700 34.01800
H  48.36300 15.09500 33.48800
H  48.77200 15.87600 35.85300
H  47.07100 16.08000 35.21600
H  55.09400 18.81100 29.11500
H  53.82600 19.10500 30.24900
H  54.08300 20.04500 28.71400
H  56.08300 18.18700 27.06300
H  55.14700 19.56500 26.33700
H  55.95200 18.54000 25.33000
H  50.44800 14.74300 23.64400
H  47.47600 14.97700 23.78400
H  50.36200 16.54800 22.45300
H  49.38200 17.59500 23.50400
H  48.64900 16.30300 22.54900
H  48.50600 12.60500 25.18200
H  49.47300 12.72600 23.78100
H  46.75900 12.01100 24.08000
H  47.83900 11.42400 22.76800
H  47.08000 13.07600 22.65700
H  44.10300 12.47100 27.74700
H  44.01600 13.89500 26.64800
H  43.12200 13.95500 28.04900
H  46.26400 14.84200 32.76400
H  42.98400 16.54800 34.65300
H  43.80500 18.06900 34.53800
H  44.45200 16.81400 35.57800

