158

Mg 36.27000 49.20600 25.40300
C  36.30700 47.11300 28.20700
C  35.07000 51.67300 27.41500
C  35.80900 50.87100 22.63100
C  36.91900 46.26900 23.45600
N  35.55500 49.35900 27.51300
C  35.90600 48.39900 28.48700
C  35.71300 48.96300 29.90100
C  35.15100 50.38600 29.57500
C  35.34300 50.52900 28.06400
C  33.69000 50.60800 29.98800
C  36.98200 49.00500 30.82800
C  36.86800 48.39100 32.26900
H  36.87800 49.45800 33.35100
N  35.51100 51.02000 25.10300
C  35.22300 51.95200 26.02500
C  35.19600 53.24200 25.42900
C  35.23800 52.97300 23.98100
C  35.53500 51.55000 23.81700
C  34.92300 54.45400 26.32300
C  34.93600 53.87500 22.80100
O  34.85500 53.57500 21.60200
C  34.74800 55.46200 23.08000
N  36.33800 48.67900 23.28500
C  36.13000 49.54900 22.38000
C  36.23500 48.91800 20.91500
C  36.76000 47.46700 21.26100
C  36.73700 47.46000 22.79500
C  34.96400 48.89000 20.01500
C  38.05400 47.00900 20.57200
C  38.02200 46.00100 19.42800
N  36.55300 47.12600 25.68400
C  36.91700 46.10500 24.84600
C  37.20100 44.91900 25.52500
C  36.99900 45.27200 26.86000
C  36.56900 46.63600 26.92600
C  37.66700 43.62500 24.97000
C  37.02400 44.86800 28.23900
O  37.12300 43.76600 28.75500
C  36.67800 46.02100 29.13100
C  35.54400 45.67200 30.00000
O  34.34700 45.71000 29.65600
O  35.90800 45.26700 31.24600
C  34.93700 44.64500 32.11500
H  34.64500 52.44600 28.05900
H  35.72500 51.45800 21.71400
H  36.93400 45.39200 22.80600
H  34.98600 48.34500 30.42900
H  35.67100 51.18800 30.09900
H  33.50300 49.97500 30.85500
H  32.88300 50.45100 29.27300
H  33.46100 51.63500 30.27200
H  37.37600 50.01700 30.92000
H  37.73900 48.37000 30.37000
H  37.71000 47.73200 32.47800
H  35.93200 47.84300 32.37700
H  35.02600 55.36000 25.72500
H  35.65800 54.52300 27.12500
H  33.89700 54.41000 26.68800
H  33.92900 55.66600 23.77000
H  34.33700 55.73800 22.10900
H  35.64100 55.99100 23.41500
H  37.00100 49.49600 20.39800
H  35.96600 46.79400 20.93900
H  35.07800 49.81700 19.45300
H  34.20000 49.08100 20.76900
H  34.77000 48.09300 19.29700
H  38.83300 46.72100 21.27800
H  38.49200 47.93300 20.19500
H  37.04400 45.51900 19.41600
H  38.75500 45.20700 19.57300
H  38.27800 46.44100 18.46500
H  38.59800 43.27300 25.41600
H  37.72100 43.56300 23.88300
H  36.96300 42.81800 25.17300
H  37.63200 46.28000 29.59200
H  34.09700 45.23900 32.47700
H  35.46900 44.34900 33.01900
H  34.43100 43.86900 31.54100
Mg 17.61500 52.22000 26.27000
C  19.49100 50.42800 28.69800
C  15.57400 53.10900 28.92200
C  15.95200 53.83500 24.06900
C  19.91000 50.94100 23.88300
N  17.44700 51.69200 28.58500
C  18.32800 50.93800 29.28400
C  17.92700 51.03800 30.80400
C  16.49500 51.65300 30.73500
C  16.47200 52.20700 29.28300
C  15.25300 50.64500 30.98700
C  18.90400 51.93000 31.58100
C  19.19400 51.56500 33.02900
H  17.91000 51.17400 33.77500
N  15.93000 53.31700 26.49400
C  15.36900 53.73500 27.65300
C  14.48000 54.89700 27.38200
C  14.54700 55.13000 25.99100
C  15.53200 54.10900 25.45000
C  13.61100 55.52500 28.49700
C  13.87200 56.21800 25.15500
O  13.98100 56.26000 23.96500
C  12.92800 57.28500 25.81700
N  17.80700 52.27000 24.29600
C  16.94900 52.94700 23.57800
C  17.28600 52.89900 22.06300
C  18.59200 51.97600 21.89600
C  18.81300 51.70500 23.42300
C  16.13800 52.46100 21.16000
C  19.86600 52.66400 21.25000
C  20.71300 53.66000 22.09100
N  19.31700 50.94900 26.21100
C  20.18200 50.61600 25.14300
C  21.27600 49.89300 25.67400
C  21.12300 49.85300 27.09000
C  19.83900 50.43700 27.35600
C  22.46000 49.37400 24.86900
C  21.69000 49.42500 28.31800
O  22.73100 48.83300 28.53200
C  20.66800 49.86200 29.42300
C  20.32600 48.69500 30.34600
O  19.48500 47.89200 30.13300
O  21.01900 48.82600 31.61100
C  20.47900 48.02800 32.77100
H  14.92300 53.48400 29.71500
H  15.47100 54.39100 23.26200
H  20.48100 50.53100 23.04700
H  17.94900 50.04800 31.25900
H  16.33300 52.48900 31.41500
H  14.25100 51.02800 31.18000
H  15.62500 50.07700 31.84000
H  15.12300 49.88700 30.21500
H  18.56000 52.96400 31.56000
H  19.85600 51.87900 31.05200
H  19.72200 52.35300 33.56600
H  19.73600 50.61900 33.06200
H  12.73200 56.13500 28.28900
H  14.32500 56.08000 29.10500
H  13.27300 54.75900 29.19500
H  12.05200 56.87500 26.32100
H  12.58300 57.94000 25.01800
H  13.62100 57.84600 26.44400
H  17.55500 53.92900 21.82800
H  18.31700 51.06800 21.35900
H  16.14700 51.47400 20.69800
H  15.95900 53.12100 20.31100
H  15.32200 52.52900 21.87900
H  19.52600 53.15200 20.33600
H  20.57600 51.89500 20.94500
H  21.77500 53.41700 22.05700
H  20.51200 53.39900 23.13000
H  20.44900 54.71400 22.00900
H  22.58700 50.14700 24.11100
H  22.26500 48.44800 24.32800
H  23.24800 49.31000 25.62000
H  21.31600 50.55600 29.95800
H  20.85600 47.00900 32.69400
H  19.39500 47.92000 32.74400
H  20.86700 48.40700 33.71700

