158

Mg 34.79800 3.25300 29.52500
C  32.55300 3.84300 32.15400
C  37.35500 3.53300 32.00300
C  37.13700 2.68600 27.20200
C  32.36300 3.80700 27.26100
N  34.96000 3.77900 31.81500
C  33.89400 3.89900 32.62900
C  34.33000 3.96900 34.07400
C  35.90700 4.27200 33.97500
C  36.14500 3.85000 32.48800
C  36.38700 5.78500 34.33000
C  33.87900 2.83100 34.93900
C  33.72200 3.12300 36.46300
H  34.47100 4.33100 37.06200
N  36.91800 2.88800 29.67100
C  37.81900 3.11800 30.75300
C  39.13100 2.74300 30.33500
C  39.01200 2.25100 28.97700
C  37.66200 2.63600 28.52500
C  40.26200 2.85100 31.18900
C  40.02400 1.49400 28.12200
O  39.81500 1.26300 26.92000
C  41.48100 0.96000 28.64400
N  34.88700 3.44700 27.53500
C  35.87600 3.02100 26.74300
C  35.50700 3.32700 25.24400
C  33.95700 3.52300 25.27400
C  33.69200 3.63500 26.76200
C  36.29300 4.60500 24.64700
C  33.17400 2.42300 24.57500
C  32.55800 1.26200 25.39300
N  32.78900 3.69300 29.58300
C  31.90200 3.75100 28.60700
C  30.53100 3.81600 29.07100
C  30.77200 3.89700 30.49900
C  32.16800 3.79200 30.75100
C  29.24600 3.92200 28.27300
C  30.11000 4.01100 31.81500
O  28.95000 4.04500 32.14800
C  31.27000 4.07700 32.91000
C  31.18700 5.39700 33.56300
O  31.23100 6.49200 32.99800
O  31.04000 5.20400 34.91000
C  31.14200 6.51500 35.65900
H  38.11800 3.57500 32.78300
H  37.89300 2.47900 26.44200
H  31.62100 3.80400 26.45900
H  33.95000 4.92900 34.42200
H  36.39400 3.52500 34.60100
H  35.64900 6.56200 34.52900
H  36.99400 6.04200 33.46100
H  37.02700 5.73500 35.21100
H  34.61700 2.03000 34.93100
H  32.99700 2.39200 34.47300
H  34.12200 2.19500 36.87300
H  32.66600 3.30100 36.66500
H  40.14300 3.72400 31.83100
H  41.13300 2.80200 30.53500
H  40.23100 1.96100 31.81700
H  41.92900 0.26200 27.93600
H  41.23300 0.49500 29.59800
H  42.02800 1.89000 28.79400
H  35.83200 2.50300 24.60700
H  33.63700 4.49300 24.89400
H  35.68000 5.50700 24.64700
H  36.66700 4.40400 23.64400
H  37.16300 4.72300 25.29300
H  33.82100 2.03900 23.78600
H  32.41500 2.98500 24.03100
H  31.51900 1.28600 25.72000
H  33.27800 1.09300 26.19400
H  32.72900 0.27200 24.97100
H  29.31200 3.96300 27.18600
H  28.69200 4.79400 28.62200
H  28.55400 3.11300 28.50600
H  31.29800 3.38000 33.74700
H  30.67300 7.33400 35.11400
H  32.20200 6.74300 35.77400
H  30.56100 6.32200 36.56000
Mg -5.56100 25.62100 26.14600
C  -4.29200 26.96300 29.21100
C  -7.71800 23.76500 28.04200
C  -6.43800 24.07900 23.37200
C  -2.97200 27.38700 24.43000
N  -5.73500 25.24600 28.40400
C  -5.24200 25.97200 29.42200
C  -5.91100 25.57100 30.74600
C  -6.65000 24.27800 30.36000
C  -6.79400 24.46900 28.83800
C  -6.04000 22.89300 30.78700
C  -6.93400 26.70800 31.23400
C  -7.12700 26.91600 32.74300
H  -6.51600 25.76100 33.57600
N  -6.99900 24.25500 25.70900
C  -7.82700 23.67200 26.61700
C  -8.80500 22.80400 25.88400
C  -8.39900 22.90600 24.54000
C  -7.22100 23.77600 24.49700
C  -9.82400 21.87300 26.64700
C  -9.00000 22.12500 23.34600
O  -8.45200 22.10600 22.24300
C  -10.23000 21.26900 23.59600
N  -4.66500 25.48800 24.27100
C  -5.27400 24.78100 23.26500
C  -4.69400 25.16800 21.86500
C  -3.82300 26.37400 22.18100
C  -3.82800 26.46100 23.72400
C  -4.07900 23.99900 21.04200
C  -4.34200 27.74100 21.57500
C  -3.79100 28.14300 20.24200
N  -4.02100 26.86100 26.62800
C  -3.01800 27.50500 25.87700
C  -2.25300 28.36200 26.70100
C  -2.71900 28.21300 27.97200
C  -3.79800 27.26000 27.90400
C  -1.13500 29.15400 26.23900
C  -2.53100 28.64700 29.36100
O  -1.82400 29.55800 29.79100
C  -3.50500 27.75300 30.26600
C  -2.62800 27.02500 31.15100
O  -1.73300 26.27800 30.82100
O  -2.88700 27.32800 32.45600
C  -1.97900 26.77400 33.50900
H  -8.34000 23.07400 28.61400
H  -6.76100 23.73600 22.38700
H  -2.19000 27.94100 23.90500
H  -5.08200 25.22800 31.36600
H  -7.68700 24.28100 30.69600
H  -6.14000 22.06100 30.09000
H  -6.27300 22.55700 31.79800
H  -4.97600 23.10500 30.89400
H  -7.87800 26.61300 30.69700
H  -6.44500 27.57800 30.79600
H  -8.18800 27.00500 32.97700
H  -6.69100 27.88300 32.99200
H  -10.73100 21.80500 26.04600
H  -10.10100 22.24200 27.63500
H  -9.35500 20.89800 26.78200
H  -10.49100 20.73200 22.68400
H  -11.18900 21.68800 23.89800
H  -10.07500 20.42800 24.27200
H  -5.61100 25.44900 21.34600
H  -2.82100 26.08800 21.86300
H  -3.77500 23.23100 21.75300
H  -3.26000 24.40500 20.44900
H  -4.88900 23.65800 20.39700
H  -4.16400 28.57700 22.25100
H  -5.42300 27.71100 21.44400
H  -4.58000 28.49100 19.57600
H  -3.18500 27.34300 19.81700
H  -3.20500 29.05200 20.37300
H  -0.57200 28.57800 25.50400
H  -0.59200 29.35100 27.16300
H  -1.48700 30.11600 25.86600
H  -3.94000 28.49000 30.94000
H  -2.58700 26.84200 34.41100
H  -1.06100 27.36200 33.53200
H  -1.79700 25.70200 33.42700

