158

Mg -1.74100 17.33000 26.62400
C  -1.94800 14.87000 29.31800
C  -2.22200 19.84100 28.99000
C  -1.90800 19.48600 24.05900
C  -1.82200 14.63900 24.35600
N  -2.13900 17.25200 28.95000
C  -2.02200 16.19200 29.84300
C  -2.00100 16.75300 31.32500
C  -2.14200 18.32400 31.05800
C  -2.12600 18.50700 29.54500
C  -3.33900 19.01500 31.83600
C  -0.74200 16.21900 32.12900
C  -0.23400 17.06000 33.25800
H  0.05400 16.32400 34.54000
N  -2.06700 19.39300 26.56200
C  -2.19800 20.20900 27.64400
C  -2.23600 21.58000 27.12400
C  -1.95300 21.48000 25.71200
C  -1.98800 20.07900 25.40100
C  -2.50300 22.84300 28.03500
C  -1.59700 22.59600 24.67600
O  -1.42500 22.49400 23.44300
C  -1.57100 23.93300 25.17800
N  -1.84000 17.10500 24.54600
C  -1.83700 18.13600 23.67100
C  -1.68400 17.73000 22.23700
C  -1.64100 16.14900 22.36100
C  -1.80800 15.94200 23.85700
C  -2.87200 18.25900 21.40800
C  -0.33300 15.61700 21.82000
C  0.96800 15.87200 22.63100
N  -1.82800 15.21400 26.77400
C  -1.82400 14.25900 25.76700
C  -1.91100 12.96200 26.27800
C  -1.91700 13.14000 27.67000
C  -1.92100 14.53700 27.98800
C  -2.12100 11.68600 25.55700
C  -2.00600 12.41300 28.97600
O  -2.18900 11.26100 29.27300
C  -1.84700 13.55300 30.06100
C  -0.48000 13.34600 30.72100
O  0.60500 13.76300 30.31000
O  -0.56200 12.57200 31.94400
C  0.64500 12.27400 32.72000
H  -2.37600 20.63600 29.72300
H  -2.05400 20.13900 23.19600
H  -1.72100 13.84300 23.61500
H  -2.84500 16.31100 31.85500
H  -1.32800 18.84800 31.55800
H  -4.33100 18.92400 31.39400
H  -3.06100 20.03600 32.09900
H  -3.51300 18.56100 32.81200
H  0.00900 16.23700 31.33900
H  -0.90800 15.21100 32.50900
H  -0.91200 17.89800 33.42300
H  0.74900 17.45400 33.00300
H  -2.72900 22.62000 29.07800
H  -3.33600 23.37200 27.57200
H  -1.57100 23.40600 28.08400
H  -1.48400 24.77200 24.48900
H  -0.73700 23.88700 25.87800
H  -2.56100 24.06700 25.61500
H  -0.77100 18.15900 21.82400
H  -2.44600 15.73900 21.75000
H  -3.72600 18.45800 22.05500
H  -3.10500 17.46600 20.69700
H  -2.59700 19.14100 20.83000
H  -0.10300 16.09000 20.86500
H  -0.45900 14.56100 21.58200
H  0.81200 16.00500 23.70200
H  1.56400 16.73200 22.32300
H  1.58100 14.97600 22.53600
H  -2.13300 10.93000 26.34200
H  -1.39600 11.41600 24.78900
H  -3.14200 11.72000 25.17900
H  -2.63800 13.40800 30.79600
H  1.46700 12.94200 32.46400
H  1.00200 11.27500 32.46800
H  0.39400 12.29300 33.78100
Mg -0.08400 6.80600 25.90800
C  0.96900 9.29600 27.98200
C  -0.16900 4.61900 28.56700
C  -0.99700 4.33000 23.77400
C  0.66400 8.98200 23.13900
N  0.23600 7.02000 28.08900
C  0.66300 8.14600 28.69000
C  0.79400 7.80000 30.24200
C  0.69100 6.28600 30.30900
C  0.25000 5.87800 28.90100
C  2.02100 5.55500 30.69400
C  -0.14800 8.69500 31.09000
C  -0.45800 8.20400 32.50500
H  0.80800 7.81000 33.21500
N  -0.57900 4.69000 26.14900
C  -0.53000 4.00700 27.37200
C  -0.80800 2.62300 27.12500
C  -1.05400 2.49700 25.69800
C  -0.91600 3.89400 25.15400
C  -0.94500 1.62700 28.22900
C  -1.45000 1.24700 24.93600
O  -1.55700 1.39700 23.72000
C  -1.53700 -0.20500 25.63400
N  -0.03300 6.63500 23.73500
C  -0.63800 5.58000 23.15400
C  -0.99700 5.86000 21.64900
C  -0.47200 7.38400 21.47800
C  0.11400 7.68200 22.86300
C  -0.37700 4.79700 20.68700
C  -1.60000 8.52100 21.10600
C  -2.36200 9.36300 22.11300
N  0.52200 8.77200 25.59100
C  0.84800 9.48000 24.44600
C  1.19000 10.82800 24.77300
C  1.21400 10.82000 26.18600
C  0.92300 9.50500 26.60000
C  1.65000 11.90200 23.74500
C  1.48500 11.65200 27.44000
O  1.86700 12.79900 27.56000
C  1.37400 10.56800 28.63300
C  2.69500 10.69500 29.27900
O  3.64000 10.01600 28.96600
O  2.69900 11.58100 30.30700
C  3.96300 11.58800 31.00800
H  -0.26500 4.06300 29.50200
H  -1.44500 3.64500 23.05100
H  0.77400 9.53500 22.20300
H  1.79800 8.11200 30.53200
H  -0.09800 6.03000 31.01600
H  2.83600 6.24700 30.90500
H  2.36400 4.90300 29.89100
H  1.95900 4.95500 31.60100
H  -1.00600 8.96100 30.47200
H  0.34100 9.65000 31.28200
H  -1.22500 7.43200 32.56000
H  -0.92500 9.06900 32.97700
H  -1.99400 1.33000 28.22700
H  -0.70200 2.04100 29.20800
H  -0.31700 0.76000 28.02500
H  -1.87600 -0.81200 24.79500
H  -2.36500 -0.13900 26.34100
H  -0.61000 -0.53800 26.10200
H  -2.08400 5.84100 21.57700
H  0.34700 7.46700 20.76300
H  0.02600 3.85600 21.06100
H  0.43700 5.31100 20.17600
H  -1.16100 4.59800 19.95600
H  -2.20700 7.98000 20.38000
H  -1.03000 9.27400 20.56200
H  -2.11900 10.37900 21.80400
H  -2.11300 9.18300 23.15900
H  -3.45200 9.34300 22.10100
H  0.78200 12.27200 23.20100
H  2.53500 11.71000 23.13700
H  1.78800 12.72400 24.44700
H  0.53100 10.92200 29.22600
H  4.85700 11.33300 30.43800
H  3.91000 11.01200 31.93100
H  4.07900 12.59700 31.40500

