158

Mg 45.32400 3.78400 47.74800
C  43.36300 6.65400 47.58400
C  42.54500 1.84600 47.49200
C  47.36100 1.18400 46.95300
C  48.15600 5.88400 47.30700
N  43.27400 4.18200 47.30300
C  42.62100 5.45100 47.53600
C  41.07600 5.25900 47.51300
C  40.88200 3.80400 47.52700
C  42.34200 3.21300 47.45500
C  39.89300 3.32100 48.69400
C  40.24000 6.09800 46.48600
C  40.95800 6.44200 45.17700
H  40.24700 5.92300 43.88300
N  45.03700 1.77600 47.42300
C  43.80100 1.14400 47.36800
C  43.95400 -0.28900 47.16000
C  45.32200 -0.55200 47.03800
C  45.99900 0.82100 47.13900
C  42.84000 -1.34200 47.03000
C  45.95500 -1.93700 46.99700
O  45.31000 -2.96100 46.86400
C  47.45900 -1.98900 46.78500
N  47.49400 3.59800 47.38700
C  48.03300 2.40700 47.07700
C  49.53900 2.44200 46.85800
C  49.83800 3.95700 47.11500
C  48.46700 4.49900 47.36400
C  50.39400 1.49600 47.69200
C  50.59000 4.68400 45.90800
C  52.12300 4.43300 45.96600
N  45.73400 5.81600 47.65600
C  46.90300 6.49500 47.37200
C  46.65200 7.94800 47.43300
C  45.24000 8.02700 47.66400
C  44.73800 6.71700 47.64500
C  47.59300 9.13900 47.26900
C  44.11500 8.99500 47.74500
O  44.07400 10.23500 47.65600
C  42.85900 8.06200 47.75400
C  42.02400 8.40500 48.91900
O  42.22700 7.92800 50.03700
O  40.91200 9.13200 48.53700
C  39.79500 9.17900 49.57900
H  41.69100 1.20000 47.70200
H  48.12400 0.43100 46.74300
H  48.93700 6.64500 47.37000
H  40.73600 5.68600 48.45700
H  40.36700 3.46100 46.62900
H  39.26600 2.53200 48.27700
H  39.24100 4.08400 49.11800
H  40.53900 2.91900 49.47400
H  39.89000 7.03200 46.92700
H  39.27700 5.62900 46.28300
H  41.88000 5.87200 45.05900
H  41.03500 7.52700 45.11600
H  43.00100 -2.12100 47.77600
H  43.13600 -1.75700 46.06600
H  41.83800 -0.92400 47.12700
H  47.92600 -1.52600 47.65400
H  47.73000 -1.50100 45.84900
H  47.76600 -3.01100 46.56200
H  49.61900 2.18800 45.80100
H  50.36500 4.07300 48.06200
H  50.82100 0.72900 47.04600
H  49.97200 0.97700 48.55200
H  51.24200 2.08000 48.05000
H  50.35300 5.74700 45.95000
H  50.31900 4.30600 44.92200
H  52.42200 4.01000 45.00700
H  52.47800 3.78300 46.76600
H  52.72300 5.33500 46.09000
H  47.21800 9.81300 46.49900
H  48.57900 8.73400 47.03800
H  47.66600 9.72800 48.18300
H  42.36000 8.40100 46.84600
H  40.02000 9.03500 50.63500
H  39.09400 8.40300 49.27100
H  39.19600 10.08300 49.46500
Mg 48.67300 35.41400 28.25800
C  46.78400 33.82200 30.91000
C  48.44900 38.33400 30.27100
C  49.97900 37.14400 25.86700
C  48.15100 32.56400 26.30600
N  47.80400 35.85900 30.41800
C  47.27000 35.04700 31.34100
C  47.16700 35.70700 32.71100
C  47.26300 37.23600 32.35500
C  47.97600 37.17700 30.87500
C  45.88900 37.99400 32.23200
C  48.14800 35.02700 33.76700
C  49.35800 35.85900 34.17200
H  49.36000 36.41100 35.54000
N  49.34400 37.40500 28.17000
C  49.19800 38.45400 29.09900
C  49.98400 39.51900 28.56500
C  50.38500 39.24600 27.26000
C  49.84600 37.91300 27.01400
C  50.20400 40.79700 29.32000
C  51.20500 39.96900 26.12100
O  51.25400 39.59000 24.93500
C  51.89900 41.17000 26.49700
N  48.99500 34.93100 26.38100
C  49.49100 35.87300 25.52400
C  49.67600 35.26000 24.05400
C  49.38200 33.75700 24.34500
C  48.73600 33.72800 25.74000
C  48.68300 35.92500 23.04000
C  50.67000 32.86000 24.26400
C  51.05400 32.46000 22.79800
N  47.67800 33.57700 28.53100
C  47.70400 32.44000 27.66500
C  47.01200 31.35000 28.32800
C  46.60800 31.87100 29.58500
C  46.95400 33.19500 29.68900
C  46.64800 29.99100 27.75000
C  45.85000 31.57300 30.77300
O  45.11700 30.62500 31.08200
C  45.88400 32.89000 31.55000
C  46.05100 32.63200 32.99900
O  46.90900 31.98300 33.55000
O  44.86800 33.02900 33.63400
C  44.64800 32.67200 35.04100
H  48.31300 39.31200 30.73700
H  50.28300 37.59900 24.92200
H  47.98600 31.64800 25.73600
H  46.21900 35.56200 33.22800
H  47.90700 37.77800 33.04800
H  45.56900 38.22300 33.24800
H  45.22300 37.31900 31.69400
H  46.24500 38.83500 31.63700
H  48.42000 34.07200 33.31800
H  47.63400 34.82500 34.70600
H  49.55500 36.56200 33.36300
H  50.27500 35.27200 34.12100
H  50.70400 40.49100 30.23800
H  49.27300 41.31400 29.55300
H  50.78900 41.56000 28.80700
H  52.59400 41.46800 25.71200
H  52.48200 40.90300 27.37900
H  51.14700 41.94700 26.63700
H  50.68600 35.44600 23.68800
H  48.61900 33.37800 23.66500
H  49.15800 36.25800 22.11700
H  48.17000 36.80700 23.42400
H  47.99000 35.27700 22.50300
H  50.58100 31.99600 24.92300
H  51.43100 33.52800 24.66800
H  50.32500 32.90900 22.12400
H  51.19400 31.39300 22.62600
H  52.06800 32.82200 22.62600
H  47.32300 29.83100 26.90900
H  45.66500 30.11900 27.29800
H  46.52300 29.22000 28.51100
H  44.89700 33.34200 31.45800
H  43.57800 32.65200 35.25100
H  45.12300 33.42400 35.67100
H  45.20500 31.77200 35.30100

