158

Mg 25.94400 0.12300 29.59500
C  27.70500 -0.51800 32.65700
C  23.01900 0.05900 31.66600
C  24.11100 -0.07200 26.84300
C  28.77200 -0.80500 27.89100
N  25.42600 -0.20600 31.91800
C  26.37200 -0.29500 32.93700
C  25.74300 -0.13700 34.27300
C  24.22400 -0.37300 33.93800
C  24.21600 -0.12900 32.41000
C  23.68200 -1.81600 34.12300
C  26.11600 1.26800 34.90000
C  26.55600 1.27500 36.37400
H  25.88000 0.39700 37.39000
N  23.89300 0.19500 29.27700
C  22.89500 0.21100 30.29100
C  21.59600 0.43100 29.61500
C  21.86200 0.48000 28.22800
C  23.36300 0.11600 28.08100
C  20.30000 0.68300 30.38300
C  20.86900 0.71300 27.10300
O  21.16200 0.57600 25.97400
C  19.33800 0.83200 27.45800
N  26.31500 -0.60500 27.62700
C  25.43000 -0.42700 26.64800
C  26.16900 -0.35900 25.24700
C  27.66000 -0.32400 25.72900
C  27.60900 -0.53800 27.17100
C  25.86900 -1.56100 24.26600
C  28.42900 0.96100 25.36900
C  29.78200 0.69600 24.60800
N  27.82200 -0.44100 30.08800
C  28.90200 -0.74500 29.30400
C  30.08900 -0.85700 30.06200
C  29.65300 -0.81900 31.38500
C  28.25000 -0.63300 31.35600
C  31.52000 -0.98600 29.61700
C  30.13500 -0.90600 32.78200
O  31.25700 -1.03200 33.22100
C  28.83800 -0.75900 33.67300
C  28.74700 -1.96400 34.46000
O  27.97300 -2.87400 34.23300
O  29.57900 -1.87500 35.55200
C  29.11500 -2.60600 36.68300
H  22.14000 0.22200 32.29300
H  23.59500 -0.09200 25.88100
H  29.70200 -1.00400 27.35500
H  26.14400 -0.93800 34.89400
H  23.61100 0.42800 34.35300
H  23.42100 -2.28300 33.17300
H  22.75200 -1.80200 34.69000
H  24.42500 -2.47300 34.57600
H  25.23000 1.89000 34.77100
H  26.86700 1.70400 34.24200
H  26.40400 2.26000 36.81400
H  27.62600 1.06900 36.36800
H  19.83600 1.61800 30.07300
H  20.51700 0.74400 31.44900
H  19.58900 -0.12700 30.21900
H  18.98600 -0.03600 28.01500
H  18.79400 0.61900 26.53800
H  19.00000 1.80200 27.82100
H  25.89200 0.57900 24.76700
H  28.07700 -1.27200 25.39000
H  24.79300 -1.69700 24.15800
H  26.42200 -2.43700 24.60500
H  26.30400 -1.38100 23.28300
H  28.62400 1.43600 26.33100
H  27.80000 1.63300 24.78700
H  30.56400 1.44700 24.71400
H  29.55900 0.73500 23.54200
H  30.07300 -0.33400 24.81400
H  31.58400 -1.25800 28.56300
H  31.89200 -1.84400 30.17700
H  32.25600 -0.26400 29.97200
H  28.91400 0.11200 34.32500
H  30.00400 -2.71200 37.30600
H  28.86800 -3.64800 36.47700
H  28.34000 -2.05000 37.21100
Mg 44.32900 3.78600 47.92000
C  41.73700 6.15100 47.23300
C  41.90800 1.36800 47.95800
C  46.74400 1.48500 47.96500
C  46.61000 6.25400 47.21400
N  42.02100 3.80600 47.64000
C  41.18800 4.88400 47.43200
C  39.73200 4.44500 47.29600
C  39.83000 2.92900 47.86300
C  41.36400 2.62400 47.83300
C  39.37100 2.85100 49.30100
C  39.22400 4.45000 45.84100
C  38.06500 5.37500 45.58000
H  38.01700 6.17100 44.21000
N  44.33900 1.63700 47.87800
C  43.23700 0.88400 47.97700
C  43.65700 -0.55200 47.97200
C  45.07900 -0.58700 47.95000
C  45.46000 0.84600 48.00500
C  42.71800 -1.67400 48.20700
C  45.95500 -1.87900 48.01500
O  45.50700 -3.01300 47.93200
C  47.47300 -1.74300 48.20700
N  46.33900 3.86400 47.56200
C  47.14900 2.83200 47.84100
C  48.60300 3.22800 48.02200
C  48.56500 4.67200 47.38800
C  47.07600 4.96800 47.45100
C  49.23900 2.94500 49.34200
C  49.15900 4.75900 45.92000
C  50.66700 5.02000 45.85600
N  44.26300 5.84800 47.46600
C  45.29400 6.66000 47.17000
C  44.75000 7.95300 46.91500
C  43.34700 7.86700 46.95800
C  43.11100 6.46000 47.25400
C  45.37400 9.22300 46.39600
C  42.12200 8.49700 46.75700
O  41.88600 9.63100 46.40300
C  41.01400 7.48100 47.20100
C  40.56200 7.80500 48.61000
O  41.29100 8.25200 49.49500
O  39.21400 7.41300 48.74500
C  38.66300 7.85300 50.05200
H  41.11200 0.63000 47.84400
H  47.49000 0.75200 48.28000
H  47.35300 7.04400 47.09000
H  39.05000 4.90900 48.00900
H  39.30600 2.12800 47.34000
H  40.19800 2.70600 49.99600
H  38.72700 1.97100 49.30000
H  38.82000 3.71300 49.67700
H  38.86900 3.49700 45.45100
H  40.04700 4.72900 45.18300
H  38.12000 6.00700 46.46600
H  37.16600 4.75900 45.54200
H  41.74300 -1.24300 48.43200
H  43.00600 -2.37500 48.99000
H  42.70500 -2.12800 47.21600
H  47.68600 -1.24100 49.15100
H  48.00900 -1.22100 47.41500
H  47.90100 -2.74400 48.24700
H  49.29900 2.76400 47.32300
H  49.09400 5.35800 48.04900
H  48.48200 2.69900 50.08600
H  49.63300 3.86800 49.76900
H  50.06300 2.24400 49.20700
H  48.68000 5.51100 45.29200
H  48.87500 3.84400 45.40000
H  50.84500 5.99800 46.30400
H  51.24700 4.97600 44.93400
H  51.19400 4.40500 46.58500
H  44.92000 9.46100 45.43400
H  46.45500 9.15000 46.28000
H  45.21400 10.01400 47.12900
H  40.13300 7.37900 46.56600
H  38.57100 8.93500 50.15200
H  39.32700 7.49900 50.84000
H  37.67400 7.40500 50.14300

