158

Mg -1.96800 17.85600 27.30000
C  -2.46100 15.31400 29.70100
C  -2.87400 20.13100 29.69900
C  -2.37600 20.15300 24.91100
C  -2.05700 15.34400 24.94000
N  -2.46700 17.70900 29.51600
C  -2.53600 16.59900 30.30500
C  -2.72000 16.94400 31.80000
C  -3.06900 18.50200 31.69200
C  -2.72800 18.81400 30.24000
C  -4.50500 18.95800 32.18200
C  -1.52300 16.70100 32.71700
C  -1.80300 16.03900 34.07100
H  -0.85900 16.36100 35.29700
N  -2.27200 19.90600 27.34800
C  -2.62300 20.63100 28.43900
C  -2.71300 22.03600 28.09200
C  -2.43400 22.16700 26.68400
C  -2.33700 20.71400 26.19200
C  -3.01500 23.17600 29.03100
C  -2.15400 23.42800 25.84900
O  -1.84100 23.34700 24.67500
C  -2.01300 24.70200 26.54400
N  -2.04400 17.79200 25.23200
C  -2.32200 18.88000 24.45100
C  -2.40200 18.44200 22.95300
C  -2.27100 16.88600 23.02400
C  -2.01200 16.65100 24.49200
C  -3.68300 18.91700 22.17900
C  -1.13600 16.37500 22.11400
C  0.25600 16.34800 22.70100
N  -2.13700 15.74700 27.19200
C  -2.12000 14.88000 26.20800
C  -2.27300 13.52700 26.57200
C  -2.33100 13.59600 27.99000
C  -2.34300 14.98900 28.29400
C  -2.40700 12.26100 25.78100
C  -2.51800 12.89100 29.23900
O  -2.44600 11.61400 29.35600
C  -2.61600 13.95300 30.38900
C  -1.60800 13.48400 31.43100
O  -0.38800 13.66100 31.37800
O  -2.29800 12.75400 32.33600
C  -1.52900 12.23600 33.50000
H  -3.15400 20.87500 30.44900
H  -2.55700 20.90500 24.14000
H  -2.05000 14.57000 24.17000
H  -3.57700 16.41500 32.21700
H  -2.34600 19.19100 32.12900
H  -5.14900 19.05500 31.30800
H  -4.35000 19.87500 32.75000
H  -4.80800 18.19300 32.89700
H  -1.02200 17.66300 32.82800
H  -0.79900 16.11900 32.14600
H  -1.87600 14.95700 33.96800
H  -2.79700 16.36600 34.37700
H  -2.15400 23.82300 29.19500
H  -3.51500 22.96200 29.97600
H  -3.73400 23.74800 28.44500
H  -1.78900 25.50200 25.83800
H  -1.18700 24.54700 27.23800
H  -2.99200 25.00000 26.91700
H  -1.65800 18.93900 22.33100
H  -3.16900 16.33900 22.73800
H  -3.53400 19.67400 21.40900
H  -4.41800 19.44300 22.78700
H  -4.18800 18.04200 21.77000
H  -1.30300 16.98800 21.22800
H  -1.34100 15.35000 21.80600
H  0.46200 15.27800 22.71000
H  0.43300 16.58600 23.75000
H  0.99700 16.89400 22.11700
H  -2.33000 11.35700 26.38500
H  -1.57000 12.31000 25.08600
H  -3.31900 12.22200 25.18500
H  -3.61000 13.71700 30.77000
H  -1.51100 11.14600 33.52200
H  -1.91300 12.65900 34.42800
H  -0.50100 12.59400 33.56700
Mg 47.67800 35.28000 27.32000
C  46.04300 33.40700 29.71000
C  47.48500 37.98200 29.47100
C  48.97700 36.94100 24.92600
C  47.21600 32.53400 25.00700
N  46.91900 35.56700 29.35100
C  46.50200 34.58100 30.21700
C  46.58000 35.09000 31.63300
C  46.50200 36.64200 31.37800
C  46.97300 36.74700 30.00400
C  45.15200 37.30600 31.67900
C  47.87800 34.60100 32.37100
C  48.36000 35.43400 33.54700
H  47.27800 36.03700 34.49800
N  48.21500 37.23400 27.24900
C  48.05200 38.22500 28.20200
C  48.58600 39.46000 27.65800
C  49.09700 39.19800 26.39200
C  48.79800 37.74500 26.11000
C  48.52000 40.67600 28.55600
C  49.94600 40.07000 25.47700
O  50.42800 39.64000 24.42400
C  50.30900 41.48100 25.86600
N  47.81400 34.87200 25.09100
C  48.63200 35.70500 24.45400
C  48.87900 35.25700 22.96400
C  48.38800 33.76800 23.06200
C  47.78600 33.69100 24.48800
C  48.18000 36.11600 21.87800
C  49.47500 32.66900 22.90800
C  49.64100 32.08700 21.45000
N  46.73400 33.36000 27.26500
C  46.62500 32.38100 26.27800
C  45.90900 31.23400 26.97500
C  45.59200 31.62800 28.25400
C  46.06900 32.98200 28.36800
C  45.64700 29.98000 26.27400
C  45.01100 31.12600 29.51000
O  44.55300 30.05300 29.79700
C  45.14600 32.33200 30.43300
C  45.65800 31.75900 31.61800
O  46.69900 31.23000 31.78400
O  44.78500 32.15200 32.62200
C  45.13800 31.69700 34.04100
H  47.33000 38.82200 30.15100
H  49.45100 37.45800 24.08900
H  47.18500 31.73100 24.26700
H  45.76400 34.67400 32.22300
H  47.17200 37.17200 32.05500
H  45.37000 38.05000 32.44500
H  44.42600 36.56500 32.01300
H  44.71700 37.64200 30.73800
H  48.63900 34.58800 31.59100
H  47.77100 33.57500 32.72200
H  49.12300 36.18600 33.34300
H  48.91000 34.71800 34.15800
H  49.09400 40.60400 29.47900
H  47.53500 41.03700 28.85000
H  48.85600 41.55900 28.01200
H  50.71600 41.45700 26.87700
H  49.31500 41.92800 25.84800
H  50.94500 41.96500 25.12500
H  49.95000 35.31100 22.76900
H  47.54400 33.49900 22.42700
H  47.62600 36.90700 22.38500
H  47.58500 35.61000 21.11800
H  48.99800 36.61500 21.35600
H  49.21500 31.78100 23.48500
H  50.47600 33.01600 23.16300
H  50.62600 32.27700 21.02400
H  48.84600 32.50800 20.83400
H  49.32500 31.04600 21.51200
H  46.39800 29.30100 26.67900
H  45.73200 30.09500 25.19300
H  44.68100 29.52200 26.48500
H  44.13700 32.65200 30.69400
H  45.88000 32.38300 34.44800
H  45.59400 30.70800 34.00100
H  44.25000 31.72600 34.67300

