158

Mg 25.90400 -0.34700 28.98500
C  27.83600 -0.30500 31.93600
C  23.12400 -0.07800 30.93400
C  24.09100 -0.33700 26.17700
C  28.72900 -1.39300 27.19800
N  25.56400 -0.37300 31.29400
C  26.46500 -0.07700 32.25900
C  25.88200 0.17800 33.68400
C  24.36900 0.16000 33.27000
C  24.34400 -0.10900 31.68800
C  23.47400 -0.96800 34.02500
C  26.48500 1.36900 34.42300
C  27.09200 1.24100 35.72700
H  26.78200 2.22800 36.86700
N  23.84900 -0.22800 28.62100
C  22.88100 -0.08900 29.55800
C  21.62800 0.11500 28.88000
C  21.86500 0.17700 27.48500
C  23.28200 -0.16800 27.36900
C  20.32700 0.16900 29.67800
C  20.98700 0.39300 26.27800
O  21.39600 0.41300 25.11200
C  19.52700 0.61500 26.48800
N  26.35900 -0.87700 26.92700
C  25.42900 -0.66400 25.91400
C  26.05900 -0.92700 24.58900
C  27.56200 -1.22600 24.96600
C  27.55400 -1.17600 26.43400
C  25.49000 -1.87900 23.53700
C  28.63700 -0.37600 24.16900
C  28.97900 1.01600 24.69400
N  27.90000 -0.79000 29.39500
C  28.91400 -1.22300 28.56700
C  30.19800 -1.26000 29.37500
C  29.77500 -0.87900 30.62200
C  28.41300 -0.67000 30.63600
C  31.58400 -1.58300 28.85100
C  30.31200 -0.65200 31.93000
O  31.46300 -0.82400 32.28700
C  29.05100 -0.30600 32.80200
C  28.83800 -1.35400 33.81300
O  28.32200 -2.45500 33.64000
O  29.41400 -0.93400 35.00400
C  29.31600 -1.77800 36.20700
H  22.34200 0.00400 31.69100
H  23.59500 -0.23000 25.21000
H  29.59200 -1.58700 26.55900
H  26.07900 -0.79200 34.13900
H  23.83400 1.10900 33.30000
H  23.98300 -1.32300 34.92200
H  23.40900 -1.80900 33.33600
H  22.43100 -0.73000 34.23600
H  25.78400 2.20300 34.44600
H  27.27700 1.83300 33.83500
H  28.17100 1.11900 35.63700
H  26.85400 0.23600 36.07500
H  20.58100 0.39600 30.71300
H  19.83800 -0.79100 29.50600
H  19.80700 1.01500 29.22800
H  19.05800 0.66500 25.50500
H  19.32100 1.48400 27.11300
H  19.21600 -0.33700 26.91800
H  26.18500 0.02900 24.08100
H  27.80500 -2.28200 24.84900
H  26.29400 -2.37500 22.99300
H  24.88900 -1.29900 22.83700
H  24.81000 -2.60100 23.98700
H  28.37400 -0.41200 23.11200
H  29.53000 -1.00100 24.18500
H  29.97300 0.99200 25.14300
H  28.27600 1.20100 25.50600
H  28.95300 1.81800 23.95700
H  32.26500 -1.00000 29.47000
H  31.69200 -1.39000 27.78400
H  31.70100 -2.63000 29.13200
H  29.07600 0.70900 33.19800
H  29.34300 -2.84400 35.98500
H  28.39200 -1.62300 36.76300
H  30.26800 -1.57600 36.69800
Mg 6.79600 53.35600 40.86800
C  6.60800 49.76700 40.39400
C  10.09200 53.11700 40.35700
C  6.89900 56.77200 40.79400
C  3.30300 53.37100 41.05200
N  8.18400 51.60900 40.40600
C  7.92600 50.25600 40.29300
C  9.16400 49.49000 39.84700
C  10.30200 50.59800 40.16600
C  9.46500 51.86500 40.30600
C  11.09000 50.45800 41.47200
C  9.15500 48.82200 38.48500
C  8.73100 49.75200 37.30700
H  7.34100 49.54700 36.71500
N  8.26900 54.71700 40.57400
C  9.59500 54.38600 40.34700
C  10.39100 55.63000 40.10700
C  9.45100 56.75200 40.19500
C  8.12500 56.11300 40.54400
C  11.78900 55.56700 39.60400
C  9.77800 58.23300 39.98200
O  10.91900 58.51400 39.84500
C  8.74400 59.35000 40.13900
N  5.27100 54.86700 40.66700
C  5.56700 56.21700 40.84400
C  4.23700 57.02300 41.30700
C  3.14800 55.88800 41.19900
C  3.95400 54.58800 40.95600
C  4.37400 57.57800 42.73500
C  2.02600 56.24600 40.15900
C  1.08800 57.44800 40.55600
N  5.23200 51.88500 40.71900
C  3.90300 52.11700 40.89600
C  3.28800 50.85000 40.86900
C  4.27900 49.94600 40.84800
C  5.48600 50.56800 40.60500
C  1.85100 50.47300 41.19200
C  4.55000 48.49700 41.01900
O  3.84000 47.54600 41.24700
C  6.00600 48.34400 40.72700
C  6.07600 47.35800 39.59700
O  5.86800 47.62400 38.40900
O  6.43200 46.14600 40.06700
C  6.45400 45.03900 39.09200
H  11.18400 53.10800 40.36900
H  6.89300 57.84300 41.01200
H  2.21900 53.44500 41.16800
H  9.31100 48.69300 40.57500
H  10.86900 50.64000 39.23600
H  10.87400 51.24400 42.19700
H  12.08700 50.66500 41.08400
H  11.08400 49.47800 41.94800
H  8.39300 48.05000 38.58200
H  10.19300 48.52900 38.32500
H  9.46700 49.79200 36.50400
H  8.77700 50.79800 37.60900
H  12.35900 54.69900 39.93400
H  12.33800 56.47400 39.85800
H  11.78700 55.56100 38.51400
H  8.03500 59.17900 39.32900
H  9.33200 60.25300 39.97700
H  8.26800 59.33200 41.11900
H  4.02500 57.76900 40.54000
H  2.63700 55.79500 42.15800
H  5.39500 57.58800 43.11600
H  3.86900 56.97300 43.48700
H  4.03800 58.61200 42.80300
H  1.43600 55.33300 40.07900
H  2.49900 56.35800 39.18300
H  1.56600 57.75200 41.48700
H  0.11900 57.01400 40.80500
H  1.05800 58.25200 39.82100
H  1.36700 50.32800 40.22600
H  1.37000 51.28800 41.73400
H  1.70000 49.50500 41.66900
H  6.56900 47.85200 41.52000
H  5.41700 44.92200 38.77600
H  6.73800 44.12700 39.61700
H  7.22300 45.14500 38.32700

