158

Mg 9.19500 47.32300 28.04700
C  7.49000 46.93500 31.06700
C  12.03600 47.61800 29.80000
C  10.62800 48.43200 25.13900
C  6.06200 47.36100 26.40700
N  9.65700 47.41100 30.29300
C  8.85500 47.02000 31.24400
C  9.58800 46.98800 32.60700
C  11.04400 47.33800 32.14500
C  10.94600 47.47500 30.65800
C  11.69300 48.53600 32.84200
C  9.50900 45.66100 33.45500
C  9.31900 45.85300 34.96700
H  10.00900 44.94100 35.96500
N  11.12600 47.70600 27.45000
C  12.15000 47.77400 28.36400
C  13.40700 47.99700 27.55000
C  13.02300 48.17300 26.18200
C  11.58300 48.12100 26.20300
C  14.89600 47.86800 28.19600
C  13.85100 48.25500 24.91900
O  13.41300 48.15200 23.79100
C  15.32000 48.36800 25.17900
N  8.38200 47.93700 26.05800
C  9.22800 48.37800 25.04100
C  8.39800 48.88600 23.81800
C  7.05000 48.23900 24.09000
C  7.14500 47.70900 25.59700
C  8.41800 50.40100 23.64800
C  6.70800 47.11500 23.01500
C  6.56200 47.65000 21.57500
N  7.10400 47.18700 28.49700
C  5.97600 47.31700 27.77600
C  4.79200 47.20300 28.67200
C  5.30900 47.02900 29.97700
C  6.75400 47.07700 29.82000
C  3.34900 47.19300 28.27600
C  4.98100 46.86600 31.41000
O  3.90300 46.82300 31.94300
C  6.32400 46.60300 32.10900
C  6.25000 45.16200 32.55000
O  6.66700 44.22100 31.96900
O  5.63700 45.17200 33.75400
C  5.76200 43.81800 34.46100
H  12.94800 47.73800 30.38800
H  11.13500 48.73900 24.22200
H  5.18300 47.43100 25.76300
H  9.22900 47.81500 33.22000
H  11.74300 46.51400 32.29000
H  11.52500 49.43600 32.25000
H  12.72400 48.20100 32.73500
H  11.39800 48.58300 33.89100
H  10.41500 45.06300 33.36200
H  8.65400 45.08100 33.10700
H  8.26700 45.82800 35.25300
H  9.68800 46.85100 35.20200
H  14.90700 48.02300 29.27500
H  15.44800 48.74000 27.84500
H  15.26200 46.85900 28.00500
H  15.59900 49.30300 25.66500
H  15.74100 48.35000 24.17400
H  15.70700 47.50700 25.72400
H  8.82500 48.37700 22.95400
H  6.20600 48.91600 23.95800
H  8.81200 50.82200 24.57300
H  7.37000 50.65000 23.48300
H  8.96200 50.82100 22.80100
H  5.73500 46.67400 23.23300
H  7.43200 46.30200 23.05800
H  7.34500 47.23900 20.93800
H  6.69400 48.73100 21.62100
H  5.61300 47.32100 21.15400
H  3.26200 47.25100 27.19100
H  2.85600 47.98500 28.83900
H  2.82300 46.26900 28.51600
H  6.46800 47.18800 33.01700
H  6.63200 43.21200 34.20600
H  4.90500 43.21200 34.17000
H  5.71000 43.83900 35.54900
Mg -9.55400 39.30700 42.11900
C  -8.96700 35.87800 41.74800
C  -6.55700 39.92000 40.71800
C  -10.58900 42.51600 41.71000
C  -12.79700 38.60100 43.48100
N  -8.08400 38.06100 41.25800
C  -7.94100 36.66900 41.22900
C  -6.70400 36.17800 40.48200
C  -5.84500 37.41400 40.65900
C  -6.90100 38.61000 40.93200
C  -4.89700 37.44000 41.90500
C  -7.00900 35.71800 39.01000
C  -5.77600 35.18800 38.28000
H  -4.99500 36.02500 37.29200
N  -8.73700 40.98300 41.24200
C  -7.46700 41.06000 40.75800
C  -7.20600 42.41500 40.53400
C  -8.43000 43.08900 40.54800
C  -9.31600 42.17100 41.21900
C  -5.81600 42.88300 40.12800
C  -8.70100 44.50000 40.00300
O  -7.78200 45.08600 39.51100
C  -10.10500 45.12100 39.80300
N  -11.46200 40.40400 42.54200
C  -11.54500 41.75800 42.30100
C  -12.88100 42.33500 42.77300
C  -13.65500 41.00800 43.16200
C  -12.53900 39.94300 43.16100
C  -12.90900 43.34400 44.01000
C  -14.75300 40.65000 42.13100
C  -16.18400 40.77100 42.63000
N  -10.71200 37.63200 42.58900
C  -11.96100 37.50900 43.17200
C  -12.25900 36.09700 43.19600
C  -11.09700 35.42300 42.70400
C  -10.16300 36.41600 42.30700
C  -13.49500 35.44300 43.60900
C  -10.50500 34.13700 42.45600
O  -10.90200 33.03900 42.67900
C  -9.12300 34.38300 41.79200
C  -8.11500 33.65400 42.58600
O  -8.16400 33.29900 43.76300
O  -7.06700 33.32100 41.74800
C  -5.87300 32.68500 42.33300
H  -5.58500 40.09100 40.25100
H  -10.90800 43.55800 41.77600
H  -13.79400 38.45800 43.90300
H  -6.18300 35.42000 41.06700
H  -5.30600 37.74100 39.77100
H  -5.35600 37.87200 42.79400
H  -4.09400 38.11900 41.61900
H  -4.59600 36.40200 42.04800
H  -7.48000 36.51100 38.43100
H  -7.69000 34.87000 38.92300
H  -6.05400 34.25300 37.79400
H  -5.02800 35.00700 39.05200
H  -5.60600 42.61400 39.09300
H  -5.00700 42.64400 40.81800
H  -5.73200 43.96600 40.03700
H  -10.45000 45.55700 40.74000
H  -10.84600 44.36400 39.54600
H  -10.10300 45.95400 39.10000
H  -13.35600 42.89600 41.96800
H  -14.10400 41.07400 44.15300
H  -13.14500 42.72100 44.87300
H  -13.75700 44.01900 43.89700
H  -11.87900 43.70000 43.99500
H  -14.55000 39.64700 41.75300
H  -14.53700 41.28600 41.27300
H  -16.65100 41.66800 42.22400
H  -16.32900 40.80500 43.71000
H  -16.65700 39.88400 42.21000
H  -13.67900 35.76300 44.63400
H  -13.34600 34.36400 43.57000
H  -14.35800 35.78600 43.03800
H  -9.06600 34.14700 40.72900
H  -5.23200 32.21400 41.58800
H  -6.14100 31.91700 43.05900
H  -5.40700 33.49000 42.90100

