158

Mg -12.30300 16.61600 41.93300
C  -9.76300 14.29700 41.53900
C  -10.24000 18.98600 40.78900
C  -15.07600 18.57900 41.48700
C  -14.52000 13.96700 42.53900
N  -10.34500 16.62400 41.10500
C  -9.45900 15.56100 41.09000
C  -8.08200 15.99400 40.64200
C  -8.15200 17.54200 40.89200
C  -9.67200 17.79300 40.95800
C  -7.48400 17.99000 42.21900
C  -7.85500 15.61000 39.17800
C  -6.37000 15.68800 38.80100
H  -6.02700 16.35200 37.47200
N  -12.59400 18.55900 41.18100
C  -11.59800 19.37700 40.75200
C  -12.16300 20.59600 40.38200
C  -13.57100 20.41100 40.42500
C  -13.83900 19.15200 41.11200
C  -11.39900 21.76700 39.79100
C  -14.61600 21.29700 39.68400
O  -14.24600 22.37100 39.12800
C  -16.10900 20.99200 39.60200
N  -14.57700 16.31600 41.95300
C  -15.50200 17.28600 41.90200
C  -16.96200 16.75900 41.98000
C  -16.66600 15.34300 42.61800
C  -15.14500 15.15200 42.22200
C  -17.99200 17.62100 42.70100
C  -17.54600 14.21400 42.05600
C  -18.74000 13.79400 42.87100
N  -12.16000 14.58300 42.24800
C  -13.17200 13.67700 42.55900
C  -12.51200 12.35900 42.61400
C  -11.21300 12.52600 42.29500
C  -11.01300 13.89400 42.08300
C  -13.22900 11.05200 42.89800
C  -9.89100 11.94500 42.06800
O  -9.49200 10.73900 42.05600
C  -8.95200 13.00400 41.62600
C  -7.74900 13.26900 42.39100
O  -7.68900 13.87600 43.47600
O  -6.62400 12.77300 41.66900
C  -5.32600 13.47200 42.06500
H  -9.57200 19.84800 40.72400
H  -15.90300 19.28800 41.40700
H  -15.22400 13.24200 42.95400
H  -7.32300 15.66800 41.35400
H  -7.62500 17.92600 40.01800
H  -7.06600 17.14300 42.76200
H  -8.27400 18.38900 42.85600
H  -6.74100 18.77700 42.08500
H  -8.41500 16.27100 38.51600
H  -8.10900 14.57800 38.93400
H  -5.98300 14.66900 38.80500
H  -5.83100 16.09100 39.65800
H  -11.85400 22.68000 40.17500
H  -11.41800 21.75200 38.70100
H  -10.35000 21.80100 40.08500
H  -16.74600 21.07200 40.48300
H  -16.12800 19.91100 39.46600
H  -16.48000 21.43300 38.67700
H  -17.43500 16.61300 41.00900
H  -16.90900 15.48400 43.67100
H  -18.56700 17.00900 43.39600
H  -18.73700 18.08900 42.05800
H  -17.54800 18.37000 43.35600
H  -17.11100 13.25100 41.78800
H  -17.97600 14.46100 41.08500
H  -18.77400 12.71100 42.98300
H  -19.67400 14.10900 42.40600
H  -18.65600 14.26700 43.85000
H  -12.57200 10.46300 43.53800
H  -13.66400 10.64300 41.98700
H  -14.09200 11.23200 43.53900
H  -8.68700 12.68400 40.61800
H  -5.63100 14.49900 42.26700
H  -4.73700 13.47300 41.14800
H  -4.76200 13.01500 42.87700
Mg -6.22700 25.24100 26.09100
C  -4.70300 26.79300 28.80300
C  -8.16400 23.29500 28.36300
C  -7.34800 23.50000 23.53400
C  -3.92600 26.86800 23.94800
N  -6.37800 25.06200 28.33900
C  -5.66100 25.83800 29.22700
C  -6.05300 25.50400 30.68100
C  -7.05800 24.33300 30.43100
C  -7.27700 24.26100 28.92100
C  -6.71700 22.94000 31.11200
C  -6.64300 26.74200 31.38400
C  -7.52400 26.45900 32.68800
H  -7.00400 25.67900 33.82400
N  -7.69300 23.73100 25.94600
C  -8.36600 23.12700 26.97800
C  -9.25100 22.18200 26.38700
C  -9.11000 22.17400 24.96200
C  -8.04400 23.16700 24.76500
C  -10.05900 21.36200 27.29400
C  -9.71100 21.29200 23.78300
O  -9.34400 21.23900 22.61300
C  -10.71400 20.27700 24.15300
N  -5.63100 25.18700 24.06600
C  -6.26000 24.37700 23.23400
C  -5.75500 24.46700 21.73300
C  -4.60700 25.51800 21.90000
C  -4.78200 25.98300 23.38200
C  -5.27400 23.10700 21.03700
C  -4.53700 26.67300 20.84000
C  -3.27500 26.68000 20.04300
N  -4.68000 26.53600 26.28800
C  -3.90100 27.21100 25.35300
C  -3.01000 28.15700 25.99200
C  -3.27900 28.01600 27.39500
C  -4.31000 27.07700 27.47900
C  -1.94800 28.91600 25.20400
C  -2.92800 28.41000 28.73000
O  -1.96800 29.09700 29.09800
C  -3.83700 27.71600 29.72300
C  -3.02100 26.80200 30.59500
O  -2.27500 25.89200 30.16600
O  -3.24300 27.16700 31.90600
C  -2.29200 26.54400 32.88600
H  -8.66400 22.67600 29.11000
H  -7.78700 23.04900 22.64200
H  -3.30200 27.38400 23.21600
H  -5.13500 25.19500 31.18100
H  -8.03600 24.65200 30.79200
H  -6.62100 22.09400 30.43200
H  -7.39500 22.79700 31.95400
H  -5.74500 23.09400 31.58000
H  -7.20600 27.30400 30.63800
H  -5.82500 27.30500 31.83300
H  -8.57800 26.23200 32.52600
H  -7.56500 27.46000 33.11600
H  -10.96500 20.98000 26.82400
H  -10.43200 21.81700 28.21200
H  -9.38500 20.55100 27.57100
H  -11.13800 19.78800 23.27600
H  -11.49700 20.72900 24.76100
H  -10.25500 19.45200 24.69700
H  -6.51700 24.95500 21.12500
H  -3.63500 25.02300 21.91400
H  -5.60400 22.33100 21.72700
H  -4.20100 22.93600 20.96300
H  -5.65300 23.10100 20.01500
H  -4.55800 27.65800 21.30600
H  -5.33900 26.61400 20.10400
H  -2.60800 25.82800 20.17900
H  -2.69400 27.60000 20.11500
H  -3.58900 26.62800 19.00100
H  -1.11600 29.05700 25.89300
H  -2.15400 29.92800 24.85700
H  -1.68900 28.38100 24.29000
H  -4.30500 28.40200 30.43000
H  -1.91600 25.56600 32.58700
H  -2.95200 26.34100 33.72900
H  -1.53500 27.20500 33.30900

