158

Mg 52.75000 23.71100 44.70100
C  49.93400 25.83700 44.02200
C  50.74200 21.11100 43.65000
C  55.44800 21.85400 44.67300
C  54.49900 26.58100 45.69000
N  50.64200 23.53700 43.80000
C  49.76100 24.52600 43.59300
C  48.51400 24.05000 42.86000
C  48.52500 22.53000 43.35600
C  50.07900 22.32900 43.49500
C  47.86300 22.12100 44.66200
C  48.67200 24.29600 41.33700
C  47.41700 24.82900 40.58400
H  46.94100 24.07100 39.36000
N  52.98400 21.71400 44.23000
C  52.06700 20.75900 43.91900
C  52.64500 19.45400 43.94600
C  54.07700 19.60400 44.19100
C  54.28500 21.07400 44.36300
C  51.70800 18.22700 43.98900
C  55.04100 18.48700 44.26000
O  54.64700 17.30600 44.14000
C  56.40500 18.63700 44.69100
N  54.75200 24.14800 45.00700
C  55.71200 23.20500 44.99900
C  57.01600 23.74700 45.57400
C  56.72900 25.31700 45.80000
C  55.23700 25.39000 45.40300
C  57.72500 22.96300 46.69500
C  57.58100 26.25600 44.88600
C  58.85700 26.82300 45.55800
N  52.34300 25.79700 44.87200
C  53.12500 26.81900 45.36600
C  52.36900 28.05800 45.43700
C  51.11000 27.71400 44.93400
C  51.15200 26.36300 44.57400
C  52.80400 29.36100 45.99200
C  49.73500 28.21000 44.64900
O  49.21700 29.30300 44.81400
C  48.98500 27.05800 43.92600
C  48.49900 27.43200 42.63100
O  49.22200 27.87000 41.70600
O  47.16800 27.43900 42.68000
C  46.46600 28.22900 41.73000
H  50.01200 20.30300 43.57500
H  56.39600 21.33400 44.51200
H  55.03000 27.43600 46.11400
H  47.65900 24.54300 43.32200
H  48.19200 21.87100 42.55400
H  48.62300 21.57500 45.22000
H  46.92900 21.62100 44.40300
H  47.62200 23.04800 45.18200
H  49.02800 23.41300 40.80500
H  49.34300 25.14400 41.20300
H  47.63800 25.83700 40.23500
H  46.57500 24.95600 41.26500
H  52.13100 17.23300 43.84500
H  50.89300 18.35900 43.27800
H  51.13400 18.28100 44.91500
H  56.84700 19.20700 43.87400
H  56.95100 17.70200 44.81400
H  56.36000 19.21400 45.61500
H  57.67000 23.54600 44.72500
H  56.91400 25.48300 46.86200
H  57.60300 23.49200 47.64000
H  58.73200 22.63000 46.44500
H  57.07200 22.10800 46.87000
H  56.89400 27.00600 44.49600
H  57.99700 25.66400 44.07000
H  58.88100 26.32900 46.53000
H  58.87600 27.87200 45.85400
H  59.74900 26.63500 44.96200
H  52.11900 30.09100 45.56000
H  53.82500 29.53900 45.65400
H  52.85400 29.52500 47.06900
H  48.10400 26.69200 44.45500
H  46.95800 29.18500 41.54800
H  45.45300 28.31600 42.12200
H  46.43800 27.63000 40.82000
Mg 35.95000 50.25500 24.18400
C  35.78700 48.67400 27.44500
C  35.02600 53.22900 25.76500
C  36.09300 51.49500 21.26700
C  36.85400 47.05400 23.06000
N  35.48100 50.85600 26.35400
C  35.49500 50.04500 27.47800
C  35.17900 50.88800 28.81200
C  34.89200 52.33600 28.21400
C  35.15600 52.14100 26.66900
C  33.51500 52.94800 28.55100
C  36.42200 50.87200 29.83300
C  36.14600 50.56800 31.30200
H  34.73100 50.72100 31.83000
N  35.59200 52.12500 23.59600
C  35.28600 53.20600 24.38100
C  35.04900 54.33400 23.45600
C  35.37400 53.85900 22.13300
C  35.79900 52.48800 22.31800
C  34.77900 55.78500 24.00300
C  35.18300 54.56700 20.86100
O  35.48600 54.03500 19.74200
C  34.55100 55.99200 20.84700
N  36.19700 49.36900 22.48000
C  36.38500 50.09400 21.32500
C  36.79700 49.24800 20.11000
C  37.06500 47.83300 20.69700
C  36.64500 48.09800 22.18300
C  35.76800 49.15800 19.02500
C  38.53400 47.24700 20.51000
C  38.61700 45.85500 20.00400
N  36.05300 48.17000 24.97400
C  36.42100 47.03300 24.36100
C  36.54600 45.98000 25.31200
C  36.35300 46.58500 26.52700
C  36.01700 47.92900 26.29200
C  36.93800 44.51500 25.01900
C  36.30300 46.34400 27.94800
O  36.52000 45.30500 28.55700
C  35.84300 47.62400 28.64900
C  34.53400 47.42100 29.31900
O  33.43100 47.33500 28.81800
O  34.80900 47.24700 30.72100
C  33.78100 46.71700 31.63500
H  34.72400 54.19500 26.17500
H  36.18800 51.88900 20.25300
H  37.25000 46.15600 22.57900
H  34.34700 50.32600 29.23700
H  35.65200 52.99200 28.63900
H  32.95100 52.75300 27.64000
H  33.61900 53.98500 28.87000
H  33.08500 52.39700 29.38700
H  36.96800 51.81400 29.88900
H  37.09700 50.10600 29.45100
H  36.82100 51.21800 31.85800
H  36.38500 49.53200 31.53900
H  35.09000 55.92000 25.03900
H  33.72600 56.03100 24.14700
H  35.36700 56.47600 23.39900
H  34.26600 56.25400 19.82800
H  35.28600 56.65900 21.29800
H  33.58600 56.02000 21.35200
H  37.70400 49.74300 19.76200
H  36.27600 47.12800 20.43300
H  34.76700 48.91200 19.37800
H  36.12500 48.40600 18.32100
H  35.72500 50.12800 18.52700
H  39.24100 47.28200 21.34000
H  39.08900 47.87300 19.81100
H  38.74900 45.80700 18.92300
H  37.66600 45.38300 20.24900
H  39.23000 45.19100 20.61300
H  36.21200 43.99300 24.39700
H  37.10500 43.97500 25.95100
H  37.75500 44.71000 24.32400
H  36.45800 48.04500 29.44500
H  32.86000 47.30100 31.64000
H  34.14900 46.63000 32.65700
H  33.46400 45.73000 31.29900

