158

Mg 47.37400 25.58900 28.21900
C  48.02900 27.82900 30.69900
C  46.79800 23.11900 30.63500
C  46.60700 23.53300 25.70400
C  48.55400 27.87500 25.87800
N  47.31500 25.52900 30.37900
C  47.62100 26.56200 31.16700
C  47.49700 26.25000 32.68000
C  47.12200 24.73000 32.62500
C  47.21500 24.39200 31.10400
C  48.00000 23.73200 33.47100
C  46.55100 27.21800 33.47100
C  45.80600 26.72800 34.77600
H  46.13100 27.44000 36.11000
N  46.60100 23.62200 28.21000
C  46.49400 22.74700 29.25100
C  46.08800 21.42200 28.71800
C  45.95400 21.55600 27.30100
C  46.41800 22.95900 26.99400
C  45.83700 20.20800 29.53200
C  45.50000 20.47900 26.30900
O  45.56200 20.66800 25.12500
C  45.10200 19.13500 26.72300
N  47.59900 25.65800 26.09400
C  47.25700 24.63700 25.28600
C  47.65900 24.98200 23.89700
C  47.96000 26.51100 23.92600
C  48.00800 26.72200 25.43300
C  48.79600 24.04200 23.28800
C  46.82900 27.32100 23.30800
C  47.04300 27.73400 21.87000
N  48.32800 27.44200 28.28900
C  48.68300 28.27800 27.29000
C  49.23100 29.54500 27.82500
C  48.91800 29.38700 29.21700
C  48.47100 28.09800 29.44000
C  49.72700 30.76900 27.14100
C  48.91300 30.12200 30.50500
O  49.25100 31.24400 30.82200
C  48.34700 29.12700 31.53300
C  49.40000 28.95200 32.58100
O  50.32600 28.21500 32.49400
O  49.01300 29.59700 33.70800
C  49.86300 29.34600 34.88500
H  46.47900 22.38800 31.38100
H  46.51100 22.77200 24.92700
H  48.88600 28.56300 25.09800
H  48.49400 26.43100 33.08200
H  46.08800 24.42900 32.79300
H  47.39100 23.12100 34.13700
H  48.75000 24.33000 33.98900
H  48.59300 23.08800 32.82300
H  45.68000 27.33800 32.82600
H  46.83800 28.26100 33.60100
H  45.97000 25.66900 34.97600
H  44.72000 26.78000 34.71300
H  46.03500 20.39400 30.58700
H  46.45100 19.35500 29.24300
H  44.78300 19.96200 29.39700
H  44.34700 19.14700 27.50900
H  46.01600 18.63700 27.04600
H  44.67200 18.67300 25.83400
H  46.77800 24.91000 23.25800
H  48.94800 26.83900 23.60400
H  48.52900 23.71300 22.28400
H  48.97800 23.19100 23.94400
H  49.73500 24.59600 23.26000
H  46.65300 28.25400 23.84500
H  45.85500 26.83200 23.30000
H  46.55400 27.10600 21.12500
H  48.08400 27.51100 21.63300
H  46.87900 28.80000 21.71600
H  49.66200 30.81100 26.05400
H  50.74300 30.91400 27.50800
H  49.30200 31.70500 27.50400
H  47.43700 29.57800 31.92800
H  49.56000 30.05200 35.65900
H  50.91700 29.43300 34.62200
H  49.66200 28.30300 35.12600
Mg 27.02000 49.95000 26.04200
C  25.49700 51.45900 28.67200
C  29.81000 49.35700 27.96500
C  28.80000 49.13800 23.17800
C  24.51100 51.28100 23.91500
N  27.55300 50.48100 28.04300
C  26.70200 50.94500 28.99000
C  27.08100 50.55100 30.38400
C  28.56600 50.12300 30.15100
C  28.65000 49.95700 28.67100
C  29.75900 50.93000 30.76900
C  26.17100 49.44100 31.11700
C  25.64000 49.64400 32.55800
H  26.48000 50.37400 33.62000
N  28.99900 49.22900 25.66800
C  29.97500 49.03400 26.59900
C  31.13100 48.51300 26.00200
C  30.94600 48.49000 24.59200
C  29.48200 48.96500 24.42200
C  32.25500 48.05400 26.81700
C  31.94200 48.17500 23.56100
O  31.63300 48.15800 22.36700
C  33.34700 47.82200 23.92000
N  26.76500 50.24800 23.82400
C  27.53400 49.61600 22.92900
C  26.91000 49.48200 21.49200
C  25.50600 50.15400 21.77500
C  25.52000 50.53900 23.26400
C  27.64200 50.23900 20.31300
C  24.27900 49.23200 21.63600
C  23.01000 49.98200 21.11400
N  25.33600 51.11400 26.24700
C  24.39500 51.61000 25.29500
C  23.33900 52.33300 25.97600
C  23.64100 52.25900 27.33100
C  24.88500 51.49600 27.43500
C  22.01800 52.76800 25.47100
C  23.22400 52.56000 28.68500
O  22.16200 53.04200 29.10400
C  24.49300 52.12800 29.61500
C  25.00300 53.22700 30.46800
O  25.87400 53.95800 30.12300
O  24.27400 53.34000 31.59300
C  24.72500 54.13700 32.69600
H  30.60300 49.14700 28.68600
H  29.35900 48.71200 22.34200
H  23.79400 51.58600 23.14900
H  27.09500 51.47800 30.95800
H  28.72500 49.11300 30.53000
H  30.27600 51.57000 30.05400
H  30.47700 50.20600 31.15500
H  29.36500 51.58800 31.54300
H  26.70600 48.49200 31.10200
H  25.32900 49.21400 30.46200
H  25.45300 48.63900 32.93800
H  24.62800 50.04200 32.48500
H  32.02500 47.99900 27.88100
H  33.04600 48.78600 26.65700
H  32.60300 47.09100 26.44300
H  33.36800 46.95900 24.58500
H  33.72300 48.75500 24.34100
H  33.83800 47.51800 22.99600
H  26.82700 48.46500 21.10800
H  25.33100 51.14800 21.36300
H  28.63400 49.82700 20.12600
H  27.71500 51.30600 20.52700
H  27.10700 50.14000 19.36900
H  24.01900 48.79000 22.59800
H  24.54800 48.40700 20.97700
H  23.26700 50.99700 20.80900
H  22.34200 50.14000 21.96100
H  22.53200 49.38600 20.33700
H  21.81300 52.35700 24.48300
H  21.85700 53.84200 25.57100
H  21.21200 52.34900 26.07300
H  24.19600 51.40200 30.37200
H  24.01600 54.02000 33.51500
H  24.67200 55.19600 32.44200
H  25.71500 53.78700 32.99000

