158

Mg 25.18700 1.06600 28.97300
C  27.24900 0.75900 31.73100
C  22.53000 1.80700 31.27100
C  23.21600 1.73600 26.48700
C  27.76300 0.20700 26.76700
N  24.89900 1.11200 31.14900
C  25.93000 1.16200 32.06200
C  25.50500 1.56300 33.46600
C  24.03000 1.84000 33.25400
C  23.79800 1.66400 31.75600
C  22.95900 0.91700 33.97100
C  26.31300 2.75400 34.10600
C  26.73100 2.75700 35.59300
H  26.06800 3.77800 36.51700
N  23.15200 1.45700 28.90500
C  22.23300 1.69400 29.91500
C  20.90400 1.90700 29.33400
C  21.13200 2.08600 27.91000
C  22.55900 1.72400 27.72700
C  19.62200 2.05000 30.25400
C  20.10400 2.45100 26.87500
O  20.30600 2.31900 25.65600
C  18.69000 3.01600 27.11900
N  25.41200 0.83100 26.89700
C  24.42600 1.24700 26.07200
C  24.84600 1.31000 24.56600
C  26.36500 0.96100 24.69800
C  26.52800 0.61800 26.17400
C  24.19300 0.25700 23.71800
C  27.40900 1.95000 24.10600
C  27.75200 3.18100 25.02200
N  27.11200 0.42100 29.20800
C  28.08700 0.10000 28.19100
C  29.30300 -0.10800 28.89800
C  29.02100 0.11800 30.28100
C  27.69100 0.52600 30.36800
C  30.60100 -0.45300 28.29900
C  29.62600 0.07600 31.62100
O  30.71900 -0.19400 31.99900
C  28.44700 0.56400 32.58000
C  28.29600 -0.46100 33.65700
O  27.44100 -1.30400 33.53600
O  28.95500 -0.22300 34.80200
C  28.49700 -0.97400 35.97700
H  21.66800 1.99800 31.91400
H  22.69800 1.92400 25.54400
H  28.54500 0.12600 26.00800
H  25.53800 0.67000 34.09100
H  23.90700 2.89100 33.51500
H  22.65000 0.10200 33.31600
H  22.18600 1.63800 34.23600
H  23.36200 0.48300 34.88600
H  25.75700 3.66600 33.89100
H  27.17400 2.99800 33.48500
H  27.80900 2.79000 35.75300
H  26.41300 1.76800 35.92300
H  19.45100 3.09600 30.50900
H  19.75200 1.41700 31.13200
H  18.78100 1.68400 29.66500
H  18.74000 3.55700 28.06400
H  17.95100 2.21400 27.10600
H  18.35400 3.57600 26.24600
H  24.60700 2.29700 24.17100
H  26.68400 -0.01600 24.33400
H  24.83400 -0.36900 23.09800
H  23.65100 0.74200 22.90600
H  23.40200 -0.21400 24.30200
H  26.93800 2.49000 23.28500
H  28.34700 1.48900 23.79700
H  27.14500 3.20000 25.92800
H  27.71400 4.11500 24.46300
H  28.78700 3.10800 25.35700
H  30.27000 -1.04500 27.44500
H  31.15800 -1.14000 28.93500
H  31.28700 0.37700 28.13000
H  28.82000 1.49400 33.01100
H  27.44800 -0.70700 36.10000
H  29.09100 -0.89200 36.88700
H  28.48500 -2.02700 35.69600
Mg 25.92200 49.78500 26.16200
C  23.75700 51.14300 28.85500
C  28.05600 48.93800 28.58800
C  27.99600 49.03200 23.70300
C  23.71900 51.24100 23.92900
N  25.83600 50.08200 28.50100
C  24.89000 50.49000 29.38100
C  25.29400 50.19900 30.81700
C  26.70800 49.61900 30.75100
C  26.90400 49.45200 29.15700
C  27.91900 50.29400 31.43100
C  24.24800 49.39800 31.57600
C  23.71100 50.03900 32.90800
H  24.80100 50.45400 33.90900
N  27.75700 48.94000 26.15600
C  28.56200 48.65700 27.27200
C  29.86800 48.18900 26.84700
C  29.82000 48.17000 25.37500
C  28.48400 48.75900 24.99600
C  31.01400 47.78500 27.79800
C  30.93000 47.82400 24.39800
O  30.90100 47.96600 23.16700
C  32.21600 47.13200 25.05000
N  25.89600 50.14700 24.10800
C  26.80400 49.63200 23.26100
C  26.41300 49.77400 21.86300
C  24.96700 50.41900 21.95600
C  24.88800 50.66500 23.45200
C  27.46600 50.69300 21.12200
C  23.88600 49.51400 21.32600
C  22.68200 50.13300 20.63400
N  24.12000 51.01100 26.29500
C  23.39400 51.53300 25.23300
C  22.24800 52.21000 25.79500
C  22.30300 52.02700 27.18100
C  23.50100 51.36100 27.46600
C  21.28900 52.87700 24.88800
C  21.66500 52.31200 28.46500
O  20.57600 52.86000 28.67600
C  22.61600 51.71600 29.61300
C  23.06400 52.76500 30.51000
O  24.03300 53.55300 30.26700
O  22.10700 52.87700 31.55500
C  22.55100 53.92600 32.51500
H  28.75600 48.56800 29.34000
H  28.67000 48.86600 22.86000
H  23.03000 51.59500 23.16000
H  25.36100 51.16500 31.31700
H  26.70100 48.57200 31.05500
H  27.68700 51.30500 31.76800
H  28.77200 50.33400 30.75400
H  28.16300 49.64500 32.27200
H  24.78700 48.53700 31.97300
H  23.52800 48.89200 30.93300
H  23.01700 49.38200 33.43200
H  23.25300 50.97300 32.58000
H  30.62100 47.87500 28.81100
H  31.84400 48.49000 27.78100
H  31.30000 46.73300 27.77700
H  32.02400 46.10200 25.34800
H  32.52000 47.76600 25.88400
H  33.03000 46.99600 24.33800
H  26.46200 48.75600 21.47600
H  24.98400 51.31500 21.33500
H  28.29400 50.87000 21.80700
H  27.09700 51.71500 21.02600
H  27.87100 50.17800 20.25100
H  23.56600 48.80200 22.08600
H  24.42000 48.94300 20.56700
H  21.78500 49.67000 21.04600
H  22.62200 50.16400 19.54600
H  22.69600 51.18100 20.93400
H  20.92400 52.14100 24.17100
H  21.73300 53.68300 24.30400
H  20.44600 53.24000 25.47500
H  22.16600 50.84300 30.08500
H  22.94900 54.81300 32.02300
H  23.23700 53.42800 33.20000
H  21.67400 54.15400 33.12100

