158

Mg 15.85900 52.44700 24.95600
C  17.65200 51.11000 27.79000
C  13.23700 53.23000 26.94000
C  14.16600 53.12200 22.29800
C  18.49600 50.99500 23.06500
N  15.57100 52.17200 27.05500
C  16.41800 51.72200 28.08500
C  15.77200 52.02200 29.43600
C  14.33400 52.39200 29.03400
C  14.33000 52.63200 27.57000
C  13.12400 51.61100 29.64500
C  16.57200 53.06800 30.24000
C  16.86700 52.81400 31.67400
H  16.11000 51.77300 32.53600
N  14.00500 53.22500 24.65400
C  13.05400 53.50800 25.60200
C  11.89800 54.12900 25.00800
C  12.10500 53.95700 23.56200
C  13.45200 53.41400 23.43500
C  10.79900 54.58900 25.83400
C  11.06200 54.21500 22.40600
O  11.37900 54.01500 21.25200
C  9.80800 54.95600 22.75400
N  16.20300 52.03300 22.95000
C  15.37500 52.38100 22.06600
C  15.81000 51.93500 20.62100
C  17.26200 51.43200 20.86600
C  17.32700 51.49900 22.42000
C  14.83400 50.91600 20.01100
C  18.35100 52.30200 20.20500
C  18.15500 52.22900 18.65100
N  17.72200 51.25900 25.27700
C  18.65200 50.78300 24.43200
C  19.65200 50.03300 25.09200
C  19.28800 50.15500 26.43800
C  18.10800 50.90600 26.47500
C  20.76700 49.38900 24.43700
C  19.67500 49.77200 27.79700
O  20.69600 49.18800 28.19400
C  18.72400 50.37800 28.70800
C  18.11500 49.26700 29.54500
O  17.40300 48.34800 29.14400
O  18.61700 49.26400 30.83900
C  18.16900 48.12700 31.65100
H  12.41400 53.48700 27.61000
H  13.63000 53.34100 21.37100
H  19.31400 50.59300 22.46300
H  15.72100 51.14000 30.07400
H  14.16400 53.42600 29.33400
H  12.42600 51.27300 28.87800
H  12.42800 52.17100 30.26900
H  13.50500 50.69000 30.08600
H  16.09000 54.04400 30.18400
H  17.53100 53.11500 29.72600
H  16.85400 53.70800 32.29700
H  17.92500 52.58500 31.80800
H  9.94900 53.94100 25.61900
H  10.51200 55.58800 25.50700
H  10.98200 54.72400 26.90000
H  9.16800 55.02800 21.87500
H  10.11300 55.89700 23.21200
H  9.19300 54.36600 23.43300
H  15.63500 52.82900 20.02300
H  17.44300 50.36500 20.73200
H  14.04200 51.39400 19.43400
H  14.30200 50.25600 20.69600
H  15.33000 50.17900 19.38000
H  19.32900 51.86300 20.40300
H  18.34000 53.32300 20.58900
H  17.41600 51.46300 18.41300
H  19.11600 52.02700 18.17800
H  17.74900 53.15700 18.25000
H  20.94000 48.47400 25.00300
H  21.69200 49.96300 24.50200
H  20.47000 49.37400 23.38900
H  19.24500 51.05600 29.38400
H  18.99900 47.42700 31.74800
H  17.44200 47.38000 31.33200
H  17.93000 48.33100 32.69500
Mg -2.18200 34.86700 26.86800
C  -3.82800 33.12100 29.49600
C  -0.95700 36.98800 29.33100
C  -0.89500 36.70000 24.42500
C  -3.79700 32.87900 24.61900
N  -2.29300 34.95900 29.14900
C  -2.89100 34.07500 29.93800
C  -2.74900 34.37100 31.46600
C  -1.98900 35.72700 31.41100
C  -1.80600 35.98200 29.83800
C  -2.66300 36.98100 32.14800
C  -2.01200 33.17300 32.23500
C  -2.66200 32.56700 33.45600
H  -1.79200 32.41000 34.74900
N  -0.94200 36.52100 26.83800
C  -0.57100 37.27200 27.94000
C  0.38300 38.30600 27.46000
C  0.18700 38.33900 26.04300
C  -0.51300 37.14500 25.73500
C  1.26000 39.18200 28.32200
C  0.65500 39.42100 25.07000
O  0.51200 39.41900 23.85300
C  1.36900 40.57000 25.53900
N  -2.34200 34.77800 24.90100
C  -1.62400 35.57400 24.05200
C  -1.72200 35.22400 22.63700
C  -2.44800 33.88300 22.75700
C  -2.88000 33.77500 24.14800
C  -2.44100 36.21500 21.75300
C  -1.55100 32.60200 22.45400
C  -0.26400 32.26200 23.26700
N  -3.66000 33.34500 26.97100
C  -4.20200 32.60700 25.97000
C  -5.20700 31.80400 26.51300
C  -5.07100 31.89400 27.87300
C  -4.03000 32.79200 28.10400
C  -6.27100 31.09300 25.63400
C  -5.46000 31.33400 29.10100
O  -6.21700 30.41700 29.40800
C  -4.70900 32.11600 30.23900
C  -5.74700 32.71700 31.18900
O  -6.67600 33.41800 30.81100
O  -5.61700 32.18900 32.44000
C  -6.61000 32.42300 33.46000
H  -0.75200 37.66700 30.16100
H  -0.34400 37.18700 23.61800
H  -4.12600 32.11700 23.90900
H  -3.72800 34.50400 31.92500
H  -0.99700 35.64900 31.85700
H  -1.80100 37.51900 32.54400
H  -3.25200 36.74500 33.03400
H  -3.28300 37.65000 31.55200
H  -0.97200 33.45000 32.40800
H  -1.97200 32.31400 31.56500
H  -3.12100 31.62000 33.17000
H  -3.41500 33.28900 33.77200
H  0.96700 40.22600 28.20600
H  2.19500 38.84800 27.87200
H  1.22400 38.96400 29.38900
H  0.78700 41.00700 26.34900
H  1.37400 41.26900 24.70200
H  2.35900 40.33200 25.93000
H  -0.76700 35.09900 22.12800
H  -3.34700 33.93200 22.14200
H  -2.08200 37.21400 22.00100
H  -3.52500 36.15000 21.85100
H  -2.22500 35.96700 20.71400
H  -1.26000 32.72600 21.41200
H  -2.24800 31.76600 22.51200
H  -0.51400 31.86000 24.24900
H  0.27100 33.20500 23.38300
H  0.30400 31.48100 22.76200
H  -6.20300 31.26500 24.56000
H  -7.26900 31.10400 26.07200
H  -5.96500 30.05300 25.74000
H  -4.00600 31.53700 30.83800
H  -7.62100 32.51900 33.06300
H  -6.47500 33.32300 34.06100
H  -6.60800 31.53900 34.09700

