158

Mg 48.24800 35.16000 28.24200
C  46.49100 33.53000 30.74000
C  48.80500 37.67600 30.40900
C  49.49000 37.07000 25.70600
C  47.33600 32.81100 25.92500
N  47.75700 35.49000 30.35800
C  47.05500 34.70700 31.24900
C  47.14800 35.24000 32.63900
C  47.55400 36.69800 32.51500
C  48.08500 36.70300 31.03100
C  46.48000 37.73400 32.67600
C  48.25400 34.45500 33.41400
C  48.06100 34.26200 34.93900
H  47.04800 35.12400 35.75100
N  49.16400 37.04200 28.10900
C  49.36600 37.84800 29.17300
C  50.08900 39.01700 28.82600
C  50.02300 39.01300 27.39900
C  49.53100 37.70100 26.99000
C  50.54300 40.01300 29.75600
C  50.42300 40.12200 26.41900
O  50.53900 39.94700 25.19400
C  50.93900 41.47300 26.83600
N  48.37200 34.97200 26.07000
C  48.98900 35.85600 25.24800
C  49.12200 35.31500 23.81400
C  48.40900 33.95600 23.86700
C  48.00700 33.88600 25.35900
C  48.38700 36.29000 22.86700
C  49.28000 32.81800 23.41500
C  48.72000 31.75100 22.52400
N  47.22300 33.46600 28.30500
C  46.86800 32.60300 27.24100
C  46.15500 31.48400 27.84900
C  45.92800 31.80400 29.20200
C  46.52700 33.05400 29.41700
C  45.82600 30.18600 27.08200
C  45.26400 31.39000 30.40000
O  44.64500 30.38300 30.56700
C  45.46200 32.60700 31.41100
C  45.83000 32.08400 32.70200
O  46.90000 31.46500 32.87400
O  44.89200 32.31600 33.61900
C  45.16100 31.90200 34.99800
H  48.96500 38.48600 31.12300
H  49.88500 37.69000 24.89900
H  47.12600 32.02100 25.20100
H  46.23500 35.05400 33.20300
H  48.43000 36.98100 33.09900
H  46.83600 38.66000 33.12800
H  45.84600 37.38300 33.48900
H  45.99400 37.86600 31.70900
H  49.21800 34.96300 33.41000
H  48.36200 33.44000 33.03100
H  49.04800 34.27000 35.40100
H  47.83500 33.19700 34.98900
H  50.74000 39.62500 30.75600
H  49.68500 40.67300 29.88400
H  51.33600 40.63400 29.33900
H  50.42600 41.72300 27.76500
H  50.80400 42.21800 26.05200
H  51.97400 41.51300 27.17500
H  50.20600 35.42900 23.79200
H  47.43800 34.04500 23.38200
H  47.34800 36.51900 23.10500
H  48.46400 35.90200 21.85100
H  48.91800 37.24200 22.87400
H  49.64300 32.43800 24.37000
H  50.24000 33.22100 23.09100
H  49.40300 31.78300 21.67500
H  47.67300 31.92500 22.27400
H  48.73600 30.70800 22.84000
H  45.88400 30.49000 26.03600
H  44.83600 29.84400 27.38500
H  46.60600 29.49300 27.39800
H  44.46600 33.05100 31.43500
H  44.21500 31.61600 35.45700
H  45.54800 32.71800 35.60800
H  45.76200 30.99500 34.92500
Mg 27.67600 49.82800 26.83200
C  25.54700 50.83700 29.45700
C  30.01600 49.09700 29.13900
C  29.65800 49.18400 24.20400
C  25.19600 50.73200 24.58900
N  27.67800 49.90100 29.14000
C  26.71700 50.28300 30.01000
C  27.17400 50.26800 31.51500
C  28.71400 49.87900 31.30000
C  28.81300 49.60600 29.75300
C  29.71600 50.98600 31.75700
C  26.35500 49.24300 32.28600
C  25.48200 49.76100 33.47400
H  25.30800 48.90200 34.69600
N  29.57300 49.19300 26.69700
C  30.36600 48.94900 27.76700
C  31.62300 48.50600 27.20400
C  31.62200 48.55700 25.77900
C  30.21000 48.95000 25.50000
C  32.75700 48.00500 28.08700
C  32.68900 48.16900 24.68900
O  32.50400 48.29000 23.47000
C  34.04600 47.70800 25.23500
N  27.37800 49.74900 24.59300
C  28.37200 49.47900 23.74600
C  27.96800 49.69000 22.27900
C  26.48400 50.15000 22.36800
C  26.33800 50.24600 23.90600
C  28.77900 50.68500 21.49600
C  25.41800 49.26200 21.62100
C  24.45400 50.03200 20.64100
N  25.81800 50.61500 27.02400
C  24.95900 50.91100 25.98500
C  23.81700 51.58800 26.55400
C  23.96100 51.52800 27.95700
C  25.21600 50.95800 28.12200
C  22.70500 52.18100 25.76900
C  23.31100 51.88500 29.23500
O  22.20200 52.36100 29.44300
C  24.40800 51.42900 30.29400
C  24.75500 52.63800 30.96900
O  25.74400 53.33700 30.71000
O  23.96300 52.83200 32.05700
C  24.34300 53.85300 33.02300
H  30.77900 48.91800 29.90000
H  30.34800 49.03600 23.37100
H  24.33500 50.92700 23.94700
H  27.22400 51.31400 31.81700
H  28.90900 48.93600 31.81100
H  29.21100 51.70600 32.40100
H  30.20100 51.48600 30.91800
H  30.53000 50.53300 32.32400
H  27.02500 48.51100 32.73700
H  25.64400 48.67800 31.68200
H  24.47400 50.02300 33.15500
H  25.92900 50.72200 33.72900
H  32.84100 46.93800 27.87900
H  32.70500 48.08300 29.17300
H  33.72200 48.36500 27.73100
H  34.73300 47.41000 24.44300
H  33.77000 46.92400 25.94100
H  34.48000 48.54400 25.78400
H  28.09700 48.68100 21.88800
H  26.35500 51.15300 21.96000
H  29.55000 51.17600 22.09000
H  28.22500 51.52900 21.08400
H  29.26000 50.07800 20.72800
H  24.72100 48.80300 22.32100
H  25.83000 48.50100 20.95900
H  25.05700 50.87800 20.31100
H  23.61000 50.40100 21.22400
H  24.14200 49.37500 19.82900
H  22.36000 51.56800 24.93700
H  22.98700 53.17500 25.42300
H  21.87200 52.41400 26.43300
H  23.94800 50.73100 30.99400
H  25.09700 54.55000 32.65600
H  24.56300 53.43700 34.00600
H  23.41600 54.42100 33.10600

