158

Mg 24.46000 -4.86500 45.37800
C  27.04800 -2.66300 43.93500
C  22.19300 -3.33600 43.25200
C  22.52900 -7.48300 45.88900
C  27.08300 -6.23500 47.41300
N  24.65800 -3.16100 43.78400
C  25.76600 -2.37900 43.39500
C  25.36000 -1.30500 42.45500
C  23.80000 -1.52300 42.39100
C  23.48500 -2.77000 43.21500
C  22.91300 -0.31700 42.91000
C  25.95900 -1.33600 40.96900
C  26.00600 0.00900 40.13800
H  25.20300 -0.06100 38.80300
N  22.54300 -5.35100 44.62700
C  21.75900 -4.55800 43.81100
C  20.62200 -5.34400 43.57800
C  20.69200 -6.55900 44.26800
C  21.97000 -6.56000 44.95400
C  19.49400 -4.92800 42.63700
C  19.58600 -7.68400 44.21700
O  18.61300 -7.57800 43.46100
C  19.72600 -8.94100 45.06000
N  24.69900 -6.47000 46.63400
C  23.72700 -7.44700 46.63500
C  24.14500 -8.57700 47.61200
C  25.40600 -7.99200 48.30700
C  25.79300 -6.85800 47.39500
C  23.08300 -9.11700 48.57500
C  26.52000 -8.96900 48.58400
C  26.97600 -9.21600 50.04900
N  26.56700 -4.54700 45.68100
C  27.53500 -5.19000 46.55100
C  28.81800 -4.53300 46.44700
C  28.58700 -3.51900 45.48500
C  27.27500 -3.62400 44.95000
C  30.10500 -4.86700 47.25900
C  29.30800 -2.45700 44.81000
O  30.42400 -2.08800 45.03600
C  28.30700 -1.87300 43.77400
C  28.15600 -0.44400 44.02300
O  28.06600 0.03000 45.14800
O  28.13500 0.22400 42.85700
C  28.10600 1.69200 42.98900
H  21.44700 -2.81900 42.64500
H  22.00100 -8.43800 45.90000
H  27.83500 -6.62100 48.10400
H  25.50400 -0.36600 42.98900
H  23.53100 -1.59500 41.33700
H  23.55000 0.53700 43.13800
H  22.48200 -0.67200 43.84700
H  22.15100 -0.06400 42.17200
H  25.40500 -2.09800 40.42100
H  26.99500 -1.67300 40.96700
H  27.03400 0.31000 39.93800
H  25.69900 0.86900 40.73200
H  19.49100 -5.47500 41.69400
H  19.55800 -3.84800 42.50300
H  18.55400 -5.16000 43.13700
H  19.73900 -8.79600 46.14100
H  20.58400 -9.48400 44.66300
H  18.84600 -9.55200 44.86400
H  24.53200 -9.39900 47.00900
H  25.13800 -7.44500 49.21100
H  22.19200 -8.50600 48.42800
H  23.33500 -9.07200 49.63400
H  22.81800 -10.16100 48.41000
H  27.46300 -8.73000 48.09300
H  26.33900 -10.00400 48.29300
H  26.40500 -10.01700 50.51900
H  26.90900 -8.25600 50.56100
H  28.02800 -9.49800 50.06000
H  30.73600 -3.97800 47.25700
H  30.59900 -5.72000 46.79400
H  29.67700 -5.08000 48.23900
H  28.70700 -2.03300 42.77300
H  29.09400 2.15200 43.02300
H  27.60900 2.06800 43.88300
H  27.64900 2.04600 42.06500
Mg 35.48800 3.08600 29.54100
C  33.02000 4.21600 31.72900
C  37.70600 3.39700 32.23100
C  37.90900 2.01300 27.43700
C  33.21300 3.17100 26.90900
N  35.29500 3.74800 31.67600
C  34.17900 3.97500 32.37500
C  34.42200 4.03800 33.88600
C  36.03900 4.00900 33.98400
C  36.37300 3.71500 32.55400
C  36.66300 5.24800 34.54000
C  33.78100 2.98900 34.78800
C  33.72500 3.23000 36.28500
H  34.72500 4.19000 37.01100
N  37.62200 2.78400 29.80300
C  38.24200 2.81900 31.02100
C  39.55900 2.20600 30.89500
C  39.59300 1.74500 29.50000
C  38.35600 2.17900 28.85300
C  40.48400 1.94400 32.10000
C  40.74600 1.00100 28.81100
O  40.61400 0.59700 27.62200
C  42.00600 0.54300 29.63300
N  35.56300 2.77600 27.48200
C  36.68400 2.42500 26.84000
C  36.41500 2.21000 25.33800
C  34.86500 2.28400 25.24300
C  34.47400 2.68400 26.60400
C  37.23700 3.17800 24.44700
C  34.22200 0.87000 24.90600
C  33.88000 0.70700 23.39200
N  33.51100 3.67500 29.30400
C  32.76400 3.71000 28.12200
C  31.39000 4.21600 28.53000
C  31.48000 4.43700 29.91500
C  32.80200 4.10000 30.35800
C  30.20100 4.35500 27.64900
C  30.71900 4.83200 31.04500
O  29.57800 5.25200 31.03400
C  31.63000 4.53700 32.27700
C  31.54000 5.73100 33.28800
O  31.89200 6.84900 33.12900
O  30.87300 5.20500 34.33600
C  30.80800 5.95900 35.56200
H  38.36700 3.38500 33.10100
H  38.69900 1.55900 26.83500
H  32.65700 3.41000 25.99900
H  33.95200 4.93900 34.27900
H  36.30500 3.25900 34.73000
H  35.90200 6.01100 34.69700
H  37.41700 5.69800 33.89400
H  37.08400 4.96100 35.50400
H  34.29100 2.03300 34.66200
H  32.79900 2.76200 34.37200
H  33.71700 2.22800 36.71400
H  32.70800 3.57700 36.47000
H  40.51300 2.79500 32.78100
H  41.50600 1.61300 31.91700
H  39.93800 1.30300 32.79200
H  42.64800 0.05400 28.90000
H  41.72100 -0.10000 30.46500
H  42.52800 1.36200 30.12700
H  36.80000 1.20000 25.19800
H  34.62100 2.98700 24.44600
H  36.75900 3.88900 23.77300
H  37.99300 2.69300 23.82900
H  37.68900 3.83200 25.19300
H  33.23700 0.82900 25.37100
H  34.80200 0.01300 25.24800
H  34.27300 1.45200 22.70100
H  32.80600 0.88400 23.33300
H  34.09300 -0.29400 23.01500
H  29.77600 5.33000 27.88800
H  29.73500 3.44200 28.01900
H  30.33000 4.19200 26.57900
H  31.13000 3.69500 32.75600
H  29.91300 5.74000 36.14300
H  30.87400 7.04400 35.47300
H  31.70700 5.65800 36.10000

