158

Mg 47.99600 34.80400 26.82200
C  46.33900 33.39800 29.64400
C  48.22000 37.73900 28.77500
C  49.07500 36.28200 24.19100
C  47.49200 31.80400 25.13500
N  47.53400 35.45900 29.02900
C  46.89200 34.64600 29.95100
C  46.94600 35.29700 31.31100
C  47.10200 36.77700 30.95000
C  47.62200 36.71000 29.51400
C  45.84600 37.68000 31.10500
C  48.12200 34.65200 32.10100
C  48.09700 34.79100 33.64800
H  47.05000 35.68000 34.40200
N  48.67900 36.68500 26.53800
C  48.75700 37.70900 27.46300
C  49.36600 38.80900 26.77900
C  49.62600 38.49000 25.40300
C  49.14800 37.11900 25.31500
C  49.79800 40.15100 27.49700
C  50.39100 39.19300 24.27400
O  50.52800 38.74100 23.13100
C  50.91000 40.58800 24.53300
N  48.33200 34.10400 24.94500
C  48.75400 34.97700 23.96700
C  48.82000 34.17300 22.65100
C  48.70800 32.68500 23.02100
C  48.07200 32.87900 24.41200
C  47.77000 34.68400 21.61600
C  50.07300 31.86100 22.88500
C  51.16100 31.89300 24.04200
N  47.03400 32.99400 27.18300
C  46.94400 31.84700 26.44900
C  46.18900 30.81700 27.18800
C  45.89100 31.44400 28.41800
C  46.42800 32.73400 28.38600
C  45.75500 29.40100 26.71300
C  45.13900 31.28800 29.64500
O  44.42400 30.32800 29.99800
C  45.29600 32.59700 30.44000
C  45.47900 32.40100 31.89900
O  46.50400 32.05200 32.50700
O  44.25500 32.36600 32.56300
C  44.08400 32.01000 33.97400
H  48.16600 38.73100 29.22900
H  49.48300 36.74200 23.28800
H  47.47100 30.89300 24.53200
H  46.01500 35.13200 31.85400
H  47.84100 37.28200 31.57200
H  45.89400 38.28100 32.01300
H  45.00300 37.00100 31.23300
H  45.60500 38.28300 30.22900
H  49.01300 35.21400 31.81900
H  48.31500 33.60700 31.86200
H  49.14300 35.03800 33.83000
H  48.00400 33.75200 33.96600
H  50.87400 40.31600 27.55600
H  49.24800 40.09100 28.43700
H  49.40700 40.98100 26.91000
H  50.22300 41.24800 25.06400
H  50.93400 41.02800 23.53500
H  51.87600 40.54000 25.03500
H  49.74600 34.31000 22.09200
H  47.95100 32.26500 22.35900
H  48.10200 34.61500 20.58000
H  47.41400 35.71100 21.69200
H  46.83600 34.12200 21.65800
H  50.43000 32.19900 21.91200
H  49.56600 30.90800 22.73100
H  50.98300 30.96300 24.58100
H  50.88500 32.75100 24.65600
H  52.15900 32.08500 23.64700
H  45.90400 29.38600 25.63300
H  44.68200 29.34800 26.89900
H  46.16400 28.54900 27.25500
H  44.46000 33.29500 30.38200
H  43.10700 31.55800 34.14200
H  44.26900 32.85500 34.63800
H  44.87100 31.30000 34.23100
Mg -11.43700 38.84000 42.38800
C  -9.43700 35.98700 41.34600
C  -9.09700 40.81700 41.00500
C  -13.44100 41.47000 42.94300
C  -13.91300 36.62500 43.30200
N  -9.49600 38.32200 41.30500
C  -8.85000 37.17800 40.96500
C  -7.62800 37.45200 40.11200
C  -7.36000 39.00400 40.18800
C  -8.73300 39.42700 40.84100
C  -6.14500 39.40800 41.01100
C  -7.86600 36.91600 38.66400
C  -6.71600 36.03300 38.19300
H  -5.69400 36.67600 37.21200
N  -11.31100 40.85500 41.89500
C  -10.23500 41.49200 41.39300
C  -10.36800 42.91900 41.55200
C  -11.67000 43.18400 42.10400
C  -12.20100 41.81200 42.29600
C  -9.30000 43.87800 41.11500
C  -12.36100 44.50100 42.37500
O  -11.72500 45.55600 42.29900
C  -13.77600 44.66200 42.72600
N  -13.43300 39.02400 42.85800
C  -13.96400 40.18500 43.23600
C  -15.39100 40.14700 43.79000
C  -15.59000 38.56600 43.80500
C  -14.24500 38.01600 43.26200
C  -15.50300 40.98700 45.07400
C  -16.84000 38.01100 43.05600
C  -18.15700 38.71000 43.24100
N  -11.67000 36.69300 42.47500
C  -12.72500 35.97400 42.93600
C  -12.36300 34.52300 42.92400
C  -11.09300 34.50700 42.29500
C  -10.75100 35.88200 41.99200
C  -13.10600 33.41600 43.49800
C  -10.00800 33.63100 41.82600
O  -9.96300 32.37900 41.71400
C  -8.99600 34.57900 41.11400
C  -7.61900 34.26000 41.60100
O  -7.19000 34.78600 42.62500
O  -6.99100 33.40100 40.78500
C  -5.65700 32.92200 41.23700
H  -8.24300 41.37500 40.61700
H  -14.07800 42.30300 43.24600
H  -14.63200 35.91900 43.72100
H  -6.86300 36.78800 40.51300
H  -7.18300 39.33900 39.16600
H  -5.73400 40.33200 40.60500
H  -5.42800 38.58800 41.02400
H  -6.44100 39.55500 42.05000
H  -7.95800 37.73600 37.95300
H  -8.77400 36.31300 38.66600
H  -7.11000 35.05700 37.90900
H  -6.02700 35.67000 38.95500
H  -9.01000 44.49000 41.96900
H  -9.68700 44.52000 40.32300
H  -8.41100 43.36900 40.74400
H  -14.40500 44.00200 42.12800
H  -14.05400 45.70000 42.54300
H  -13.75800 44.57700 43.81200
H  -15.98100 40.50800 42.94700
H  -15.84600 38.25200 44.81700
H  -14.64200 41.63200 45.24800
H  -15.71700 40.34000 45.92600
H  -16.27500 41.75400 45.01800
H  -17.08300 36.99200 43.35800
H  -16.58000 38.00900 41.99700
H  -18.15400 39.05800 44.27400
H  -18.96300 37.99000 43.10400
H  -18.25000 39.52500 42.52400
H  -12.95300 33.45700 44.57600
H  -12.77700 32.46000 43.09200
H  -14.16100 33.62900 43.32100
H  -9.05100 34.39800 40.04000
H  -5.11900 33.87000 41.24800
H  -5.16100 32.32700 40.47100
H  -5.65400 32.38700 42.18700

