158

Mg 8.17300 1.17000 28.23800
C  9.68000 -0.37700 31.11400
C  6.18900 2.82400 30.44900
C  6.44600 2.18700 25.63500
C  9.79000 -1.21200 26.23100
N  8.09400 1.24400 30.55700
C  8.89000 0.68300 31.45500
C  8.73200 1.24300 32.83200
C  7.39600 2.14500 32.63700
C  7.18000 2.09500 31.13600
C  6.15100 1.76400 33.45300
C  10.01200 2.02900 33.35200
C  10.22900 1.95300 34.92400
H  9.01300 1.69600 35.85600
N  6.62100 2.46100 28.11400
C  5.94200 3.02200 29.11900
C  4.94100 3.92100 28.57000
C  5.10600 3.88000 27.10600
C  6.05700 2.81400 26.88900
C  3.92300 4.68400 29.33600
C  4.40200 4.73000 25.95200
O  4.64000 4.51400 24.76400
C  3.63600 5.93200 26.25000
N  8.10400 0.53800 26.22200
C  7.38500 1.24200 25.32000
C  7.66100 0.79900 23.87700
C  8.80400 -0.25400 24.01800
C  8.88400 -0.32800 25.55500
C  6.33600 0.18500 23.32800
C  10.13900 0.24400 23.26900
C  11.21400 0.92400 24.11600
N  9.45500 -0.37400 28.51500
C  9.99300 -1.29300 27.61300
C  10.91200 -2.20400 28.34800
C  10.81300 -1.84800 29.67500
C  9.92700 -0.81400 29.79700
C  11.70400 -3.23400 27.73200
C  11.40400 -2.19400 31.01100
O  12.28100 -3.03700 31.31700
C  10.63400 -1.25400 31.96700
C  9.88400 -2.08300 32.98700
O  8.76200 -2.58000 32.84000
O  10.65100 -2.14500 34.20100
C  9.94800 -2.84200 35.26400
H  5.52400 3.39100 31.10500
H  5.89400 2.61900 24.79900
H  10.43400 -1.86500 25.63800
H  8.54400 0.43000 33.53300
H  7.65400 3.18800 32.81600
H  5.91500 2.67100 34.01000
H  6.40100 1.01700 34.20600
H  5.18800 1.60000 32.97000
H  9.87600 3.08800 33.13200
H  10.91100 1.68100 32.84200
H  10.91400 2.73800 35.24400
H  10.87400 1.07600 34.98000
H  3.02600 4.31300 28.84100
H  4.10400 5.74300 29.14800
H  3.81000 4.49600 30.40400
H  3.59600 6.70200 25.47900
H  4.24900 6.35700 27.04500
H  2.62900 5.73700 26.61800
H  7.93000 1.74300 23.40400
H  8.52600 -1.25400 23.68400
H  5.50500 0.31800 24.02000
H  6.42500 -0.86400 23.04300
H  5.93600 0.75100 22.48700
H  9.87600 0.96800 22.49800
H  10.51200 -0.65600 22.78000
H  10.80500 1.33200 25.03900
H  11.65000 1.75400 23.55900
H  11.89000 0.12400 24.41700
H  11.10000 -3.88900 27.10400
H  12.09300 -3.88500 28.51600
H  12.56900 -2.85200 27.19100
H  11.31600 -0.68600 32.60000
H  9.21500 -2.21800 35.77600
H  10.76800 -3.01900 35.95900
H  9.45800 -3.78800 35.03100
Mg 36.50100 49.77900 25.69400
C  36.84300 47.66700 28.33800
C  35.48400 52.36100 27.60200
C  36.11700 51.70200 22.79300
C  37.39500 47.07600 23.51500
N  36.10000 49.96400 27.76200
C  36.52000 49.05200 28.67400
C  36.37700 49.67800 30.07800
C  35.71200 51.08900 29.80000
C  35.76000 51.15600 28.27900
C  34.42000 51.28000 30.60800
C  37.74700 49.67700 30.83000
C  37.76700 49.71900 32.32600
H  36.53100 49.85900 33.27200
N  35.91200 51.76400 25.28700
C  35.60800 52.70200 26.24100
C  35.53000 53.95600 25.63800
C  35.74800 53.80200 24.25800
C  35.96300 52.33400 24.03600
C  35.30900 55.17900 26.51300
C  35.78900 54.92200 23.16000
O  36.06100 54.73800 21.96100
C  35.38700 56.22900 23.47400
N  36.70800 49.43300 23.48300
C  36.47600 50.36000 22.48400
C  36.58700 49.76800 21.07100
C  37.08900 48.27300 21.30700
C  37.00500 48.23800 22.81600
C  35.31300 49.81000 20.21900
C  38.54100 47.98400 20.78600
C  38.81700 46.60100 20.27900
N  37.08300 47.76800 25.84700
C  37.44700 46.76900 24.93800
C  37.66800 45.55400 25.55700
C  37.45300 45.79900 26.95700
C  37.08800 47.17400 27.04300
C  37.86300 44.26300 24.81400
C  37.33400 45.24500 28.29300
O  37.45600 44.08000 28.69300
C  37.09000 46.48400 29.30300
C  35.83500 46.09200 29.98400
O  34.70000 46.10100 29.51200
O  36.07500 45.94900 31.31500
C  34.91500 45.80100 32.22100
H  35.14700 53.17600 28.24700
H  36.09600 52.29200 21.87500
H  37.76100 46.29300 22.84800
H  35.77400 48.96600 30.64100
H  36.36100 51.88600 30.16300
H  34.39000 50.69800 31.52900
H  33.57100 51.29100 29.92500
H  34.46600 52.30300 30.98300
H  38.35200 50.49300 30.43500
H  38.36300 48.81800 30.56400
H  38.53900 50.44600 32.57900
H  38.25100 48.78300 32.60600
H  36.02900 55.96700 26.29400
H  35.55000 55.06300 27.57000
H  34.32300 55.59100 26.29600
H  35.95700 56.50900 24.36000
H  34.32500 56.12900 23.69600
H  35.56800 56.90500 22.63800
H  37.39400 50.24000 20.51100
H  36.43200 47.52000 20.87000
H  34.98800 48.93200 19.66200
H  35.31100 50.73100 19.63600
H  34.46200 50.01800 20.86700
H  39.13000 47.97600 21.70300
H  38.90400 48.68300 20.03300
H  38.96000 46.66500 19.20000
H  38.03900 45.86800 20.49300
H  39.71300 46.33200 20.83900
H  38.17300 44.35100 23.77300
H  36.96400 43.65200 24.73100
H  38.50700 43.66000 25.45400
H  37.91000 46.69000 29.99100
H  35.21900 45.56600 33.24100
H  34.29200 44.97800 31.87100
H  34.43200 46.77800 32.23400

