158

Mg 48.29500 14.32700 28.53700
C  46.20300 14.44800 31.20300
C  50.58400 16.29700 30.36800
C  50.23000 14.49700 25.93500
C  45.74400 12.85200 26.63000
N  48.23600 15.41000 30.51900
C  47.34100 15.14600 31.52100
C  47.73400 15.90800 32.79900
C  49.02000 16.65800 32.39300
C  49.36400 16.08700 31.01800
C  49.03000 18.27300 32.57500
C  47.95400 14.95200 34.02400
C  47.07100 15.20500 35.25200
H  47.71300 15.51500 36.62900
N  50.22000 15.19100 28.19200
C  50.99000 15.97600 29.06300
C  52.19100 16.43500 28.31400
C  52.08800 15.89700 27.04400
C  50.81900 15.11600 27.01200
C  53.23300 17.22600 28.99200
C  52.94000 16.08100 25.86800
O  52.73700 15.56300 24.79700
C  54.19800 16.86700 25.96400
N  47.94000 13.97900 26.42000
C  48.92800 14.09800 25.53700
C  48.59000 13.40800 24.18400
C  47.16000 12.76000 24.52900
C  46.93900 13.19700 25.93900
C  48.51300 14.42400 23.02800
C  47.10300 11.20900 24.18700
C  48.02400 10.33300 25.07500
N  46.41400 13.72900 28.79200
C  45.50700 13.01600 27.97800
C  44.37700 12.57900 28.78400
C  44.62500 13.08000 30.08000
C  45.88300 13.75500 30.01500
C  43.20100 11.84200 28.29300
C  44.10100 13.20800 31.38500
O  43.07600 12.82800 31.87400
C  45.11600 14.02500 32.22500
C  44.30100 15.18500 32.83600
O  43.78400 16.12500 32.24400
O  44.14800 14.98700 34.17700
C  43.34500 15.81500 35.04700
H  51.31000 16.87400 30.94500
H  50.75100 14.47900 24.97500
H  45.05600 12.23300 26.05100
H  47.05000 16.69400 33.11900
H  49.90300 16.23700 32.87300
H  50.04300 18.67700 32.56000
H  48.61300 18.34900 33.57900
H  48.44000 18.82900 31.84600
H  48.96600 15.01600 34.42500
H  47.87900 13.93200 33.64800
H  46.52200 14.28900 35.46900
H  46.35800 15.99100 35.00200
H  54.16700 16.66300 29.01500
H  53.13100 17.41600 30.06000
H  53.47900 18.15100 28.47100
H  55.02200 16.24200 26.30900
H  54.09000 17.86200 26.39600
H  54.41700 17.05800 24.91400
H  49.36000 12.65100 24.03300
H  46.44800 13.35200 23.95500
H  49.17200 15.28500 23.13900
H  47.47400 14.64300 22.78400
H  48.88800 13.87900 22.16100
H  47.56000 10.96900 23.22800
H  46.06500 10.88000 24.22200
H  48.34900 10.71400 26.04400
H  48.95200 10.10200 24.55300
H  47.59000 9.36500 25.32300
H  42.85700 12.53200 27.52300
H  42.49700 11.70800 29.11500
H  43.39500 10.90300 27.77500
H  45.39800 13.35600 33.03800
H  43.01600 16.63400 34.40700
H  44.01500 16.18300 35.82400
H  42.43700 15.33800 35.41500
Mg 15.84400 51.77100 25.23400
C  17.36900 50.71000 28.16000
C  13.06100 52.74600 27.14200
C  14.35200 52.49900 22.47800
C  18.52700 50.33900 23.38800
N  15.28900 51.74100 27.44900
C  16.21700 51.46400 28.43800
C  15.65200 51.81400 29.84500
C  14.18500 52.34400 29.50500
C  14.09800 52.27500 27.94700
C  13.04100 51.67000 30.33800
C  16.66000 52.65100 30.63700
C  16.95300 52.22600 32.05300
H  15.93200 51.44300 32.81900
N  13.99500 52.54900 24.88500
C  12.99300 52.87100 25.79900
C  11.84900 53.49700 25.05000
C  12.27800 53.53800 23.63100
C  13.60900 52.84400 23.61400
C  10.69200 54.20700 25.74300
C  11.57400 54.03100 22.48800
O  11.93900 53.93700 21.30500
C  10.30100 54.79000 22.69200
N  16.41200 51.59100 23.18100
C  15.56300 51.96500 22.22800
C  16.09400 51.58800 20.82400
C  17.47600 50.87100 21.14000
C  17.46700 50.93400 22.65100
C  15.03000 50.73000 20.05500
C  18.66400 51.63800 20.43200
C  18.41200 52.16800 19.04800
N  17.57000 50.68700 25.63100
C  18.56900 50.19200 24.78000
C  19.52800 49.41500 25.65400
C  19.05900 49.63700 26.93900
C  17.84100 50.41500 26.87400
C  20.63100 48.60800 25.17900
C  19.51100 49.51200 28.36500
O  20.57100 49.10400 28.85500
C  18.41400 50.20400 29.23200
C  18.01000 49.13100 30.21900
O  17.02600 48.42500 30.10300
O  18.78600 49.22200 31.38400
C  18.46800 48.34000 32.54800
H  12.28300 53.22500 27.73900
H  13.97200 52.85300 21.51700
H  19.32400 49.83500 22.83600
H  15.49900 50.81800 30.26100
H  14.13200 53.37400 29.85800
H  12.23300 51.29800 29.70700
H  12.64700 52.35600 31.08700
H  13.36000 50.78900 30.89500
H  16.23100 53.64900 30.72600
H  17.55400 52.76500 30.02300
H  17.12700 53.17000 32.57000
H  17.83800 51.59600 31.95800
H  10.63700 53.93400 26.79700
H  9.71700 53.97200 25.31600
H  10.75700 55.29300 25.81200
H  9.93600 55.05600 21.70000
H  10.56300 55.68400 23.25700
H  9.53900 54.20800 23.21100
H  16.06700 52.51600 20.25400
H  17.47300 49.80400 20.91800
H  15.48100 49.97000 19.41700
H  14.28400 51.36500 19.57600
H  14.45000 50.12700 20.75300
H  19.54700 51.00000 20.47200
H  18.81000 52.52100 21.05400
H  19.30100 51.99500 18.44200
H  18.27500 53.22800 19.26100
H  17.56700 51.85400 18.43500
H  20.29600 48.13600 24.25600
H  20.82900 47.78800 25.86900
H  21.46200 49.30100 25.04600
H  18.90200 50.97600 29.82700
H  19.29000 47.64300 32.71200
H  17.57300 47.74800 32.36000
H  18.30200 49.00100 33.39800

