158

Mg -9.80900 38.16200 42.41100
C  -8.06800 35.29300 41.42800
C  -7.14200 40.01100 41.20300
C  -11.68700 40.89300 42.46200
C  -12.64400 36.08300 42.86900
N  -7.89600 37.74600 41.16100
C  -7.45800 36.46400 40.94000
C  -6.16700 36.51200 40.15900
C  -5.73700 37.98700 40.29700
C  -6.97500 38.66000 40.95200
C  -4.34900 38.29500 40.99300
C  -6.41500 35.99800 38.67500
C  -5.45600 35.01000 38.04200
H  -4.39800 35.55000 37.03800
N  -9.39800 40.16700 42.10500
C  -8.25200 40.72200 41.69900
C  -8.30500 42.12400 41.71100
C  -9.53800 42.45400 42.23400
C  -10.29800 41.14200 42.32300
C  -7.09100 42.98000 41.22800
C  -10.13200 43.82000 42.58400
O  -9.40700 44.78300 42.60700
C  -11.62100 44.14000 42.97400
N  -11.89200 38.41300 42.50200
C  -12.41600 39.69400 42.58400
C  -13.90200 39.59200 42.53400
C  -14.18000 38.09000 42.81600
C  -12.83000 37.43900 42.64700
C  -14.48400 40.60800 43.68500
C  -15.27200 37.43300 41.94900
C  -16.11900 36.30400 42.70600
N  -10.24300 36.04100 42.38900
C  -11.36800 35.37800 42.70300
C  -11.04600 33.96400 42.68500
C  -9.75200 33.89700 42.24900
C  -9.38100 35.18000 41.94100
C  -12.01400 32.89200 43.07000
C  -8.68400 33.03200 41.91400
O  -8.58500 31.81600 41.82300
C  -7.46000 33.90900 41.39000
C  -6.50000 33.71700 42.48900
O  -6.19200 34.49600 43.38900
O  -5.79400 32.60900 42.15400
C  -4.79800 32.28000 43.06900
H  -6.31100 40.57400 40.77300
H  -12.38300 41.69200 42.72700
H  -13.48700 35.39600 42.97900
H  -5.38500 35.87600 40.57300
H  -5.66300 38.37300 39.28000
H  -3.81600 37.36200 41.17500
H  -4.46800 38.73900 41.98100
H  -3.71700 38.98600 40.43500
H  -6.39100 36.85700 38.00500
H  -7.41700 35.57400 38.61200
H  -6.09900 34.21200 37.67200
H  -4.77500 34.57100 38.77100
H  -6.31800 42.99400 41.99500
H  -7.48000 43.99800 41.18100
H  -6.66100 42.71900 40.26100
H  -12.35000 43.77400 42.25200
H  -11.85200 45.20500 42.96600
H  -11.86600 43.82300 43.98700
H  -14.25400 39.80000 41.52300
H  -14.38100 37.95000 43.87800
H  -15.39000 40.20700 44.13900
H  -14.75100 41.56300 43.23300
H  -13.79200 40.93500 44.46200
H  -14.87700 36.93100 41.06600
H  -15.93500 38.24800 41.65900
H  -17.14100 36.67500 42.78400
H  -15.72400 36.01500 43.68000
H  -16.08700 35.44800 42.03200
H  -11.77400 31.97900 42.52500
H  -13.00100 33.30400 42.86300
H  -11.87200 32.80200 44.14700
H  -7.04000 33.62800 40.42400
H  -3.79200 32.20600 42.65500
H  -4.92700 31.25100 43.40500
H  -4.74800 32.82400 44.01200
Mg -11.38800 16.85600 42.12200
C  -7.96800 16.98000 42.65500
C  -11.30600 20.33000 41.69600
C  -14.50200 16.68500 40.88700
C  -11.07400 13.40400 41.75900
N  -9.81500 18.45600 42.18100
C  -8.52700 18.22000 42.36100
C  -7.73500 19.51400 42.22900
C  -8.89900 20.57000 42.39800
C  -10.07800 19.72600 42.05100
C  -8.92800 21.15200 43.76100
C  -7.03300 19.72600 40.83700
C  -5.50900 19.93000 40.93400
H  -4.90300 20.74400 39.78900
N  -12.79600 18.33100 41.38900
C  -12.56100 19.69700 41.32200
C  -13.87700 20.40200 41.07500
C  -14.76200 19.35400 40.65400
C  -14.06200 18.01100 40.99600
C  -13.97500 21.88900 41.09600
C  -16.09600 19.48300 39.91100
O  -16.28100 20.63800 39.43600
C  -17.14000 18.46500 39.68200
N  -12.62700 15.32800 41.53000
C  -13.91700 15.45000 41.12100
C  -14.57100 14.07700 40.88900
C  -13.39200 13.06600 40.98500
C  -12.26500 13.98200 41.47800
C  -15.89200 13.80900 41.73800
C  -13.14600 12.30800 39.62600
C  -14.03100 11.03900 39.41200
N  -9.88800 15.41800 42.40000
C  -9.95800 14.05300 42.20200
C  -8.66700 13.51900 42.42200
C  -7.79400 14.56600 42.65400
C  -8.60700 15.70600 42.60700
C  -8.28300 12.07300 42.21600
C  -6.41900 15.01400 42.82400
O  -5.34800 14.36200 42.93600
C  -6.47500 16.59100 42.85300
C  -6.03900 17.03200 44.23700
O  -6.50000 16.59000 45.29900
O  -5.25400 18.12900 44.17500
C  -4.65600 18.76500 45.32900
H  -11.28300 21.42100 41.74100
H  -15.53500 16.48800 40.59300
H  -11.01200 12.33100 41.56800
H  -7.25000 19.56700 43.20300
H  -8.81300 21.36800 41.66100
H  -9.85900 20.86400 44.25000
H  -8.92700 22.24000 43.69500
H  -8.04000 21.04200 44.38300
H  -7.51800 20.42900 40.16000
H  -7.14500 18.73900 40.38800
H  -5.00300 18.96600 40.86700
H  -5.29800 20.44400 41.87200
H  -15.03600 22.11200 41.21400
H  -13.58300 22.29600 40.16400
H  -13.46700 22.29500 41.97100
H  -16.89100 17.71100 38.93500
H  -18.16400 18.83400 39.62700
H  -17.30700 17.83700 40.55700
H  -14.90900 14.07100 39.85300
H  -13.59700 12.48600 41.88500
H  -15.83800 12.86300 42.27600
H  -16.78600 13.83200 41.11500
H  -16.04400 14.53800 42.53400
H  -12.10500 11.98700 39.58200
H  -13.21900 12.96900 38.76200
H  -14.24600 10.50000 40.33500
H  -13.36900 10.31000 38.94500
H  -14.81800 11.11500 38.66200
H  -8.22300 11.77500 41.16900
H  -9.12400 11.56400 42.68800
H  -7.32100 11.82400 42.66300
H  -5.75700 16.89100 42.09000
H  -5.21900 18.56600 46.24000
H  -4.62300 19.85100 45.25000
H  -3.63400 18.39700 45.42400

