158

Mg 48.06400 44.43500 42.83400
C  44.51600 44.10300 42.47600
C  48.28600 41.03600 42.53900
C  51.32900 44.82400 42.98200
C  47.66000 47.85300 42.52400
N  46.55300 42.82300 42.44000
C  45.21800 42.81500 42.54400
C  44.56400 41.41000 42.55900
C  45.89200 40.47900 42.76300
C  47.02800 41.51200 42.60900
C  45.83900 39.77100 44.15900
C  43.72300 40.97300 41.31800
C  43.97200 41.70200 39.95800
H  43.89800 40.92400 38.69200
N  49.58600 43.08000 42.69400
C  49.49500 41.72100 42.59200
C  50.86200 41.16100 42.62100
C  51.74500 42.23400 42.56700
C  50.95000 43.41600 42.82100
C  51.16000 39.75900 42.42100
C  53.30400 42.19100 42.38000
O  53.88900 41.09500 42.35300
C  54.20500 43.45700 42.20700
N  49.33000 46.16100 42.88600
C  50.69100 46.06700 43.01500
C  51.37300 47.45100 43.14900
C  50.13900 48.40800 43.15900
C  48.98500 47.46500 42.75100
C  52.53000 47.59500 44.23700
C  50.36300 49.55800 42.10800
C  50.48800 50.96000 42.67300
N  46.46100 45.72500 42.49900
C  46.47200 47.10300 42.38200
C  45.07500 47.61800 42.22600
C  44.30100 46.43700 42.29800
C  45.19700 45.34100 42.38100
C  44.63300 49.04400 42.19400
C  42.91200 45.96000 42.51300
O  41.89800 46.57300 42.61100
C  43.02600 44.43000 42.61800
C  42.35400 44.00100 43.84200
O  41.22200 43.53600 43.99200
O  43.15300 44.28900 44.96900
C  42.73900 43.66800 46.29100
H  48.37200 39.94900 42.49500
H  52.37300 45.02500 43.22900
H  47.52900 48.93600 42.47700
H  43.99800 41.40900 43.49000
H  46.11500 39.74600 41.98700
H  45.39800 38.79700 43.94800
H  45.16200 40.25000 44.86600
H  46.86400 39.61600 44.49600
H  42.68800 41.01400 41.65600
H  43.90500 39.92300 41.09000
H  44.91800 42.24400 39.93200
H  43.17700 42.44200 39.86800
H  51.75700 39.41200 43.26500
H  51.86200 39.69400 41.59000
H  50.27600 39.16400 42.19100
H  53.83600 44.24000 41.54400
H  55.17100 43.18500 41.78300
H  54.28200 43.92200 43.19000
H  51.81000 47.51100 42.15300
H  49.93700 48.69900 44.19000
H  52.31100 48.28100 45.05600
H  53.45100 47.93900 43.76700
H  52.84300 46.67900 44.73700
H  49.43600 49.61100 41.53600
H  51.17900 49.45200 41.39400
H  49.78600 51.66100 42.22000
H  51.43600 51.49000 42.58300
H  50.25400 50.78600 43.72300
H  44.65000 49.51000 43.17900
H  43.69100 49.15700 41.65600
H  45.33100 49.63200 41.59800
H  42.40400 44.09000 41.79000
H  43.60200 43.63100 46.95500
H  42.35800 42.65300 46.40400
H  41.95800 44.24100 46.79200
Mg 47.95900 34.91300 27.41200
C  46.51900 33.23500 30.19100
C  48.39600 37.60100 29.30900
C  49.00900 36.51800 24.71700
C  47.21400 32.07000 25.51700
N  47.35600 35.41200 29.49100
C  47.01200 34.51200 30.47500
C  47.21400 35.19500 31.84100
C  47.40700 36.71100 31.44400
C  47.76300 36.58100 29.96400
C  46.14300 37.55000 31.75800
C  48.49500 34.54300 32.44300
C  48.52300 34.47100 33.91500
H  47.66000 35.34100 34.90400
N  48.66900 36.80100 27.05400
C  48.76900 37.76800 27.99400
C  49.30100 38.93000 27.44800
C  49.59000 38.68400 26.08400
C  49.08300 37.28700 25.91800
C  49.49000 40.16200 28.22000
C  50.20000 39.53500 25.00600
O  50.32400 39.20600 23.78500
C  50.65900 40.90700 25.36700
N  48.05700 34.35200 25.34400
C  48.56100 35.22000 24.46100
C  48.65400 34.55000 23.07000
C  48.05500 33.17600 23.34100
C  47.82800 33.11900 24.85600
C  48.10300 35.28400 21.86100
C  48.86600 31.96700 22.76800
C  48.21600 30.89900 21.91100
N  47.04300 33.14700 27.70200
C  46.74800 32.08800 26.83000
C  46.14300 30.95800 27.50400
C  46.00600 31.45500 28.81200
C  46.57000 32.71100 28.86600
C  45.73600 29.61700 27.00600
C  45.41600 31.04100 30.11100
O  44.88700 30.03500 30.44800
C  45.80800 32.21400 31.08800
C  46.53400 31.65100 32.24100
O  47.69900 31.34800 32.24300
O  45.67800 31.50700 33.31100
C  46.11800 31.02200 34.59500
H  48.57000 38.49100 29.91600
H  49.57400 37.02900 23.93400
H  47.10700 31.18000 24.89400
H  46.35200 34.99900 32.47800
H  48.26300 37.16600 31.94300
H  46.36100 38.22400 32.58700
H  45.21000 37.04300 32.00600
H  45.97000 38.17600 30.88300
H  49.39400 35.09600 32.16900
H  48.75100 33.53900 32.10600
H  49.54900 34.69700 34.20400
H  48.37200 33.41500 34.13900
H  50.23600 39.93900 28.98400
H  48.54300 40.45000 28.67600
H  49.83500 41.05300 27.69600
H  51.41200 40.97300 26.15300
H  49.73400 41.40800 25.65400
H  51.14500 41.33200 24.48900
H  49.68800 34.35900 22.78300
H  47.05800 33.05300 22.92000
H  48.87600 35.44500 21.11000
H  47.59300 36.19800 22.16400
H  47.42500 34.59600 21.35700
H  49.10600 31.56000 23.75100
H  49.74400 32.36000 22.25400
H  48.01300 29.96400 22.43300
H  48.78700 30.77600 20.99100
H  47.21100 31.22000 21.63600
H  46.10100 29.44500 25.99400
H  44.67000 29.48900 27.19500
H  46.11500 28.82300 27.65000
H  44.90700 32.65500 31.51400
H  45.41700 30.27100 34.96000
H  46.18500 31.77200 35.38200
H  47.12400 30.61300 34.50300

