158

Mg 24.16500 -6.76100 47.40100
C  26.69500 -4.52600 46.34000
C  22.07300 -5.34800 45.22000
C  22.11900 -9.45800 47.86600
C  26.68900 -8.56600 49.14900
N  24.43000 -5.22500 45.87800
C  25.45900 -4.38800 45.66800
C  25.20400 -3.35300 44.65200
C  23.63300 -3.43600 44.46800
C  23.31500 -4.74800 45.21700
C  22.77800 -2.20000 44.75500
C  26.01800 -3.57800 43.31600
C  26.47400 -2.32600 42.53800
H  25.74000 -1.96000 41.21400
N  22.30500 -7.29300 46.77300
C  21.62700 -6.54200 45.87100
C  20.37300 -7.23400 45.51700
C  20.32500 -8.37200 46.30000
C  21.65800 -8.47300 47.02400
C  19.41200 -6.80200 44.49100
C  19.08600 -9.29200 46.33200
O  18.04900 -8.95300 45.82800
C  18.99300 -10.59000 47.10300
N  24.47300 -8.89100 48.17800
C  23.35700 -9.65400 48.47100
C  23.66700 -10.83900 49.37300
C  25.12100 -10.53400 49.78700
C  25.51400 -9.32500 48.90100
C  22.57500 -11.11700 50.47700
C  26.12700 -11.77300 49.73600
C  26.85800 -11.95900 51.07500
N  26.20700 -6.54500 47.81500
C  27.07400 -7.28500 48.63000
C  28.40600 -6.59300 48.77600
C  28.27200 -5.47600 47.90300
C  26.97300 -5.52100 47.29300
C  29.59900 -7.02600 49.64700
C  28.87600 -4.23400 47.34300
O  29.87200 -3.68200 47.65300
C  27.95400 -3.74100 46.22100
C  27.64000 -2.28800 46.42600
O  26.96900 -1.77700 47.30200
O  28.27100 -1.56200 45.45900
C  28.30600 -0.09900 45.62600
H  21.36500 -4.82700 44.57300
H  21.38900 -10.24100 48.08100
H  27.44500 -9.05000 49.77100
H  25.52000 -2.36400 44.98200
H  23.31800 -3.79800 43.49000
H  23.34100 -1.51000 45.38400
H  21.92100 -2.50200 45.35700
H  22.38800 -1.71000 43.86200
H  25.39600 -4.27200 42.75000
H  26.89100 -4.21900 43.43900
H  27.53200 -2.42900 42.29600
H  26.39900 -1.48000 43.22200
H  18.52800 -6.33500 44.92600
H  19.18000 -7.63000 43.82100
H  19.87100 -6.11700 43.77800
H  18.01500 -10.99100 46.83600
H  19.09500 -10.24200 48.13100
H  19.74700 -11.31400 46.79500
H  23.55900 -11.75600 48.79500
H  25.22900 -10.03600 50.75100
H  21.82600 -10.32700 50.44700
H  23.21300 -11.15900 51.36000
H  21.99000 -12.03000 50.36600
H  26.84500 -11.67500 48.92200
H  25.63200 -12.71900 49.51600
H  26.30700 -12.75700 51.57100
H  26.81000 -11.03800 51.65700
H  27.88300 -12.21000 50.80200
H  29.95300 -6.37200 50.44400
H  30.46800 -7.24000 49.02500
H  29.24400 -7.95600 50.09000
H  28.47700 -3.89800 45.27800
H  28.03500 0.18200 46.64300
H  27.54700 0.36300 44.99400
H  29.32000 0.25700 45.44300
Mg 35.15200 2.13000 29.52300
C  32.94500 3.28800 31.98800
C  37.74000 2.37800 31.81000
C  37.26400 1.40800 26.97700
C  32.53400 2.50300 27.05300
N  35.26100 2.91500 31.67700
C  34.22400 3.02200 32.47300
C  34.67900 3.20400 33.91900
C  36.25200 3.18100 33.83700
C  36.45800 2.79900 32.31200
C  36.93600 4.49400 34.24800
C  34.03100 2.05500 34.76300
C  33.25800 2.51900 35.95500
H  33.97500 3.55800 36.84800
N  37.17200 1.86800 29.42300
C  38.07000 1.97300 30.50600
C  39.37700 1.74800 30.07400
C  39.29000 1.48800 28.61700
C  37.84900 1.52500 28.28500
C  40.60800 1.75100 30.96100
C  40.34000 1.30200 27.57700
O  40.07800 1.03800 26.43500
C  41.76900 1.22600 27.96200
N  34.95200 2.11400 27.31600
C  35.94200 1.66100 26.53500
C  35.39100 1.29000 25.10600
C  33.91600 1.30700 25.21400
C  33.79700 2.03000 26.60500
C  35.89000 2.27600 24.05000
C  33.21000 -0.04900 25.13000
C  33.42000 -0.91500 23.88400
N  33.14300 2.74800 29.49800
C  32.22400 2.87200 28.42200
C  31.02400 3.41500 28.96600
C  31.25900 3.69500 30.29600
C  32.56800 3.20600 30.58800
C  29.79100 3.59900 28.18900
C  30.67500 4.16500 31.56800
O  29.51400 4.53600 31.72700
C  31.73700 3.93200 32.68400
C  32.03200 5.35400 33.07000
O  32.93600 6.07800 32.59300
O  31.15900 5.76600 33.97700
C  31.40100 7.02300 34.56500
H  38.53800 2.36200 32.55600
H  37.83900 0.88000 26.21300
H  31.77100 2.36800 26.28300
H  34.28200 4.17700 34.20800
H  36.66000 2.42600 34.51000
H  37.81700 4.73000 33.65100
H  37.29800 4.51200 35.27600
H  36.15100 5.24600 34.17100
H  34.84000 1.41100 35.10800
H  33.37400 1.48900 34.10300
H  33.07900 1.68600 36.63400
H  32.30100 2.92700 35.63100
H  41.36500 1.10500 30.51800
H  40.47200 1.33200 31.95800
H  40.77400 2.82800 30.98100
H  41.84400 0.22200 28.37800
H  42.13500 1.91600 28.72300
H  42.39600 1.34200 27.07800
H  35.82800 0.32400 24.85800
H  33.48000 1.97700 24.47400
H  36.19700 3.19800 24.54400
H  35.13600 2.49300 23.29400
H  36.75000 1.96400 23.45800
H  32.15200 0.21100 25.13500
H  33.48900 -0.59500 26.03100
H  33.68700 -1.90500 24.25600
H  34.21800 -0.74800 23.16100
H  32.47600 -0.95200 23.34000
H  29.99700 3.27400 27.17000
H  29.40000 4.61500 28.24400
H  28.97600 2.93800 28.48300
H  31.19900 3.35600 33.43600
H  31.43900 7.86900 33.87900
H  32.41100 6.95800 34.96800
H  30.78000 7.31900 35.41000

