158

Mg 9.23100 4.10800 27.07700
C  10.55900 2.75000 30.08400
C  7.47700 6.25000 29.01600
C  8.09400 5.33300 24.23900
C  10.54200 1.39000 25.35200
N  9.03400 4.47900 29.39300
C  9.70600 3.90400 30.36000
C  9.41600 4.54400 31.75600
C  8.30300 5.57700 31.38700
C  8.20500 5.40100 29.86800
C  6.96900 5.48300 32.16200
C  10.63800 5.13400 32.47700
C  10.25700 5.83700 33.78600
H  11.20900 5.55500 35.00700
N  8.01800 5.53700 26.73600
C  7.29500 6.31800 27.58800
C  6.57600 7.32700 26.91300
C  6.98200 7.28400 25.58500
C  7.71900 6.01100 25.45200
C  5.55900 8.22000 27.49200
C  6.55100 8.11900 24.50000
O  6.85400 8.00100 23.31900
C  5.69300 9.33800 24.78000
N  9.60500 3.54600 25.03900
C  8.90600 4.14600 24.02900
C  9.08900 3.44100 22.69500
C  9.72700 2.11400 23.15900
C  10.00600 2.37400 24.57600
C  7.81500 3.38600 21.76300
C  10.87700 1.65200 22.19900
C  10.58200 0.40800 21.37800
N  10.26500 2.40600 27.54300
C  10.79200 1.42100 26.70800
C  11.52600 0.46100 27.56900
C  11.53900 1.04100 28.88300
C  10.71400 2.16800 28.79300
C  12.21500 -0.73200 27.20300
C  12.06000 0.79900 30.21000
O  12.77100 -0.04700 30.78600
C  11.42000 1.97600 31.06200
C  10.66500 1.25500 32.09700
O  9.63400 0.64000 31.74700
O  11.22600 1.50300 33.37500
C  10.41400 1.10100 34.46300
H  7.06100 7.07100 29.60300
H  7.71800 5.71000 23.28600
H  10.89000 0.52800 24.77800
H  9.06400 3.82400 32.49500
H  8.69800 6.56700 31.61700
H  6.90500 6.31500 32.86300
H  6.86000 4.52500 32.67100
H  6.13300 5.59300 31.47000
H  11.31600 5.70200 31.84000
H  11.25200 4.26900 32.72600
H  9.29400 5.40800 34.06200
H  10.18300 6.91300 33.63400
H  4.61600 8.08300 26.96400
H  5.86100 9.25900 27.35900
H  5.47000 7.93800 28.54100
H  5.77200 10.01800 23.93200
H  6.23700 9.98200 25.47100
H  4.65700 9.20400 25.09300
H  9.90400 4.01000 22.24800
H  8.89000 1.41500 23.15200
H  6.94600 3.77900 22.29000
H  7.77700 2.30000 21.67700
H  8.03200 3.83600 20.79500
H  11.74300 1.55400 22.85400
H  11.27100 2.41200 21.52500
H  11.23000 -0.44300 21.59100
H  10.84100 0.59200 20.33500
H  9.51600 0.18300 21.36800
H  11.89400 -1.60400 27.77400
H  13.29000 -0.56400 27.26300
H  11.95200 -1.12400 26.22000
H  12.26400 2.45900 31.55300
H  9.50300 0.63400 34.08800
H  10.23500 1.88300 35.20000
H  10.99000 0.31700 34.95400
Mg 47.98200 15.91700 27.87500
C  45.97600 15.87200 30.71500
C  50.12200 18.13900 29.58500
C  49.76400 16.48600 24.96600
C  45.51300 14.35800 26.12400
N  47.99500 16.90000 29.89400
C  47.19300 16.57500 30.92500
C  47.58300 17.09900 32.27900
C  48.74400 17.99600 31.82500
C  49.00700 17.67800 30.37300
C  48.49500 19.55100 32.10400
C  48.10500 15.92400 33.26400
C  48.20400 16.30500 34.83100
H  47.44500 17.57800 35.27600
N  49.75300 17.02600 27.42300
C  50.48200 17.82500 28.23700
C  51.68800 18.19300 27.57600
C  51.71100 17.57200 26.24200
C  50.38500 16.95200 26.20500
C  52.79800 19.00500 28.24100
C  52.73200 17.54000 25.18500
O  52.59300 16.82700 24.20400
C  54.00400 18.16700 25.43800
N  47.71000 15.38400 25.88500
C  48.51300 15.88000 24.86400
C  47.91600 15.57100 23.50700
C  46.78300 14.55100 23.85000
C  46.63300 14.76000 25.40100
C  47.38400 16.89000 22.87200
C  47.03300 13.08200 23.59300
C  45.94700 12.37400 22.80600
N  46.13600 15.27500 28.26800
C  45.21600 14.64000 27.44800
C  44.04200 14.38000 28.23300
C  44.29900 14.80700 29.53700
C  45.58100 15.39400 29.46400
C  42.85100 13.76000 27.63600
C  43.78100 14.83200 30.79700
O  42.65700 14.42600 31.10400
C  44.86300 15.55600 31.67200
C  44.19200 16.71800 32.31200
O  44.04900 17.81500 31.82600
O  43.74900 16.33300 33.57400
C  42.93000 17.34100 34.24600
H  50.84900 18.71100 30.16500
H  50.28900 16.60100 24.01600
H  44.73000 13.95500 25.47900
H  46.79500 17.69700 32.73600
H  49.65500 17.76800 32.37800
H  47.58400 19.81500 32.64000
H  48.56200 20.07800 31.15200
H  49.23900 20.10600 32.67500
H  49.12400 15.65700 32.98300
H  47.44900 15.05500 33.22100
H  49.28800 16.25900 34.93300
H  47.73900 15.58900 35.50900
H  53.23100 19.68400 27.50600
H  53.63600 18.40700 28.60000
H  52.48000 19.50600 29.15600
H  54.46500 17.62400 26.26300
H  53.80100 19.23500 25.51200
H  54.62400 18.01600 24.55500
H  48.65500 15.14900 22.82500
H  45.89500 15.01000 23.41500
H  47.12600 16.59700 21.85500
H  48.07600 17.72800 22.94600
H  46.48000 17.16700 23.41600
H  47.24100 12.49700 24.48900
H  47.96300 12.97100 23.03400
H  45.97700 12.81800 21.81100
H  44.99700 12.51700 23.32100
H  46.16200 11.30800 22.73700
H  42.66600 13.96400 26.58200
H  41.95400 14.00500 28.20400
H  42.90500 12.68800 27.82600
H  45.21300 14.96600 32.51900
H  41.89900 17.35800 33.89200
H  43.38500 18.32400 34.12400
H  42.87700 17.18900 35.32500

