158

Mg 0.77400 42.76900 26.56000
C  3.37000 42.90500 28.97400
C  -1.36700 42.03300 28.95100
C  -1.42200 42.52900 24.14500
C  3.28700 43.34100 24.17200
N  1.04900 42.52700 28.74800
C  2.15800 42.70100 29.48700
C  1.71800 42.73100 30.91400
C  0.28400 42.16100 30.93000
C  -0.06600 42.18100 29.44600
C  0.03300 40.83500 31.59800
C  1.95300 44.18100 31.54900
C  1.61200 44.31300 33.09500
H  1.38500 43.06400 34.03600
N  -1.10100 42.30900 26.54400
C  -1.86300 42.10600 27.67400
C  -3.24400 41.95400 27.28000
C  -3.31900 41.97400 25.84300
C  -1.92100 42.27500 25.46100
C  -4.33300 41.64800 28.32800
C  -4.50500 41.73800 24.88700
O  -4.46600 41.80100 23.72400
C  -5.76600 41.26600 25.47400
N  0.89200 43.20100 24.49300
C  -0.16300 42.98000 23.65000
C  0.26700 42.78700 22.13200
C  1.68500 43.35500 22.24500
C  1.94800 43.26100 23.72400
C  0.18900 41.24600 21.73900
C  1.78000 44.78900 21.84200
C  2.92500 45.22300 20.86900
N  2.88100 43.15800 26.54300
C  3.76500 43.37100 25.48500
C  5.10300 43.46400 25.96000
C  5.01500 43.22600 27.34500
C  3.64700 43.08700 27.60200
C  6.35100 43.77200 25.16600
C  5.78900 43.18000 28.57400
O  7.03600 43.22100 28.76900
C  4.71200 43.00600 29.69900
C  5.10000 41.89500 30.62500
O  5.02000 40.69400 30.37500
O  5.50400 42.41700 31.83900
C  5.51300 41.43900 32.97200
H  -2.17300 41.77200 29.63900
H  -2.17100 42.38800 23.36400
H  4.05400 43.57800 23.43200
H  2.44600 42.06400 31.37500
H  -0.26700 42.95800 31.43100
H  -0.00700 40.03500 30.85800
H  -0.78300 40.85900 32.31900
H  0.99000 40.55200 32.03800
H  1.28400 44.89300 31.06700
H  2.97000 44.49900 31.31800
H  0.77800 44.97200 33.33700
H  2.57000 44.66200 33.48200
H  -5.12300 42.37700 28.14800
H  -4.10900 41.96500 29.34600
H  -4.82800 40.67700 28.34800
H  -6.26400 42.16400 25.83900
H  -5.62600 40.41000 26.13500
H  -6.41800 40.81700 24.72400
H  -0.44500 43.35900 21.53800
H  2.37400 42.69800 21.71400
H  0.02100 40.67100 22.65000
H  1.06200 40.93500 21.16600
H  -0.65400 41.05900 21.07400
H  1.90800 45.44500 22.70300
H  0.88000 45.11900 21.32300
H  2.50800 45.37500 19.87400
H  3.69100 44.50700 20.57200
H  3.55600 46.02200 21.25700
H  6.09900 44.54500 24.44000
H  6.68600 42.87800 24.64100
H  7.19800 44.07000 25.78400
H  4.76700 43.90400 30.31400
H  6.54000 41.14500 33.18800
H  4.87200 40.57700 32.79200
H  4.95100 41.88300 33.79400
Mg -6.20600 25.71000 26.15100
C  -4.35200 27.09400 28.63800
C  -7.56800 23.41300 28.35400
C  -7.66000 24.11300 23.52500
C  -4.24000 27.52100 23.78800
N  -5.87900 25.25100 28.23900
C  -5.22700 26.07400 29.09800
C  -5.65400 25.84500 30.59500
C  -6.25400 24.44000 30.40500
C  -6.62200 24.36300 28.92100
C  -5.48900 23.17500 30.87400
C  -6.63100 26.99600 31.30200
C  -7.63000 26.59300 32.42200
H  -7.13900 25.56200 33.47200
N  -7.67600 24.15400 26.02200
C  -8.07500 23.31000 27.05100
C  -9.10200 22.40800 26.54900
C  -9.22700 22.68700 25.15400
C  -8.14400 23.66400 24.83500
C  -9.81700 21.39800 27.52300
C  -10.21300 22.07300 24.14200
O  -10.16400 22.45800 22.97400
C  -11.28800 20.98700 24.55200
N  -5.89500 25.71600 23.93200
C  -6.61500 24.94800 23.09800
C  -6.14000 25.14100 21.66100
C  -5.01700 26.29900 21.73300
C  -5.02600 26.51100 23.22500
C  -5.65400 23.88000 20.91400
C  -5.46000 27.62300 20.98500
C  -4.34500 28.24200 20.15700
N  -4.64700 27.05100 26.19100
C  -4.04900 27.77300 25.12600
C  -3.12300 28.75700 25.74200
C  -3.31900 28.53300 27.10900
C  -4.13300 27.42900 27.31600
C  -2.22000 29.78200 25.13400
C  -3.08800 29.11500 28.44200
O  -2.47300 30.11000 28.79700
C  -3.74800 28.23500 29.50800
C  -2.75400 27.77600 30.50200
O  -1.71900 27.09600 30.35500
O  -3.20700 28.15100 31.67100
C  -2.44500 27.60400 32.84800
H  -8.01000 22.79100 29.13500
H  -8.22500 23.78200 22.65100
H  -3.59000 28.01600 23.06400
H  -4.84300 25.85700 31.32300
H  -7.19300 24.37800 30.95500
H  -5.93500 22.75000 31.77300
H  -4.51700 23.57000 31.17100
H  -5.47100 22.48100 30.03300
H  -7.19900 27.31500 30.42800
H  -6.05400 27.75600 31.82900
H  -8.39100 26.03600 31.87500
H  -8.11400 27.47200 32.84900
H  -10.83800 21.63200 27.82600
H  -9.25300 21.20400 28.43500
H  -9.91600 20.41800 27.05700
H  -10.95000 19.98700 24.82400
H  -11.89100 20.82600 23.65900
H  -11.88300 21.51500 25.29700
H  -6.99100 25.48000 21.07000
H  -4.05400 25.90400 21.40900
H  -4.73500 24.07600 20.36300
H  -6.36700 23.50100 20.18200
H  -5.39500 23.05100 21.57300
H  -5.58600 28.45800 21.67300
H  -6.39200 27.46100 20.44200
H  -4.74800 28.28600 19.14500
H  -3.41500 27.67600 20.20400
H  -4.05600 29.21600 20.55300
H  -1.20900 29.37800 25.18500
H  -2.33700 30.69300 25.72100
H  -2.48400 29.86000 24.07900
H  -4.51800 28.85000 29.97500
H  -2.17900 26.55000 32.76000
H  -3.22100 27.56600 33.61300
H  -1.74000 28.29900 33.30200

