158

Mg 3.01000 -0.62000 43.66400
C  5.92200 1.38600 43.46500
C  1.30400 2.03000 42.16900
C  0.28700 -2.54100 43.67700
C  5.00700 -3.17100 44.98300
N  3.56300 1.42100 42.85400
C  4.79300 2.13100 43.07300
C  4.65900 3.63000 42.61400
C  3.13900 3.79100 42.48300
C  2.63000 2.32600 42.48800
C  2.46800 4.57900 43.57200
C  5.36500 4.06900 41.30500
C  5.26800 3.17000 40.08600
H  5.28000 3.87700 38.71900
N  1.03700 -0.29400 43.00100
C  0.58200 0.76800 42.32100
C  -0.76300 0.54300 41.95500
C  -1.21700 -0.65600 42.53500
C  0.02900 -1.20500 43.11900
C  -1.55200 1.56700 41.08200
C  -2.56700 -1.30900 42.40300
O  -3.54600 -0.68500 41.95200
C  -2.78500 -2.63200 42.97500
N  2.73500 -2.55000 44.23000
C  1.47900 -3.13800 44.13500
C  1.49200 -4.60100 44.66500
C  2.95100 -4.74100 45.16000
C  3.59900 -3.41000 44.76300
C  0.38200 -4.93000 45.67200
C  3.82100 -6.02300 44.58800
C  4.23600 -6.98200 45.62900
N  5.07700 -1.00900 43.95100
C  5.71400 -2.04000 44.63200
C  7.15500 -1.72900 44.84500
C  7.27400 -0.42300 44.30600
C  5.96300 -0.02300 43.82500
C  8.18100 -2.58900 45.48500
C  8.16400 0.71200 44.00500
O  9.34000 0.88300 44.26000
C  7.34500 1.84700 43.42300
C  7.48200 2.98800 44.26300
O  7.76300 4.14300 43.93200
O  7.22200 2.65800 45.61700
C  7.37100 3.69600 46.61300
H  0.85100 2.85100 41.60900
H  -0.50300 -3.29500 43.72100
H  5.49900 -4.03600 45.43200
H  5.16200 4.14200 43.43500
H  2.85600 4.35200 41.59300
H  2.21600 3.94500 44.42200
H  1.53700 4.92500 43.12400
H  3.14900 5.40000 43.80100
H  6.38700 4.35700 41.55100
H  4.89400 4.99000 40.96200
H  4.30800 2.66900 40.20800
H  6.12000 2.49100 40.09000
H  -2.11100 0.95800 40.37200
H  -0.94200 2.22800 40.46700
H  -2.28500 2.16300 41.62600
H  -3.79300 -3.03600 42.87600
H  -2.49000 -2.78100 44.01300
H  -2.22400 -3.35000 42.37700
H  1.38400 -5.33300 43.86500
H  2.97900 -4.75100 46.25000
H  0.73400 -5.04900 46.69700
H  0.13700 -5.90900 45.26200
H  -0.45100 -4.22800 45.63600
H  4.70900 -5.65700 44.07100
H  3.16900 -6.49300 43.85200
H  4.07200 -6.59500 46.63500
H  5.29000 -7.09100 45.37300
H  3.88400 -7.99900 45.45400
H  9.00600 -1.99000 45.86800
H  8.66900 -3.39600 44.93800
H  7.67000 -3.02700 46.34200
H  7.59900 2.05500 42.38400
H  8.03300 4.46400 46.21300
H  7.78800 3.36700 47.56500
H  6.41900 4.21800 46.70300
Mg 52.89700 23.58400 44.97100
C  50.11400 25.60600 44.26700
C  51.13800 20.98400 43.59300
C  55.64800 21.71500 45.04100
C  54.64100 26.51100 45.83400
N  50.97800 23.45700 43.78900
C  50.01400 24.37300 43.57500
C  48.90500 23.81000 42.62200
C  49.08900 22.24200 42.87200
C  50.50100 22.18700 43.43300
C  48.15300 21.60200 43.96900
C  49.02300 24.25700 41.20100
C  47.78600 24.61600 40.41000
H  47.30100 23.56200 39.45900
N  53.34300 21.52200 44.59500
C  52.50200 20.62700 44.02400
C  53.05200 19.32300 43.94500
C  54.35200 19.43300 44.46000
C  54.50600 20.91700 44.83000
C  52.29500 18.17300 43.29300
C  55.40100 18.37600 44.64200
O  55.17100 17.17600 44.42200
C  56.80100 18.55200 45.25900
N  54.86600 24.12000 45.22500
C  55.80400 23.11000 45.28600
C  57.18200 23.76200 45.56600
C  56.87000 25.25500 45.83000
C  55.36300 25.35400 45.55000
C  58.04400 23.09900 46.75900
C  57.67600 26.21800 44.99100
C  58.38200 27.41000 45.69800
N  52.51000 25.69000 45.14000
C  53.35800 26.75200 45.56300
C  52.44500 27.89000 45.82000
C  51.15700 27.46600 45.34400
C  51.25600 26.15100 44.89100
C  52.80500 29.16900 46.48600
C  49.77500 27.84900 45.14200
O  49.22600 28.86400 45.49900
C  49.01200 26.64700 44.42300
C  48.45500 27.18300 43.15700
O  49.09700 27.57000 42.20200
O  47.10100 27.31300 43.32200
C  46.44800 28.04800 42.21600
H  50.49100 20.15700 43.29200
H  56.53300 21.07600 45.00300
H  55.33900 27.26400 46.20500
H  47.92100 24.06900 43.01400
H  49.00600 21.68000 41.94200
H  47.49100 22.36800 44.37400
H  48.72200 21.12200 44.76400
H  47.54000 20.81000 43.53900
H  49.47900 23.46000 40.61400
H  49.69900 25.11000 41.26400
H  47.94400 25.54900 39.86800
H  47.00700 24.83400 41.14000
H  52.30400 18.30200 42.21100
H  51.27800 18.14200 43.68300
H  52.77400 17.24200 43.59500
H  57.10700 17.56000 45.59100
H  56.86100 19.19900 46.13400
H  57.51100 18.80700 44.47200
H  57.66300 23.62700 44.59700
H  57.00800 25.40600 46.90000
H  58.79900 22.40100 46.39600
H  57.30800 22.53200 47.32800
H  58.44200 23.73400 47.55100
H  57.04800 26.57100 44.17400
H  58.51400 25.72900 44.49400
H  58.00900 28.35600 45.30700
H  59.47200 27.39700 45.68100
H  58.01600 27.43600 46.72500
H  52.67300 29.91300 45.70000
H  53.86000 29.04400 46.72800
H  52.18500 29.47500 47.32900
H  48.14900 26.29300 44.98600
H  46.95800 28.97700 41.96100
H  45.44800 28.41000 42.45600
H  46.41100 27.30700 41.41800

