158

Mg 25.26500 -0.76700 28.99700
C  27.20400 -0.46800 31.89800
C  22.31200 -0.28600 30.97400
C  23.29100 -1.01800 26.38500
C  28.09000 -1.64200 27.35600
N  24.87900 -0.50100 31.22300
C  25.86400 -0.29500 32.19600
C  25.11000 -0.03300 33.56500
C  23.58800 -0.22500 33.21500
C  23.53400 -0.42400 31.71100
C  22.84300 -1.39200 34.03800
C  25.49600 1.47200 34.15700
C  26.40200 1.39400 35.48500
H  26.18300 2.35800 36.57200
N  23.07100 -0.68300 28.67600
C  22.08000 -0.37200 29.62000
C  20.81700 -0.24100 28.94200
C  21.09700 -0.51000 27.59200
C  22.52600 -0.77400 27.43100
C  19.55500 0.05700 29.68900
C  20.07100 -0.59200 26.42500
O  20.40500 -0.89300 25.32400
C  18.67200 -0.32400 26.64900
N  25.56100 -1.62900 27.23600
C  24.64200 -1.34500 26.24900
C  25.20900 -1.41200 24.80500
C  26.75300 -1.57800 25.14600
C  26.81600 -1.67000 26.71100
C  24.55900 -2.52400 23.88600
C  27.58300 -0.44000 24.51400
C  27.51900 0.99200 25.08600
N  27.22500 -0.97200 29.47400
C  28.29800 -1.40200 28.69800
C  29.56600 -1.33200 29.40400
C  29.20500 -0.97300 30.72300
C  27.77100 -0.78600 30.64300
C  30.88000 -1.60400 28.79700
C  29.69300 -0.63000 32.06400
O  30.79000 -0.54200 32.52100
C  28.38700 -0.35900 32.89700
C  28.46100 -1.28700 34.07000
O  28.24200 -2.49200 34.04200
O  28.80100 -0.46000 35.15000
C  28.74600 -1.16700 36.43500
H  21.48100 0.01400 31.61600
H  22.86300 -0.86200 25.39200
H  28.93100 -1.76500 26.67000
H  25.54200 -0.78800 34.22100
H  22.90700 0.55800 33.54700
H  23.43700 -1.85000 34.82900
H  22.45000 -2.15800 33.36900
H  22.10700 -0.91000 34.68100
H  24.60700 1.98900 34.51700
H  25.93200 2.05900 33.35000
H  27.42500 1.43000 35.11300
H  26.20000 0.41900 35.92800
H  19.58100 -0.25600 30.73300
H  18.62100 -0.41300 29.38100
H  19.45200 1.13800 29.78500
H  18.26200 -1.04000 27.36100
H  18.09300 -0.25900 25.72800
H  18.72500 0.71700 26.96800
H  25.00800 -0.44300 24.34700
H  27.04500 -2.54300 24.73300
H  25.34800 -3.02400 23.32300
H  23.79700 -2.02400 23.28900
H  23.96000 -3.20100 24.49300
H  27.14300 -0.29200 23.52800
H  28.61200 -0.76900 24.37300
H  26.87800 1.05700 25.96600
H  26.99600 1.64300 24.38600
H  28.47800 1.47300 25.27800
H  31.28400 -0.76100 28.23600
H  30.86300 -2.41100 28.06500
H  31.50500 -1.91600 29.63500
H  28.47000 0.67900 33.21700
H  27.81300 -0.79900 36.86100
H  29.64500 -0.93600 37.00600
H  28.67500 -2.24900 36.32300
Mg 34.71300 1.49100 28.92900
C  32.40300 2.83700 31.33600
C  37.17600 1.85900 31.23100
C  36.70600 0.62100 26.47200
C  31.95700 1.78000 26.54800
N  34.68400 2.19600 31.08500
C  33.67900 2.63800 31.86200
C  34.18600 2.79400 33.27700
C  35.71200 2.75400 33.16900
C  35.90800 2.30300 31.73800
C  36.45900 4.09800 33.43600
C  33.54000 1.82400 34.30600
C  32.99800 2.55200 35.53400
H  33.98000 3.09900 36.64300
N  36.69000 1.19200 28.88500
C  37.52500 1.39700 29.94000
C  38.89000 1.01000 29.51200
C  38.77000 0.70300 28.11600
C  37.35200 0.87300 27.74000
C  40.05600 0.89500 30.43800
C  39.88800 0.19800 27.19200
O  39.72200 0.07400 25.97200
C  41.29800 -0.16800 27.74600
N  34.31000 1.12500 26.89500
C  35.36100 0.84000 26.06200
C  34.96200 0.92800 24.51200
C  33.36300 1.05400 24.64700
C  33.20100 1.32300 26.13900
C  35.67400 2.10000 23.78200
C  32.57900 -0.21600 24.25300
C  32.09100 -0.16600 22.82600
N  32.58600 2.04500 28.91100
C  31.64000 2.09700 27.86500
C  30.36800 2.65000 28.41300
C  30.61700 2.85200 29.74500
C  31.93500 2.52000 30.01900
C  29.06300 2.78700 27.66500
C  30.01300 3.32400 31.01300
O  28.89500 3.58500 31.24300
C  31.15400 3.31100 32.09400
C  31.31300 4.75100 32.59700
O  31.82300 5.65600 31.97900
O  30.69100 4.82000 33.76400
C  30.60700 5.97400 34.66900
H  37.96700 2.08200 31.95100
H  37.34900 0.51400 25.59600
H  31.13100 1.97500 25.86100
H  33.79500 3.80100 33.42300
H  36.24000 2.01500 33.77100
H  35.69900 4.68700 33.95000
H  36.66900 4.61400 32.49900
H  37.36000 3.92200 34.02300
H  34.31300 1.13100 34.63700
H  32.72200 1.28200 33.83200
H  32.30500 1.80700 35.92600
H  32.38100 3.36400 35.15000
H  40.72900 1.72900 30.23500
H  40.78200 0.08200 30.46800
H  39.64300 1.16300 31.41100
H  41.88600 0.69400 28.06000
H  41.85600 -0.73100 26.99700
H  41.11700 -0.76600 28.63900
H  35.19000 0.04800 23.91100
H  33.00800 1.90200 24.06200
H  35.03800 2.92600 23.46400
H  36.15400 1.69600 22.89100
H  36.43700 2.62700 24.35600
H  31.64700 -0.32000 24.80800
H  33.15200 -1.11300 24.48700
H  32.25200 -1.11300 22.31100
H  32.69900 0.56900 22.29800
H  31.06200 0.18000 22.73100
H  28.61700 1.79300 27.62400
H  29.02500 3.38700 26.75600
H  28.60100 3.39200 28.44500
H  30.97400 2.62500 32.92200
H  30.26300 6.84400 34.11000
H  31.55400 6.08300 35.19800
H  29.97200 5.78100 35.53300

