158

Mg -1.89800 17.09900 25.72600
C  -2.34300 14.80200 28.28100
C  -2.63100 19.67000 27.85600
C  -1.88900 19.23800 23.03900
C  -1.87500 14.28200 23.46200
N  -2.41000 17.21800 27.81400
C  -2.45800 16.17900 28.71300
C  -2.82600 16.65600 30.12700
C  -3.51300 17.99300 29.77200
C  -2.85000 18.42100 28.38400
C  -5.11100 17.88300 29.78400
C  -1.62300 16.78800 31.14800
C  -1.74000 15.97400 32.44100
H  -2.41500 16.67000 33.65300
N  -2.12200 19.20600 25.53200
C  -2.23000 20.08000 26.56000
C  -2.20700 21.38900 26.04900
C  -2.00600 21.30000 24.65500
C  -2.00800 19.87800 24.34600
C  -2.33900 22.61000 26.88100
C  -1.91700 22.35400 23.54900
O  -1.87600 22.09600 22.35900
C  -1.71700 23.79800 23.86300
N  -1.97300 16.73700 23.57500
C  -1.78700 17.85300 22.75100
C  -1.50500 17.34900 21.29600
C  -1.24500 15.84600 21.48500
C  -1.77300 15.58200 22.91900
C  -2.69200 17.67200 20.34500
C  0.24300 15.49400 21.12500
C  1.21200 16.17000 22.17800
N  -1.96200 14.96000 25.85500
C  -1.98600 13.95200 24.87200
C  -2.02400 12.70000 25.48600
C  -2.22000 12.98900 26.86700
C  -2.09100 14.34800 27.01700
C  -1.96600 11.43900 24.77500
C  -2.52900 12.39800 28.13300
O  -2.63900 11.24700 28.43800
C  -2.63800 13.60300 29.12800
C  -1.69900 13.39600 30.19000
O  -0.53300 13.64600 30.20200
O  -2.32800 12.69700 31.17600
C  -1.43000 12.25600 32.24200
H  -2.86900 20.50400 28.51900
H  -1.86200 19.77300 22.08800
H  -1.78100 13.60400 22.61100
H  -3.57800 15.98500 30.54300
H  -3.24200 18.79700 30.45600
H  -5.55300 17.69500 28.80500
H  -5.46400 18.80600 30.24400
H  -5.37800 17.07500 30.46500
H  -1.45600 17.83000 31.41800
H  -0.70700 16.53400 30.61400
H  -0.69600 15.80600 32.70700
H  -2.25900 15.03600 32.24400
H  -2.16100 22.46500 27.94700
H  -3.38000 22.91700 26.77500
H  -1.67500 23.41300 26.56100
H  -0.69400 23.77800 24.23800
H  -2.58800 23.99500 24.48800
H  -1.75600 24.39400 22.95200
H  -0.59900 17.89700 21.03700
H  -1.94200 15.37400 20.79200
H  -3.29500 16.77300 20.21200
H  -2.38000 18.10900 19.39600
H  -3.43500 18.36800 20.73400
H  0.54100 15.84900 20.13800
H  0.30200 14.40800 21.18600
H  1.84600 16.94300 21.74400
H  1.85100 15.41000 22.62600
H  0.72800 16.75500 22.96000
H  -2.97400 11.04400 24.65500
H  -1.33500 10.81600 25.40900
H  -1.47900 11.54000 23.80500
H  -3.69400 13.47900 29.36700
H  -0.71300 11.58700 31.76500
H  -1.96000 11.63700 32.96500
H  -0.85000 13.06300 32.69000
Mg 15.62600 52.24400 26.00800
C  17.66700 51.22400 28.58500
C  13.01700 52.64100 28.02700
C  13.73200 52.72300 23.28900
C  18.34300 51.13400 23.79200
N  15.35600 51.90400 28.04500
C  16.33400 51.70500 28.95100
C  15.80400 51.96000 30.38300
C  14.26100 52.10200 30.15900
C  14.16700 52.25400 28.69200
C  13.47500 50.91400 30.58800
C  16.42700 53.20100 30.99300
C  16.65200 53.13900 32.60700
H  16.03200 52.07700 33.40600
N  13.67200 52.76300 25.74800
C  12.71900 52.88900 26.67700
C  11.49500 53.41400 26.14000
C  11.59100 53.36100 24.74300
C  13.08800 52.94700 24.48900
C  10.27300 53.69600 27.01300
C  10.46100 53.50900 23.66700
O  10.58500 53.26300 22.50400
C  9.05600 53.93200 24.07500
N  15.99900 52.02900 23.81700
C  15.02300 52.36200 22.95700
C  15.52800 52.26100 21.51500
C  17.04400 51.86600 21.66400
C  17.16400 51.72700 23.21000
C  14.73400 51.30700 20.54100
C  18.05500 52.89300 21.05700
C  19.26100 52.27700 20.22400
N  17.55300 51.25500 26.09900
C  18.59400 51.01700 25.16400
C  19.75800 50.49300 25.82300
C  19.43500 50.53200 27.19300
C  18.08700 51.00100 27.29300
C  21.03500 50.10400 25.07900
C  19.91000 50.27400 28.52100
O  21.06800 49.98200 28.87200
C  18.77100 50.72600 29.47800
C  18.41100 49.49800 30.24200
O  17.90900 48.49200 29.72500
O  18.66500 49.66300 31.56400
C  18.20300 48.63800 32.48600
H  12.22800 53.00100 28.69100
H  13.13200 52.91900 22.39800
H  19.20100 51.04600 23.12300
H  15.99900 51.10700 31.03300
H  13.89300 53.03100 30.59600
H  12.72200 51.16900 31.33400
H  14.09600 50.09100 30.94200
H  12.89700 50.48300 29.77000
H  15.88300 54.11800 30.76600
H  17.43300 53.18500 30.57500
H  16.31800 54.10700 32.98100
H  17.73100 53.06100 32.74000
H  10.41300 53.68500 28.09400
H  9.50000 52.93300 26.92000
H  9.87500 54.66100 26.70000
H  9.05500 54.99900 24.29400
H  8.61400 53.38900 24.91000
H  8.52400 53.70200 23.15100
H  15.46900 53.29400 21.17100
H  17.20800 50.94300 21.10800
H  13.80500 51.02800 21.03900
H  15.36600 50.45900 20.27600
H  14.49300 51.86700 19.63800
H  18.43900 53.56100 21.82700
H  17.54100 53.44600 20.27100
H  19.35900 51.19700 20.32800
H  20.12600 52.69200 20.74100
H  19.34100 52.63000 19.19600
H  21.16700 50.63700 24.13800
H  21.02000 49.02500 24.92500
H  21.84800 50.30500 25.77600
H  19.22000 51.36300 30.24000
H  18.81000 47.73300 32.50500
H  17.23400 48.30200 32.11600
H  17.96400 49.01000 33.48200

