158

Mg 30.01800 58.79500 39.11900
C  27.32600 56.86500 38.09800
C  32.04700 56.20500 37.71500
C  32.49500 60.97300 38.96500
C  27.71500 61.56800 39.11100
N  29.75500 56.76700 38.07500
C  28.54400 56.24100 37.78400
C  28.63900 54.85000 36.94600
C  30.13600 54.52300 37.19300
C  30.73300 55.87400 37.71500
C  30.42000 53.39000 38.23100
C  28.22700 55.06100 35.41200
C  27.10300 54.33300 34.69400
H  26.31500 55.17700 33.66000
N  32.00800 58.56600 38.62300
C  32.67500 57.44800 38.10400
C  34.00400 57.76100 37.90100
C  34.20400 59.07600 38.38800
C  32.93000 59.63700 38.68300
C  34.95400 56.82200 37.18600
C  35.50200 59.82000 38.42300
O  36.45200 59.26500 37.85700
C  35.78100 61.17800 39.09700
N  30.09100 61.00100 39.14200
C  31.27700 61.64800 39.15200
C  31.11000 63.16800 39.06800
C  29.53600 63.30000 38.97700
C  29.06800 61.83200 39.08300
C  31.88900 64.01500 40.15300
C  29.03600 64.00200 37.71800
C  28.08700 65.14100 37.89100
N  27.92200 59.18200 38.84500
C  27.13500 60.28100 38.90400
C  25.70700 59.89600 38.90500
C  25.69300 58.59300 38.66000
C  27.09900 58.19100 38.55700
C  24.52400 60.77200 38.89800
C  24.90500 57.35900 38.49600
O  23.69000 57.24900 38.55300
C  25.86800 56.29100 37.97500
C  25.65000 55.11700 38.96900
O  26.21300 55.02200 40.03200
O  24.77500 54.13000 38.46200
C  24.38600 52.97300 39.30200
H  32.63600 55.34400 37.39000
H  33.40600 61.56900 39.05300
H  27.07800 62.44600 39.24200
H  28.00900 54.11200 37.44300
H  30.66400 54.21100 36.29200
H  31.08000 53.75800 39.01700
H  30.81500 52.48600 37.76600
H  29.47400 53.19300 38.73400
H  29.05800 54.73700 34.78600
H  28.03900 56.12700 35.28200
H  26.39800 53.86300 35.37900
H  27.58300 53.50800 34.16800
H  35.41800 57.27000 36.30700
H  34.53400 55.88000 36.83400
H  35.75900 56.50200 37.84700
H  36.83700 61.20200 39.36600
H  35.26900 61.38100 40.03800
H  35.53400 61.99200 38.41600
H  31.48600 63.37800 38.06700
H  29.20000 63.77100 39.90100
H  32.95600 63.79400 40.18100
H  31.29900 63.88000 41.05900
H  31.78600 65.07900 39.94100
H  28.61900 63.28000 37.01500
H  29.87200 64.48800 37.21700
H  28.32800 66.02300 37.29700
H  27.88400 65.29900 38.95000
H  27.14900 64.75500 37.49100
H  24.50900 61.48000 39.72600
H  23.60200 60.22000 39.08100
H  24.62300 61.37500 37.99500
H  25.68300 56.03300 36.93200
H  23.84600 53.18800 40.22400
H  25.11200 52.16300 39.37100
H  23.66100 52.51400 38.63000
Mg 16.09100 51.47300 25.38900
C  17.80600 50.64900 28.32700
C  13.61500 52.80100 27.34700
C  14.32300 52.06200 22.64900
C  18.64800 49.74700 23.55900
N  15.85100 51.78100 27.53500
C  16.60400 51.26500 28.56800
C  16.04500 51.61500 29.97600
C  14.64500 52.29800 29.68000
C  14.69700 52.35400 28.10200
C  13.40800 51.54300 30.22800
C  17.05600 52.53200 30.86600
C  17.02400 52.53500 32.37800
H  15.96200 51.70700 33.09400
N  14.28500 52.37300 24.98300
C  13.37900 52.78700 25.93500
C  12.26500 53.39300 25.30900
C  12.45600 53.26100 23.90100
C  13.70700 52.55300 23.78400
C  11.11800 54.13600 25.97400
C  11.63900 53.87700 22.77100
O  11.92700 53.61800 21.60200
C  10.32800 54.54900 22.97000
N  16.43000 50.93300 23.47700
C  15.51700 51.30300 22.45700
C  16.04000 51.02100 20.94500
C  17.38500 50.20700 21.32600
C  17.54400 50.36200 22.89400
C  14.98600 50.34500 20.03200
C  18.67600 50.68300 20.65400
C  19.31700 51.93000 21.14200
N  17.87200 50.39000 25.80700
C  18.79800 49.79300 24.97800
C  19.95200 49.43200 25.73100
C  19.64100 49.61600 27.08000
C  18.34800 50.29800 27.06000
C  21.08700 48.71600 25.13800
C  20.06200 49.44100 28.46200
O  20.98200 48.89400 29.00600
C  18.87500 50.05600 29.30800
C  18.35000 49.03100 30.26700
O  17.27400 48.43600 30.25000
O  19.20300 48.84700 31.26300
C  18.85000 47.92700 32.39100
H  12.76200 53.09200 27.96400
H  13.87000 52.11900 21.65700
H  19.51600 49.24100 23.13200
H  15.92700 50.67300 30.51200
H  14.73300 53.31600 30.05900
H  12.69200 51.14100 29.51100
H  12.85900 52.27800 30.81600
H  13.87000 50.86400 30.94400
H  16.81000 53.56000 30.59900
H  18.07400 52.36400 30.51400
H  16.93700 53.59900 32.60100
H  18.01800 52.22500 32.70000
H  10.15600 53.73200 25.66100
H  11.31600 55.18000 25.73400
H  11.07200 53.98800 27.05300
H  9.90100 54.59600 21.96800
H  10.39000 55.58100 23.31500
H  9.66500 53.95300 23.59700
H  16.33600 52.01100 20.59800
H  17.26000 49.13900 21.14800
H  14.50800 51.03100 19.33300
H  14.27700 49.69400 20.54300
H  15.57200 49.67000 19.40900
H  18.20700 50.86400 19.68600
H  19.39800 49.92700 20.34300
H  20.30100 51.63900 21.50800
H  18.77400 52.49300 21.90200
H  19.38800 52.63500 20.31400
H  20.75000 48.01900 24.37000
H  21.48700 48.02900 25.88400
H  21.81200 49.42600 24.74000
H  19.53400 50.70400 29.88600
H  17.94300 48.21100 32.92600
H  19.70900 47.84800 33.05800
H  18.69300 46.97300 31.88800

