158

Mg 26.49000 50.04300 26.93000
C  24.44900 51.49100 29.46300
C  28.46200 48.82300 29.39700
C  28.74200 49.24300 24.54900
C  24.59700 51.84600 24.58600
N  26.41700 50.14600 29.21200
C  25.47100 50.75000 30.01500
C  25.64100 50.30400 31.55500
C  27.07000 49.56700 31.40900
C  27.35600 49.49900 29.94300
C  28.18300 50.17700 32.27000
C  24.43200 49.48700 32.15500
C  24.00600 49.93200 33.62900
H  25.04300 50.55700 34.52200
N  28.27600 49.09000 26.97500
C  28.93200 48.65900 28.09300
C  30.06400 47.93300 27.66300
C  30.15600 47.95000 26.25500
C  29.07200 48.78700 25.78800
C  31.05500 47.33000 28.59100
C  31.14300 47.28700 25.31300
O  31.02300 47.31900 24.13100
C  32.30600 46.54200 25.81800
N  26.60300 50.47500 24.86100
C  27.67000 49.99600 24.09500
C  27.47800 50.23000 22.58100
C  26.14300 51.15100 22.61600
C  25.72300 51.12900 24.09700
C  28.62700 50.92400 21.93600
C  25.02800 50.43500 21.74100
C  23.96400 49.52400 22.38700
N  24.84100 51.30900 26.93800
C  24.09100 51.88800 25.88400
C  22.88000 52.54300 26.41500
C  23.02500 52.40200 27.75200
C  24.23400 51.74600 28.06600
C  21.74100 53.25400 25.71300
C  22.38800 52.75400 29.00500
O  21.31500 53.33100 29.23700
C  23.29600 52.15300 30.16700
C  23.55900 53.26900 31.09900
O  24.23600 54.25100 30.81300
O  22.84700 53.08200 32.20800
C  22.78700 54.05900 33.24800
H  29.11500 48.33900 30.12600
H  29.37000 49.01900 23.68400
H  23.92800 52.37200 23.90100
H  25.79900 51.22700 32.11200
H  27.03400 48.54100 31.77500
H  28.88300 50.80400 31.71800
H  28.81800 49.34900 32.58400
H  27.66800 50.75400 33.03900
H  24.64900 48.42200 32.23000
H  23.57300 49.60300 31.49500
H  23.44300 49.15300 34.14200
H  23.29500 50.73900 33.45200
H  31.32900 46.30300 28.34800
H  30.77300 47.41400 29.64000
H  31.92000 47.97700 28.44300
H  33.05300 46.39400 25.03800
H  31.89800 45.59500 26.17300
H  32.70100 47.21000 26.58300
H  27.37400 49.26500 22.08500
H  26.28900 52.15800 22.22700
H  29.35100 50.23200 21.50700
H  29.14200 51.60800 22.61100
H  28.20000 51.50000 21.11500
H  25.49400 49.84700 20.95000
H  24.50200 51.20900 21.18300
H  24.28900 49.02600 23.30100
H  23.71700 48.76700 21.64300
H  23.03900 50.02600 22.67100
H  20.82000 53.11500 26.27900
H  21.51100 53.03900 24.67000
H  21.94700 54.31700 25.58100
H  22.64200 51.46100 30.69800
H  23.54500 53.66200 33.92300
H  21.80900 54.11200 33.72500
H  23.20500 55.04200 33.03100
Mg -5.78500 25.77100 25.71700
C  -4.69500 27.34500 28.72800
C  -7.64700 23.50100 27.86000
C  -6.41700 23.89100 23.11800
C  -3.34300 27.61600 24.02500
N  -6.03900 25.33000 28.07400
C  -5.54700 26.20600 28.99200
C  -6.10700 25.80100 30.37700
C  -7.05100 24.60200 30.13300
C  -6.91700 24.43000 28.60000
C  -6.63100 23.25600 30.81000
C  -6.81700 26.98800 31.10400
C  -6.39800 27.32600 32.54700
H  -5.85900 26.26700 33.54100
N  -6.95000 24.00000 25.43900
C  -7.64800 23.23600 26.44600
C  -8.40500 22.16600 25.78300
C  -8.01400 22.17600 24.40600
C  -7.06900 23.36000 24.27300
C  -9.36400 21.22600 26.50100
C  -8.40800 21.32700 23.19900
O  -7.98800 21.47300 22.00600
C  -9.38600 20.25400 23.38800
N  -5.02000 25.79500 23.76600
C  -5.47900 24.87600 22.82900
C  -4.79200 25.12600 21.44900
C  -3.74400 26.26300 21.81000
C  -4.07500 26.68900 23.25400
C  -4.05400 23.81300 20.89500
C  -3.69800 27.47100 20.96300
C  -2.30300 27.70700 20.22000
N  -4.22100 27.15600 26.23200
C  -3.38800 27.87800 25.39600
C  -2.82800 28.97000 26.08800
C  -3.32600 28.81500 27.38700
C  -4.17800 27.68500 27.44300
C  -1.87000 30.00900 25.53500
C  -3.20300 29.28500 28.78500
O  -2.45400 30.17200 29.17400
C  -4.04000 28.36800 29.61600
C  -2.98600 27.70200 30.53400
O  -2.26000 26.76900 30.19900
O  -3.10000 28.21000 31.80200
C  -2.16100 27.60400 32.81500
H  -8.37700 22.93600 28.44300
H  -6.52300 23.33600 22.18400
H  -2.57200 28.25000 23.58200
H  -5.27300 25.50000 31.01000
H  -8.09700 24.75700 30.39600
H  -6.06900 23.41400 31.73000
H  -6.00500 22.59800 30.20800
H  -7.51100 22.70900 31.14800
H  -7.87400 26.72300 31.10400
H  -6.73000 27.94100 30.58200
H  -7.08800 27.96000 33.10400
H  -5.46600 27.87100 32.40200
H  -9.27100 21.29000 27.58500
H  -9.07600 20.23000 26.16700
H  -10.37800 21.44600 26.16500
H  -9.84400 20.07000 22.41600
H  -10.13900 20.47600 24.14500
H  -8.82900 19.39600 23.76300
H  -5.55500 25.46900 20.75000
H  -2.71300 25.90800 21.79800
H  -4.63600 23.37600 20.08400
H  -3.80800 23.17700 21.74600
H  -3.20800 24.07900 20.26200
H  -3.78200 28.42000 21.49100
H  -4.46800 27.34100 20.20300
H  -1.56000 27.25200 20.87400
H  -2.24200 28.78300 20.05400
H  -2.21200 27.11200 19.31100
H  -2.16200 30.37200 24.55000
H  -0.86000 29.60800 25.44800
H  -1.81800 30.86900 26.20300
H  -4.68100 28.93200 30.29300
H  -1.31200 28.28800 32.82100
H  -1.82100 26.59700 32.57400
H  -2.65100 27.52400 33.78600

