158

Mg -1.66300 16.68400 27.16500
C  -2.00200 14.39900 29.78600
C  -2.70200 19.13800 29.27900
C  -1.81900 18.74100 24.53000
C  -1.44200 14.01300 25.04500
N  -2.08600 16.74700 29.32000
C  -2.00600 15.75800 30.24300
C  -2.06200 16.28700 31.71900
C  -2.40300 17.83800 31.50700
C  -2.43900 17.87200 29.92400
C  -3.71800 18.38000 32.13300
C  -0.77700 15.97600 32.54700
C  -0.44900 17.01300 33.65900
H  0.26700 16.48000 34.96700
N  -2.01800 18.72700 26.95800
C  -2.44500 19.59400 27.96200
C  -2.55200 20.94400 27.41000
C  -2.10000 20.82300 26.05400
C  -1.97000 19.37900 25.77500
C  -2.93500 22.16600 28.31600
C  -1.91100 21.86600 24.92200
O  -1.43100 21.57200 23.83600
C  -2.36700 23.31000 25.07400
N  -1.74800 16.40900 25.05800
C  -1.69400 17.39000 24.17400
C  -1.60400 16.93000 22.72600
C  -1.53900 15.42700 22.86700
C  -1.49100 15.26100 24.41300
C  -2.75500 17.44100 21.73500
C  -0.54500 14.61200 22.04300
C  0.88000 14.65300 22.68300
N  -1.71700 14.60200 27.30300
C  -1.53500 13.63600 26.34900
C  -1.57800 12.35300 26.87600
C  -1.80200 12.59000 28.25200
C  -1.90200 13.94300 28.48700
C  -1.50700 11.03100 26.17900
C  -1.98700 11.96000 29.52100
O  -2.00000 10.76300 29.91200
C  -2.22600 13.12600 30.54600
C  -1.49400 12.89900 31.79100
O  -0.32700 12.57000 31.74300
O  -2.22900 13.02800 32.96800
C  -1.48500 12.67700 34.22400
H  -2.74800 19.91700 30.04200
H  -1.91500 19.38400 23.65400
H  -1.12200 13.13200 24.48400
H  -2.82200 15.79500 32.32600
H  -1.54700 18.41800 31.85300
H  -4.30100 18.85400 31.34400
H  -3.42700 19.17500 32.81900
H  -4.37800 17.65700 32.61200
H  -0.00200 15.89000 31.78400
H  -0.97500 15.10400 33.17000
H  -1.45700 17.35000 33.90200
H  0.04300 17.83500 33.14000
H  -3.97700 22.18500 28.63900
H  -2.64300 23.05200 27.75200
H  -2.31000 22.12600 29.20800
H  -1.74800 23.74200 25.86100
H  -3.35900 23.17900 25.50700
H  -2.37200 23.73900 24.07200
H  -0.68200 17.38600 22.36500
H  -2.57600 15.14300 22.68300
H  -3.51400 16.70300 21.47400
H  -2.29800 17.60600 20.76000
H  -3.21500 18.32600 22.17400
H  -0.58500 15.10500 21.07100
H  -0.87600 13.57800 21.94800
H  1.60800 15.02000 21.95900
H  1.14000 13.62800 22.94800
H  0.96600 15.28600 23.56600
H  -1.84400 11.01900 25.14300
H  -2.07300 10.28200 26.73300
H  -0.44900 10.76800 26.16000
H  -3.27400 13.25700 30.81400
H  -2.26200 12.33900 34.91000
H  -0.97400 13.52100 34.68800
H  -0.85900 11.82200 33.97200
Mg -2.85200 34.93600 26.40600
C  -3.86200 33.43400 29.25900
C  -1.19900 37.27400 28.42800
C  -1.83100 36.60400 23.58100
C  -4.73100 32.80400 24.59600
N  -2.42800 35.15100 28.58700
C  -2.95500 34.41300 29.56800
C  -2.39400 34.75500 30.90600
C  -1.64200 36.12800 30.58100
C  -1.80600 36.23000 29.10200
C  -2.25600 37.38700 31.33600
C  -1.55700 33.60800 31.60000
C  -1.95500 33.10200 32.97200
H  -0.91400 33.35000 34.04400
N  -1.69700 36.63500 26.05800
C  -1.10000 37.45400 27.00100
C  -0.45100 38.60100 26.32400
C  -0.56200 38.41600 24.91100
C  -1.44200 37.15700 24.81700
C  0.29500 39.58900 27.07700
C  -0.05200 39.19400 23.74900
O  -0.36200 38.98000 22.58100
C  1.00900 40.23500 24.09200
N  -3.29500 34.81000 24.37500
C  -2.71900 35.51500 23.36600
C  -3.10900 34.90400 21.95100
C  -3.71600 33.53400 22.33900
C  -3.95400 33.70300 23.85300
C  -3.97100 35.84300 21.05400
C  -2.75400 32.39600 22.08700
C  -3.32900 31.21100 21.30500
N  -4.10500 33.39100 26.81700
C  -4.78400 32.57000 25.99200
C  -5.32200 31.47600 26.75800
C  -5.05000 31.83100 28.06000
C  -4.20600 32.95200 28.00900
C  -6.24100 30.41000 26.25700
C  -5.23200 31.41100 29.39700
O  -5.93500 30.49600 29.84500
C  -4.43000 32.45800 30.22400
C  -5.44900 33.08900 31.09000
O  -6.43400 33.75700 30.71600
O  -5.25700 32.69100 32.36100
C  -6.03900 33.35900 33.35600
H  -0.66300 37.97900 29.06600
H  -1.50600 36.97200 22.60600
H  -5.28400 32.00300 24.09900
H  -3.24800 34.93800 31.55800
H  -0.56800 36.02000 30.73200
H  -1.34900 37.98600 31.41000
H  -2.65400 37.24200 32.34000
H  -2.94500 37.95200 30.70700
H  -0.55900 34.03000 31.72600
H  -1.48500 32.78200 30.89200
H  -2.22100 32.04800 32.89600
H  -2.85900 33.63500 33.26600
H  1.30000 39.41900 26.69000
H  0.13900 39.53300 28.15400
H  0.06200 40.62600 26.83600
H  1.36400 40.48900 23.09400
H  1.86900 39.79400 24.59600
H  0.69500 41.08500 24.69800
H  -2.16600 34.79800 21.41500
H  -4.55200 33.19100 21.73000
H  -4.88300 35.26600 20.90000
H  -3.44000 35.99500 20.11500
H  -4.07500 36.86000 21.43200
H  -2.29400 32.11300 23.03400
H  -1.93900 32.77700 21.47200
H  -3.31500 30.40800 22.04200
H  -2.69200 30.87000 20.48900
H  -4.38100 31.26600 21.02300
H  -5.84000 29.40400 26.37900
H  -6.39300 30.56800 25.18900
H  -7.21700 30.46200 26.74000
H  -3.75800 31.90200 30.87700
H  -6.41800 34.32800 33.03200
H  -5.31900 33.50800 34.16000
H  -6.83900 32.71400 33.72100

