158

Mg -9.70400 39.33900 40.20500
C  -9.10200 35.97600 39.66800
C  -6.50600 40.04300 39.18700
C  -10.46200 42.60300 39.98400
C  -13.16800 38.59200 40.70600
N  -8.00100 38.11300 39.41000
C  -7.95500 36.74000 39.34300
C  -6.54000 36.19400 38.97600
C  -5.71500 37.54600 39.21100
C  -6.78100 38.63800 39.29100
C  -4.79900 37.37200 40.48700
C  -6.54600 35.59000 37.50600
C  -6.95700 36.47700 36.35100
H  -8.23600 36.10900 35.56600
N  -8.63800 41.11000 39.70900
C  -7.35800 41.22000 39.27600
C  -7.00900 42.62200 38.97500
C  -8.19400 43.39600 39.19700
C  -9.14800 42.40800 39.66700
C  -5.65800 43.08500 38.49100
C  -8.29500 44.84500 38.95300
O  -7.30000 45.48500 38.60200
C  -9.60200 45.59600 39.24100
N  -11.55600 40.38700 40.34400
C  -11.48400 41.77500 40.39300
C  -12.89300 42.40100 40.66300
C  -13.84300 41.14300 40.71000
C  -12.84900 39.96400 40.59000
C  -12.91300 43.27500 41.97200
C  -14.82800 41.11300 39.47700
C  -16.13900 40.27900 39.70100
N  -10.89500 37.66000 40.46600
C  -12.27100 37.48900 40.60200
C  -12.54100 36.06200 40.64100
C  -11.35700 35.46400 40.26300
C  -10.41700 36.47800 40.11800
C  -13.92700 35.49500 40.96600
C  -10.69700 34.10000 39.87500
O  -11.04000 32.91400 39.73900
C  -9.21500 34.42600 39.39000
C  -8.25700 33.46600 40.05100
O  -8.33600 33.26800 41.21500
O  -7.33600 32.92200 39.15400
C  -6.23700 32.27500 39.87200
H  -5.46800 40.27600 38.93800
H  -10.82600 43.62000 40.14200
H  -14.21700 38.38500 40.93000
H  -6.34100 35.37800 39.67000
H  -5.06500 37.74300 38.35800
H  -4.97800 36.42300 40.99300
H  -5.02400 38.11100 41.25600
H  -3.77100 37.39300 40.12500
H  -7.15200 34.68900 37.41600
H  -5.51100 35.36600 37.25000
H  -6.13900 36.63000 35.64700
H  -7.18300 37.44400 36.80000
H  -5.73500 43.42900 37.46000
H  -4.90900 42.29800 38.58200
H  -5.25900 43.86200 39.14400
H  -9.91500 45.52700 40.28300
H  -10.42700 45.22300 38.63400
H  -9.44900 46.62900 38.93100
H  -13.15400 43.04000 39.82000
H  -14.36000 40.98800 41.65700
H  -13.33800 42.79800 42.85500
H  -13.53900 44.12500 41.70300
H  -11.91600 43.61500 42.25200
H  -14.32700 40.78400 38.56700
H  -15.11000 42.16000 39.36400
H  -16.26900 40.04300 40.75800
H  -16.05600 39.38400 39.08400
H  -16.98500 40.87300 39.35600
H  -14.45100 35.99200 41.78300
H  -13.72300 34.44600 41.18200
H  -14.56300 35.49000 40.08100
H  -9.25000 34.24600 38.31600
H  -5.32300 32.58200 39.36200
H  -6.40500 31.19900 39.83300
H  -6.10500 32.51100 40.92800
Mg -12.96000 15.65800 41.99000
C  -9.89000 14.22800 41.67400
C  -11.61800 18.61700 40.39200
C  -16.05600 17.07000 41.72700
C  -14.29300 12.69600 42.99700
N  -10.91400 16.29700 41.19100
C  -9.79300 15.53600 41.18700
C  -8.59700 16.14800 40.42600
C  -9.18300 17.57800 40.08900
C  -10.71600 17.49300 40.52300
C  -8.44500 18.78100 40.75800
C  -8.43700 15.27800 39.14200
C  -7.01400 14.91100 38.73000
H  -6.34200 15.81700 37.67400
N  -13.73800 17.61700 41.31200
C  -13.00000 18.64800 40.72600
C  -13.90200 19.66700 40.33800
C  -15.22100 19.17100 40.51000
C  -15.05900 17.91700 41.24800
C  -13.47800 20.94000 39.57500
C  -16.54300 19.83000 40.14100
O  -16.60200 20.99600 39.75800
C  -17.90700 19.15300 40.31500
N  -14.89300 14.96400 42.30400
C  -16.01400 15.75400 42.25400
C  -17.25900 14.85100 42.60800
C  -16.69800 13.38900 42.82800
C  -15.17800 13.67100 42.72700
C  -18.10500 15.35500 43.84000
C  -17.31700 12.25500 41.93100
C  -17.63700 10.89700 42.51600
N  -12.33300 13.84200 42.29100
C  -12.94700 12.68700 42.84100
C  -11.97700 11.62100 43.12400
C  -10.73900 12.21800 42.72200
C  -11.01200 13.55200 42.20200
C  -12.19400 10.21700 43.64900
C  -9.35600 12.06600 42.73300
O  -8.73600 11.07100 43.16800
C  -8.74600 13.21200 41.89200
C  -7.60800 13.76000 42.67800
O  -7.60600 14.17500 43.79700
O  -6.51300 13.82300 41.87300
C  -5.27300 14.36900 42.52100
H  -11.27600 19.53800 39.91500
H  -17.12000 17.31300 41.76600
H  -14.70600 11.81600 43.49400
H  -7.68900 16.12800 41.02900
H  -9.12800 17.77300 39.01800
H  -7.39200 18.62200 40.98600
H  -8.79800 18.92200 41.77900
H  -8.63100 19.73700 40.26800
H  -8.76800 15.87500 38.29200
H  -9.10300 14.42600 39.00400
H  -7.01600 13.91400 38.29100
H  -6.32100 14.81700 39.56600
H  -14.27700 21.27900 38.91600
H  -12.65100 20.84200 38.87200
H  -13.18800 21.77500 40.21200
H  -17.82100 18.24800 39.71400
H  -18.61500 19.88100 39.91800
H  -18.11100 19.11900 41.38500
H  -17.90300 14.93700 41.73300
H  -16.96800 13.06200 43.83200
H  -18.64900 14.59900 44.40600
H  -18.91400 16.04600 43.60500
H  -17.31100 15.73900 44.48200
H  -16.89700 12.15000 40.93100
H  -18.25100 12.74100 41.64900
H  -17.28600 10.15100 41.80200
H  -18.68900 10.68500 42.70900
H  -17.07500 10.80400 43.44500
H  -12.56600 10.15300 44.67200
H  -11.28800 9.62400 43.52500
H  -13.00200 9.80600 43.04400
H  -8.40400 12.77700 40.95300
H  -4.64800 13.56400 42.90600
H  -5.47500 15.18600 43.21300
H  -4.69400 14.85400 41.73500

