158

Mg 47.37500 25.77300 27.62500
C  48.17400 28.18200 30.15300
C  47.02400 23.49500 30.13900
C  46.91800 23.40600 25.21800
C  48.91000 27.83600 25.26300
N  47.51300 25.89100 29.81400
C  47.72700 26.97000 30.66600
C  47.59300 26.64800 32.11100
C  47.50300 25.08300 32.05200
C  47.33900 24.81400 30.60900
C  48.72000 24.28300 32.70900
C  46.44500 27.45600 32.78900
C  45.84300 26.96200 34.12900
H  45.80300 27.93200 35.28900
N  46.90600 23.72900 27.63300
C  46.79500 22.97000 28.82900
C  46.29200 21.63400 28.53000
C  46.19000 21.60200 27.04700
C  46.74400 22.89100 26.55400
C  46.10700 20.56800 29.55600
C  45.69700 20.48800 26.15700
O  45.75800 20.59300 24.93600
C  45.13500 19.25500 26.64400
N  47.79700 25.62500 25.51000
C  47.52300 24.58100 24.69100
C  47.89800 24.87400 23.21400
C  48.08200 26.42700 23.25400
C  48.32100 26.63900 24.75700
C  49.03600 23.94800 22.73800
C  46.92200 27.29000 22.65000
C  47.35500 28.49800 21.79800
N  48.29000 27.64800 27.63900
C  48.93300 28.26800 26.63100
C  49.34600 29.59200 27.13400
C  49.06600 29.59600 28.51800
C  48.47200 28.38000 28.79100
C  49.88000 30.70000 26.32400
C  49.15600 30.38900 29.76400
O  49.68200 31.51200 29.93100
C  48.58100 29.48400 30.93500
C  49.62700 29.28800 31.95500
O  50.54000 28.40900 32.00900
O  49.25900 30.05900 33.06000
C  49.82400 29.57200 34.31700
H  46.87300 22.71000 30.88400
H  46.85000 22.67700 24.40800
H  49.32600 28.48200 24.48800
H  48.58400 26.90400 32.48400
H  46.65000 24.77100 32.65500
H  49.51000 24.91900 33.10800
H  49.24900 23.71600 31.94300
H  48.33600 23.58200 33.45000
H  45.61000 27.55200 32.09600
H  46.90800 28.43000 32.94900
H  46.22100 25.96600 34.36100
H  44.77700 26.77000 34.01100
H  45.07400 20.22500 29.51300
H  46.19400 20.88000 30.59600
H  46.77700 19.76000 29.26400
H  44.21600 19.40400 27.20900
H  45.92700 18.72800 27.17500
H  44.78000 18.72600 25.76000
H  47.04900 24.60900 22.58500
H  49.03800 26.52000 22.73900
H  49.38100 23.38000 23.60100
H  49.80900 24.57500 22.29400
H  48.52800 23.26800 22.05400
H  46.31500 27.63900 23.48500
H  46.22900 26.66300 22.08900
H  47.45000 29.37600 22.43800
H  46.53400 28.65200 21.09800
H  48.26300 28.32500 21.22000
H  49.16100 31.06600 25.59100
H  50.81100 30.47900 25.80300
H  50.09400 31.47100 27.06500
H  47.71300 29.89600 31.45100
H  50.90800 29.48400 34.23700
H  49.29400 28.64100 34.51500
H  49.63400 30.33900 35.06900
Mg 42.09900 41.36900 26.91600
C  41.23700 43.89600 29.11200
C  42.92200 39.54500 29.64500
C  43.32200 39.03500 24.85200
C  42.19800 43.68400 24.31300
N  41.99400 41.65400 29.10500
C  41.44000 42.71800 29.78500
C  41.31900 42.40400 31.31600
C  42.17000 41.18100 31.49600
C  42.43800 40.74400 29.98400
C  43.54600 41.34900 32.19300
C  39.88400 42.52800 31.82800
C  39.37700 41.66000 33.03100
H  38.70700 42.31100 34.24100
N  42.76900 39.45600 27.19600
C  43.03700 38.90000 28.39500
C  43.62100 37.55200 28.28800
C  43.66100 37.37400 26.87100
C  43.24600 38.64900 26.21500
C  44.07200 36.65300 29.47200
C  43.93100 36.13100 26.07500
O  43.99500 36.05700 24.84900
C  44.20600 34.92800 26.88100
N  42.64900 41.32500 24.85200
C  43.02300 40.20900 24.21900
C  42.97800 40.42100 22.61200
C  42.69800 41.97100 22.51600
C  42.50700 42.38900 23.98800
C  44.21700 39.95700 21.89900
C  41.61000 42.37100 21.58800
C  41.80500 43.70000 20.95300
N  41.75000 43.41400 26.71700
C  41.79100 44.19600 25.60000
C  41.48800 45.54000 25.96300
C  41.18600 45.48200 27.33300
C  41.44000 44.16700 27.73100
C  41.31200 46.59600 24.91500
C  40.70600 46.23600 28.43700
O  40.34600 47.40200 28.54900
C  40.78900 45.20800 29.70200
C  41.77600 45.76000 30.68100
O  42.99800 45.75700 30.61700
O  41.17000 46.27200 31.80100
C  41.98300 46.73600 32.95300
H  43.15300 38.94800 30.52900
H  43.74000 38.27500 24.19000
H  42.37500 44.40000 23.50800
H  41.90700 43.26100 31.64500
H  41.56100 40.53000 32.12200
H  44.41300 41.37700 31.53300
H  43.67600 40.62600 32.99900
H  43.58400 42.28600 32.74900
H  39.29900 42.19700 30.96900
H  39.74200 43.60500 31.92400
H  40.16500 41.09300 33.52900
H  38.90300 40.85100 32.47600
H  43.76300 35.60900 29.41800
H  43.68900 36.87000 30.46900
H  45.16200 36.64800 29.46100
H  44.93200 35.09700 27.67600
H  44.53700 34.06200 26.30800
H  43.34800 34.74500 27.52800
H  42.07900 39.93100 22.23700
H  43.64400 42.41400 22.20500
H  44.79900 40.71300 21.37200
H  44.12800 39.06700 21.27600
H  44.91400 39.59600 22.65500
H  40.62000 42.37000 22.04400
H  41.67700 41.68300 20.74500
H  41.48800 43.49400 19.93000
H  42.82500 44.05800 20.81200
H  41.19700 44.45200 21.45600
H  40.74800 46.18100 24.07900
H  42.33000 46.87500 24.64200
H  40.76900 47.44300 25.33400
H  39.82400 45.13000 30.20300
H  41.44000 47.62600 33.27200
H  43.01600 47.01300 32.74600
H  41.87800 46.02600 33.77400

