158

Mg 47.66500 24.92400 28.97800
C  47.98600 27.30400 31.43000
C  46.66100 22.70100 31.39800
C  47.55700 22.45300 26.58400
C  48.87600 27.16100 26.58300
N  47.42300 25.01800 31.22500
C  47.52400 26.08000 31.98900
C  47.20700 25.81500 33.43600
C  46.83300 24.31900 33.37000
C  47.01300 23.95800 31.87400
C  47.71500 23.44300 34.35000
C  45.98700 26.65100 33.96900
C  46.04300 27.45400 35.30200
H  46.57400 26.68100 36.50200
N  47.21700 22.89900 28.96700
C  46.73600 22.16900 30.05900
C  46.21000 20.94400 29.58100
C  46.36900 20.96400 28.12500
C  47.14000 22.13500 27.86500
C  45.60000 19.81200 30.38300
C  45.85400 19.93500 27.02800
O  45.89900 20.06000 25.81700
C  44.99000 18.77200 27.50800
N  48.20000 24.78600 26.87700
C  48.12300 23.67500 26.07000
C  48.54700 24.03900 24.61600
C  48.91700 25.52200 24.65600
C  48.60700 25.85000 26.10900
C  49.58900 23.03700 24.16400
C  48.31800 26.42200 23.57100
C  46.80700 26.54900 23.65400
N  48.30700 26.80400 29.01800
C  48.80900 27.61000 27.99200
C  49.16700 28.93300 28.46200
C  48.87900 28.92200 29.82500
C  48.30000 27.57500 30.10600
C  49.72700 30.03500 27.61900
C  48.84500 29.63400 31.04800
O  49.12400 30.81300 31.21100
C  48.44000 28.63000 32.11800
C  49.52100 28.33100 33.05200
O  50.59200 27.85000 32.65500
O  49.33000 28.93000 34.24300
C  50.45700 28.84400 35.18300
H  46.28000 22.05200 32.18900
H  47.27400 21.72400 25.82200
H  49.39200 27.91100 25.98000
H  48.13100 26.02700 33.97500
H  45.80500 24.16100 33.69500
H  47.06700 23.15800 35.17900
H  48.51900 24.00000 34.83100
H  48.14600 22.58200 33.84000
H  45.09400 26.04400 34.12200
H  45.80700 27.40600 33.20400
H  45.00500 27.70700 35.52000
H  46.64200 28.33600 35.07800
H  44.53500 19.75700 30.15600
H  45.61800 19.86800 31.47100
H  46.05900 18.92900 29.93800
H  44.16500 19.19700 28.08000
H  45.50200 18.05800 28.15400
H  44.62000 18.27600 26.61100
H  47.74200 23.95100 23.88600
H  49.98400 25.58500 24.44600
H  49.93300 22.44800 25.01400
H  50.46400 23.60600 23.85000
H  49.26000 22.31300 23.41900
H  48.59500 26.01000 22.60100
H  48.75600 27.41500 23.46800
H  46.46200 27.57400 23.78800
H  46.40600 26.13300 24.57900
H  46.25400 26.18300 22.78900
H  48.97500 30.14700 26.83700
H  50.70400 29.69200 27.28000
H  49.77400 30.93700 28.22900
H  47.59000 28.97800 32.70500
H  50.03300 29.15200 36.13900
H  51.31700 29.51000 35.12000
H  50.78400 27.80500 35.23900
Mg 0.66100 43.08700 25.80800
C  2.61700 43.22400 28.64100
C  -1.99600 42.00700 27.88700
C  -1.29600 42.45800 23.19700
C  3.47300 43.34600 23.79400
N  0.31300 42.73900 28.05500
C  1.26600 42.89900 28.99500
C  0.69300 42.86000 30.42700
C  -0.80700 42.35600 30.14800
C  -0.90400 42.43500 28.59100
C  -1.08500 40.90200 30.70300
C  0.79300 44.29200 31.05300
C  0.92700 44.42600 32.62200
H  0.45700 43.22300 33.38500
N  -1.43300 42.47700 25.64800
C  -2.30800 42.11900 26.57000
C  -3.62600 41.64000 25.95700
C  -3.41600 41.83900 24.59200
C  -2.01000 42.31500 24.41300
C  -4.89000 41.28100 26.79000
C  -4.30400 41.66600 23.39200
O  -4.04700 41.93000 22.24600
C  -5.67600 41.19400 23.69000
N  1.11000 42.72000 23.77900
C  0.03300 42.77200 22.86200
C  0.60300 42.63900 21.45800
C  2.06600 43.04500 21.64000
C  2.24100 43.17300 23.13000
C  0.36400 41.25400 20.77500
C  2.40200 44.41500 20.97300
C  1.95500 45.70000 21.71000
N  2.62800 43.33300 26.10600
C  3.68100 43.35700 25.19800
C  4.90600 43.54900 25.96200
C  4.54000 43.51100 27.31300
C  3.16300 43.34200 27.35000
C  6.34500 43.61300 25.39800
C  5.07900 43.48100 28.63000
O  6.25000 43.47400 29.02600
C  3.80300 43.49800 29.58300
C  3.98200 42.50000 30.64800
O  3.87800 41.31500 30.53600
O  4.13800 43.06700 31.83600
C  4.30400 42.19400 32.99600
H  -2.76400 41.64500 28.57300
H  -1.85800 42.34500 22.26700
H  4.33000 43.47200 23.12900
H  1.29600 42.22500 31.07600
H  -1.56500 43.02800 30.54900
H  -0.52200 40.63200 31.59600
H  -0.82600 40.21400 29.89900
H  -2.13100 40.87900 31.00700
H  -0.09200 44.88400 30.81900
H  1.67000 44.82400 30.68400
H  0.43500 45.34200 32.95000
H  1.98200 44.61400 32.82300
H  -5.37200 40.47200 26.24100
H  -5.54700 42.12200 27.00900
H  -4.68600 40.95400 27.81000
H  -5.95100 41.70200 24.61400
H  -5.65500 40.11700 23.85800
H  -6.30600 41.54400 22.87200
H  0.10700 43.43200 20.89900
H  2.74100 42.31100 21.20000
H  -0.19900 40.54500 21.38200
H  1.36900 40.84400 20.67000
H  -0.04000 41.35500 19.76700
H  2.13300 44.40700 19.91700
H  3.48500 44.43500 20.84700
H  0.98700 45.59800 22.20000
H  1.97600 46.55000 21.02800
H  2.79000 46.08500 22.29500
H  6.32200 43.57900 24.30800
H  7.04300 42.84300 25.72500
H  6.74700 44.58800 25.67500
H  3.73700 44.43300 30.13900
H  3.77700 42.71800 33.79400
H  5.35600 42.15300 33.27500
H  3.81900 41.21800 32.99200

