158

Mg 35.92800 1.24000 29.73000
C  33.79300 2.23700 32.37400
C  38.50400 0.96400 32.13200
C  38.11100 0.94400 27.26400
C  33.25800 1.72700 27.50700
N  36.11300 1.52500 32.02900
C  35.11400 1.96400 32.83700
C  35.61300 1.75800 34.32600
C  37.19800 1.75700 34.17400
C  37.27900 1.41000 32.67200
C  37.88400 3.14100 34.56800
C  34.93600 0.50100 35.05300
C  34.13200 0.76500 36.26600
H  34.47200 2.03700 37.01400
N  38.06100 0.82300 29.75700
C  38.86000 0.72200 30.80300
C  40.21400 0.45500 30.29500
C  40.08700 0.38700 28.86600
C  38.67000 0.71100 28.56700
C  41.36400 0.05100 31.29200
C  41.14400 0.27600 27.70200
O  40.87000 0.14700 26.49700
C  42.54600 0.11900 27.98800
N  35.73200 1.32300 27.68400
C  36.78200 1.25100 26.87300
C  36.36700 1.33200 25.40900
C  34.78100 1.44800 25.46100
C  34.53200 1.44800 26.96800
C  36.97600 2.56800 24.70800
C  34.12100 0.30200 24.71400
C  33.80400 -1.00000 25.47500
N  33.94000 1.76700 29.89800
C  33.00200 2.00200 28.91600
C  31.75100 2.53400 29.50600
C  31.99800 2.54400 30.88100
C  33.39400 2.11000 31.05600
C  30.47100 3.00200 28.75400
C  31.41300 2.89800 32.15800
O  30.29000 3.27600 32.48300
C  32.57000 2.65800 33.20700
C  32.74300 3.90500 33.99300
O  33.57700 4.75100 33.67100
O  31.85900 3.99300 35.04000
C  31.88800 5.22600 35.80500
H  39.34400 0.76900 32.80200
H  38.73800 0.74100 26.39300
H  32.47900 1.91700 26.76600
H  35.36500 2.71400 34.78800
H  37.55400 0.85900 34.67900
H  37.16000 3.89400 34.88000
H  38.38900 3.54000 33.68800
H  38.65100 3.12900 35.34200
H  35.73400 -0.21100 35.26200
H  34.40800 -0.02100 34.25500
H  34.12800 -0.05200 36.98800
H  33.06600 0.79700 36.04100
H  42.20200 -0.48100 30.84200
H  40.93800 -0.61000 32.04600
H  41.78000 0.94500 31.75700
H  42.59300 -0.82100 28.53800
H  42.76700 1.05300 28.50500
H  43.17200 0.06700 27.09800
H  36.71500 0.47300 24.83500
H  34.30900 2.35200 25.07600
H  36.16600 3.28200 24.56000
H  37.49300 2.36700 23.77000
H  37.63600 3.17300 25.32900
H  34.85000 -0.07200 23.99600
H  33.26700 0.66400 24.14100
H  34.39600 -1.86200 25.16400
H  32.82300 -1.43000 25.27100
H  33.80500 -0.91100 26.56100
H  30.67100 2.78100 27.70500
H  30.34900 4.05600 29.00400
H  29.73900 2.27300 29.10200
H  32.17700 1.90500 33.89000
H  31.59300 6.06000 35.16800
H  32.90000 5.44400 36.14500
H  31.24400 5.13800 36.67900
Mg 25.22100 50.40700 26.21400
C  23.40900 51.52400 29.02500
C  27.40900 48.87700 28.49500
C  27.38700 50.03000 23.69600
C  22.92800 51.90300 24.18200
N  25.36700 50.33700 28.48600
C  24.50500 50.80400 29.39200
C  24.93200 50.45700 30.80200
C  26.30700 49.73200 30.58000
C  26.32000 49.50900 29.10800
C  27.58500 50.58900 31.01000
C  23.89200 49.52800 31.54400
C  23.33000 50.06200 32.86300
H  24.23000 50.87000 33.79800
N  27.13900 49.63000 26.11400
C  27.83400 48.97900 27.11500
C  28.95300 48.34100 26.54800
C  29.04800 48.72100 25.18600
C  27.83800 49.54200 24.95000
C  29.94500 47.54300 27.41800
C  30.06500 48.26800 24.23100
O  30.00400 48.56000 23.02800
C  31.34400 47.60900 24.73300
N  25.20000 50.89200 24.30300
C  26.20300 50.65000 23.39900
C  25.83700 50.89800 21.85400
C  24.32400 51.29100 22.06800
C  24.04700 51.27200 23.55700
C  26.69500 52.06400 21.19200
C  23.24600 50.35600 21.44300
C  23.18100 50.47800 19.95100
N  23.46700 51.33900 26.48000
C  22.67500 51.98500 25.59500
C  21.47000 52.46500 26.19300
C  21.76500 52.32200 27.59300
C  23.02100 51.69600 27.67200
C  20.32300 53.10900 25.51500
C  21.33900 52.67100 28.93500
O  20.42000 53.36600 29.33400
C  22.36200 52.12200 29.83800
C  22.89500 53.30200 30.67800
O  23.70500 54.16600 30.36600
O  22.23500 53.27800 31.88500
C  22.32600 54.53600 32.71600
H  28.00300 48.31100 29.21600
H  28.02500 49.75300 22.85400
H  22.20000 52.40500 23.54100
H  24.98400 51.44400 31.26200
H  26.37100 48.83200 31.19100
H  27.93500 51.28200 30.24400
H  28.33700 49.95400 31.47900
H  27.23000 51.18400 31.85100
H  24.26500 48.53000 31.77200
H  23.08300 49.47700 30.81500
H  22.95300 49.23600 33.46600
H  22.38100 50.59800 32.88100
H  30.92700 48.01200 27.47000
H  29.98900 46.54200 26.98800
H  29.67500 47.43600 28.46900
H  31.89700 48.30300 25.36500
H  31.91600 47.31500 23.85300
H  31.21600 46.63400 25.20400
H  25.91000 50.08300 21.13300
H  24.05800 52.22900 21.58100
H  27.03400 52.79700 21.92500
H  26.04200 52.46500 20.41600
H  27.61400 51.69500 20.73800
H  22.30200 50.59900 21.93000
H  23.56700 49.36600 21.76500
H  23.37800 49.50600 19.49900
H  23.65600 51.30600 19.42500
H  22.10300 50.54900 19.80100
H  20.14300 52.48000 24.64300
H  20.49300 54.18000 25.41000
H  19.38600 53.05900 26.07000
H  21.81300 51.51000 30.55300
H  23.29500 54.54400 33.21500
H  21.43700 54.54000 33.34600
H  22.17700 55.36100 32.01900

