158

Mg 35.94500 49.47800 25.17100
C  36.39200 47.78400 28.30900
C  34.15600 51.79400 26.86600
C  35.20400 50.73600 22.22000
C  37.39400 46.72000 23.58500
N  35.24400 49.66900 27.31300
C  35.73700 48.98600 28.42200
C  35.42100 49.71700 29.70500
C  34.59200 50.97400 29.23600
C  34.67200 50.82000 27.72300
C  33.08600 50.98000 29.83500
C  36.73000 50.10200 30.39900
C  36.80400 49.84600 31.90600
H  35.52300 49.95400 32.78400
N  34.77100 50.96400 24.60700
C  34.11400 51.92400 25.48200
C  33.40300 52.88300 24.73400
C  33.67700 52.57100 23.35700
C  34.60500 51.40200 23.33900
C  32.35800 53.75200 25.32000
C  33.08400 53.14700 22.07600
O  33.43000 52.74000 20.94500
C  32.25000 54.42900 22.09600
N  36.14600 48.72100 23.18300
C  35.91500 49.48800 22.18000
C  36.38500 48.94500 20.82300
C  37.34500 47.78000 21.27000
C  36.89900 47.69300 22.74600
C  35.11800 48.50400 19.98700
C  38.81100 48.10700 20.96500
C  39.61300 47.07100 20.15000
N  36.61200 47.57900 25.74500
C  37.21900 46.60400 24.93500
C  37.70400 45.52800 25.78400
C  37.34500 45.92900 27.12500
C  36.72400 47.23400 27.02300
C  38.32000 44.24100 25.30700
C  37.50700 45.58400 28.52300
O  37.97900 44.61400 29.07600
C  36.87900 46.76000 29.29300
C  35.74200 46.19000 30.18000
O  34.62800 45.92100 29.82400
O  36.17900 46.07500 31.46500
C  35.06300 45.82400 32.39000
H  33.79700 52.63100 27.46900
H  35.01500 51.11800 21.21500
H  37.92200 45.87300 23.14300
H  34.74400 49.09200 30.28700
H  35.00900 51.95800 29.44600
H  32.43600 50.25100 29.35200
H  32.64200 51.97400 29.79000
H  33.12700 50.65000 30.87300
H  37.00400 51.15500 30.34100
H  37.58200 49.54700 30.00700
H  37.43900 50.66000 32.25700
H  37.22700 48.87700 32.17000
H  32.33800 54.73500 24.85100
H  32.59000 53.91300 26.37300
H  31.38100 53.30800 25.13000
H  32.71100 55.21100 22.70000
H  31.23700 54.19500 22.42400
H  32.14000 54.81200 21.08200
H  36.90900 49.62500 20.15200
H  37.09400 46.85800 20.74600
H  34.20600 48.63300 20.57000
H  35.15500 47.48600 19.59800
H  35.12600 49.02900 19.03300
H  39.35900 48.22900 21.90000
H  38.84200 49.12800 20.58300
H  39.06600 46.12800 20.17300
H  40.63600 46.95800 20.50800
H  39.57100 47.41200 19.11600
H  38.67600 44.31300 24.27900
H  37.55000 43.47200 25.35800
H  39.12200 43.95600 25.98800
H  37.55900 47.27300 29.97300
H  34.47300 44.94800 32.12100
H  34.27100 46.56000 32.25200
H  35.27200 45.63200 33.44300
Mg -12.88100 16.28700 40.99200
C  -9.85800 14.60000 40.35400
C  -11.35800 19.18600 39.73000
C  -15.93600 17.83000 40.61100
C  -14.49600 13.16100 40.95600
N  -10.81100 16.76700 40.15200
C  -9.74900 15.94600 40.05100
C  -8.66200 16.60500 39.28500
C  -9.08300 18.12400 39.31000
C  -10.48900 18.03900 39.80900
C  -8.08500 19.08300 40.06200
C  -8.35500 16.04500 37.85800
C  -6.87100 16.25500 37.47900
H  -6.26500 15.30700 36.48400
N  -13.51800 18.30100 40.51400
C  -12.72900 19.27300 39.95700
C  -13.57200 20.43800 39.79700
C  -14.90200 20.07400 40.16600
C  -14.83300 18.65700 40.44200
C  -13.07800 21.74300 39.24800
C  -16.04000 20.95200 40.16900
O  -15.89600 22.19200 39.87200
C  -17.35200 20.56100 40.80900
N  -14.99300 15.62800 40.90500
C  -16.05300 16.48500 40.81200
C  -17.38400 15.69500 40.99800
C  -16.91300 14.21800 40.95700
C  -15.35800 14.31200 40.95500
C  -18.19600 16.09100 42.18700
C  -17.37100 13.37600 39.79000
C  -18.16300 12.10500 40.08500
N  -12.36000 14.30500 41.01500
C  -13.10400 13.16300 41.06700
C  -12.19300 11.98800 41.07900
C  -10.87800 12.51700 40.94900
C  -11.06500 13.94200 40.85200
C  -12.48500 10.53900 40.96100
C  -9.44800 12.16600 40.68700
O  -8.88400 11.10300 40.46100
C  -8.75000 13.55400 40.38200
C  -7.80100 13.88900 41.44600
O  -8.02200 14.23800 42.59400
O  -6.56700 13.85300 40.86700
C  -5.44800 14.39000 41.74300
H  -10.80000 20.00400 39.26900
H  -16.93900 18.16800 40.34200
H  -14.93200 12.19600 41.22100
H  -7.72800 16.52700 39.84200
H  -9.02600 18.54600 38.30600
H  -7.69300 19.85000 39.39400
H  -7.19900 18.54200 40.39700
H  -8.47600 19.72600 40.84900
H  -8.95900 16.60000 37.14000
H  -8.67900 15.00900 37.75600
H  -6.25300 16.29800 38.37500
H  -6.76000 17.22800 37.00000
H  -13.78200 22.14900 38.52200
H  -12.16300 21.68800 38.65700
H  -12.79800 22.50600 39.97400
H  -18.06500 20.18700 40.07500
H  -17.87200 21.42800 41.21600
H  -17.11500 19.91900 41.65800
H  -18.03900 15.89900 40.15000
H  -17.29400 13.70600 41.84100
H  -19.15300 16.35900 41.73900
H  -17.58600 16.92200 42.54200
H  -18.24700 15.26100 42.89200
H  -16.54200 12.93400 39.23600
H  -17.97400 13.91100 39.05700
H  -17.89900 11.49100 39.22400
H  -19.24600 12.22300 40.12400
H  -17.81000 11.48600 40.91000
H  -13.27300 10.36900 40.22700
H  -12.59900 10.04900 41.92800
H  -11.63800 10.10800 40.42700
H  -8.17600 13.41100 39.46600
H  -4.55300 14.45500 41.12500
H  -5.27800 13.68000 42.55200
H  -5.53100 15.37900 42.19300

