158

Mg 35.58100 2.40700 30.14900
C  33.04900 3.14800 32.34100
C  37.86200 2.73700 32.65900
C  37.95100 1.83100 27.80300
C  33.22600 2.55600 27.45000
N  35.46600 2.93500 32.22800
C  34.32600 2.96200 32.94300
C  34.50700 2.93100 34.47700
C  36.06700 3.22500 34.49700
C  36.55700 2.94600 33.06500
C  36.39200 4.65600 34.87200
C  33.98400 1.66700 35.26500
C  33.60700 1.89200 36.79800
H  34.40700 2.93300 37.66400
N  37.59200 2.24900 30.29500
C  38.35100 2.45400 31.43300
C  39.77100 2.21300 31.06200
C  39.79200 1.80900 29.70900
C  38.40200 1.96100 29.22900
C  40.91400 2.19000 32.06900
C  40.94300 1.43700 28.74200
O  40.77400 0.90800 27.59400
C  42.38100 1.49200 29.18400
N  35.62400 2.39500 27.86700
C  36.76600 1.99800 27.23000
C  36.44900 1.69000 25.74700
C  34.96400 2.01700 25.65300
C  34.53800 2.42600 27.06300
C  37.35600 2.38300 24.74300
C  34.08500 0.88900 24.96500
C  33.58700 -0.27400 25.83600
N  33.50000 2.67900 29.91100
C  32.70100 2.73700 28.72600
C  31.31500 3.01600 29.15800
C  31.39800 3.25500 30.56100
C  32.73600 2.98800 30.94800
C  30.09400 3.23000 28.29700
C  30.73100 3.64800 31.79300
O  29.58100 4.06800 31.95200
C  31.74900 3.38400 33.01700
C  31.73500 4.62200 33.84700
O  32.35800 5.70900 33.69600
O  30.85100 4.40400 34.87200
C  31.06400 5.15900 36.13700
H  38.65900 2.93100 33.37900
H  38.67600 1.61300 27.01600
H  32.44400 2.48500 26.69100
H  33.98600 3.79800 34.88300
H  36.70500 2.61100 35.13300
H  37.16500 4.80900 35.62500
H  35.49600 5.17000 35.22100
H  36.61600 5.26000 33.99300
H  34.73000 0.87500 35.32500
H  33.14200 1.28300 34.68800
H  33.83300 0.94700 37.29300
H  32.53600 2.09500 36.79600
H  40.53400 2.17400 33.09100
H  41.57900 3.04100 31.92200
H  41.63100 1.37200 32.00500
H  42.97100 1.63300 28.27800
H  42.55800 0.52300 29.65100
H  42.55100 2.33800 29.85000
H  36.59300 0.61600 25.63600
H  34.87000 2.95700 25.11000
H  36.83500 2.94100 23.96400
H  37.98800 1.66300 24.22400
H  37.97500 3.03100 25.36300
H  34.67100 0.50100 24.13100
H  33.21000 1.32900 24.48500
H  34.05500 -1.15100 25.39000
H  32.49800 -0.31200 25.84600
H  33.91300 -0.14300 26.86800
H  29.17400 2.76800 28.65500
H  30.18000 2.72800 27.33400
H  30.01200 4.28900 28.05000
H  31.38300 2.59300 33.67200
H  30.82200 6.21900 36.06000
H  32.04400 4.92500 36.55400
H  30.38400 4.76000 36.89000
Mg 5.93800 55.14100 40.29800
C  5.58100 51.58400 40.38500
C  9.27700 54.62700 39.55300
C  6.10000 58.23500 39.35300
C  2.43400 55.39700 40.73800
N  7.19800 53.28000 39.99800
C  6.88700 51.97400 40.09000
C  8.04900 51.09900 39.81600
C  9.28100 52.09000 39.94000
C  8.54400 53.47600 39.79000
C  10.06000 52.08100 41.25100
C  7.99700 50.44600 38.40600
C  7.55600 51.36100 37.19300
H  6.26900 51.13700 36.39300
N  7.48700 56.26200 39.72000
C  8.80800 55.93100 39.46000
C  9.66800 57.04900 39.31000
C  8.72500 58.12800 39.15900
C  7.34600 57.61200 39.47400
C  11.20400 57.01800 39.07700
C  9.12200 59.57400 38.82100
O  10.29300 59.82100 38.58500
C  8.17600 60.74300 38.94400
N  4.46000 56.53800 39.87000
C  4.80300 57.82400 39.65300
C  3.58400 58.77600 39.65600
C  2.43900 57.86700 40.21600
C  3.15600 56.49800 40.37500
C  3.71000 60.16200 40.27700
C  1.25400 57.70700 39.28200
C  -0.10000 58.26900 39.78600
N  4.29200 53.82400 40.56600
C  2.95100 54.07800 40.81000
C  2.25900 52.79100 40.97900
C  3.21700 51.76500 40.98800
C  4.42200 52.43200 40.55000
C  0.79900 52.58400 41.09500
C  3.41300 50.33400 41.01900
O  2.61900 49.43500 41.27800
C  4.99400 50.22000 40.72500
C  5.05800 49.31300 39.57400
O  4.78000 49.51000 38.38900
O  5.62300 48.12900 40.06600
C  5.50800 46.93800 39.20100
H  10.35000 54.59300 39.35300
H  6.02500 59.30500 39.15100
H  1.38900 55.59600 40.98600
H  8.16800 50.41000 40.65200
H  10.01400 51.95500 39.14500
H  9.96500 52.99700 41.83300
H  11.09800 51.83600 41.02300
H  9.64500 51.38200 41.97700
H  7.28700 49.62100 38.46200
H  9.00700 50.05800 38.28200
H  8.37300 51.25600 36.47900
H  7.70900 52.43600 37.28800
H  11.28000 56.62800 38.06200
H  11.70000 56.32400 39.75600
H  11.69700 57.98300 39.19000
H  8.86600 61.57900 38.83100
H  7.57800 60.75900 39.85500
H  7.60400 60.67800 38.01800
H  3.41400 58.97900 38.59800
H  2.06800 58.20500 41.18300
H  2.77200 60.35500 40.79800
H  3.79500 60.95200 39.53000
H  4.56100 60.24600 40.95300
H  1.00500 56.69100 38.97700
H  1.38800 58.29400 38.37300
H  -0.16200 58.70700 40.78300
H  -0.82000 57.45200 39.80600
H  -0.47100 59.01400 39.08200
H  0.47400 52.75300 40.06900
H  0.34200 53.34900 41.72300
H  0.42700 51.62200 41.44700
H  5.39600 49.76700 41.63200
H  6.07900 46.08700 39.57000
H  5.83000 47.25300 38.20900
H  4.48200 46.57000 39.19000

