158

Mg -1.30400 17.76000 26.76600
C  -1.74000 15.43900 29.37400
C  -1.88000 20.26200 29.11300
C  -0.88800 19.90300 24.37300
C  -1.07100 15.05700 24.54800
N  -1.81300 17.80100 28.95400
C  -1.84600 16.75100 29.87900
C  -2.16300 17.26000 31.34600
C  -2.41700 18.77400 31.12400
C  -2.06700 18.95300 29.60500
C  -3.94100 19.07500 31.39500
C  -0.94500 16.96000 32.36100
C  -1.32100 16.14600 33.61700
H  -0.46600 16.34800 34.93700
N  -1.38000 19.77900 26.76400
C  -1.58100 20.67300 27.80700
C  -1.53400 22.05500 27.23600
C  -1.07300 21.94000 25.87600
C  -1.04500 20.44800 25.62500
C  -1.74200 23.22900 28.08500
C  -0.74700 23.08300 24.77000
O  -0.30500 22.87100 23.62600
C  -0.94700 24.50800 25.24000
N  -1.23900 17.52600 24.67000
C  -1.13700 18.60200 23.84400
C  -0.91800 18.25300 22.38700
C  -0.83800 16.67700 22.47100
C  -1.16600 16.35600 23.92100
C  -2.14100 18.78300 21.50000
C  0.48100 16.04800 21.99300
C  1.58000 15.99600 23.04400
N  -1.52100 15.70100 26.84100
C  -1.35900 14.69900 25.88200
C  -1.50000 13.35400 26.43500
C  -1.70900 13.70000 27.79600
C  -1.64800 15.05800 28.00400
C  -1.54600 11.95900 25.77200
C  -2.03700 13.06600 29.07600
O  -2.25400 11.88700 29.40400
C  -1.99100 14.16000 30.19100
C  -0.83300 13.68600 31.04600
O  0.34300 14.04400 31.01100
O  -1.41100 12.83700 32.02500
C  -0.41400 12.33000 33.04600
H  -2.08300 21.05700 29.83400
H  -0.81500 20.63400 23.56500
H  -0.85600 14.26100 23.83300
H  -3.06100 16.72200 31.64900
H  -1.72000 19.33200 31.74800
H  -4.10000 19.59200 32.34100
H  -4.54400 18.18700 31.20900
H  -4.27400 19.67300 30.54700
H  -0.58500 17.90600 32.76600
H  -0.13100 16.61500 31.72400
H  -1.14600 15.10900 33.33200
H  -2.37800 16.29900 33.83300
H  -0.84900 23.81400 28.30300
H  -2.08400 22.98600 29.09100
H  -2.46900 23.89300 27.61700
H  -2.02200 24.57000 25.41100
H  -0.60100 25.16100 24.43800
H  -0.37300 24.64200 26.15700
H  -0.00000 18.79100 22.14700
H  -1.56600 16.21500 21.80400
H  -2.61900 19.46500 22.20300
H  -2.83500 17.97300 21.27300
H  -1.91000 19.23600 20.53600
H  0.88400 16.55300 21.11500
H  0.26600 15.03300 21.65900
H  1.51200 16.71400 23.86100
H  2.53200 16.25200 22.57800
H  1.62900 14.97800 23.43200
H  -2.57300 11.61400 25.65600
H  -1.01700 11.22000 26.37300
H  -1.09800 11.91900 24.77900
H  -2.89100 14.34600 30.77600
H  -0.72000 11.35400 33.42200
H  -0.39200 12.98400 33.91700
H  0.56100 12.15400 32.59200
Mg 26.09300 1.59900 29.63300
C  28.09800 0.85000 32.51700
C  23.44700 1.70200 31.76600
C  24.25600 1.44500 26.98800
C  28.91700 0.78400 27.72400
N  25.83200 1.36900 31.93900
C  26.76800 1.11700 32.87200
C  26.17300 1.31200 34.25800
C  24.60600 1.32400 34.02400
C  24.58700 1.42000 32.46600
C  23.80900 0.07700 34.61600
C  26.76600 2.50100 35.05200
C  27.45000 2.09400 36.36900
H  27.13700 3.07500 37.53700
N  24.12600 1.72100 29.37800
C  23.18200 1.81800 30.34300
C  21.87300 1.90900 29.69700
C  22.07700 1.83700 28.29400
C  23.50500 1.66400 28.17500
C  20.52600 1.95300 30.47500
C  21.04600 1.74200 27.19000
O  21.36500 1.47900 26.03500
C  19.59500 1.89600 27.44300
N  26.60400 1.27300 27.54700
C  25.57600 1.24900 26.65500
C  26.11800 1.05000 25.19300
C  27.68800 0.96900 25.42100
C  27.75200 0.99100 27.01200
C  25.48000 -0.09800 24.40300
C  28.50500 2.15700 24.90800
C  29.86000 1.84900 24.26100
N  28.14300 1.06200 30.01300
C  29.13400 0.71300 29.12100
C  30.34300 0.26800 29.84900
C  29.97800 0.42600 31.18600
C  28.62700 0.78500 31.24300
C  31.67000 -0.22900 29.29800
C  30.43700 0.17000 32.52900
O  31.53200 -0.14500 32.94400
C  29.28900 0.53200 33.49100
C  29.09700 -0.64600 34.38500
O  28.43400 -1.65500 34.11000
O  29.61900 -0.37800 35.61000
C  29.39800 -1.35100 36.65900
H  22.62200 1.89500 32.45500
H  23.62400 1.28000 26.11300
H  29.79400 0.51000 27.13400
H  26.50500 0.44400 34.82700
H  24.19500 2.19500 34.53300
H  23.15100 -0.29300 33.82900
H  23.15400 0.50400 35.37600
H  24.49400 -0.65500 35.04300
H  25.88300 3.08800 35.30900
H  27.55100 2.97900 34.46600
H  28.53400 2.20100 36.32200
H  27.31100 1.08400 36.75400
H  20.71100 2.09500 31.54000
H  19.94900 1.04500 30.30100
H  19.99500 2.83100 30.10600
H  19.35100 2.86100 27.88800
H  19.23600 1.06600 28.05100
H  19.02800 1.82900 26.51500
H  25.93200 1.98900 24.67200
H  28.03400 -0.01800 25.11600
H  25.52500 -1.00000 25.01300
H  25.92900 -0.25900 23.42400
H  24.44200 0.22300 24.31800
H  28.72600 2.93300 25.64100
H  27.96600 2.56500 24.05300
H  30.65100 2.48300 24.66200
H  29.84200 2.09100 23.19800
H  30.12500 0.79500 24.34400
H  31.97800 0.31800 28.40700
H  31.67100 -1.29900 29.08800
H  32.46700 0.01300 30.00100
H  29.59200 1.29000 34.21300
H  30.31700 -1.37900 37.24400
H  29.24400 -2.38200 36.34100
H  28.57300 -1.02400 37.29200

