158

Mg 36.14100 1.81000 29.15600
C  33.96000 2.94500 31.71300
C  38.66500 1.81400 31.43900
C  38.37700 0.98600 26.65400
C  33.55600 1.99600 26.91600
N  36.23300 2.25700 31.33400
C  35.26800 2.67800 32.15900
C  35.83500 2.83700 33.53100
C  37.33100 2.86400 33.33800
C  37.45200 2.35300 31.90900
C  38.05100 4.18100 33.65900
C  35.25700 1.73600 34.51800
C  34.72900 2.32200 35.87400
H  35.48000 3.49800 36.58700
N  38.10000 1.30700 29.10100
C  38.96000 1.29600 30.19600
C  40.19300 0.65800 29.83100
C  40.18600 0.63200 28.44700
C  38.85200 0.97700 27.98200
C  41.26800 0.35300 30.86600
C  41.33800 0.28700 27.54700
O  41.23900 0.27900 26.31200
C  42.70400 -0.01300 28.05500
N  35.98800 1.55100 27.11300
C  37.03300 1.28300 26.25300
C  36.54700 1.32100 24.74900
C  34.94900 1.27600 24.87700
C  34.77000 1.60200 26.33900
C  36.94200 2.70300 24.19600
C  34.40800 -0.16300 24.48300
C  34.00500 -1.14000 25.53800
N  34.13800 2.37600 29.19600
C  33.18000 2.41100 28.19700
C  31.96400 2.86300 28.79300
C  32.20800 3.08400 30.13500
C  33.58100 2.83200 30.32600
C  30.56900 2.88100 28.21200
C  31.59800 3.56700 31.41100
O  30.45000 4.06000 31.59900
C  32.74800 3.45000 32.41400
C  32.95900 4.72300 33.08700
O  33.68600 5.63200 32.65700
O  32.14300 4.74200 34.22000
C  32.15600 6.01200 34.94500
H  39.50600 1.76400 32.13400
H  39.04900 0.70200 25.84200
H  32.83100 2.04100 26.10100
H  35.40400 3.73800 33.96900
H  37.72700 2.05900 33.95700
H  38.93000 3.98300 34.27200
H  37.37300 4.96200 34.00200
H  38.49300 4.58400 32.74800
H  35.99200 0.94900 34.68400
H  34.48100 1.18500 33.98600
H  34.68000 1.45800 36.53700
H  33.66600 2.53900 35.77100
H  41.63700 -0.65600 30.68200
H  40.94600 0.25800 31.90300
H  41.95300 1.20000 30.83700
H  43.36400 -0.09800 27.19100
H  42.76000 -0.99400 28.52600
H  43.02300 0.85200 28.63600
H  36.93400 0.56800 24.06100
H  34.45300 2.04700 24.28900
H  36.11900 3.34300 23.87700
H  37.60400 2.63400 23.33300
H  37.50800 3.16100 25.00800
H  34.96800 -0.66700 23.69600
H  33.49100 0.16400 23.99300
H  34.48400 -2.08500 25.28300
H  32.91800 -1.16400 25.46700
H  34.24700 -0.76800 26.53400
H  30.67900 2.57100 27.17300
H  30.10900 3.86400 28.10900
H  29.89000 2.22100 28.75200
H  32.40900 2.65300 33.07600
H  32.12800 6.72200 34.11800
H  33.06600 6.09100 35.54000
H  31.35500 6.26300 35.64000
Mg -5.82500 25.36000 26.51600
C  -3.90400 26.95700 28.89800
C  -6.73500 22.99600 28.95400
C  -7.42200 23.57200 24.13500
C  -4.21300 27.20800 23.96000
N  -5.35500 25.02700 28.66600
C  -4.77700 26.00500 29.44700
C  -5.02200 25.68300 30.91100
C  -5.45100 24.18900 30.90900
C  -5.89200 24.03800 29.40000
C  -4.32400 23.24900 31.24800
C  -5.92400 26.78600 31.55800
C  -5.50200 27.15300 33.01700
H  -5.09800 25.99300 33.95500
N  -6.96200 23.59000 26.60800
C  -7.24600 22.77100 27.63700
C  -7.91100 21.49200 27.24800
C  -8.19200 21.74000 25.88700
C  -7.51600 22.99800 25.47500
C  -8.38400 20.41100 28.18200
C  -9.00700 20.89000 24.88400
O  -9.15200 21.19200 23.73100
C  -9.53800 19.56900 25.38800
N  -5.67600 25.34800 24.36500
C  -6.65300 24.63900 23.64100
C  -6.64000 24.97200 22.20400
C  -5.50700 26.06400 22.08800
C  -5.20400 26.33100 23.55300
C  -6.32900 23.73000 21.24800
C  -5.95600 27.33100 21.36200
C  -5.63500 27.33100 19.84900
N  -4.34100 26.81500 26.41600
C  -3.79800 27.43200 25.34500
C  -2.76400 28.36700 25.79900
C  -2.74900 28.27400 27.16000
C  -3.71700 27.19300 27.48600
C  -2.05700 29.32600 24.84400
C  -2.15400 28.67700 28.45000
O  -1.25200 29.46800 28.78400
C  -2.84600 27.75200 29.62200
C  -1.66000 26.95900 30.20900
O  -0.89700 26.34300 29.48800
O  -1.67800 26.94300 31.58200
C  -0.82600 25.93500 32.18700
H  -7.09800 22.32300 29.73400
H  -7.94900 23.06300 23.32500
H  -3.71800 27.79300 23.18200
H  -4.04800 25.77900 31.39100
H  -6.25200 24.21200 31.64800
H  -3.59700 23.65400 31.95200
H  -3.80800 23.04300 30.31100
H  -4.65600 22.35900 31.78200
H  -6.92000 26.37300 31.72000
H  -5.98200 27.72900 31.01400
H  -6.33500 27.62600 33.53700
H  -4.56900 27.70900 32.92800
H  -8.28500 20.77900 29.20300
H  -7.83100 19.50700 27.92900
H  -9.43400 20.19700 27.98200
H  -9.91800 18.93900 24.58400
H  -10.42500 19.80200 25.97700
H  -8.75100 19.00400 25.88700
H  -7.65600 25.31800 22.01700
H  -4.66500 25.57000 21.60500
H  -6.35400 22.78300 21.78800
H  -5.44600 23.71700 20.61000
H  -7.13000 23.55200 20.53100
H  -5.57000 28.21900 21.86300
H  -7.03700 27.44900 21.42900
H  -6.60200 27.51300 19.38000
H  -5.09200 26.47500 19.44800
H  -5.02600 28.21400 19.65700
H  -2.83400 29.66600 24.16000
H  -1.36200 28.67500 24.31400
H  -1.59700 30.19700 25.31100
H  -3.24400 28.38000 30.41900
H  0.19600 26.30400 32.09600
H  -0.96900 25.02000 31.61200
H  -0.99200 25.75200 33.24800

