158

Mg 41.05200 41.50400 26.63000
C  40.42000 43.97200 29.11000
C  41.66800 39.36900 29.25500
C  42.14400 39.26500 24.32700
C  40.54600 43.91500 24.20000
N  41.22100 41.81000 28.98600
C  40.73200 42.81600 29.74800
C  40.64500 42.37200 31.22300
C  41.13400 40.90600 31.20200
C  41.21600 40.63900 29.68300
C  42.50900 40.72600 32.01500
C  39.21500 42.46200 31.80400
C  38.98000 41.92100 33.20300
H  38.34300 42.82700 34.32100
N  41.84300 39.56200 26.80200
C  42.07900 38.85900 27.97700
C  42.55600 37.49700 27.71100
C  42.58900 37.44700 26.23400
C  42.21600 38.81900 25.72100
C  42.84800 36.49900 28.87500
C  43.02100 36.25700 25.41000
O  43.18100 36.33900 24.18300
C  43.09000 34.92400 26.11700
N  41.38900 41.64100 24.56100
C  41.68200 40.50700 23.83700
C  41.26000 40.68600 22.36200
C  40.55400 42.06300 22.36600
C  40.80400 42.57100 23.81000
C  42.38500 40.57300 21.30200
C  39.10800 42.05100 21.97800
C  38.22600 40.98300 22.61000
N  40.69000 43.48700 26.57600
C  40.47600 44.35500 25.51900
C  40.18800 45.68500 25.95600
C  40.18700 45.62100 27.37200
C  40.42300 44.25200 27.72200
C  40.00700 46.97400 25.07200
C  39.93700 46.38300 28.56600
O  39.71500 47.55800 28.75500
C  40.17200 45.33400 29.83500
C  41.36500 45.98300 30.61300
O  42.57200 45.99200 30.30200
O  40.87600 46.46500 31.85400
C  41.80300 47.19700 32.67300
H  41.63700 38.65200 30.07800
H  42.46600 38.50700 23.61000
H  40.27300 44.67500 23.46400
H  41.25000 43.04300 31.83300
H  40.39500 40.19400 31.57000
H  42.73200 41.65500 32.53900
H  43.42700 40.50900 31.47000
H  42.36800 39.99300 32.80900
H  38.53900 41.89100 31.16600
H  38.81800 43.46600 31.65500
H  39.95500 41.65100 33.60900
H  38.34000 41.04900 33.06800
H  43.15000 37.03600 29.77400
H  43.73200 35.93800 28.57300
H  42.03300 35.78000 28.96000
H  42.12500 34.63400 26.53400
H  43.85800 35.00500 26.88600
H  43.38800 34.25600 25.30900
H  40.56200 39.92500 22.01300
H  41.05700 42.82900 21.77500
H  41.93400 40.63700 20.31100
H  43.01200 39.70200 21.48900
H  43.00500 41.46600 21.37700
H  39.05000 41.93400 20.89600
H  38.76500 43.04600 22.26200
H  37.39300 41.50500 23.08300
H  38.76600 40.26000 23.22100
H  37.85900 40.36400 21.79100
H  40.83200 47.68500 25.11100
H  39.21000 47.59100 25.48500
H  39.84700 46.63600 24.04800
H  39.30600 45.29400 30.49600
H  41.27200 47.99900 33.18600
H  42.71100 47.60900 32.23300
H  42.24200 46.51400 33.39900
Mg -5.37700 24.88400 26.27200
C  -3.80700 26.64500 28.96700
C  -6.48900 22.57600 28.61500
C  -6.51700 23.07800 23.70800
C  -3.97400 27.13200 24.08300
N  -5.20800 24.70300 28.51600
C  -4.59000 25.54900 29.38300
C  -4.84200 25.24300 30.82700
C  -5.72100 23.91200 30.72400
C  -5.88800 23.73700 29.20700
C  -5.02000 22.72200 31.42400
C  -5.72400 26.35200 31.55700
C  -6.03400 26.32000 33.05700
H  -5.62100 25.05400 33.85500
N  -6.27100 23.12900 26.19000
C  -6.70700 22.36700 27.25300
C  -7.44200 21.18500 26.69800
C  -7.41400 21.23500 25.24800
C  -6.70800 22.50600 25.00000
C  -8.12500 20.13000 27.55900
C  -8.04100 20.28300 24.23600
O  -7.85000 20.41400 23.03400
C  -8.87000 19.09000 24.71600
N  -5.02600 24.94800 24.22600
C  -5.71000 24.17900 23.40800
C  -5.81300 24.71300 21.90100
C  -4.88300 25.94300 22.01100
C  -4.63900 26.04400 23.48100
C  -5.37500 23.70500 20.82700
C  -5.34100 27.16700 21.28800
C  -4.58100 27.65700 20.06000
N  -4.10600 26.56500 26.46900
C  -3.51400 27.29200 25.45100
C  -2.62000 28.24100 26.00000
C  -2.74100 28.07300 27.38800
C  -3.63400 27.03700 27.64000
C  -1.81300 29.23800 25.15700
C  -2.29700 28.60700 28.69500
O  -1.55600 29.53600 28.96300
C  -2.93600 27.68700 29.75600
C  -1.84900 27.02400 30.41400
O  -0.95900 26.41800 29.87300
O  -1.93100 27.30100 31.77200
C  -1.06100 26.43200 32.59100
H  -6.74200 21.70900 29.23000
H  -7.06000 22.65600 22.86000
H  -3.76800 28.02300 23.48800
H  -3.85000 25.12700 31.26300
H  -6.73900 24.09500 31.06700
H  -4.76200 21.94500 30.70300
H  -5.74000 22.29200 32.12000
H  -4.08900 23.00100 31.91700
H  -6.64000 26.38100 30.96700
H  -5.07200 27.22200 31.48000
H  -7.10400 26.46800 33.19900
H  -5.55300 27.16400 33.55200
H  -9.16900 20.15700 27.24600
H  -8.17400 20.42200 28.60900
H  -7.70100 19.13500 27.43100
H  -8.42800 18.44100 25.47100
H  -8.95400 18.61500 23.73800
H  -9.86600 19.40200 25.03200
H  -6.84200 24.99600 21.68200
H  -3.89200 25.66700 21.65200
H  -6.17800 23.11700 20.38400
H  -4.55200 23.08100 21.17700
H  -5.00300 24.27700 19.97700
H  -5.37400 28.05200 21.92200
H  -6.39200 26.99900 21.05200
H  -5.23700 27.60600 19.19000
H  -3.70000 27.04300 19.87200
H  -4.21300 28.68200 20.10400
H  -0.84600 29.47500 25.60200
H  -2.46800 30.10000 25.03200
H  -1.78900 28.88000 24.12700
H  -3.57700 28.31300 30.37700
H  -1.49800 26.22900 33.56900
H  -0.17100 27.00600 32.84900
H  -1.02600 25.44700 32.12800

