158

Mg 30.20300 58.91800 40.68200
C  27.42000 57.10700 39.67200
C  32.31700 56.73700 39.23000
C  32.69100 61.34100 41.01200
C  27.81800 61.56000 41.67800
N  29.88300 57.18600 39.54500
C  28.71000 56.53600 39.34500
C  28.95100 55.33500 38.42800
C  30.48200 54.98200 38.62100
C  30.95400 56.35700 39.16400
C  30.79500 53.76400 39.48500
C  28.48700 55.65900 36.99000
C  27.55700 54.61500 36.28900
H  27.71800 54.50800 34.75600
N  32.29500 58.98800 40.13500
C  32.94100 57.94900 39.59300
C  34.30100 58.34900 39.35400
C  34.49200 59.67100 39.91400
C  33.08700 60.09700 40.40200
C  35.29000 57.56800 38.57400
C  35.82800 60.44900 39.86100
O  36.84200 59.86200 39.48000
C  35.87100 61.94300 39.98900
N  30.24600 61.15600 41.13800
C  31.41700 61.84900 41.25000
C  31.22700 63.24000 41.83500
C  29.67800 63.36500 42.13900
C  29.19100 61.95000 41.64800
C  32.08500 63.42800 43.25500
C  28.92300 64.57400 41.52700
C  28.25600 65.53000 42.55700
N  28.08200 59.23100 40.85600
C  27.32300 60.33200 41.17900
C  25.91200 59.96300 41.09800
C  25.95800 58.65700 40.59100
C  27.26000 58.33700 40.38900
C  24.82200 60.64800 41.66900
C  25.07800 57.55700 40.19100
O  23.87600 57.31800 40.30300
C  26.04200 56.54600 39.47800
C  25.72300 55.22800 40.00800
O  26.39000 54.68400 40.91100
O  24.63400 54.67300 39.39400
C  24.13300 53.37100 39.75500
H  32.81700 55.94100 38.67400
H  33.51000 62.01300 41.28000
H  27.02300 62.25600 41.95300
H  28.33100 54.49100 38.73100
H  30.97800 54.88700 37.65500
H  31.61400 53.18300 39.06200
H  29.96100 53.07500 39.62500
H  31.20400 54.16000 40.41400
H  29.34100 55.76800 36.32200
H  28.03000 56.64300 37.08900
H  26.56200 54.99200 36.52500
H  27.54100 53.61100 36.71300
H  36.18100 57.38900 39.17600
H  35.52800 58.01100 37.60600
H  34.75000 56.63500 38.41200
H  35.10700 62.40900 39.36700
H  36.85200 62.29800 39.67200
H  35.77500 62.27500 41.02300
H  31.45200 63.98300 41.07000
H  29.51700 63.34100 43.21600
H  32.05900 62.51800 43.85500
H  31.73300 64.30100 43.80400
H  33.11300 63.60500 42.93900
H  28.11900 64.19400 40.89600
H  29.55300 65.23100 40.92800
H  28.30800 66.55500 42.18900
H  28.81100 65.54700 43.49600
H  27.22700 65.24900 42.77800
H  25.19300 61.27000 42.48300
H  23.99000 60.03200 42.01100
H  24.45200 61.25900 40.84600
H  25.73900 56.51700 38.43100
H  24.76000 52.96200 40.54700
H  23.92300 52.70400 38.91800
H  23.14400 53.54800 40.17900
Mg 0.94400 43.71500 26.02100
C  3.01800 43.63100 28.81300
C  -1.59700 42.75900 28.17500
C  -1.26100 43.71800 23.36800
C  3.47300 44.55900 23.97700
N  0.72900 43.35000 28.24400
C  1.68400 43.42000 29.15800
C  1.05100 43.33900 30.61700
C  -0.35600 42.77600 30.33500
C  -0.40800 42.91500 28.80100
C  -0.78400 41.40800 30.90100
C  1.15600 44.66800 31.47800
C  0.79100 44.62000 32.97900
H  0.71800 43.28700 33.60800
N  -0.99400 43.20600 25.77400
C  -1.89600 42.80400 26.78200
C  -3.16400 42.50800 26.22500
C  -3.20600 43.00800 24.86100
C  -1.76000 43.33200 24.62400
C  -4.26900 41.77200 27.00300
C  -4.25700 43.07100 23.80900
O  -4.09400 43.35900 22.62400
C  -5.67900 42.64000 24.14700
N  1.11600 43.84500 23.86000
C  0.08900 43.95600 23.08400
C  0.52400 44.53800 21.69400
C  1.99300 45.00800 21.95800
C  2.19100 44.52000 23.34100
C  0.38000 43.65400 20.45100
C  2.25700 46.47700 21.82900
C  2.20300 47.14100 20.41300
N  2.84800 43.96700 26.26300
C  3.83700 44.27200 25.31600
C  5.13600 44.33700 25.98500
C  4.85300 44.00000 27.30900
C  3.44200 43.96700 27.44700
C  6.45800 44.77900 25.35900
C  5.35600 43.69700 28.64400
O  6.51800 43.67100 29.05300
C  4.19000 43.71100 29.68500
C  4.28500 42.43700 30.50500
O  3.99700 41.31800 30.15600
O  4.63100 42.79900 31.79200
C  4.94000 41.61200 32.63300
H  -2.31500 42.41700 28.92300
H  -1.86100 43.95700 22.48700
H  4.30700 44.94100 23.38600
H  1.63400 42.63500 31.21200
H  -1.13500 43.44900 30.69300
H  -0.04800 40.88900 31.51600
H  -1.14000 40.70800 30.14500
H  -1.66300 41.51000 31.53800
H  0.43200 45.36100 31.05100
H  2.17700 45.02700 31.34800
H  -0.15900 45.10800 33.19800
H  1.47800 45.18500 33.61000
H  -3.95500 41.07200 27.77700
H  -4.90900 41.17300 26.35500
H  -4.72300 42.53600 27.63400
H  -5.85500 43.21000 25.06000
H  -5.77900 41.58000 24.37800
H  -6.39400 42.89800 23.36600
H  -0.15700 45.37000 21.51600
H  2.75500 44.47300 21.39200
H  -0.25400 42.82800 20.77400
H  1.38100 43.29500 20.21400
H  -0.01800 44.23900 19.62100
H  3.20600 46.80400 22.25400
H  1.54100 46.96700 22.48900
H  2.33500 46.34900 19.67700
H  3.00100 47.85000 20.19200
H  1.29400 47.68000 20.14600
H  6.87400 45.49900 26.06400
H  6.26000 45.19600 24.37200
H  7.13700 43.92800 25.31500
H  4.25200 44.58100 30.33900
H  4.15100 40.89700 32.86800
H  5.33600 42.05600 33.54700
H  5.74800 41.00900 32.21900

