158

Mg -10.83500 38.03800 42.55800
C  -8.70200 35.42700 41.83300
C  -8.67400 40.16500 40.98800
C  -13.27400 40.43300 42.65700
C  -13.24100 35.55700 43.53000
N  -9.09100 37.66800 41.31000
C  -8.33900 36.53600 41.05300
C  -7.24300 36.83100 40.02800
C  -7.05900 38.34500 39.99000
C  -8.36900 38.79500 40.84400
C  -5.60400 38.90800 40.37000
C  -7.74800 36.20700 38.63600
C  -6.84700 35.10100 38.15100
H  -5.77500 35.58200 37.19000
N  -10.89200 40.08100 41.97800
C  -9.86000 40.77900 41.44100
C  -10.25400 42.19000 41.42600
C  -11.65400 42.28000 41.91500
C  -12.02000 40.92400 42.26500
C  -9.23800 43.17100 40.86400
C  -12.52300 43.58600 42.03500
O  -12.04200 44.73000 41.87700
C  -13.93500 43.55400 42.48400
N  -12.90600 38.00600 42.90700
C  -13.66200 39.13500 42.87700
C  -15.21000 38.80400 43.12000
C  -15.14500 37.23400 43.28000
C  -13.60900 36.93300 43.32000
C  -15.69100 39.53500 44.38800
C  -15.88600 36.44800 42.11100
C  -16.76700 35.27500 42.45000
N  -11.01200 35.98500 42.72100
C  -11.97900 35.16200 43.32400
C  -11.48100 33.86300 43.54000
C  -10.21200 33.85600 42.95200
C  -9.98300 35.20800 42.51300
C  -12.18100 32.76800 44.28700
C  -8.99200 33.14200 42.72600
O  -8.62300 32.00000 42.95800
C  -8.09100 34.07800 41.77900
C  -6.64200 34.12600 42.18000
O  -5.86900 33.21100 41.98300
O  -6.31800 35.20500 42.97700
C  -4.87200 35.33500 43.28300
H  -8.00700 40.96300 40.65600
H  -14.14600 41.06500 42.83600
H  -14.03800 34.89400 43.87400
H  -6.30100 36.37200 40.32800
H  -7.32900 38.58200 38.96100
H  -5.13400 39.16600 39.42000
H  -4.99000 38.15800 40.86800
H  -5.67000 39.74700 41.06200
H  -7.69900 36.95300 37.84200
H  -8.75100 35.80900 38.78700
H  -7.56500 34.44800 37.65500
H  -6.22500 34.68900 38.94600
H  -8.31900 43.01300 41.43000
H  -9.53100 44.21400 40.98400
H  -8.92900 42.96800 39.83900
H  -13.85200 43.04700 43.44500
H  -14.69600 43.13700 41.82500
H  -14.30600 44.54800 42.73700
H  -15.66800 39.18900 42.20900
H  -15.47500 36.95800 44.28100
H  -15.93900 40.51800 43.98700
H  -14.76900 39.61900 44.96300
H  -16.46300 39.00400 44.94400
H  -15.08800 36.12100 41.44500
H  -16.61000 37.09700 41.61700
H  -17.77800 35.60600 42.69000
H  -16.45600 34.81200 43.38600
H  -16.76000 34.52800 41.65600
H  -12.78300 33.22900 45.07000
H  -11.41900 32.17000 44.78800
H  -12.65500 32.11200 43.55800
H  -8.15300 33.64100 40.78200
H  -4.37200 35.75200 42.40900
H  -4.54500 34.37400 43.68000
H  -4.81100 36.04500 44.10800
Mg -12.66400 17.00000 40.84200
C  -9.59600 15.20700 40.72400
C  -11.19400 19.73600 39.31600
C  -15.72900 18.57900 40.94400
C  -14.07700 14.05000 41.85500
N  -10.66900 17.40900 40.14200
C  -9.56000 16.55700 40.14300
C  -8.35900 17.32000 39.53500
C  -8.84800 18.73800 39.19100
C  -10.33800 18.68700 39.58400
C  -8.03700 19.86200 39.95800
C  -7.74500 16.64700 38.37800
C  -6.34600 17.07600 38.05300
H  -6.09700 17.73500 36.70600
N  -13.35800 18.86600 40.28600
C  -12.55700 19.89100 39.71100
C  -13.34900 21.06800 39.54700
C  -14.64900 20.82100 40.00000
C  -14.64000 19.35900 40.42500
C  -12.78800 22.35600 39.00600
C  -15.78800 21.85200 40.09300
O  -15.75200 22.99900 39.62100
C  -17.06600 21.36200 40.80700
N  -14.61200 16.42300 41.24100
C  -15.65200 17.27600 41.33500
C  -16.93700 16.51800 41.74400
C  -16.44600 15.12400 42.08700
C  -14.94500 15.16400 41.68800
C  -17.68600 17.35600 42.88300
C  -17.27500 14.01800 41.41100
C  -17.66500 12.94100 42.42800
N  -12.07600 14.98100 41.14800
C  -12.69000 13.92700 41.70300
C  -11.86200 12.76300 41.90900
C  -10.58600 13.17700 41.50100
C  -10.77300 14.54500 41.10800
C  -12.34600 11.42900 42.28400
C  -9.19800 12.79100 41.27100
O  -8.64600 11.68000 41.34900
C  -8.50500 14.08900 40.70500
C  -7.32600 14.37400 41.53500
O  -7.28700 14.64200 42.77000
O  -6.19300 14.36500 40.68900
C  -4.85800 14.69200 41.29000
H  -10.78900 20.55600 38.72000
H  -16.74800 18.96100 41.03300
H  -14.70000 13.20500 42.15400
H  -7.64000 17.30800 40.35400
H  -8.80300 18.93800 38.12000
H  -7.66700 20.57600 39.22100
H  -7.14800 19.41800 40.40500
H  -8.78000 20.25100 40.65400
H  -8.47700 16.89200 37.60900
H  -7.83800 15.56300 38.44700
H  -5.82700 16.12500 38.16900
H  -5.77100 17.67600 38.75800
H  -13.32100 23.20200 39.44100
H  -12.80500 22.37400 37.91600
H  -11.74900 22.49200 39.30500
H  -17.59300 20.72600 40.09500
H  -17.66500 22.23500 41.06600
H  -16.78400 20.85400 41.72900
H  -17.51600 16.43300 40.82500
H  -16.71200 14.97300 43.13300
H  -18.64800 17.80300 42.63100
H  -17.03300 18.20300 43.09100
H  -17.89100 16.78800 43.79100
H  -16.60500 13.52400 40.70800
H  -18.14900 14.40700 40.88900
H  -18.73100 13.01200 42.64300
H  -17.17900 12.99500 43.40200
H  -17.56100 11.95200 41.98200
H  -11.62700 10.64300 42.05300
H  -13.33200 11.19600 41.88100
H  -12.47800 11.31300 43.36000
H  -8.11400 13.88800 39.70700
H  -4.50300 15.70600 41.10600
H  -4.12400 14.04000 40.81700
H  -4.75300 14.57600 42.36800

