158

Mg 40.35000 9.53300 29.63800
C  42.66400 10.57200 32.14400
C  38.17300 8.59000 32.06600
C  38.26700 8.47600 27.19000
C  42.92900 9.88000 27.28900
N  40.48500 9.43600 31.79300
C  41.44100 10.12500 32.63900
C  40.92400 10.14600 34.11700
C  39.63300 9.16500 34.11700
C  39.43000 9.06100 32.56400
C  39.77100 7.83900 34.88700
C  40.77300 11.61300 34.70600
C  40.00800 11.74200 36.03600
H  40.34700 12.79100 37.09100
N  38.51400 8.49200 29.64200
C  37.77800 8.22000 30.73600
C  36.58100 7.57800 30.34900
C  36.67900 7.37500 28.93500
C  37.84600 8.15900 28.49200
C  35.41300 7.14900 31.29700
C  35.82800 6.61400 28.03900
O  36.15000 6.41600 26.88700
C  34.64200 5.99100 28.62000
N  40.57700 9.17600 27.53400
C  39.55000 8.90600 26.75500
C  39.94600 8.96400 25.24600
C  41.51300 9.10700 25.29200
C  41.71800 9.34900 26.78400
C  39.56900 7.67400 24.37300
C  42.05800 10.20400 24.34800
C  42.11000 11.68800 24.85900
N  42.31600 10.22000 29.61000
C  43.24300 10.35500 28.61300
C  44.43600 10.97100 29.09700
C  44.16900 11.11700 30.46900
C  42.91400 10.64200 30.76700
C  45.60200 11.38200 28.30000
C  44.77200 11.69800 31.61100
O  45.87200 12.28600 31.77600
C  43.78500 11.36400 32.76600
C  44.49700 10.53000 33.76700
O  44.72500 9.34900 33.76200
O  44.78000 11.37200 34.80200
C  45.36100 10.73600 35.99600
H  37.43800 8.36100 32.84100
H  37.57700 8.22700 26.38100
H  43.73000 9.86900 26.54700
H  41.63000 9.73300 34.83800
H  38.87500 9.80600 34.56800
H  40.80800 7.56500 35.08100
H  39.27800 7.11600 34.23700
H  39.17100 7.76800 35.79400
H  40.29800 12.23500 33.94700
H  41.70300 12.14100 34.91800
H  39.93100 10.80400 36.58700
H  38.96800 11.96900 35.80300
H  35.66800 7.75300 32.16800
H  35.48900 6.09300 31.55900
H  34.38500 7.42500 31.06600
H  34.86700 5.43500 29.53000
H  34.20700 5.28200 27.91500
H  33.84400 6.67900 28.90000
H  39.45700 9.72700 24.64100
H  42.02800 8.18200 25.03200
H  39.54700 6.78800 25.00700
H  40.30700 7.48600 23.59400
H  38.60700 7.96200 23.94900
H  41.68400 10.21000 23.32400
H  43.13400 10.03200 24.37200
H  41.26200 11.86800 25.51900
H  41.99200 12.33900 23.99300
H  43.05500 11.89100 25.36400
H  45.49000 12.30900 27.73800
H  46.09700 10.70200 27.60700
H  46.40300 11.59600 29.00900
H  43.41000 12.31500 33.14500
H  44.75700 9.88700 36.31500
H  45.61000 11.44400 36.78600
H  46.31900 10.26900 35.76900
Mg 29.13600 56.66400 41.21000
C  26.38800 54.85200 39.77000
C  31.21600 54.44300 39.92000
C  31.39900 59.14800 41.27600
C  26.67900 59.21900 41.91400
N  28.79000 54.95700 39.77200
C  27.67300 54.30700 39.52300
C  28.05700 53.05000 38.65200
C  29.49800 52.64500 39.23100
C  29.88100 54.10200 39.65900
C  29.49400 51.60200 40.38400
C  28.10900 53.49900 37.16000
C  27.02600 52.89300 36.25600
H  26.34500 53.80800 35.25700
N  31.03400 56.68100 40.88300
C  31.72700 55.64500 40.33100
C  33.12200 56.01400 40.41400
C  33.21900 57.35400 40.74900
C  31.86900 57.80900 40.97600
C  34.21800 54.99200 40.01400
C  34.55500 58.07500 40.69900
O  35.63400 57.57000 40.41400
C  34.66700 59.48200 41.00000
N  29.08300 58.92800 41.57300
C  30.18300 59.65100 41.64900
C  29.93900 61.08800 42.06400
C  28.41800 61.03600 42.50000
C  28.03300 59.66400 41.89900
C  30.92300 61.60000 43.16500
C  27.56300 62.23400 41.92600
C  26.80600 62.99600 42.93000
N  27.00300 57.01800 40.98300
C  26.17100 58.04000 41.35600
C  24.74500 57.77100 41.02600
C  24.85800 56.42200 40.52000
C  26.25400 56.06700 40.44300
C  23.57700 58.64700 41.31300
C  24.08700 55.33300 40.02600
O  22.88400 55.24200 39.86000
C  25.00400 54.23100 39.52500
C  24.75800 53.10400 40.32400
O  25.27500 52.86300 41.41200
O  23.90100 52.15200 39.64100
C  23.58300 50.98600 40.49900
H  31.92400 53.64800 39.67700
H  32.14000 59.94700 41.34100
H  26.00900 60.01900 42.23700
H  27.38100 52.19900 38.74000
H  30.10500 52.37700 38.36700
H  29.83100 50.64100 39.99600
H  28.54700 51.50700 40.91500
H  30.12400 51.86500 41.23400
H  29.05800 53.27300 36.67600
H  27.89600 54.56800 37.16900
H  26.32000 52.30600 36.84200
H  27.51200 52.14400 35.63000
H  34.68200 55.35500 39.09700
H  33.79000 54.00700 39.82200
H  34.95500 54.85700 40.80500
H  34.09100 60.14000 40.34900
H  35.71500 59.74100 41.15700
H  34.31900 59.57100 42.02900
H  30.14500 61.62200 41.13600
H  28.31600 60.82500 43.56500
H  31.52600 62.38600 42.71000
H  31.61000 60.90200 43.64500
H  30.24000 62.11800 43.83700
H  26.88600 61.79400 41.19400
H  28.19700 62.84300 41.28200
H  26.89600 62.59000 43.93700
H  25.76800 62.80800 42.65400
H  27.10100 64.04100 42.83700
H  23.10200 58.53400 42.28800
H  22.87600 58.43400 40.50600
H  23.94000 59.66300 41.15800
H  24.79800 54.02100 38.47500
H  23.55300 51.25300 41.55600
H  24.34600 50.21500 40.39400
H  22.65100 50.49400 40.21800

