158

Mg 25.43900 1.99300 29.99800
C  27.41500 1.55700 32.82500
C  22.55100 1.78800 32.03200
C  23.52200 1.92500 27.22100
C  28.29500 1.30300 27.90900
N  25.02500 1.78800 32.21200
C  26.05500 1.67400 33.11100
C  25.43400 1.68200 34.52900
C  23.86000 1.53000 34.31300
C  23.77700 1.70500 32.75500
C  23.23400 0.18100 34.80200
C  25.71500 2.99100 35.24700
C  26.37900 2.96300 36.65200
H  25.76700 3.79300 37.75600
N  23.33300 1.93500 29.67300
C  22.33600 1.91700 30.64700
C  21.07200 1.87600 29.93100
C  21.34400 1.76300 28.55100
C  22.76700 1.85300 28.43200
C  19.77500 1.68100 30.67400
C  20.37300 1.38500 27.41900
O  20.73900 1.21600 26.26300
C  18.94700 1.17400 27.66100
N  25.81700 1.74700 27.92000
C  24.87300 1.87800 26.99400
C  25.45600 2.10000 25.56900
C  26.92400 1.73700 25.75600
C  27.06100 1.62900 27.25900
C  24.75800 1.46100 24.31200
C  28.03700 2.68500 25.10700
C  27.88500 4.16100 25.51600
N  27.54200 1.68600 30.26200
C  28.49700 1.31600 29.36700
C  29.57200 0.86100 30.11100
C  29.26800 0.98500 31.43100
C  27.98300 1.53100 31.51700
C  30.87400 0.49000 29.59200
C  29.78800 0.80000 32.78700
O  30.89500 0.36800 33.21100
C  28.61500 1.29900 33.78600
C  28.34100 0.18400 34.78700
O  27.74600 -0.79600 34.43900
O  28.80000 0.63900 35.98800
C  28.78700 -0.40000 37.03100
H  21.64300 1.78300 32.63800
H  22.83900 2.10400 26.38900
H  29.06000 1.10100 27.15600
H  25.79100 0.78800 35.04000
H  23.24900 2.35800 34.67200
H  23.64500 -0.67000 34.26100
H  22.18600 0.17900 34.50300
H  23.26400 -0.08900 35.85800
H  24.76900 3.52600 35.33300
H  26.35800 3.67600 34.69500
H  27.39100 3.36900 36.66100
H  26.48800 1.95800 37.06000
H  19.22400 0.76500 30.46300
H  19.16200 2.52900 30.36900
H  19.90300 1.91400 31.73200
H  18.42900 1.98800 28.16900
H  18.91400 0.29200 28.30100
H  18.39200 0.92000 26.75800
H  25.39800 3.16800 25.35900
H  27.14100 0.82600 25.19900
H  23.70400 1.30600 24.54200
H  25.18800 0.48400 24.08900
H  24.74700 2.15600 23.47200
H  27.82700 2.62500 24.03900
H  29.06300 2.34500 25.25200
H  28.77500 4.67900 25.87300
H  27.05700 4.26800 26.21700
H  27.59300 4.64600 24.58400
H  31.22700 1.34700 29.01900
H  30.69200 -0.41000 29.00300
H  31.52500 0.25900 30.43500
H  28.84700 2.13600 34.44400
H  27.76500 -0.44700 37.40900
H  29.47900 -0.13100 37.82900
H  29.15400 -1.35100 36.64500
Mg 47.29400 25.32400 28.81000
C  48.51100 27.61200 31.24000
C  46.11700 23.40200 31.39300
C  46.94700 22.68200 26.75200
C  49.08800 26.93900 26.46000
N  47.31200 25.50900 31.04700
C  47.73500 26.58300 31.80500
C  47.26100 26.41000 33.22500
C  46.74400 24.96300 33.29400
C  46.62900 24.64300 31.82300
C  47.45100 23.84100 34.23900
C  46.31500 27.63600 33.65600
C  45.46800 27.54900 34.90400
H  46.09400 27.86300 36.19500
N  46.44200 23.47900 28.96800
C  45.98800 22.83600 30.11200
C  45.37400 21.58800 29.80200
C  45.46300 21.40500 28.45000
C  46.32800 22.53200 27.99700
C  44.77500 20.67000 30.88500
C  44.85700 20.29100 27.51600
O  44.96900 20.25200 26.32200
C  44.13900 19.10200 28.13000
N  47.93400 24.92600 26.82500
C  47.59900 23.78600 26.18300
C  48.15700 23.75400 24.73300
C  48.51500 25.28600 24.55600
C  48.47600 25.74600 26.01800
C  49.40100 22.87100 24.51600
C  47.43400 26.18500 23.78700
C  47.99100 27.07800 22.67000
N  48.44100 27.03900 28.72300
C  49.16400 27.53300 27.70900
C  49.87500 28.71200 28.11100
C  49.60600 28.86400 29.51700
C  48.82100 27.73700 29.86100
C  50.62400 29.61700 27.13000
C  49.85300 29.65100 30.69200
O  50.43300 30.69100 30.86300
C  49.16000 28.86500 31.88400
C  50.27400 28.55900 32.81200
O  51.39600 28.11800 32.49100
O  49.85600 28.68700 34.13700
C  50.77200 28.08700 35.17700
H  45.70400 22.72200 32.14200
H  46.64400 21.96700 25.98400
H  49.51200 27.43400 25.58300
H  48.17500 26.44600 33.81800
H  45.69800 25.04500 33.59100
H  48.39100 24.19200 34.66400
H  47.72800 22.92300 33.72000
H  46.66300 23.54500 34.93200
H  45.69000 27.57500 32.76500
H  46.80900 28.60700 33.65200
H  45.00300 26.56300 34.92200
H  44.60200 28.20800 34.84000
H  44.90800 21.01500 31.91100
H  45.28200 19.71200 31.00500
H  43.70900 20.51200 30.72600
H  43.19000 19.41400 28.56500
H  44.62200 18.72700 29.03200
H  43.98100 18.36800 27.34000
H  47.30200 23.53300 24.09400
H  49.52900 25.47200 24.20200
H  49.75600 22.29400 25.36900
H  50.26600 23.37600 24.08600
H  49.21700 22.16900 23.70200
H  46.92000 26.81200 24.51600
H  46.71100 25.50900 23.33000
H  47.17100 27.06700 21.95200
H  48.93400 26.73900 22.24200
H  48.13900 28.07800 23.07700
H  51.19700 30.36400 27.67900
H  49.92800 30.08200 26.43300
H  51.32400 28.93700 26.64500
H  48.49600 29.60300 32.33400
H  50.29100 27.58200 36.01400
H  51.33400 28.90900 35.62000
H  51.54600 27.46400 34.72900

