158

Mg 47.63400 16.84700 29.05000
C  45.56500 16.24700 31.84300
C  50.03400 18.22200 30.95300
C  49.29000 17.83100 26.06600
C  45.02300 15.55300 26.94900
N  47.71000 17.23600 31.09800
C  46.79700 16.92200 32.09900
C  47.39200 17.39300 33.51300
C  48.54100 18.34800 33.04300
C  48.84500 17.82400 31.63500
C  48.18100 19.84600 33.05300
C  47.81600 16.26700 34.37700
C  48.35700 16.68500 35.82000
H  47.89900 18.02900 36.40000
N  49.44200 17.75100 28.61900
C  50.34800 18.07200 29.57600
C  51.62300 18.39900 28.98200
C  51.30700 18.55600 27.60100
C  49.95700 18.06400 27.35300
C  52.87800 18.51700 29.77900
C  52.17800 19.05300 26.45900
O  51.85700 19.13900 25.30200
C  53.58300 19.36900 26.77800
N  47.24500 16.72700 26.79700
C  48.07200 17.16000 25.83700
C  47.51600 16.94600 24.42600
C  46.18300 16.11500 24.73100
C  46.14000 16.12900 26.24800
C  47.41000 18.37700 23.71400
C  46.25200 14.63400 24.03900
C  45.02100 14.31500 23.13400
N  45.67600 16.13600 29.30200
C  44.78100 15.54100 28.35100
C  43.56000 15.09300 29.07400
C  43.89600 15.29500 30.44900
C  45.14100 15.92800 30.52400
C  42.37700 14.47300 28.46700
C  43.42000 15.06600 31.79600
O  42.46700 14.41600 32.17600
C  44.51300 15.68200 32.82100
C  43.81000 16.73500 33.61600
O  43.38300 17.80700 33.14200
O  43.65400 16.30100 34.84600
C  43.04000 17.26200 35.77200
H  50.84800 18.63100 31.55500
H  49.73200 18.17700 25.13000
H  44.21000 15.08100 26.39300
H  46.62400 17.93100 34.06900
H  49.46900 18.25700 33.60700
H  47.09300 19.87300 33.11900
H  48.44600 20.28900 32.09300
H  48.70800 20.34600 33.86500
H  48.60700 15.68000 33.91000
H  46.91800 15.65700 34.47700
H  49.44300 16.59700 35.78900
H  47.99000 15.89300 36.47200
H  53.53800 17.76600 29.34500
H  52.86000 18.17100 30.81200
H  53.36700 19.49200 29.78600
H  53.97000 18.39200 27.06600
H  53.58200 20.08100 27.60400
H  54.11300 19.80900 25.93400
H  48.21200 16.30200 23.88600
H  45.30400 16.65600 24.38100
H  47.91200 18.28900 22.75000
H  47.83400 19.18300 24.31400
H  46.33600 18.47800 23.56200
H  46.40200 13.85900 24.79100
H  47.18800 14.60600 23.48200
H  44.26700 15.10200 23.13800
H  44.60400 13.37100 23.48300
H  45.20000 14.09000 22.08300
H  42.71100 13.75600 27.71600
H  41.87500 15.31900 28.00000
H  41.81100 13.90400 29.20500
H  44.73300 14.81900 33.45000
H  43.70100 18.12100 35.88900
H  42.81800 16.83700 36.75100
H  42.15800 17.69900 35.30500
Mg 30.12800 57.95100 39.92600
C  27.24300 56.04100 38.89700
C  32.04700 55.17300 39.06800
C  32.74200 59.98200 40.18900
C  27.97600 60.71200 40.47300
N  29.68400 55.85900 38.90200
C  28.40700 55.27400 38.72000
C  28.56300 53.85700 38.43700
C  30.06500 53.54900 38.91000
C  30.67200 54.92600 38.92800
C  30.22500 52.83000 40.32500
C  28.20100 53.21700 37.09800
C  28.77100 53.94700 35.93500
H  27.96400 54.71700 34.91600
N  32.13900 57.64500 39.63800
C  32.70900 56.42700 39.30300
C  34.12800 56.70300 39.18400
C  34.38500 58.07700 39.51300
C  33.04900 58.64200 39.75000
C  35.17600 55.64300 38.89800
C  35.71800 58.74900 39.48700
O  36.73800 58.04800 39.45500
C  35.83000 60.26100 39.52200
N  30.33400 60.14300 40.16400
C  31.51900 60.69700 40.30500
C  31.45900 62.18400 40.63700
C  29.93100 62.39500 40.95400
C  29.38400 61.04000 40.42300
C  32.42600 62.75200 41.79700
C  29.34200 63.68000 40.27400
C  28.92600 64.86300 41.18000
N  27.99700 58.33500 39.87600
C  27.33000 59.43800 40.11600
C  25.96300 59.11000 40.16900
C  25.84200 57.84900 39.58900
C  27.10300 57.32400 39.44200
C  24.85200 60.13600 40.33400
C  24.89800 56.77600 39.10100
O  23.65600 56.76200 38.99600
C  25.78700 55.62200 38.61500
C  25.24700 54.43200 39.36700
O  25.32200 54.25500 40.54400
O  24.61200 53.60400 38.43700
C  23.79200 52.64700 39.14100
H  32.67200 54.28000 39.01500
H  33.57800 60.68000 40.26800
H  27.26500 61.51400 40.68300
H  27.85300 53.29200 39.04100
H  30.60300 52.92000 38.20000
H  30.67600 51.84200 40.23400
H  29.27600 52.75500 40.85600
H  30.75400 53.46800 41.03300
H  27.14600 53.00300 36.92800
H  28.71800 52.25900 37.15400
H  29.42700 53.26600 35.39200
H  29.24600 54.79400 36.43000
H  34.76900 54.63800 39.01100
H  35.93300 55.75600 39.67500
H  35.50400 55.74300 37.86300
H  36.81000 60.58300 39.16800
H  35.69100 60.71900 40.50100
H  35.16400 60.64800 38.75100
H  31.71200 62.70900 39.71600
H  29.80400 62.45900 42.03400
H  32.76100 63.75700 41.54200
H  33.32000 62.17900 42.04600
H  31.80200 62.87600 42.68300
H  28.42400 63.47200 39.72300
H  30.01100 64.11700 39.53300
H  27.83800 64.91500 41.22000
H  29.41100 65.82300 40.99900
H  29.09000 64.62700 42.23200
H  23.95200 59.71800 40.78500
H  24.70500 60.53300 39.33000
H  25.18400 60.97800 40.94200
H  25.62400 55.47700 37.54700
H  24.35400 52.18400 39.95200
H  23.57000 51.80200 38.48900
H  22.82200 53.00700 39.48400

