158

Mg 1.22100 -1.33900 45.20400
C  4.38000 -0.28800 44.19900
C  -0.10800 1.49100 43.49500
C  -1.83700 -2.61800 45.42200
C  2.70100 -4.42700 46.26700
N  1.93900 0.41400 44.09300
C  3.34900 0.61800 43.86800
C  3.61400 2.02000 43.09800
C  2.17200 2.73500 43.15000
C  1.26100 1.50800 43.56500
C  2.10700 3.95000 43.98300
C  4.16300 1.71600 41.58600
C  5.44100 2.46500 41.06800
H  6.80400 1.77700 40.64200
N  -0.74600 -0.67300 44.57600
C  -1.07300 0.50900 43.91200
C  -2.44900 0.62100 43.93800
C  -3.03500 -0.58900 44.36900
C  -1.85100 -1.33000 44.88900
C  -2.95900 1.88700 43.25900
C  -4.49000 -0.90700 44.42600
O  -5.32100 -0.04300 44.07400
C  -5.02700 -2.29400 44.68600
N  0.53300 -3.27100 45.57300
C  -0.81700 -3.49200 45.75400
C  -1.07500 -4.90000 46.41400
C  0.35900 -5.26400 46.83600
C  1.29300 -4.27700 46.12600
C  -2.21000 -5.20000 47.46200
C  0.78300 -6.81300 46.58900
C  0.84000 -7.77300 47.81800
N  3.19400 -2.18800 45.30200
C  3.63100 -3.45200 45.77300
C  5.03200 -3.45900 45.75600
C  5.40800 -2.26400 45.12000
C  4.22100 -1.55500 44.82500
C  5.94200 -4.44000 46.39100
C  6.49100 -1.42600 44.71400
O  7.69000 -1.52700 44.74200
C  5.91900 -0.10100 44.13000
C  6.29400 1.09800 44.96700
O  6.21500 1.18900 46.19300
O  6.76400 2.07700 44.15900
C  7.40700 3.27500 44.77000
H  -0.47700 2.41000 43.03400
H  -2.83800 -3.05200 45.47400
H  3.12400 -5.31700 46.73800
H  4.22400 2.71900 43.66900
H  1.81400 3.03500 42.16500
H  3.04500 4.48400 44.13300
H  1.77600 3.71400 44.99500
H  1.31400 4.57000 43.56600
H  3.35700 1.99100 40.90700
H  4.33400 0.64200 41.51600
H  5.70500 3.26700 41.75700
H  5.15100 2.90000 40.11100
H  -4.02700 1.96800 43.46100
H  -3.04600 1.82900 42.17400
H  -2.40500 2.77100 43.57500
H  -4.33200 -3.02200 44.26800
H  -5.93400 -2.41800 44.09400
H  -5.25700 -2.48600 45.73500
H  -1.27100 -5.47200 45.50700
H  0.51300 -5.15300 47.91000
H  -3.12200 -5.66000 47.08200
H  -2.52600 -4.24000 47.86900
H  -1.84500 -5.87100 48.24000
H  1.74000 -6.98400 46.09600
H  0.02800 -7.18300 45.89500
H  1.33200 -8.72600 47.62300
H  -0.15800 -8.12300 48.08000
H  1.30300 -7.30500 48.68700
H  5.53000 -5.41300 46.12300
H  5.90900 -4.34200 47.47600
H  6.93700 -4.37200 45.95000
H  6.35400 -0.13200 43.13100
H  6.87200 4.22500 44.74700
H  8.33000 3.46700 44.22400
H  7.66300 3.18200 45.82600
Mg 17.26400 50.72700 26.20700
C  18.91400 48.95800 28.73000
C  14.71100 51.33800 28.66600
C  15.36200 51.84500 23.80000
C  19.27000 49.03900 23.86100
N  16.83000 50.13100 28.49000
C  17.73100 49.52700 29.31400
C  17.26800 49.76700 30.76000
C  15.76100 50.16600 30.59500
C  15.76400 50.59900 29.12400
C  14.71300 49.05000 30.75600
C  18.11100 50.82400 31.53100
C  18.51700 50.46700 32.97500
H  17.55800 50.87200 34.14900
N  15.37500 51.60800 26.23700
C  14.49000 51.89500 27.35900
C  13.37200 52.65200 26.87300
C  13.56900 52.84700 25.48400
C  14.79000 52.06000 25.14400
C  12.26100 53.17400 27.79900
C  12.80900 53.70500 24.48900
O  13.16700 53.75500 23.32100
C  11.61400 54.55900 24.99900
N  17.26000 50.39800 24.06200
C  16.45700 51.12700 23.33100
C  16.78500 51.00600 21.82200
C  18.01800 50.08700 21.82000
C  18.20200 49.80400 23.30800
C  15.60600 50.48200 20.94500
C  19.34100 50.68000 21.29000
C  20.18100 49.63500 20.53000
N  18.80900 49.50400 26.27900
C  19.54100 48.90700 25.20800
C  20.67400 48.20800 25.74400
C  20.58200 48.32600 27.17800
C  19.30500 48.93900 27.41300
C  21.73700 47.48100 24.89800
C  21.15300 47.95800 28.46600
O  22.27000 47.42100 28.68700
C  20.18600 48.52600 29.54700
C  19.88000 47.46300 30.52300
O  18.97200 46.63400 30.46600
O  20.72600 47.55900 31.61200
C  20.27300 46.77000 32.83100
H  13.94200 51.53900 29.41500
H  14.81700 52.32100 22.98200
H  19.97100 48.56600 23.17000
H  17.36100 48.80100 31.25500
H  15.47000 51.02600 31.19700
H  14.77400 48.27500 29.99300
H  13.73700 49.51300 30.60600
H  14.69700 48.57800 31.73900
H  17.48100 51.67500 31.78800
H  18.91700 51.33200 31.00100
H  19.55000 50.76900 33.14900
H  18.67800 49.38900 32.95300
H  12.16000 54.24800 27.64500
H  12.41800 52.83000 28.82100
H  11.38000 52.68100 27.38700
H  10.99400 53.86800 25.57000
H  11.17500 55.08100 24.14900
H  12.03200 55.30800 25.67100
H  17.03500 52.00300 21.46000
H  17.68500 49.18700 21.30200
H  14.90200 49.90900 21.54900
H  16.03300 49.85900 20.15800
H  15.00500 51.31100 20.57200
H  19.99600 50.95500 22.11700
H  19.19000 51.50400 20.59200
H  20.90400 49.29300 21.27100
H  20.68300 50.07400 19.66800
H  19.59800 48.74800 20.28400
H  22.24400 48.00200 24.08600
H  21.36200 46.50900 24.58000
H  22.47300 47.10100 25.60700
H  20.66500 49.32200 30.11600
H  20.43300 45.75000 32.48100
H  19.21100 46.74000 33.07600
H  20.84400 46.98200 33.73500

