158

Mg 46.78100 24.74800 28.83900
C  47.64600 27.29500 31.02900
C  46.17500 22.67900 31.59600
C  46.45800 22.13400 26.76100
C  47.72200 26.64000 26.05900
N  46.76500 25.02500 31.02100
C  47.10800 26.15500 31.68800
C  46.75200 25.96600 33.13400
C  46.53200 24.46800 33.37300
C  46.49100 23.98300 31.89100
C  47.65000 23.76500 34.21500
C  45.52400 26.88100 33.59000
C  45.39900 27.22400 35.12600
H  46.32900 26.75300 36.13600
N  46.25300 22.75400 29.10800
C  46.12300 22.06600 30.32500
C  45.91900 20.67200 30.07200
C  45.91100 20.51600 28.63000
C  46.22000 21.84400 28.09200
C  45.82700 19.61000 31.16500
C  45.66500 19.24600 27.83700
O  45.53100 19.20300 26.62400
C  45.45300 17.99500 28.53000
N  47.06200 24.35300 26.73300
C  46.83200 23.26800 26.12100
C  47.12100 23.38200 24.60800
C  47.11100 24.95900 24.38300
C  47.26900 25.42400 25.82500
C  48.41000 22.64000 24.12100
C  45.85000 25.49900 23.72200
C  44.49600 25.15300 24.39100
N  47.53600 26.57300 28.57300
C  47.91500 27.16200 27.42200
C  48.59400 28.42200 27.81100
C  48.46900 28.52500 29.17100
C  47.82500 27.34200 29.60500
C  49.26500 29.35200 26.83200
C  48.82600 29.30100 30.35300
O  49.48700 30.33500 30.33000
C  48.21200 28.59900 31.56600
C  49.38900 28.35200 32.43800
O  50.40800 27.67800 32.23000
O  49.02800 28.94000 33.67900
C  50.09800 28.68900 34.72500
H  45.92700 22.08500 32.47900
H  46.16500 21.37500 26.03300
H  47.99300 27.37800 25.30100
H  47.63100 26.21300 33.73000
H  45.54000 24.19300 33.73100
H  47.39000 22.90900 34.83700
H  48.37000 24.42900 34.69300
H  48.20300 23.09700 33.55600
H  44.64200 26.30900 33.30000
H  45.43800 27.83800 33.07500
H  44.37200 26.99900 35.41500
H  45.26800 28.29100 35.30800
H  45.94800 19.89400 32.21000
H  46.60400 18.86700 30.98300
H  44.91300 19.05800 30.94400
H  46.29600 17.80000 29.19300
H  45.43700 17.28200 27.70600
H  44.55100 17.78500 29.10500
H  46.37000 22.94500 23.95000
H  47.98900 25.22700 23.79500
H  49.27300 23.05200 24.64400
H  48.49700 22.88000 23.06200
H  48.45100 21.56300 24.28900
H  45.88700 25.04800 22.73000
H  46.02700 26.55800 23.53700
H  44.61000 24.37100 25.14200
H  43.93400 24.65300 23.60100
H  44.02000 26.05800 24.76600
H  50.22500 28.98800 26.46400
H  49.42300 30.24000 27.44400
H  48.63700 29.57100 25.96800
H  47.55200 29.30800 32.06400
H  51.12100 28.54900 34.37800
H  49.75000 27.73400 35.11900
H  50.10800 29.49700 35.45700
Mg 41.68400 40.34500 26.12200
C  40.70100 42.60500 28.73300
C  42.51600 38.10200 28.49900
C  42.61900 38.24300 23.59200
C  40.97000 42.88700 23.82200
N  41.60900 40.41000 28.37700
C  41.07200 41.33400 29.21900
C  41.04700 40.85300 30.71300
C  41.83300 39.48500 30.55100
C  42.02000 39.33200 29.02400
C  43.14800 39.40500 31.38600
C  39.61300 40.72500 31.28800
C  39.41000 40.20600 32.73400
H  38.98000 41.03500 33.99500
N  42.51900 38.44100 26.09000
C  42.72300 37.61200 27.18500
C  43.22700 36.33400 26.76400
C  43.33800 36.34500 25.35800
C  42.81500 37.71800 24.90300
C  43.66800 35.22900 27.83100
C  43.82500 35.36000 24.30500
O  43.69800 35.40300 23.09000
C  44.49600 34.08100 24.82800
N  41.76800 40.58600 24.03000
C  42.09900 39.53800 23.25200
C  42.05400 39.89400 21.78500
C  41.30200 41.24900 21.79000
C  41.26400 41.61000 23.25500
C  43.44200 39.93700 20.95800
C  39.90200 41.15100 21.17500
C  38.92900 40.10400 21.84600
N  41.05500 42.33000 26.16600
C  40.81500 43.21600 25.14300
C  40.37000 44.49900 25.65900
C  40.34500 44.29300 27.02800
C  40.76200 42.96700 27.31200
C  40.06500 45.71800 24.88000
C  40.10500 44.88500 28.21400
O  39.89600 46.08500 28.43600
C  40.12700 43.80700 29.37100
C  41.02200 44.24000 30.53000
O  42.23100 44.46600 30.45900
O  40.30500 44.43000 31.61900
C  41.02500 44.98700 32.73900
H  42.72800 37.38600 29.29500
H  42.93900 37.56200 22.80100
H  40.77400 43.65400 23.07000
H  41.50400 41.54600 31.41900
H  41.19600 38.66700 30.88800
H  43.24600 40.30600 31.99100
H  43.94000 39.50200 30.64300
H  43.31800 38.47400 31.92700
H  39.11200 40.08200 30.56300
H  39.18800 41.72800 31.27300
H  40.31600 39.73700 33.11800
H  38.67300 39.41800 32.58200
H  43.70500 35.62400 28.84700
H  44.69300 34.93900 27.59800
H  43.02900 34.35800 27.68700
H  45.05600 33.59900 24.02700
H  43.62400 33.47400 25.07100
H  45.03900 34.21900 25.76300
H  41.50100 39.12500 21.24500
H  41.95100 42.00600 21.34900
H  43.73800 40.92600 20.60600
H  43.36300 39.35500 20.03900
H  44.11700 39.44600 21.65900
H  40.00300 40.84500 20.13300
H  39.48600 42.15500 21.09200
H  38.49900 39.54800 21.01300
H  38.03400 40.57600 22.25200
H  39.41300 39.42000 22.54300
H  40.80400 46.51700 24.82100
H  39.20900 46.13200 25.41100
H  39.80700 45.37700 23.87700
H  39.08600 43.68800 29.66900
H  41.48100 44.15100 33.27000
H  40.29900 45.50700 33.36400
H  41.83000 45.70300 32.58000

