158

Mg 54.20000 24.46500 44.80900
C  51.68800 26.72400 43.65200
C  52.43400 21.85900 43.51800
C  57.10800 22.79100 44.85100
C  56.00200 27.46900 45.78400
N  52.33200 24.30000 43.67900
C  51.49000 25.38100 43.28900
C  50.21000 24.73200 42.64200
C  50.31800 23.18500 43.11900
C  51.78300 23.08400 43.41300
C  49.54400 22.74300 44.34200
C  50.06800 24.86400 41.07300
C  51.27400 25.06500 40.23700
H  52.30300 23.97300 40.05300
N  54.66500 22.55300 44.42700
C  53.80000 21.61000 43.89000
C  54.46900 20.36800 43.79400
C  55.83000 20.56100 44.29300
C  55.93400 22.03100 44.58100
C  53.82600 19.18800 43.24900
C  56.96000 19.55400 44.46100
O  56.78900 18.34800 44.20200
C  58.34800 19.93600 44.99000
N  56.23600 25.02400 45.32200
C  57.23300 24.12300 45.22200
C  58.58600 24.76100 45.28500
C  58.26000 26.22400 45.52100
C  56.78300 26.28000 45.58900
C  59.60600 24.19000 46.31600
C  58.80600 27.17200 44.31400
C  59.78100 28.37600 44.75800
N  53.93400 26.66400 44.84900
C  54.65800 27.68300 45.38900
C  53.84900 28.90100 45.52200
C  52.62900 28.55000 44.87800
C  52.74800 27.17100 44.46600
C  54.26600 30.25400 46.14200
C  51.35700 29.03100 44.43100
O  50.80600 30.09500 44.55200
C  50.73700 27.91900 43.49200
C  50.60200 28.41500 42.07300
O  51.46300 28.91000 41.32800
O  49.31500 28.15300 41.77200
C  48.89200 28.54200 40.36000
H  51.77600 20.98900 43.45900
H  58.03600 22.22400 44.76000
H  56.50600 28.40600 46.03300
H  49.29200 25.13700 43.06700
H  49.98900 22.45800 42.37700
H  50.23300 22.13500 44.92700
H  48.67600 22.16400 44.02800
H  49.27600 23.55400 45.02000
H  49.38800 25.69300 40.87800
H  49.55000 24.05400 40.56000
H  51.69300 25.89800 40.80200
H  50.98300 25.15100 39.19000
H  53.47600 19.50200 42.26600
H  52.99800 18.91300 43.90200
H  54.54800 18.38600 43.09800
H  58.91800 19.05600 45.28700
H  58.30700 20.56100 45.88200
H  59.05100 20.45100 44.33500
H  59.05700 24.57600 44.32000
H  58.52900 26.54100 46.52900
H  59.09500 23.62200 47.09300
H  60.23300 24.93000 46.81300
H  60.36800 23.60800 45.79800
H  57.98500 27.65600 43.78500
H  59.28500 26.69100 43.46100
H  60.82500 28.27600 44.46400
H  59.82200 28.54800 45.83400
H  59.19800 29.21600 44.37900
H  55.20700 30.62400 45.73500
H  54.27800 30.04300 47.21100
H  53.50300 31.03200 46.14100
H  49.75500 27.61800 43.85600
H  49.66400 28.93900 39.70200
H  48.04000 29.22000 40.32100
H  48.46500 27.64600 39.91000
Mg -10.97100 37.85200 41.42700
C  -8.65400 35.19600 41.27900
C  -8.50500 39.85500 39.96300
C  -13.19600 40.16500 41.12600
C  -13.39900 35.40500 42.40400
N  -8.80100 37.57000 40.60100
C  -8.13200 36.37500 40.71200
C  -7.00100 36.47900 39.70400
C  -6.73800 38.01200 39.67600
C  -8.07500 38.54400 40.15700
C  -5.43000 38.39000 40.47100
C  -7.13000 35.76900 38.40600
C  -6.05700 34.80100 37.86800
H  -5.33800 35.32500 36.56900
N  -10.84100 39.79900 40.80800
C  -9.76200 40.48300 40.22100
C  -10.15600 41.88900 40.04800
C  -11.56200 41.94800 40.28300
C  -11.92900 40.57700 40.77600
C  -9.20400 43.02200 39.65000
C  -12.51500 43.16000 40.12100
O  -11.97200 44.12800 39.69100
C  -14.04100 43.20000 40.18000
N  -13.07800 37.77300 41.81300
C  -13.74900 38.92200 41.60000
C  -15.28000 38.60600 41.62900
C  -15.29000 37.09600 41.97000
C  -13.85900 36.71600 42.08100
C  -16.10200 39.58400 42.54500
C  -16.02100 36.06700 41.13200
C  -17.08100 35.29200 41.90100
N  -11.07700 35.73600 41.82300
C  -12.06800 34.94200 42.35000
C  -11.61400 33.64800 42.56800
C  -10.25900 33.66700 42.10600
C  -9.96500 35.01700 41.73600
C  -12.42200 32.48700 43.12700
C  -9.11400 32.89100 41.93700
O  -8.86000 31.75100 42.21800
C  -8.09500 33.79000 41.20600
C  -6.75700 33.65600 41.83900
O  -5.88000 32.95200 41.36000
O  -6.82100 34.13500 43.15000
C  -5.62200 34.00000 44.00100
H  -7.69000 40.45300 39.54900
H  -13.99700 40.88900 40.95800
H  -14.16000 34.69000 42.72300
H  -6.19900 35.97600 40.24400
H  -6.63100 38.39600 38.66100
H  -4.65600 37.62300 40.47000
H  -5.69900 38.58300 41.51000
H  -5.07800 39.28200 39.95400
H  -7.30900 36.53300 37.65000
H  -8.05600 35.19500 38.41800
H  -6.55100 33.85700 37.63600
H  -5.30100 34.67400 38.64200
H  -8.19600 42.65900 39.45100
H  -9.32900 43.90800 40.27300
H  -9.43700 43.47500 38.68700
H  -14.21700 44.17600 39.72600
H  -14.47100 43.14200 41.18000
H  -14.47700 42.43800 39.53400
H  -15.62000 38.75600 40.60400
H  -15.70000 36.97500 42.97300
H  -16.44200 40.39100 41.89600
H  -15.44800 39.89300 43.36000
H  -16.95900 38.96700 42.81800
H  -15.51500 35.28300 40.56900
H  -16.60100 36.58600 40.36900
H  -18.02200 35.39600 41.36100
H  -17.18400 35.60400 42.94000
H  -16.84600 34.22800 41.89200
H  -13.43400 32.55200 42.72700
H  -12.27800 32.43800 44.20600
H  -11.99300 31.55600 42.75600
H  -8.03600 33.45800 40.16900
H  -5.26800 35.03000 44.03800
H  -4.78800 33.38700 43.65800
H  -5.93100 33.71100 45.00600

