158

Mg 9.07500 3.06100 27.69700
C  10.42800 1.77100 30.67300
C  7.09200 5.14000 29.67400
C  7.52300 4.02000 25.06300
C  10.56800 0.29000 26.10700
N  8.60000 3.16400 29.93300
C  9.49300 2.75500 30.90400
C  9.20800 3.40300 32.27800
C  7.91400 4.21700 31.95300
C  7.88000 4.20900 30.38900
C  6.63100 3.58400 32.52400
C  10.43200 4.27600 32.75500
C  10.88900 4.12800 34.21200
H  9.90400 3.65100 35.20800
N  7.60500 4.54600 27.37400
C  7.01100 5.32200 28.29000
C  6.25200 6.26600 27.57000
C  6.24300 5.96000 26.19900
C  7.13000 4.80300 26.10800
C  5.58600 7.50700 28.27100
C  5.50500 6.62200 25.06000
O  5.63100 6.16100 23.91600
C  4.49800 7.86300 25.31700
N  9.23900 2.41700 25.81300
C  8.38800 2.90100 24.89500
C  8.61700 2.29700 23.48200
C  9.44500 1.10800 23.92100
C  9.77700 1.21900 25.38800
C  7.32300 1.87600 22.71800
C  10.68500 0.87400 23.06900
C  10.65600 -0.40400 22.23700
N  10.45000 1.52800 28.22100
C  10.94000 0.52600 27.44000
C  11.81400 -0.31700 28.25500
C  11.69500 0.12900 29.52000
C  10.73000 1.16100 29.45800
C  12.70600 -1.37600 27.70300
C  12.14300 -0.00500 30.86700
O  13.06300 -0.68900 31.29800
C  11.27000 1.03800 31.65800
C  10.46400 0.30000 32.75100
O  9.30300 -0.12500 32.65300
O  11.27200 0.04800 33.85400
C  10.59700 -0.65600 34.86700
H  6.46600 5.88000 30.17700
H  7.16100 4.35000 24.08700
H  10.76500 -0.64900 25.58600
H  8.93900 2.62100 32.98900
H  7.95100 5.22700 32.36100
H  6.37500 4.15900 33.41400
H  6.98200 2.58400 32.78000
H  5.89300 3.39600 31.74500
H  10.12100 5.31200 32.61700
H  11.18700 4.17700 31.97600
H  11.24700 5.12700 34.45600
H  11.79900 3.52900 34.24400
H  6.01600 7.78300 29.23400
H  4.51100 7.34300 28.33700
H  5.68400 8.38300 27.62900
H  3.89900 8.11500 24.44200
H  5.12700 8.72400 25.54400
H  3.84400 7.59600 26.14700
H  9.25500 3.00800 22.95700
H  8.81400 0.22000 23.90800
H  6.49100 2.02500 23.40600
H  7.23800 0.88200 22.27900
H  7.26500 2.47100 21.80700
H  11.58700 0.96200 23.67500
H  10.72400 1.58300 22.24200
H  11.32600 -0.30800 21.38300
H  9.69700 -0.68600 21.80300
H  11.09400 -1.27000 22.73400
H  13.55500 -1.58400 28.35400
H  13.01700 -1.20900 26.67100
H  11.98100 -2.18900 27.65900
H  12.02500 1.71600 32.05600
H  11.14700 -0.52100 35.79800
H  10.56300 -1.72500 34.65600
H  9.58000 -0.31800 35.06400
Mg -8.91100 41.05500 42.19700
C  -7.98200 37.88800 41.15400
C  -6.00600 42.18900 40.51600
C  -10.10700 44.34700 42.24200
C  -12.07400 39.96100 43.13600
N  -7.29700 40.09300 40.85000
C  -7.04400 38.79200 40.72500
C  -5.70000 38.46600 40.09900
C  -4.97800 39.84800 40.06800
C  -6.16100 40.76700 40.46100
C  -3.84000 39.97700 41.02000
C  -5.95300 37.82500 38.65800
C  -5.15300 36.59900 38.32900
H  -3.94800 36.66400 37.36800
N  -8.17500 42.92600 41.49800
C  -6.95900 43.15000 40.94700
C  -6.78300 44.58000 40.73800
C  -7.96900 45.29300 41.09200
C  -8.88400 44.19600 41.56900
C  -5.48400 45.12600 40.12400
C  -8.17400 46.79400 40.90800
O  -7.25400 47.47900 40.42000
C  -9.49700 47.46200 41.36400
N  -10.83800 41.99200 42.64900
C  -10.97200 43.36200 42.77900
C  -12.49600 43.63400 43.20200
C  -13.02900 42.26700 43.67700
C  -11.89300 41.32500 43.22300
C  -12.65100 44.72200 44.23000
C  -14.44900 41.81900 43.12300
C  -15.53500 41.60100 44.22100
N  -9.81400 39.32500 42.27900
C  -11.14300 39.02300 42.68800
C  -11.33600 37.57500 42.60200
C  -10.06900 37.12700 42.12600
C  -9.28100 38.21300 41.78300
C  -12.55600 36.72700 43.02800
C  -9.36500 35.98600 41.84800
O  -9.67800 34.81000 42.10600
C  -8.01200 36.35600 41.07400
C  -6.90100 35.72800 41.79500
O  -6.21200 36.24100 42.72900
O  -6.92600 34.45800 41.37300
C  -6.41400 33.52400 42.32800
H  -5.07500 42.49900 40.03700
H  -10.35700 45.41000 42.27800
H  -13.00600 39.56200 43.54300
H  -5.11500 37.77900 40.71000
H  -4.70200 40.19400 39.07200
H  -2.94800 39.60800 40.51300
H  -3.88000 39.24400 41.82600
H  -3.73000 40.92300 41.54900
H  -5.62800 38.59700 37.96100
H  -7.01700 37.69300 38.45700
H  -5.86300 35.81100 38.07500
H  -4.80600 36.19800 39.28100
H  -4.61500 44.46800 40.11900
H  -5.16300 45.91200 40.80800
H  -5.49000 45.74200 39.22500
H  -10.34600 47.11200 40.77600
H  -9.46500 48.52700 41.13300
H  -9.64000 47.25900 42.42500
H  -13.06700 43.94000 42.32500
H  -13.07700 42.24200 44.76500
H  -11.65200 45.08700 44.47100
H  -13.21100 44.35900 45.09100
H  -13.15400 45.59600 43.81800
H  -14.38500 41.00500 42.40100
H  -14.71700 42.70700 42.54900
H  -16.33600 42.33500 44.13900
H  -15.11200 41.42300 45.21000
H  -15.89000 40.59900 43.97900
H  -12.25200 35.68600 43.13100
H  -13.16400 36.81100 42.12800
H  -13.01900 37.06300 43.95600
H  -8.04000 35.97300 40.05400
H  -5.37000 33.71500 42.57800
H  -6.51800 32.65700 41.67500
H  -6.96900 33.49900 43.26600

