158

Mg 46.06800 3.89900 47.65600
C  44.23300 6.77900 47.09800
C  43.32800 2.03600 46.51800
C  47.84100 1.08600 47.95800
C  48.81400 5.82500 48.23400
N  44.08700 4.35500 46.70400
C  43.53100 5.60600 46.63800
C  42.16300 5.58800 46.01900
C  41.83900 4.08300 46.10600
C  43.17600 3.43300 46.36400
C  40.71300 3.60100 47.03700
C  42.09100 6.12900 44.52600
C  41.21200 7.38800 44.50800
H  41.17000 8.25400 43.19800
N  45.69900 1.85000 47.29300
C  44.48100 1.28800 46.88000
C  44.52400 -0.10700 46.74600
C  45.87000 -0.43300 47.19700
C  46.56200 0.85200 47.51300
C  43.42500 -0.89700 46.01800
C  46.36900 -1.88000 47.17200
O  45.71200 -2.86200 46.71300
C  47.76700 -2.20100 47.48400
N  48.11000 3.45300 47.72800
C  48.63100 2.23500 48.06800
C  50.10300 2.30400 48.36900
C  50.34100 3.90100 48.33000
C  48.94000 4.41800 48.13800
C  50.40900 1.62000 49.78100
C  51.36500 4.36800 47.17700
C  52.58600 5.16800 47.72700
N  46.52500 5.92400 47.63300
C  47.64300 6.58400 47.96300
C  47.45500 7.97800 48.03400
C  46.15200 8.13800 47.66200
C  45.59800 6.83300 47.43500
C  48.44100 8.94900 48.14900
C  45.09000 9.02900 47.43300
O  45.06200 10.25000 47.34800
C  43.71200 8.21000 47.07600
C  42.74300 8.45200 48.18500
O  42.57100 7.83900 49.22000
O  41.93700 9.47400 47.72900
C  40.79600 9.89200 48.47700
H  42.44200 1.46400 46.23700
H  48.37300 0.17000 48.22500
H  49.79000 6.28700 48.39800
H  41.55200 6.22600 46.65700
H  41.46000 3.71700 45.15200
H  40.07500 4.38000 47.45300
H  41.28200 3.22600 47.88700
H  40.24000 2.74400 46.55600
H  41.82000 5.33800 43.82800
H  43.08800 6.42300 44.19700
H  41.43500 8.04600 45.34800
H  40.19000 7.06600 44.70900
H  43.68000 -1.92200 45.74900
H  43.01000 -0.39500 45.14400
H  42.54700 -0.96900 46.66000
H  47.97800 -3.19500 47.09000
H  47.89300 -2.33300 48.55900
H  48.49500 -1.51100 47.05700
H  50.70200 1.86200 47.57200
H  50.65400 4.36200 49.26700
H  50.67800 0.60300 49.49400
H  49.57300 1.74400 50.46900
H  51.18900 2.27200 50.17400
H  50.93400 5.02600 46.42200
H  51.82900 3.46600 46.77800
H  52.35600 6.16500 48.10300
H  53.37400 5.31600 46.98800
H  52.97000 4.68500 48.62600
H  48.57300 9.16900 47.09000
H  49.22600 8.46200 48.72800
H  48.20500 9.93000 48.56100
H  43.38400 8.49600 46.07600
H  40.82500 9.47300 49.48300
H  40.00000 9.50300 47.84300
H  40.69200 10.97500 48.54600
Mg 1.47700 43.10100 25.78700
C  3.07800 42.96600 28.89100
C  -1.52400 42.72100 27.35900
C  0.09300 42.82100 22.78800
C  4.69000 43.13100 24.36400
N  0.83300 42.88700 27.82100
C  1.65800 42.99800 28.96500
C  0.82700 42.89800 30.30300
C  -0.57100 42.65900 29.73100
C  -0.42100 42.75600 28.24400
C  -1.20700 41.36800 30.26500
C  0.98700 44.26400 31.12500
C  0.90100 44.26400 32.64500
H  0.59900 43.00300 33.38000
N  -0.52300 42.89000 25.11900
C  -1.60800 42.72700 25.92200
C  -2.71100 42.53900 25.06700
C  -2.33000 42.71600 23.67600
C  -0.86400 42.80300 23.81000
C  -4.03200 42.34000 25.74200
C  -3.13600 42.76200 22.36600
O  -2.60500 42.80700 21.30100
C  -4.60100 42.40500 22.44400
N  2.29900 42.88300 23.94800
C  1.51300 42.89300 22.83300
C  2.29800 42.83600 21.51900
C  3.70100 43.30000 22.01200
C  3.54500 43.11400 23.59800
C  2.21900 41.40400 20.82600
C  4.36100 44.73900 21.66100
C  3.42400 45.95700 21.36900
N  3.51400 43.13000 26.40500
C  4.71000 43.08800 25.76600
C  5.82200 43.11500 26.67900
C  5.24600 42.99300 27.91800
C  3.81600 43.04000 27.74000
C  7.24900 43.17800 26.30400
C  5.55400 43.06600 29.32000
O  6.63500 43.15300 29.91500
C  4.15800 42.95000 30.05000
C  4.09500 41.71700 30.91200
O  3.49500 40.65700 30.67100
O  4.75700 41.87300 32.14500
C  4.48600 40.73500 33.06500
H  -2.51900 42.58500 27.78900
H  -0.36100 42.83600 21.79500
H  5.65800 43.25200 23.87500
H  1.25400 42.11200 30.92500
H  -1.33400 43.36500 30.05800
H  -2.29400 41.40500 30.32900
H  -0.85100 41.13400 31.26800
H  -0.84800 40.49000 29.72700
H  0.31100 45.00000 30.68900
H  1.92000 44.66600 30.72900
H  0.08100 44.95600 32.83600
H  1.77700 44.65800 33.15900
H  -4.74300 41.95600 25.01000
H  -4.42100 43.25800 26.18100
H  -3.98000 41.62500 26.56300
H  -5.10100 42.37800 21.47600
H  -5.04400 43.16300 23.09000
H  -4.63400 41.43500 22.94000
H  1.95100 43.67700 20.91800
H  4.52300 42.66800 21.67600
H  1.68200 40.76200 21.52400
H  3.16200 40.91300 20.58600
H  1.50900 41.53200 20.00900
H  4.84000 44.57700 20.69500
H  5.06800 44.95600 22.46200
H  3.54700 46.31800 20.34700
H  3.80200 46.70400 22.06800
H  2.37400 45.79700 21.61000
H  7.49400 44.22100 26.10600
H  7.38800 42.71200 25.32800
H  7.90700 42.69300 27.02500
H  3.92100 43.70300 30.80100
H  4.38000 39.74700 32.61800
H  3.65000 40.88100 33.75000
H  5.40300 40.67900 33.65200

