158

Mg 29.36700 58.89400 41.26000
C  26.76300 56.91000 39.99600
C  31.56700 56.86600 39.84100
C  31.65800 61.37600 41.66200
C  26.83600 61.18700 42.38200
N  29.15000 57.17600 39.88600
C  28.05600 56.48100 39.62100
C  28.34000 55.34400 38.64300
C  29.87500 55.16300 38.85300
C  30.24400 56.45800 39.63200
C  30.25800 53.79500 39.67600
C  27.85300 55.77800 37.25700
C  26.99800 54.77100 36.45500
H  27.34400 54.50100 34.99000
N  31.32700 59.12100 40.73700
C  32.10600 58.13500 40.26700
C  33.46600 58.53500 40.22600
C  33.57300 59.85300 40.82100
C  32.17700 60.16300 41.12800
C  34.55000 57.75200 39.40700
C  34.77700 60.72500 41.07100
O  35.92600 60.31200 40.78200
C  34.68300 62.05700 41.60500
N  29.27200 60.96800 42.00600
C  30.36300 61.76000 42.08800
C  29.94000 63.12800 42.56300
C  28.45700 63.06700 42.82000
C  28.16600 61.67900 42.32600
C  30.70300 63.77100 43.65000
C  27.59400 64.24100 42.14400
C  26.54300 64.70600 43.15200
N  27.20000 58.92800 41.41900
C  26.34100 59.91300 41.91100
C  25.01900 59.41500 41.74500
C  25.09000 58.26500 41.02600
C  26.47700 58.08600 40.76600
C  23.68100 60.08800 42.17200
C  24.40200 57.16700 40.44100
O  23.23200 56.94900 40.46300
C  25.42000 56.27400 39.68900
C  25.26600 54.98600 40.27100
O  25.79300 54.63300 41.35400
O  24.60500 54.16500 39.36300
C  24.85700 52.71100 39.52700
H  32.22700 56.04600 39.55000
H  32.28700 62.25400 41.82200
H  26.08200 61.86300 42.79100
H  27.88100 54.44400 39.05300
H  30.34900 55.17500 37.87200
H  29.35400 53.29800 40.02700
H  30.77000 54.00000 40.61700
H  30.77700 53.09300 39.02300
H  28.72100 55.95200 36.62200
H  27.29400 56.69000 37.46400
H  25.98400 55.16900 36.46900
H  26.87500 53.83700 37.00400
H  34.63600 56.74500 39.81500
H  35.56700 58.14600 39.39700
H  34.26200 57.64600 38.36100
H  34.22900 62.74600 40.89400
H  35.72400 62.38000 41.64500
H  34.26100 62.08300 42.60900
H  30.01400 63.84000 41.74100
H  28.25600 63.01900 43.89100
H  31.69300 63.33200 43.77100
H  30.25800 63.53400 44.61600
H  30.85600 64.84300 43.52900
H  27.03700 63.95100 41.25300
H  28.17600 65.13200 41.90600
H  25.57100 64.51100 42.70000
H  26.68600 65.78500 43.22100
H  26.58400 64.29500 44.16100
H  22.91000 59.36700 41.89900
H  23.53800 60.94000 41.50800
H  23.52500 60.44400 43.19000
H  25.19700 56.29700 38.62300
H  24.06700 52.25600 40.12400
H  25.69400 52.51500 40.19700
H  25.07400 52.11500 38.64000
Mg 26.98600 50.39300 26.20000
C  24.66800 51.31100 28.70100
C  29.13900 49.40200 28.74700
C  29.22000 49.89700 23.89900
C  24.81800 51.96300 23.75400
N  26.92300 50.41600 28.50900
C  25.78600 50.67700 29.27400
C  26.02100 50.51600 30.76100
C  27.47500 49.90200 30.73400
C  27.85500 49.78800 29.26100
C  28.55000 50.66100 31.60000
C  24.89200 49.50200 31.40000
C  24.23600 49.86000 32.72700
H  25.15300 50.57000 33.77800
N  28.93000 49.75400 26.25900
C  29.59900 49.39900 27.39100
C  30.99100 49.07100 26.98900
C  31.04000 49.18200 25.58500
C  29.72500 49.61400 25.16400
C  32.07000 48.63700 27.97300
C  32.21500 48.88600 24.64000
O  32.14100 49.07600 23.41500
C  33.43600 48.26400 25.07800
N  27.03700 51.02700 24.13800
C  28.08200 50.58200 23.39100
C  27.77500 50.65800 21.91100
C  26.24000 50.98300 21.86700
C  25.97500 51.31400 23.35800
C  28.66800 51.66300 21.13700
C  25.28800 49.84200 21.34900
C  23.98100 50.43300 20.85200
N  25.16100 51.50100 26.16200
C  24.42800 52.09200 25.10900
C  23.18100 52.55000 25.62300
C  23.28000 52.31800 27.08800
C  24.46400 51.61600 27.34600
C  22.09000 53.21200 24.88300
C  22.60000 52.60300 28.25800
O  21.59200 53.30900 28.44800
C  23.35600 51.83600 29.31000
C  23.49000 52.77200 30.57100
O  24.51400 53.42400 30.79900
O  22.33500 52.66200 31.28400
C  22.39700 53.32200 32.63100
H  29.80100 49.09600 29.56100
H  29.94900 49.48400 23.20000
H  24.04000 52.22300 23.03400
H  26.01300 51.51300 31.20300
H  27.41600 48.85800 31.03900
H  29.32300 51.18700 31.04000
H  28.98300 49.92700 32.28000
H  28.08600 51.38000 32.27600
H  25.40200 48.55100 31.55500
H  24.08700 49.39000 30.67300
H  23.90800 48.93100 33.19300
H  23.27900 50.34700 32.54100
H  32.51100 47.67200 27.72300
H  31.58700 48.68400 28.94900
H  32.87400 49.36900 27.90500
H  33.31600 47.31300 25.59600
H  33.84900 48.97700 25.79100
H  34.06300 48.21800 24.18700
H  27.82100 49.66800 21.45700
H  26.08100 51.87800 21.26600
H  29.62200 51.78000 21.65000
H  28.18500 52.61700 20.92900
H  28.83600 51.22200 20.15500
H  25.04300 49.11400 22.12300
H  25.68600 49.31600 20.48100
H  23.99100 51.51500 20.72400
H  23.20300 50.17100 21.57000
H  23.80200 50.07100 19.84000
H  22.63300 53.79700 24.14000
H  21.54900 54.00300 25.40300
H  21.36300 52.53400 24.43600
H  22.78200 50.98500 29.67800
H  22.89700 52.59700 33.27300
H  21.41300 53.53700 33.04800
H  22.95300 54.25800 32.59500

