158

Mg 54.84000 23.36900 44.65700
C  52.42400 25.62400 43.43900
C  52.79900 20.77500 43.68300
C  57.51100 21.31300 44.83500
C  56.72800 26.12800 45.56400
N  52.90600 23.28100 43.59100
C  52.07800 24.29400 43.32600
C  50.77700 23.75700 42.84000
C  50.75800 22.30400 43.30100
C  52.24000 22.07000 43.55600
C  50.02000 21.82800 44.57000
C  50.45800 23.94300 41.32400
C  49.01700 24.32600 41.01200
H  48.55900 23.93600 39.63500
N  55.14600 21.36100 44.28500
C  54.14400 20.42100 43.92000
C  54.65400 19.12100 43.77600
C  56.02000 19.24700 44.14800
C  56.35200 20.64700 44.43000
C  53.90600 17.98900 43.24000
C  56.98200 18.15700 44.00900
O  56.66100 17.05100 43.61200
C  58.44900 18.27700 44.28200
N  56.89600 23.69900 44.94400
C  57.69500 22.66300 45.16500
C  59.01200 23.17100 45.76800
C  58.85400 24.73700 45.92800
C  57.41400 24.90100 45.44800
C  59.30800 22.40700 47.10100
C  59.70600 25.60900 44.87000
C  60.11500 27.03500 45.31400
N  54.68600 25.45200 44.63700
C  55.46600 26.40900 45.02900
C  54.86200 27.75400 44.94000
C  53.62800 27.46400 44.29500
C  53.63000 26.07700 44.03500
C  55.38100 29.06500 45.51900
C  52.39400 28.02100 43.78600
O  52.02300 29.17900 43.89000
C  51.60600 26.83500 43.06400
C  51.62900 27.12600 41.56900
O  52.64000 27.09500 40.86400
O  50.43700 27.56000 41.03800
C  50.42200 28.05400 39.60400
H  52.06500 19.97500 43.80200
H  58.42000 20.72700 44.99100
H  57.22100 27.01800 45.96100
H  50.07500 24.41400 43.35200
H  50.59000 21.58500 42.49900
H  49.37800 22.61500 44.96600
H  50.67700 21.53000 45.38700
H  49.33600 21.00700 44.35400
H  50.58900 23.00300 40.78700
H  51.14600 24.70800 40.96200
H  48.94700 25.40600 41.13400
H  48.29600 23.82100 41.65500
H  52.89300 18.23000 42.91900
H  53.90900 17.28900 44.07600
H  54.54600 17.43400 42.55400
H  58.80600 19.14400 43.72700
H  58.95900 17.43100 43.82200
H  58.58900 18.33500 45.36100
H  59.91100 23.01400 45.17100
H  58.76300 25.05700 46.96600
H  59.69000 23.00600 47.92800
H  60.06000 21.62300 47.01000
H  58.41400 21.86200 47.40500
H  59.16300 25.78600 43.94200
H  60.61000 25.09500 44.54400
H  61.20100 27.11600 45.25100
H  59.89900 27.19300 46.37000
H  59.65800 27.81800 44.70800
H  55.45100 28.86800 46.58900
H  54.66400 29.87400 45.38400
H  56.39800 29.28400 45.19400
H  50.56900 26.77900 43.39400
H  50.97100 28.96900 39.38000
H  49.35200 28.24700 39.52900
H  50.66700 27.30600 38.85000
Mg 35.14000 48.99600 25.46200
C  35.67200 47.39400 28.43900
C  34.11300 51.77500 27.05200
C  34.77900 50.56500 22.38600
C  36.23400 46.12000 23.74400
N  34.79300 49.41100 27.51500
C  35.14800 48.68500 28.58400
C  34.81600 49.46800 29.86500
C  34.29800 50.80300 29.35900
C  34.42400 50.67200 27.83600
C  32.79800 51.16000 29.84300
C  36.02400 49.58600 30.82100
C  35.72600 48.99800 32.20800
H  35.85600 49.93000 33.45600
N  34.51800 50.88100 24.78000
C  34.19100 51.89900 25.63000
C  33.88000 53.12200 24.82300
C  34.19200 52.79400 23.47100
C  34.44600 51.33500 23.49900
C  33.52100 54.49800 25.41600
C  34.27500 53.73600 22.24400
O  34.71400 53.43000 21.16400
C  33.91200 55.20900 22.35200
N  35.40800 48.43300 23.28500
C  35.20900 49.28900 22.24200
C  35.44700 48.55000 20.89100
C  35.98100 47.17100 21.31100
C  35.91900 47.23100 22.91000
C  34.18800 48.55900 19.99200
C  37.38200 46.75500 20.85400
C  38.51000 47.30900 21.74800
N  35.77700 47.09900 25.96100
C  36.25500 46.06100 25.16800
C  36.66200 44.95200 26.00400
C  36.45800 45.44200 27.35100
C  35.93700 46.71400 27.23200
C  37.16900 43.67500 25.48600
C  36.59800 45.08500 28.68700
O  37.09300 44.10400 29.14700
C  36.09200 46.35900 29.50500
C  35.04100 45.92600 30.49500
O  33.89300 45.58700 30.25000
O  35.65900 45.85100 31.71000
C  34.89700 45.13800 32.73500
H  33.81700 52.69100 27.56700
H  34.65200 51.10600 21.44600
H  36.63400 45.26600 23.19200
H  34.05500 48.82900 30.31200
H  34.87100 51.66600 29.69800
H  33.02400 51.85400 30.65200
H  32.35000 50.27100 30.28600
H  32.12700 51.69800 29.17300
H  36.37200 50.60700 30.97700
H  36.85900 49.00200 30.43500
H  36.54900 48.28300 32.21000
H  34.76800 48.48900 32.30600
H  34.30900 55.23900 25.28100
H  33.26500 54.43300 26.47300
H  32.55500 54.75200 24.98100
H  33.84600 55.64900 21.35700
H  34.75400 55.62000 22.90800
H  32.97400 55.23300 22.90600
H  36.30800 48.96100 20.36300
H  35.29700 46.47200 20.83000
H  34.01300 47.53600 19.65800
H  34.39800 49.23200 19.16100
H  33.29800 48.86700 20.54100
H  37.53200 47.02400 19.80900
H  37.46500 45.67200 20.94000
H  38.81700 46.46000 22.35900
H  38.20500 48.16900 22.34500
H  39.38700 47.52000 21.13800
H  38.07000 43.91800 24.92400
H  36.37400 43.21500 24.89800
H  37.45000 42.90500 26.20500
H  36.88100 46.72700 30.16100
H  33.87500 45.41200 32.99700
H  35.47300 45.14600 33.66100
H  34.83800 44.10200 32.40000

