158

Mg 36.55400 0.95300 29.68600
C  34.31000 2.39000 31.97200
C  38.90600 1.18100 32.06700
C  38.76200 -0.00600 27.36900
C  34.07000 1.15000 27.12200
N  36.61400 1.78200 31.77200
C  35.55900 2.17300 32.51700
C  35.84300 2.20200 33.99700
C  37.35500 2.05000 33.94700
C  37.67200 1.67100 32.50600
C  38.22100 3.10400 34.57600
C  35.04400 1.09800 34.77100
C  34.31800 1.48100 36.08500
H  34.81900 2.73300 36.82500
N  38.43700 0.47400 29.75000
C  39.23600 0.53600 30.86000
C  40.57200 0.02600 30.54300
C  40.53400 -0.31700 29.19300
C  39.13400 -0.02300 28.71200
C  41.70900 0.12800 31.59700
C  41.76000 -0.80900 28.30900
O  41.68900 -0.92700 27.06600
C  43.07600 -1.11600 28.91000
N  36.42000 0.73100 27.49900
C  37.54400 0.38600 26.79800
C  37.20200 0.19800 25.31000
C  35.69600 0.42700 25.22500
C  35.34800 0.77900 26.67000
C  38.09200 1.00700 24.36200
C  34.85000 -0.75000 24.71400
C  34.14800 -1.77100 25.70400
N  34.58900 1.64800 29.49100
C  33.68000 1.65900 28.45200
C  32.41400 2.26200 28.96100
C  32.64100 2.47100 30.33000
C  33.93900 2.15300 30.61600
C  31.14400 2.29100 28.15600
C  31.97700 2.92400 31.51900
O  30.81500 3.19900 31.68000
C  33.01700 2.78200 32.64500
C  33.08100 4.11200 33.32300
O  33.70600 5.08900 32.93000
O  32.14700 4.12100 34.39500
C  31.79600 5.44500 34.93800
H  39.67400 1.16100 32.84400
H  39.47400 -0.09100 26.54600
H  33.27900 1.18800 26.36900
H  35.58900 3.16600 34.43700
H  37.70800 1.16100 34.47000
H  38.79500 2.63300 35.37500
H  37.59900 3.92200 34.93800
H  38.99600 3.40700 33.87300
H  35.72800 0.29000 35.03000
H  34.31500 0.62400 34.11400
H  34.44400 0.69800 36.83200
H  33.28100 1.52200 35.75100
H  42.32800 -0.76500 31.51200
H  41.39600 0.09400 32.64000
H  42.46000 0.87600 31.34400
H  43.50200 -0.32500 29.52700
H  43.75200 -1.37900 28.09600
H  43.03300 -2.02700 29.50700
H  37.48600 -0.85000 25.20600
H  35.46700 1.24800 24.54500
H  38.66900 0.30900 23.75500
H  38.72800 1.69400 24.92000
H  37.48600 1.67400 23.74900
H  35.57200 -1.31600 24.12500
H  34.02800 -0.38100 24.10100
H  33.10400 -1.95500 25.45000
H  34.28400 -1.58100 26.76900
H  34.56100 -2.77200 25.57800
H  31.13100 1.86700 27.15200
H  30.78000 3.31900 28.16300
H  30.51300 1.72700 28.84200
H  32.58100 2.14100 33.41100
H  32.49400 5.61200 35.75800
H  30.74200 5.43500 35.21700
H  31.87200 6.20200 34.15800
Mg 52.47300 24.19900 44.47200
C  49.75600 26.34200 44.02600
C  50.27600 21.52700 44.11400
C  55.13300 22.26600 43.90600
C  54.51900 27.05100 44.81900
N  50.31500 23.99400 43.83700
C  49.41000 25.04200 43.75000
C  47.97400 24.48600 43.59900
C  48.13200 22.98300 43.91000
C  49.71000 22.78200 44.01200
C  47.40100 22.30300 45.11800
C  47.17700 24.71300 42.26900
C  47.95700 24.58500 40.95000
H  47.40700 25.21400 39.72500
N  52.68100 22.10300 44.16400
C  51.65700 21.20600 44.29800
C  52.25100 19.90900 44.31400
C  53.68800 20.00100 44.22900
C  53.88300 21.48600 44.04100
C  51.40600 18.61800 44.58000
C  54.70700 18.90800 44.38500
O  54.39400 17.74800 44.58900
C  56.12600 19.30000 44.36000
N  54.46800 24.64000 44.30100
C  55.37200 23.62400 44.12700
C  56.82200 24.27800 43.94200
C  56.60800 25.81300 44.25100
C  55.10500 25.84800 44.42600
C  57.94100 23.50700 44.71800
C  57.20000 26.93300 43.30900
C  57.75100 28.22600 43.96700
N  52.21300 26.22800 44.50100
C  53.12800 27.25500 44.89400
C  52.35600 28.47400 45.11900
C  51.06900 28.11800 44.80000
C  51.05400 26.78400 44.37200
C  52.68500 29.75300 45.75300
C  49.71200 28.69000 44.79100
O  49.26000 29.68700 45.25500
C  48.84200 27.62700 44.11900
C  48.30000 28.06200 42.83200
O  48.89100 28.01400 41.74100
O  47.05100 28.54200 42.97700
C  46.40600 29.10800 41.80500
H  49.56300 20.71200 44.25300
H  56.02000 21.73000 43.56100
H  55.14600 27.93000 44.98100
H  47.43300 24.90900 44.44600
H  47.84200 22.31600 43.09900
H  47.15300 21.31600 44.72600
H  46.45600 22.76800 45.39900
H  48.05700 22.30000 45.98800
H  46.55900 25.60700 42.35800
H  46.49000 23.86800 42.29800
H  47.82000 23.54000 40.67400
H  48.96500 24.84600 41.27100
H  51.35100 17.86400 43.79500
H  50.45400 18.96800 44.97900
H  51.75700 18.01000 45.41300
H  56.67900 18.40200 44.63600
H  56.25700 20.04200 45.14800
H  56.48000 19.71800 43.41800
H  57.19000 24.17000 42.92200
H  57.08400 25.98300 45.21600
H  58.72000 24.23300 44.95200
H  58.22500 22.62300 44.14700
H  57.57400 23.12100 45.66900
H  56.34700 27.22300 42.69700
H  57.97900 26.51900 42.66900
H  57.86700 28.13300 45.04700
H  57.04400 29.02700 43.75300
H  58.63700 28.55200 43.42200
H  52.31300 30.63400 45.23100
H  53.76800 29.84000 45.84700
H  52.37800 29.80200 46.79700
H  47.94800 27.44900 44.71600
H  45.35300 29.31800 41.99300
H  46.41900 28.46900 40.92200
H  46.98000 29.95700 41.43500

