158

Mg -1.38400 34.28100 28.10300
C  -3.16000 32.55700 30.47100
C  -0.26600 36.44300 30.63300
C  0.32200 36.00000 25.64200
C  -2.79600 32.22400 25.57200
N  -1.73700 34.38600 30.28100
C  -2.46400 33.56700 31.03700
C  -2.32400 33.89700 32.56700
C  -1.59700 35.26300 32.55900
C  -1.11700 35.35100 31.07800
C  -2.62700 36.43100 32.90900
C  -1.53000 32.83200 33.42400
C  -2.36300 32.22100 34.57800
H  -1.51600 32.07500 35.84500
N  -0.10700 36.02400 28.12500
C  0.11900 36.83000 29.26500
C  0.98000 37.85500 28.82700
C  1.29900 37.69000 27.47400
C  0.51900 36.55100 26.98800
C  1.33300 38.87000 29.88100
C  2.25800 38.53300 26.56900
O  2.33400 38.31200 25.36400
C  3.03800 39.64700 27.17400
N  -1.22100 34.19800 25.90800
C  -0.38400 34.89600 25.18300
C  -0.44800 34.42300 23.71600
C  -1.18000 33.06000 23.80000
C  -1.79500 33.12700 25.19300
C  -1.14100 35.42300 22.78500
C  -0.39000 31.69400 23.64200
C  0.73000 31.43900 24.68100
N  -2.73100 32.74900 27.98400
C  -3.28000 32.07000 26.94000
C  -4.21400 31.07800 27.39100
C  -4.07800 31.10600 28.79000
C  -3.26000 32.20900 29.09400
C  -5.03900 30.19800 26.57000
C  -4.49500 30.47900 30.06900
O  -5.23600 29.56000 30.39600
C  -3.95900 31.40200 31.15900
C  -5.17800 31.89100 31.95700
O  -6.14800 32.48300 31.41400
O  -5.07700 31.52400 33.24200
C  -6.20000 31.82900 34.17000
H  0.06200 36.98300 31.52300
H  0.98800 36.45000 24.90300
H  -3.20300 31.55000 24.81500
H  -3.37000 33.94900 32.86900
H  -0.76300 35.36000 33.25400
H  -3.01000 36.89200 31.99900
H  -2.02300 37.15400 33.45800
H  -3.42000 36.01000 33.52700
H  -0.59600 33.28100 33.76100
H  -1.25000 32.03000 32.74200
H  -2.76500 31.23900 34.32800
H  -3.14900 32.94500 34.79300
H  0.74600 39.77400 29.71900
H  2.38700 39.07400 29.69000
H  1.19500 38.59400 30.92600
H  3.53300 40.40000 26.56000
H  3.80300 39.19100 27.80200
H  2.30200 40.19600 27.76200
H  0.59200 34.25400 23.43700
H  -2.03200 32.96500 23.12700
H  -0.60700 35.51800 21.84000
H  -1.26200 36.42700 23.19100
H  -2.14500 35.14800 22.46100
H  0.05200 31.74800 22.64700
H  -0.97600 30.77500 23.65300
H  0.89500 30.45400 25.11800
H  0.74300 32.15100 25.50700
H  1.67000 31.62000 24.16000
H  -5.72000 30.76800 25.93800
H  -5.63700 29.68500 27.32400
H  -4.38100 29.52100 26.02600
H  -3.30500 30.88700 31.86300
H  -6.57300 30.91200 34.62700
H  -7.00300 32.37900 33.68100
H  -5.85500 32.49400 34.96200
Mg -4.88600 25.34200 27.57000
C  -3.52000 26.47500 30.50300
C  -6.85400 23.06100 29.49700
C  -5.76600 23.73800 24.80800
C  -2.72900 27.29300 25.78800
N  -5.23400 24.91100 29.72000
C  -4.55300 25.55700 30.70900
C  -5.05300 25.20900 32.10900
C  -5.95200 23.97100 31.91800
C  -6.05900 23.96000 30.31700
C  -5.34600 22.62300 32.48200
C  -5.79200 26.43200 32.77600
C  -5.58600 26.65100 34.25300
H  -5.07400 25.51600 35.12900
N  -6.22400 23.66100 27.14000
C  -6.94000 22.89000 28.05600
C  -7.85700 22.04600 27.28900
C  -7.62900 22.26200 25.92600
C  -6.54200 23.22400 25.88000
C  -8.95000 21.09700 27.98800
C  -8.20900 21.57100 24.68900
O  -7.76600 21.76100 23.57200
C  -9.43300 20.71300 24.75700
N  -4.40600 25.57300 25.54400
C  -4.77300 24.70700 24.60400
C  -4.21100 25.10000 23.24100
C  -3.30900 26.42500 23.56000
C  -3.49800 26.45400 25.02900
C  -3.32400 23.99300 22.56900
C  -3.75500 27.70000 22.82200
C  -2.77200 28.32700 21.87600
N  -3.46900 26.61800 28.00500
C  -2.65000 27.37300 27.18200
C  -1.81700 28.23200 27.94100
C  -2.04400 27.85300 29.21600
C  -3.06200 26.83400 29.22600
C  -0.89000 29.21400 27.38900
C  -1.78200 28.21700 30.66200
O  -0.98000 28.96900 31.19900
C  -2.71600 27.26200 31.44700
C  -1.86300 26.45000 32.33100
O  -0.99500 25.71800 31.95600
O  -2.11500 26.78500 33.61800
C  -1.08900 26.39600 34.57500
H  -7.37400 22.20000 29.92200
H  -5.95500 23.18400 23.88700
H  -1.98100 27.78200 25.16000
H  -4.11700 24.98000 32.61900
H  -6.97900 24.04400 32.27500
H  -4.61800 22.84000 33.26300
H  -4.88900 22.00800 31.70600
H  -6.20500 22.07500 32.87100
H  -6.85000 26.16900 32.78800
H  -5.82100 27.33200 32.16100
H  -6.52400 26.85200 34.77100
H  -4.88900 27.45400 34.49100
H  -9.04000 20.18400 27.40000
H  -9.91600 21.60100 27.97100
H  -8.69600 20.93000 29.03500
H  -10.23600 20.99100 25.43900
H  -8.98800 19.73700 24.95000
H  -9.80300 20.71000 23.73100
H  -5.05800 25.36300 22.60800
H  -2.28400 26.20000 23.26200
H  -2.41900 23.95900 23.17600
H  -3.31200 24.28700 21.52000
H  -3.75000 23.01700 22.80300
H  -4.03400 28.46500 23.54600
H  -4.73800 27.57200 22.36700
H  -1.85700 27.74600 21.76100
H  -2.51000 29.35300 22.13500
H  -3.25800 28.21700 20.90700
H  0.18100 29.05500 27.50900
H  -0.95900 30.13300 27.97100
H  -1.17700 29.56700 26.39800
H  -3.35400 27.90000 32.05800
H  -0.83700 25.33500 34.59500
H  -1.43400 26.79000 35.53100
H  -0.17300 26.96600 34.42000

