158

Mg 2.07400 -0.97500 44.73800
C  5.50100 -0.32800 43.81200
C  1.10900 1.46000 42.61100
C  -1.01200 -2.51400 44.53300
C  3.38000 -4.15900 45.90800
N  3.27100 0.46600 43.42100
C  4.61500 0.58000 43.19300
C  4.80200 1.72700 42.24800
C  3.39100 2.47800 42.01400
C  2.50000 1.40800 42.68200
C  3.41200 3.92800 42.64700
C  5.50800 1.17600 40.97900
C  6.76900 1.87500 40.49000
H  6.76000 2.39500 39.03700
N  0.27500 -0.35100 44.00100
C  0.04200 0.67900 43.14900
C  -1.35900 0.72600 42.89500
C  -1.96900 -0.37500 43.49100
C  -0.89300 -1.17600 44.06200
C  -2.07600 1.79900 42.22200
C  -3.44800 -0.64100 43.56000
O  -4.22800 0.10200 42.99200
C  -4.13300 -1.78200 44.29100
N  1.30500 -3.04500 45.21700
C  -0.03300 -3.37200 45.00600
C  -0.36200 -4.74800 45.62900
C  1.10900 -5.35100 45.94600
C  1.99000 -4.15800 45.63600
C  -1.34000 -4.70200 46.87100
C  1.45900 -6.71300 45.27800
C  2.32800 -7.64900 46.16300
N  4.05300 -1.98600 45.02100
C  4.35100 -3.21500 45.62900
C  5.75900 -3.41700 45.68200
C  6.31200 -2.28600 45.00400
C  5.20000 -1.50500 44.61200
C  6.50100 -4.60500 46.33200
C  7.53500 -1.61900 44.49500
O  8.69400 -1.86000 44.64100
C  7.02500 -0.26800 43.74500
C  7.62600 0.83600 44.60400
O  7.42300 0.97900 45.85300
O  8.34900 1.70300 43.76100
C  8.24000 3.13600 43.94300
H  0.79200 2.23200 41.90800
H  -1.97300 -2.99200 44.73600
H  3.84100 -5.04000 46.36100
H  5.48500 2.37300 42.79900
H  3.10400 2.51000 40.96200
H  3.29700 4.74100 41.93000
H  4.24400 4.12700 43.32300
H  2.57000 3.99900 43.33600
H  4.84600 1.10600 40.11600
H  5.76700 0.14200 41.20300
H  7.57100 1.13800 40.52700
H  7.00400 2.67700 41.18900
H  -1.52300 2.47000 41.56500
H  -2.71700 2.43000 42.83800
H  -2.74200 1.30000 41.51800
H  -5.19300 -1.53200 44.31500
H  -3.85300 -1.85600 45.34200
H  -3.95900 -2.76600 43.85600
H  -0.69300 -5.41200 44.83000
H  1.28700 -5.48200 47.01400
H  -1.60500 -3.72100 47.26400
H  -1.03900 -5.31500 47.72100
H  -2.18200 -5.29500 46.51300
H  1.79100 -6.43400 44.27800
H  0.53700 -7.22200 44.99900
H  3.18600 -7.97800 45.57700
H  1.71200 -8.48700 46.48900
H  2.75500 -7.18300 47.05200
H  6.55800 -4.47200 47.41300
H  7.54100 -4.62200 46.00700
H  6.01300 -5.56300 46.15400
H  7.33600 -0.17900 42.70400
H  7.65900 3.39800 44.82700
H  7.69700 3.54800 43.09200
H  9.20200 3.64800 43.92200
Mg 36.00200 49.89300 25.84600
C  36.46200 48.05500 28.80800
C  35.11200 52.50400 27.64500
C  35.24000 51.22800 22.86700
C  37.15400 46.89800 24.03600
N  35.66700 50.09500 27.96500
C  35.92200 49.33000 29.02800
C  35.58300 49.93000 30.40100
C  35.03400 51.33700 29.90400
C  35.28000 51.32200 28.40200
C  33.60600 51.68800 30.33000
C  36.80400 50.03700 31.36500
C  36.65800 49.73100 32.86900
H  35.31600 49.50900 33.54100
N  35.32600 51.62600 25.34400
C  35.09800 52.67300 26.22200
C  34.80100 53.81500 25.44400
C  34.74200 53.45800 24.07700
C  35.04500 52.01500 24.06500
C  34.67300 55.14900 26.12900
C  34.51400 54.31500 22.85900
O  34.47000 53.84900 21.71500
C  34.32700 55.77900 22.86200
N  36.08800 49.12600 23.73400
C  35.78000 49.97300 22.74100
C  36.11500 49.33300 21.38600
C  37.08500 48.15700 21.76900
C  36.71900 47.97800 23.25300
C  34.81700 48.90400 20.64300
C  38.63500 48.54200 21.63900
C  39.63600 47.34700 21.76500
N  36.73500 47.90600 26.24500
C  37.14600 46.82500 25.44500
C  37.60000 45.76100 26.29000
C  37.30900 46.21200 27.59500
C  36.80700 47.50300 27.52000
C  38.30300 44.48400 25.88400
C  37.34900 45.77200 29.00600
O  37.60100 44.67100 29.54500
C  36.82000 47.00200 29.85700
C  35.70600 46.57500 30.69400
O  34.57600 46.33200 30.32100
O  36.15600 46.18600 31.95900
C  35.15300 45.52900 32.84700
H  34.92900 53.37600 28.27500
H  35.11000 51.71700 21.89900
H  37.61700 46.10000 23.45100
H  34.81400 49.29700 30.84400
H  35.67600 52.13700 30.27300
H  33.16800 50.84300 30.86100
H  32.99600 51.65900 29.42800
H  33.55300 52.67500 30.79100
H  37.27100 51.01300 31.23900
H  37.57300 49.36800 30.97800
H  37.14100 50.53800 33.42000
H  37.27500 48.87100 33.12900
H  35.53400 55.78800 25.93000
H  34.53300 55.14200 27.21000
H  33.73800 55.62800 25.84000
H  34.83600 56.22500 23.71700
H  33.26500 55.96200 23.02300
H  34.74100 56.18100 21.93700
H  36.52600 50.13800 20.77600
H  36.82900 47.21100 21.29300
H  34.78100 49.51300 19.74000
H  33.92800 49.31100 21.12500
H  34.71700 47.88400 20.27300
H  38.80800 49.25200 22.44800
H  38.81400 49.06900 20.70100
H  39.03000 46.47100 21.53300
H  40.20300 47.43300 22.69200
H  40.26600 47.60900 20.91500
H  38.99600 44.66100 25.06100
H  37.58500 43.73400 25.55200
H  38.88800 44.09700 26.71900
H  37.53100 47.38400 30.58900
H  34.82300 44.56500 32.46100
H  34.23400 46.07600 33.05700
H  35.51100 45.37100 33.86400

