158

Mg 36.77600 50.16000 25.50000
C  36.77000 48.29700 28.49300
C  35.58200 52.79900 27.11700
C  36.51600 51.79800 22.54500
C  37.69400 47.16500 23.84800
N  36.25900 50.49900 27.49500
C  36.33900 49.61000 28.60600
C  35.87300 50.32500 29.90200
C  35.29700 51.68500 29.34400
C  35.82000 51.66000 27.89000
C  33.79000 51.71200 29.41500
C  37.08800 50.61300 30.81500
C  36.83000 50.81300 32.36100
H  35.44600 50.72500 32.94900
N  36.07000 52.06900 24.90300
C  35.67400 52.99400 25.76800
C  35.41200 54.22600 25.08100
C  35.59000 54.03600 23.66400
C  36.10600 52.58700 23.63700
C  34.92300 55.41000 25.80100
C  35.36300 54.88400 22.52600
O  35.66400 54.54900 21.35200
C  34.58000 56.17900 22.70700
N  37.17100 49.55000 23.47400
C  36.86800 50.44100 22.43900
C  37.16700 49.78000 21.08300
C  37.56400 48.30600 21.47900
C  37.53300 48.34300 23.05200
C  35.97100 49.89000 20.06200
C  38.86100 47.73400 20.83800
C  40.17800 48.04900 21.54800
N  37.08300 48.11700 26.00600
C  37.56700 47.08500 25.26600
C  37.95000 45.94400 26.11100
C  37.67800 46.38600 27.43700
C  37.10300 47.67900 27.26800
C  38.48600 44.59700 25.64800
C  37.71100 46.12100 28.83700
O  37.93400 45.09500 29.46000
C  37.16600 47.31600 29.56300
C  36.09500 46.86000 30.46400
O  34.90100 46.80200 30.11800
O  36.63200 46.56300 31.69500
C  35.65000 45.92400 32.56900
H  35.30000 53.71100 27.64800
H  36.35800 52.30700 21.59200
H  38.08600 46.25300 23.39200
H  35.22200 49.71300 30.52600
H  35.69500 52.56200 29.85200
H  33.45600 52.32600 30.25100
H  33.36300 50.76000 29.73100
H  33.18800 51.83300 28.51400
H  37.52500 51.50100 30.35700
H  37.84200 49.82600 30.78700
H  37.25600 51.74900 32.72200
H  37.51300 50.17800 32.92500
H  34.45400 56.15200 25.15400
H  35.81500 55.81200 26.28200
H  34.12900 55.18700 26.51400
H  34.69100 56.72400 21.76900
H  35.16300 56.72800 23.44600
H  33.59400 55.77800 22.93900
H  37.99200 50.32100 20.61800
H  36.74300 47.63300 21.23400
H  35.73100 48.99500 19.48800
H  36.07100 50.70300 19.34200
H  35.07400 50.23300 20.57600
H  38.96200 47.85500 19.75900
H  38.78100 46.64800 20.86900
H  40.53200 47.16700 22.08200
H  40.12300 48.90800 22.21700
H  40.78900 48.40500 20.71900
H  38.04300 44.37300 24.67800
H  38.35400 43.76700 26.34300
H  39.57000 44.53500 25.54700
H  38.04200 47.70200 30.08300
H  34.92100 46.71700 32.72700
H  36.12900 45.72600 33.52800
H  35.08600 45.08400 32.16200
Mg 10.46100 48.17900 26.19200
C  8.36600 47.80000 29.00900
C  12.78600 49.41200 28.01700
C  12.06900 48.66500 23.25400
C  7.47500 47.32800 24.30500
N  10.39900 48.71000 28.25700
C  9.60000 48.24300 29.28000
C  10.19800 48.64200 30.66300
C  11.44000 49.42700 30.24100
C  11.56500 49.16100 28.73200
C  11.60600 50.94600 30.60100
C  10.54800 47.45300 31.62400
C  9.96900 47.48100 33.07100
H  10.49200 46.44900 34.14300
N  12.21000 48.89800 25.74500
C  13.16000 49.25200 26.65100
C  14.49100 49.22800 26.05100
C  14.25500 49.08400 24.69300
C  12.79900 48.81800 24.47400
C  15.71500 49.56400 26.82600
C  15.23100 49.03900 23.55900
O  14.89600 48.88800 22.40800
C  16.67800 49.30600 23.82200
N  9.92600 47.98500 24.05400
C  10.73900 48.33400 23.02800
C  10.01400 48.32000 21.68600
C  8.69200 47.58300 22.04200
C  8.63800 47.70900 23.58900
C  9.85300 49.74000 21.19100
C  8.49100 46.15500 21.37400
C  9.30100 45.05000 22.00000
N  8.36600 47.53000 26.46700
C  7.37900 47.20200 25.66700
C  6.14600 46.92200 26.43200
C  6.49000 47.15100 27.71300
C  7.82900 47.52400 27.69400
C  4.77100 46.56300 25.91300
C  5.94100 47.06600 29.07700
O  4.89300 46.61700 29.55300
C  7.21100 47.49200 29.96000
C  7.45700 46.27500 30.77400
O  7.96500 45.20400 30.37800
O  7.02400 46.51300 32.00500
C  7.00900 45.33000 32.85500
H  13.58400 49.63200 28.72900
H  12.61800 48.88400 22.33600
H  6.68600 46.93300 23.66200
H  9.64100 49.44200 31.14900
H  12.40700 49.07600 30.60100
H  12.33800 51.00500 31.40600
H  10.75600 51.52200 30.96900
H  11.95100 51.44000 29.69300
H  11.63000 47.32900 31.56100
H  10.09700 46.60100 31.11500
H  8.88200 47.55400 33.07400
H  10.29500 48.41200 33.53500
H  16.20400 50.43500 26.39200
H  16.30800 48.64900 26.84400
H  15.36500 49.84700 27.81800
H  16.92700 50.36700 23.80300
H  17.14500 48.58000 23.15700
H  17.00100 49.04200 24.83000
H  10.37300 47.58800 20.96200
H  7.78500 48.10300 21.73600
H  8.82300 50.09100 21.25300
H  9.85600 49.78900 20.10200
H  10.64700 50.39500 21.55000
H  8.64000 46.15100 20.29400
H  7.42300 45.97300 21.48700
H  9.76400 45.41000 22.91900
H  10.04400 44.71000 21.27800
H  8.62600 44.27500 22.36200
H  4.88700 45.64300 25.34000
H  4.31800 47.41300 25.40400
H  4.16000 46.25700 26.76200
H  6.91800 48.30300 30.62700
H  6.73000 45.62300 33.86800
H  8.01400 44.91200 32.90000
H  6.24000 44.63300 32.52300

