158

Mg 48.95600 34.89000 26.98500
C  47.14100 33.43500 29.63000
C  49.06900 37.84800 28.99700
C  50.72800 36.30000 24.67100
C  48.01100 32.20100 24.87700
N  48.20800 35.52200 29.13900
C  47.66400 34.68000 30.03700
C  47.55000 35.34200 31.41200
C  47.74700 36.89800 31.10300
C  48.37900 36.78700 29.67600
C  46.40300 37.77200 31.14900
C  48.49300 34.67900 32.41600
C  47.97500 34.26400 33.86500
H  47.01700 35.24500 34.57000
N  49.89800 36.74100 26.94100
C  49.80300 37.86000 27.78400
C  50.52000 38.99900 27.21800
C  51.04800 38.45900 25.98600
C  50.64200 37.05200 25.78900
C  50.50500 40.35600 27.75600
C  51.94200 39.18200 24.86900
O  52.53400 38.62800 23.97300
C  52.32100 40.68800 25.01000
N  49.23000 34.40500 25.10700
C  50.09700 35.09200 24.30900
C  50.54700 34.36700 23.03200
C  49.73000 33.06600 23.11900
C  48.90700 33.21300 24.42600
C  50.29900 35.19000 21.69800
C  50.56800 31.73800 23.20100
C  49.97600 30.57600 22.38900
N  47.72800 33.17300 27.15200
C  47.36300 32.21200 26.20200
C  46.51600 31.21400 26.86100
C  46.47200 31.65000 28.23000
C  47.09300 32.92400 28.32400
C  45.88900 30.03700 26.25300
C  45.88200 31.31000 29.49000
O  45.25400 30.38500 29.91800
C  46.20300 32.48700 30.46400
C  46.72200 31.82600 31.71400
O  47.86800 31.44500 31.87400
O  45.64400 31.62100 32.57800
C  45.99800 30.82500 33.71300
H  49.00100 38.71800 29.65400
H  51.30300 36.72500 23.84600
H  47.64000 31.36800 24.27500
H  46.54800 35.31700 31.84000
H  48.46500 37.35200 31.78500
H  45.95700 37.81400 30.15500
H  46.69800 38.74300 31.54600
H  45.72600 37.30800 31.86600
H  49.24200 35.46000 32.54900
H  48.92300 33.82700 31.88900
H  48.86700 34.25400 34.49200
H  47.58100 33.24800 33.88600
H  49.86700 41.05500 27.21400
H  51.48600 40.81900 27.65100
H  50.27400 40.38300 28.82100
H  52.71600 41.05100 24.06200
H  53.06500 40.68000 25.80700
H  51.49000 41.25500 25.42900
H  51.58100 34.05100 23.17000
H  48.97700 33.00500 22.33500
H  49.95600 34.58700 20.85700
H  51.22700 35.62900 21.33100
H  49.65600 36.03200 21.95400
H  50.59700 31.41400 24.24100
H  51.58900 31.98100 22.90500
H  48.98900 30.74800 21.96100
H  49.88500 29.70700 23.04000
H  50.57900 30.36100 21.50600
H  46.38600 29.73600 25.33000
H  44.86700 30.26900 25.95300
H  45.85300 29.19200 26.94000
H  45.25100 32.99500 30.62100
H  45.87100 29.77700 33.44500
H  45.29000 31.12600 34.48500
H  47.01800 30.87300 34.09300
Mg 26.49600 49.54800 25.80200
C  24.51900 51.00800 28.27900
C  28.80200 48.60000 28.19500
C  28.72800 48.41200 23.38800
C  24.31300 50.66900 23.45100
N  26.56000 49.75900 27.94300
C  25.64000 50.32800 28.82100
C  26.00800 50.25400 30.37300
C  27.44400 49.69400 30.14000
C  27.61900 49.28800 28.65700
C  28.52700 50.62000 30.70600
C  25.07000 49.22700 31.07100
C  24.39100 49.63300 32.37700
H  25.28900 50.09400 33.58100
N  28.45200 48.55800 25.75200
C  29.24900 48.38200 26.86900
C  30.51700 47.85400 26.45600
C  30.51200 47.78100 25.02800
C  29.18000 48.25600 24.67200
C  31.66900 47.47300 27.47600
C  31.60400 47.35100 24.00600
O  31.54200 47.50000 22.80800
C  32.87400 46.80200 24.55600
N  26.59300 49.65300 23.65200
C  27.58300 49.02900 22.90800
C  27.16600 48.88200 21.45400
C  25.62100 49.53300 21.46500
C  25.45100 49.93200 22.95000
C  28.10200 49.51900 20.43200
C  24.54000 48.62900 20.94900
C  24.13900 47.58000 21.92700
N  24.81100 50.71000 25.77600
C  23.96400 51.12700 24.75800
C  22.84500 51.83700 25.26800
C  23.05100 51.87600 26.66800
C  24.21400 51.16000 26.94500
C  21.72600 52.42800 24.49100
C  22.49800 52.28700 27.98200
O  21.46000 52.92100 28.27000
C  23.49400 51.71000 29.08900
C  23.85300 53.05200 29.80500
O  24.15500 54.08500 29.24200
O  23.69000 52.82300 31.13300
C  23.81400 54.07200 31.87400
H  29.43900 48.21400 28.99300
H  29.23400 48.03400 22.49700
H  23.68600 51.01400 22.62600
H  26.02700 51.19200 30.92800
H  27.63700 48.71900 30.58900
H  28.44200 51.61200 30.26300
H  29.49100 50.17700 30.45700
H  28.43500 50.51200 31.78700
H  25.60500 48.30900 31.31000
H  24.23200 48.96000 30.42700
H  23.58400 48.99900 32.74300
H  23.86600 50.52600 32.03800
H  32.61300 47.91500 27.15900
H  31.94600 46.42800 27.33800
H  31.56800 47.63300 28.54900
H  33.48300 46.28400 23.81500
H  32.69700 46.01400 25.28800
H  33.51900 47.59800 24.92900
H  26.98600 47.83100 21.22800
H  25.62400 50.44500 20.86900
H  29.04800 49.77400 20.91100
H  27.66600 50.33800 19.86000
H  28.42300 48.71100 19.77500
H  24.66000 48.29000 19.92000
H  23.64000 49.23700 20.86900
H  24.96000 47.48000 22.63700
H  23.88200 46.65000 21.42000
H  23.23000 47.97200 22.38500
H  21.69600 51.92500 23.52500
H  21.99600 53.45600 24.24900
H  20.73400 52.34200 24.93500
H  22.86900 51.03300 29.67100
H  24.44000 54.90400 31.55000
H  24.39800 53.75700 32.73900
H  22.90300 54.43900 32.34700

