158

Mg 27.69400 49.87900 26.46600
C  25.38100 51.08200 29.03000
C  29.75400 49.04100 28.83700
C  29.58800 48.87100 23.99400
C  25.25300 51.02800 24.17600
N  27.48300 50.08100 28.69800
C  26.53600 50.52300 29.54300
C  26.90200 50.27300 31.00000
C  28.45800 49.97000 30.87100
C  28.56800 49.62700 29.37000
C  29.41000 51.15700 31.34400
C  26.06600 49.20900 31.68900
C  25.08500 49.75200 32.76800
H  25.35000 49.21500 34.21000
N  29.47800 49.14900 26.46800
C  30.19000 48.84500 27.53000
C  31.38700 48.03800 27.11200
C  31.41000 48.06500 25.69600
C  30.13600 48.69600 25.32100
C  32.35800 47.43100 28.09300
C  32.36800 47.48900 24.70100
O  32.37300 47.87400 23.55400
C  33.46200 46.53600 25.17200
N  27.53400 50.15800 24.31900
C  28.41500 49.51400 23.53300
C  27.98500 49.56400 22.07900
C  26.48300 50.00000 22.21600
C  26.42100 50.46000 23.67900
C  28.77400 50.62900 21.21800
C  25.46400 48.92500 21.85500
C  24.22800 49.48700 21.13600
N  25.74400 51.02500 26.51300
C  24.83300 51.35000 25.52600
C  23.55300 51.94300 26.06800
C  23.78800 51.89600 27.42800
C  25.10200 51.33000 27.67500
C  22.43000 52.53700 25.33800
C  23.23400 52.27000 28.73500
O  22.14200 52.82300 29.03600
C  24.22500 51.70000 29.81100
C  24.67000 52.88400 30.58000
O  25.63000 53.60300 30.37600
O  23.83500 53.10400 31.66100
C  24.05500 54.28700 32.43600
H  30.34100 48.56600 29.62700
H  30.07900 48.26700 23.22800
H  24.50800 51.18400 23.39300
H  26.85700 51.24300 31.49500
H  28.81800 49.11300 31.44000
H  28.87100 52.04000 31.68900
H  29.98700 51.52400 30.49500
H  30.11000 50.89900 32.13800
H  26.71400 48.53200 32.24500
H  25.42000 48.67700 30.99100
H  24.08400 49.42800 32.48500
H  25.04000 50.84100 32.78800
H  32.05500 47.60600 29.12600
H  33.34200 47.87100 27.93100
H  32.31000 46.36000 27.90000
H  34.35600 46.93500 25.65100
H  33.81000 46.14100 24.21700
H  33.01100 45.66700 25.65200
H  28.04300 48.60500 21.56400
H  26.22800 50.87500 21.61700
H  29.64000 50.97300 21.78200
H  28.12700 51.40100 20.80300
H  29.29300 50.23000 20.34600
H  25.18200 48.53300 22.83200
H  26.00800 48.17800 21.27600
H  23.37500 49.52300 21.81300
H  24.03400 48.83900 20.28100
H  24.42800 50.48300 20.74000
H  22.62600 53.60400 25.43900
H  21.45600 52.19900 25.69000
H  22.54300 52.22400 24.30000
H  23.70100 51.04200 30.50400
H  23.24300 54.44700 33.14600
H  24.14700 55.20000 31.84800
H  25.00300 54.11500 32.94500
Mg 7.55900 53.26700 41.26500
C  7.06300 49.72300 40.70200
C  10.85400 52.73300 40.25500
C  7.96900 56.46800 41.10800
C  4.13700 53.42200 41.68300
N  8.79800 51.46400 40.52500
C  8.32800 50.18500 40.39900
C  9.55100 49.25900 39.98100
C  10.81000 50.21000 40.17700
C  10.14100 51.58200 40.37600
C  11.69800 49.78200 41.33400
C  9.49900 48.72200 38.56200
C  9.13400 49.55600 37.35300
H  8.20300 48.95200 36.27700
N  9.20600 54.45700 40.75800
C  10.46400 54.04700 40.32200
C  11.30000 55.16500 40.08000
C  10.40600 56.33900 40.29000
C  9.14900 55.83300 40.72400
C  12.68300 54.98100 39.63200
C  10.80400 57.74300 39.97900
O  11.94400 58.01900 39.72200
C  9.76700 58.90200 39.84800
N  6.11900 54.74100 41.06400
C  6.64000 55.99400 41.32200
C  5.54400 56.98300 41.74700
C  4.26700 56.01800 41.89500
C  4.86800 54.65400 41.58100
C  5.88700 57.86200 43.05500
C  3.04700 56.36800 41.13500
C  3.10800 56.32400 39.64900
N  5.92900 51.95700 41.33600
C  4.53600 52.15600 41.48900
C  3.84300 50.94200 41.52300
C  4.85200 49.96500 41.26900
C  6.08200 50.59700 41.14600
C  2.38700 50.67600 41.74600
C  5.04200 48.55000 41.12600
O  4.19700 47.63800 41.09800
C  6.45400 48.33200 40.71300
C  6.34200 47.61400 39.43600
O  5.84900 48.08300 38.41000
O  6.89900 46.37400 39.54200
C  6.79800 45.46400 38.37500
H  11.88200 52.42300 40.05700
H  8.09500 57.53500 41.30300
H  3.08100 53.46000 41.95700
H  9.64000 48.43500 40.68800
H  11.27200 50.26000 39.19000
H  11.67800 48.70700 41.51200
H  11.15500 50.29200 42.13100
H  12.68200 50.20700 41.14000
H  8.71700 47.96300 38.53200
H  10.40400 48.13000 38.42600
H  10.05400 49.84600 36.84500
H  8.66900 50.44200 37.78500
H  12.79700 54.12400 38.96900
H  13.39000 54.91300 40.45900
H  12.90100 55.89300 39.07600
H  9.05600 58.60200 39.07800
H  10.23000 59.84100 39.54500
H  9.28800 59.21800 40.77500
H  5.40500 57.66800 40.91100
H  4.07500 56.14800 42.96000
H  5.97200 58.92800 42.84300
H  6.88400 57.56100 43.37900
H  5.18900 57.63900 43.86200
H  2.86000 57.40900 41.39900
H  2.17300 55.82900 41.50100
H  2.08600 56.45400 39.29300
H  3.53700 55.38000 39.31500
H  3.70200 57.16400 39.28900
H  2.14400 49.64700 41.47900
H  1.66800 51.32000 41.23900
H  2.40000 50.87500 42.81700
H  6.92300 47.64000 41.41200
H  6.98400 45.98300 37.43500
H  5.81000 45.00400 38.34300
H  7.63400 44.76500 38.39200

