158

Mg 24.97200 -5.30200 46.33600
C  27.27400 -3.06000 44.82400
C  22.66500 -4.43100 44.06900
C  23.10700 -7.91300 47.53900
C  27.70900 -6.50900 48.31800
N  25.12100 -4.07400 44.48000
C  26.09100 -3.19600 44.10500
C  25.65900 -2.34300 42.90300
C  24.07100 -2.49800 42.98300
C  23.90000 -3.75800 43.89400
C  23.23000 -1.32600 43.45800
C  26.26600 -2.84700 41.50200
C  26.80700 -1.84600 40.46600
H  26.35400 -1.97900 38.99500
N  23.04100 -6.05700 45.81400
C  22.21700 -5.56700 44.83000
C  20.96500 -6.22100 44.89300
C  21.02400 -7.17800 45.97200
C  22.45300 -7.08500 46.52300
C  19.82800 -5.78100 44.01000
C  19.93400 -8.06700 46.38200
O  18.82900 -8.14200 45.86800
C  20.07000 -8.81400 47.62400
N  25.39400 -6.93900 47.61800
C  24.46500 -7.89500 47.97100
C  25.08400 -9.03200 48.78200
C  26.59500 -8.73300 48.68600
C  26.56200 -7.28000 48.18600
C  24.43600 -9.15600 50.22700
C  27.48800 -9.63200 47.76500
C  28.71900 -10.41900 48.39000
N  26.98300 -4.74100 46.67700
C  27.95500 -5.35500 47.50400
C  29.18700 -4.53100 47.41900
C  28.91200 -3.62200 46.38900
C  27.64300 -3.84400 45.95000
C  30.41100 -4.70900 48.05500
C  29.51100 -2.57800 45.56400
O  30.62100 -2.12800 45.61800
C  28.51700 -2.18300 44.52300
C  28.31100 -0.74800 44.60000
O  27.32000 -0.22600 45.04200
O  29.40400 -0.11100 44.08800
C  29.19600 1.31500 43.81100
H  21.88200 -4.06500 43.40200
H  22.55000 -8.77600 47.91000
H  28.52300 -6.96600 48.88400
H  26.00700 -1.33200 43.11400
H  23.69300 -2.83600 42.01800
H  22.45300 -1.05000 42.74500
H  23.70000 -0.35300 43.59900
H  22.81100 -1.54100 44.44200
H  25.49800 -3.43100 40.99600
H  27.09300 -3.53300 41.68600
H  27.89100 -1.82500 40.57500
H  26.41700 -0.88500 40.80200
H  19.16600 -6.64300 43.93300
H  20.37100 -5.68400 43.07000
H  19.38800 -4.84400 44.35000
H  19.11700 -9.13400 48.04700
H  20.46300 -8.01200 48.24900
H  20.74600 -9.62900 47.36700
H  25.03000 -9.98700 48.25800
H  27.10000 -8.63800 49.64700
H  23.42500 -8.74900 50.20600
H  24.98400 -8.64300 51.01700
H  24.37400 -10.21600 50.47700
H  27.84300 -9.06000 46.90800
H  26.78400 -10.41200 47.47700
H  28.88400 -11.35800 47.86100
H  28.67200 -10.62400 49.46000
H  29.63900 -9.87800 48.16900
H  30.15500 -4.74900 49.11300
H  31.10700 -3.88400 47.89900
H  30.89900 -5.65200 47.81200
H  28.99400 -2.30100 43.54900
H  30.17200 1.78700 43.69700
H  28.56800 1.84500 44.52800
H  28.77900 1.33100 42.80400
Mg 25.26000 0.55900 29.58700
C  27.46000 0.15900 32.36000
C  22.61900 0.54200 31.87600
C  23.23700 0.39700 27.02800
C  27.94700 -0.30700 27.43800
N  25.08300 0.35400 31.82600
C  26.08600 0.44400 32.73600
C  25.54900 0.60800 34.24400
C  23.98700 0.48000 33.98800
C  23.85100 0.38100 32.48800
C  23.33900 -0.75400 34.79300
C  26.01900 1.90800 34.92300
C  26.92600 1.85500 36.12400
H  26.56800 2.83500 37.15900
N  23.26500 0.60300 29.48600
C  22.36500 0.62200 30.51300
C  21.03600 0.75700 29.92900
C  21.16900 0.84100 28.54700
C  22.58100 0.56800 28.30800
C  19.73100 0.91800 30.65600
C  20.10300 1.00000 27.41000
O  20.44200 1.01500 26.27000
C  18.53200 1.22400 27.65600
N  25.54400 -0.11000 27.46700
C  24.54100 0.03800 26.62400
C  25.04800 -0.09900 25.20200
C  26.59900 -0.18000 25.23500
C  26.75900 -0.16600 26.75500
C  24.32500 -1.21600 24.30900
C  27.36200 0.97800 24.53400
C  28.37300 0.52500 23.48900
N  27.28800 0.02500 29.71700
C  28.25400 -0.23500 28.78300
C  29.55100 -0.40900 29.46200
C  29.22500 -0.27500 30.85000
C  27.83800 -0.04300 31.00400
C  30.87200 -0.57200 28.78600
C  29.84400 -0.23300 32.14000
O  31.00100 -0.43300 32.44900
C  28.69900 0.11500 33.16900
C  28.64000 -0.91700 34.23300
O  28.11000 -2.03100 34.08400
O  29.43700 -0.60000 35.32200
C  29.50300 -1.59000 36.43700
H  21.69900 0.55200 32.46500
H  22.61700 0.50500 26.13500
H  28.78500 -0.60400 26.80400
H  26.03200 -0.27300 34.66700
H  23.42900 1.29500 34.44800
H  24.04600 -1.55600 35.00500
H  22.50200 -1.20500 34.25800
H  22.80700 -0.18500 35.55500
H  25.10500 2.39100 35.26700
H  26.55100 2.45600 34.14500
H  27.94300 1.98900 35.75600
H  26.72900 0.89800 36.60800
H  18.98800 0.23000 30.25200
H  19.25500 1.87900 30.46300
H  19.72800 0.85500 31.74400
H  17.97500 1.39800 26.73500
H  18.32100 1.94000 28.45100
H  18.28300 0.20800 27.96100
H  24.82700 0.89600 24.81500
H  26.94000 -1.12200 24.80600
H  23.48400 -1.74500 24.75700
H  25.06700 -1.96600 24.03600
H  23.86000 -0.67800 23.48400
H  27.89600 1.52200 25.31300
H  26.72500 1.75800 24.11900
H  28.46400 -0.56100 23.48300
H  29.27000 1.08500 23.75600
H  27.89600 0.88300 22.57700
H  31.61400 0.08300 29.24300
H  30.72000 -0.21800 27.76600
H  31.28000 -1.58100 28.72700
H  29.03400 1.06500 33.58500
H  29.45600 -2.61400 36.06500
H  28.63700 -1.39900 37.07100
H  30.41600 -1.39800 37.00000

