158

Mg 17.07200 51.77400 25.50000
C  18.72500 50.31100 28.38500
C  14.52500 52.38700 27.63800
C  15.47400 52.87800 22.93400
C  19.61600 50.45800 23.57400
N  16.79800 51.55900 27.81900
C  17.60700 50.97700 28.76800
C  17.05700 51.23200 30.19600
C  15.57200 51.78700 29.85300
C  15.57400 51.90700 28.34900
C  14.36800 51.03200 30.44600
C  18.03300 52.32100 30.90500
C  18.05600 52.37600 32.41600
H  17.15900 51.35200 33.13700
N  15.25700 52.51400 25.29100
C  14.32200 52.74700 26.25200
C  13.10800 53.38800 25.70200
C  13.36200 53.55400 24.28200
C  14.67200 52.91300 24.06800
C  12.00700 53.91200 26.50100
C  12.54700 54.32400 23.30600
O  12.80800 54.48300 22.11700
C  11.35300 55.14800 23.77400
N  17.41000 51.60200 23.46400
C  16.63800 52.17100 22.54100
C  17.29300 52.15500 21.18000
C  18.73200 51.51400 21.48300
C  18.51400 51.08500 22.91100
C  16.40200 51.59900 20.00800
C  19.98400 52.42800 21.27700
C  20.95100 52.00400 20.09400
N  18.72900 50.58600 25.82300
C  19.72400 50.14000 24.91500
C  20.72400 49.42100 25.56000
C  20.36800 49.46300 26.92800
C  19.13200 50.17100 27.02600
C  21.88200 48.78600 24.86300
C  20.81600 49.04300 28.29300
O  21.83900 48.49000 28.63400
C  19.69900 49.52300 29.26400
C  19.13200 48.28900 29.99800
O  18.80200 47.24400 29.46300
O  19.18100 48.48600 31.32700
C  18.88300 47.27100 32.12400
H  13.66800 52.56100 28.29200
H  14.93500 53.32700 22.09700
H  20.55900 50.30700 23.04400
H  17.00000 50.37100 30.86200
H  15.50400 52.78600 30.28600
H  13.64300 51.65400 30.97000
H  14.73400 50.27300 31.13800
H  13.87600 50.46500 29.65500
H  17.58300 53.28400 30.66500
H  19.01500 52.26400 30.43500
H  17.82500 53.40600 32.68900
H  19.07800 52.06600 32.63200
H  12.07200 54.99500 26.39300
H  12.20300 53.64900 27.54000
H  11.02400 53.55900 26.18800
H  10.85300 55.67600 22.96200
H  11.74500 55.91000 24.44800
H  10.62500 54.48800 24.24500
H  17.34600 53.23900 21.07300
H  18.81900 50.65300 20.82000
H  15.68900 50.96800 20.53800
H  17.04600 51.02100 19.34500
H  16.02800 52.42200 19.39900
H  20.57500 52.43200 22.19300
H  19.62300 53.45500 21.21100
H  20.78200 52.74800 19.31600
H  20.92900 51.01300 19.63900
H  21.98900 52.08400 20.41700
H  22.01600 49.20500 23.86500
H  21.73100 47.70800 24.80000
H  22.84900 49.04800 25.29200
H  20.16700 50.15300 30.02100
H  17.94100 46.82300 31.80600
H  18.96000 47.39900 33.20300
H  19.63400 46.50200 31.94300
Mg -5.97900 25.34000 25.70000
C  -3.97100 26.69800 28.17700
C  -7.40900 23.31800 27.94000
C  -7.56800 23.85800 23.15300
C  -3.72900 26.97500 23.32800
N  -5.67900 25.01700 27.78300
C  -4.95500 25.81900 28.68200
C  -5.31300 25.40900 30.15800
C  -6.03100 24.10400 30.02700
C  -6.39900 24.13100 28.52500
C  -5.16500 22.82100 30.33200
C  -6.04100 26.54100 30.89000
C  -5.64000 26.69300 32.33300
H  -5.22900 25.46100 33.08800
N  -7.31100 23.81900 25.57300
C  -7.86200 23.13000 26.61600
C  -8.94700 22.27500 26.12300
C  -9.00300 22.47700 24.72800
C  -7.93000 23.36700 24.41400
C  -9.87600 21.47800 26.99500
C  -9.89100 21.80000 23.62700
O  -9.68000 21.90700 22.37900
C  -11.07600 20.88400 23.91900
N  -5.44900 25.20300 23.54100
C  -6.43500 24.64700 22.77000
C  -6.03000 24.82000 21.30800
C  -4.93000 25.97300 21.27100
C  -4.63700 26.02800 22.79100
C  -5.60600 23.46000 20.74800
C  -5.29600 27.34200 20.67600
C  -4.71800 27.58000 19.22300
N  -4.34400 26.67100 25.67200
C  -3.57400 27.27600 24.68000
C  -2.62400 28.18700 25.23200
C  -2.69500 28.01000 26.62100
C  -3.68500 27.00000 26.79700
C  -1.73500 29.15000 24.52400
C  -2.20600 28.36700 27.90100
O  -1.31800 29.18300 28.12100
C  -2.98800 27.57900 28.93300
C  -2.07200 26.72100 29.75500
O  -1.68900 25.62100 29.59300
O  -1.74900 27.48800 30.84300
C  -1.00800 26.88900 31.97100
H  -7.86100 22.59500 28.62300
H  -8.18000 23.48400 22.32900
H  -3.16400 27.51900 22.56800
H  -4.33100 25.30700 30.62000
H  -6.88300 24.00700 30.70000
H  -5.03200 22.60500 31.39200
H  -4.32000 22.83300 29.64400
H  -5.79900 22.02700 29.93900
H  -7.12800 26.46700 30.89800
H  -5.83200 27.46900 30.35900
H  -6.42000 27.15400 32.93800
H  -4.74100 27.29500 32.20100
H  -9.63300 21.41300 28.05600
H  -9.76300 20.48700 26.55500
H  -10.88000 21.88800 26.88800
H  -11.93800 21.39200 24.35100
H  -10.73700 20.11800 24.61600
H  -11.31900 20.35100 22.99900
H  -6.92800 25.32000 20.94600
H  -3.97000 25.62000 20.89600
H  -5.62000 22.71300 21.54200
H  -4.61100 23.59200 20.32400
H  -6.29800 23.27000 19.92700
H  -5.01100 28.22100 21.25500
H  -6.38600 27.37300 20.70100
H  -5.36700 27.69700 18.35400
H  -4.14800 26.70300 18.91800
H  -4.00000 28.39500 19.31200
H  -0.76900 29.03500 25.01600
H  -2.05800 30.19100 24.54600
H  -1.55900 28.89900 23.47800
H  -3.51900 28.22900 29.62900
H  -0.66500 25.85700 31.90000
H  -1.70600 27.01500 32.79900
H  -0.14300 27.47300 32.28400

