158

Mg 8.64400 3.16400 27.48300
C  10.02500 1.85800 30.33700
C  6.77300 5.38300 29.52900
C  7.25400 4.40600 24.69700
C  9.83900 0.39300 25.61300
N  8.41500 3.58400 29.72000
C  9.15600 2.95100 30.66000
C  8.86600 3.59800 32.02500
C  7.68700 4.59600 31.73800
C  7.62300 4.57500 30.24900
C  6.27700 4.25100 32.17700
C  10.10600 4.30200 32.63000
C  10.47200 3.96700 34.11700
H  10.74700 5.08800 35.14900
N  7.33500 4.79500 27.07500
C  6.65000 5.50700 28.10000
C  5.77800 6.39100 27.41100
C  5.91300 6.16700 25.99100
C  6.92800 5.09100 25.87700
C  4.93100 7.41200 28.05200
C  5.10900 6.76900 24.81100
O  5.45000 6.59000 23.63400
C  3.81600 7.54900 25.11100
N  8.76200 2.53800 25.31200
C  8.01200 3.22800 24.35600
C  8.07300 2.50900 22.94200
C  8.88600 1.22200 23.31500
C  9.16700 1.33700 24.80800
C  6.77900 2.12800 22.29900
C  10.17100 0.84600 22.50200
C  10.03600 -0.47000 21.79600
N  9.58900 1.46300 27.79600
C  10.08100 0.48300 27.01700
C  10.80600 -0.47700 27.88800
C  10.95300 0.05700 29.13700
C  10.15200 1.25000 29.07600
C  11.54100 -1.70300 27.35800
C  11.52900 -0.09200 30.46500
O  12.26200 -0.96900 30.96400
C  10.93600 1.10900 31.29100
C  10.20200 0.50100 32.42300
O  9.15500 -0.07200 32.29900
O  11.00500 0.64100 33.55400
C  10.34900 0.13900 34.79000
H  6.32700 6.16800 30.14300
H  6.74700 4.70500 23.77700
H  10.23400 -0.51000 25.14300
H  8.31200 2.85600 32.59900
H  7.88000 5.59700 32.12400
H  5.77500 5.16900 32.48000
H  6.22800 3.53100 32.99400
H  5.62100 3.79300 31.43700
H  10.00500 5.37700 32.48000
H  10.93900 3.90600 32.04800
H  11.37500 3.36700 34.00100
H  9.70600 3.29600 34.50800
H  5.32700 7.77300 29.00200
H  3.93200 7.00600 28.21000
H  5.12300 8.30800 27.46100
H  3.21900 7.63200 24.20300
H  4.19400 8.48400 25.52400
H  3.38200 6.94800 25.90900
H  8.67600 3.05700 22.21800
H  8.21300 0.36400 23.31900
H  6.10800 2.33400 23.13200
H  6.63200 1.07700 22.04900
H  6.55800 2.84400 21.50800
H  11.05900 0.81000 23.13300
H  10.41400 1.73300 21.91700
H  10.21200 -0.40600 20.72200
H  9.09200 -0.97800 21.98700
H  10.78200 -1.20900 22.08800
H  12.58800 -1.42400 27.23900
H  11.06200 -2.00800 26.42800
H  11.45100 -2.48700 28.11000
H  11.71500 1.81700 31.57300
H  9.66800 -0.70200 34.65900
H  9.64900 0.93700 35.03900
H  11.02800 -0.07800 35.61500
Mg -2.47400 35.14300 26.40100
C  -4.13300 33.36200 28.81200
C  -1.24400 37.26200 28.81900
C  -1.55700 37.34700 23.94300
C  -4.17100 33.27100 24.00600
N  -2.62800 35.21300 28.54600
C  -3.18300 34.29200 29.37400
C  -2.89800 34.63900 30.91500
C  -2.12700 36.00300 30.87100
C  -1.97000 36.21400 29.29000
C  -2.61800 37.19700 31.69800
C  -2.00700 33.53300 31.61200
C  -2.75700 32.62200 32.66200
H  -2.22200 32.50200 34.12400
N  -1.36700 37.01000 26.33200
C  -0.92800 37.67900 27.47000
C  0.08900 38.70300 26.99800
C  -0.10600 38.74200 25.53900
C  -1.05000 37.69100 25.17000
C  0.95700 39.45000 28.03100
C  0.54000 39.65000 24.51500
O  0.39800 39.66600 23.30400
C  1.46900 40.60800 24.98100
N  -2.94300 35.39600 24.34900
C  -2.43800 36.33500 23.51800
C  -2.99000 36.27000 22.08400
C  -3.71900 34.85300 22.15700
C  -3.47000 34.43400 23.59000
C  -3.96800 37.45500 21.74400
C  -2.99700 33.85200 21.11900
C  -1.70200 32.99800 21.45600
N  -3.75700 33.51000 26.34800
C  -4.31000 32.80400 25.31900
C  -5.05900 31.74900 25.88500
C  -4.97300 31.92300 27.23200
C  -4.23400 33.03500 27.49100
C  -5.86700 30.76300 25.12700
C  -5.44900 31.31800 28.48000
O  -6.14800 30.32600 28.65600
C  -4.78100 32.19500 29.62800
C  -5.85300 32.62400 30.58900
O  -6.60400 33.62300 30.45800
O  -6.02900 31.69200 31.59700
C  -6.91800 32.16800 32.67200
H  -0.81500 37.97300 29.52800
H  -1.33800 38.09500 23.17800
H  -4.74600 32.76100 23.23100
H  -3.86100 34.72600 31.41800
H  -1.11000 35.82100 31.21800
H  -1.83900 37.37900 32.43900
H  -3.51700 36.88700 32.23000
H  -2.85700 38.05700 31.07400
H  -1.12500 33.94400 32.10300
H  -1.66100 32.83700 30.84600
H  -2.82600 31.59600 32.30200
H  -3.78200 32.96800 32.79800
H  0.64400 40.49300 28.06900
H  1.98500 39.56600 27.68800
H  0.83600 39.12000 29.06300
H  2.32200 40.00000 25.28400
H  1.11100 41.08000 25.89600
H  1.77300 41.28100 24.17900
H  -2.18000 36.40900 21.36800
H  -4.78500 34.97800 21.96500
H  -4.26700 38.05600 22.60300
H  -4.89200 37.23900 21.20700
H  -3.42500 38.18800 21.14700
H  -2.87600 34.44200 20.21000
H  -3.82500 33.18700 20.87400
H  -1.00300 32.83800 20.63500
H  -2.05300 31.97700 21.60400
H  -1.28200 33.39700 22.38000
H  -5.20600 30.31500 24.38500
H  -6.62200 31.27800 24.53300
H  -6.38300 30.02000 25.73400
H  -3.95200 31.77300 30.19500
H  -6.17300 32.71300 33.25100
H  -7.30600 31.33700 33.26100
H  -7.71300 32.87200 32.42300

