158

Mg 46.61500 44.86400 43.00900
C  43.38000 43.83800 43.13500
C  47.62500 41.66200 42.66300
C  49.71700 46.02000 42.77200
C  45.47700 48.30200 42.91400
N  45.58300 43.00300 42.79100
C  44.27200 42.73100 42.91700
C  43.96300 41.21600 42.92500
C  45.35500 40.56200 43.04200
C  46.25400 41.79300 42.85200
C  45.58600 39.69100 44.30500
C  43.19200 40.73700 41.73000
C  43.53600 41.34600 40.40500
H  44.00800 40.45900 39.20800
N  48.37900 43.95800 42.66800
C  48.58800 42.62000 42.59500
C  49.96700 42.31900 42.46400
C  50.67800 43.61100 42.50900
C  49.61700 44.59800 42.68100
C  50.61600 40.89500 42.31300
C  52.19600 43.78800 42.39200
O  52.91400 42.81600 42.28600
C  52.85200 45.16300 42.29000
N  47.46500 46.91100 42.77600
C  48.77600 47.00200 42.93900
C  49.17400 48.47500 43.10300
C  47.87300 49.28300 43.10900
C  46.83100 48.09800 42.89500
C  50.07600 48.95300 44.30500
C  47.80000 50.50000 42.10900
C  47.38800 51.86500 42.76100
N  44.87300 45.90300 42.92000
C  44.54400 47.25400 42.86100
C  43.09800 47.37000 42.71900
C  42.61200 46.08000 42.98000
C  43.70800 45.20900 43.04600
C  42.25800 48.60000 42.61200
C  41.38500 45.27600 43.13800
O  40.21200 45.59100 43.29800
C  41.84600 43.79100 43.31600
C  41.41100 43.28800 44.66900
O  41.40800 43.96600 45.70400
O  41.00000 41.95300 44.64500
C  40.37600 41.54400 45.86400
H  47.80900 40.60000 42.49100
H  50.73600 46.39500 42.89100
H  45.02600 49.23800 43.25000
H  43.43000 41.05600 43.86200
H  45.63100 39.92900 42.19900
H  44.59400 39.32000 44.56200
H  46.03800 40.28400 45.10100
H  46.26500 38.84200 44.23500
H  42.11600 40.83700 41.86800
H  43.43300 39.67700 41.65200
H  44.32800 42.09400 40.45200
H  42.76700 42.08800 40.19300
H  51.02200 40.71500 41.31700
H  49.89400 40.09900 42.49700
H  51.46300 40.81400 42.99400
H  52.30200 45.79300 41.59100
H  53.89500 45.01700 42.01200
H  52.85500 45.54800 43.31000
H  49.64200 48.81200 42.17800
H  47.65000 49.53900 44.14400
H  51.11800 48.79900 44.02400
H  49.81400 48.38700 45.19900
H  49.79900 49.97600 44.56000
H  47.10900 50.38600 41.27300
H  48.74300 50.73300 41.61400
H  48.10400 52.67000 42.59300
H  47.40800 51.83700 43.85100
H  46.43600 52.20400 42.35300
H  41.96000 48.57000 41.56400
H  42.71300 49.58000 42.75300
H  41.41300 48.49200 43.29200
H  41.40400 43.10400 42.59400
H  39.55900 42.19500 46.17600
H  41.08700 41.33100 46.66200
H  39.82700 40.61800 45.69300
Mg 0.12700 43.79000 26.75000
C  2.49800 43.57800 29.24500
C  -2.22700 42.65400 28.78700
C  -1.92000 43.41000 24.00300
C  2.72500 44.33300 24.54000
N  0.15400 43.14200 28.75900
C  1.18500 43.29700 29.66500
C  0.71400 43.00500 31.05800
C  -0.78000 42.54200 30.98500
C  -0.98900 42.79800 29.37400
C  -1.20800 41.18100 31.51400
C  0.81700 44.30700 31.95800
C  0.92600 44.15400 33.51500
H  0.84500 42.67300 34.08500
N  -1.90000 43.13400 26.50300
C  -2.71700 42.71400 27.46600
C  -4.03400 42.55100 26.92200
C  -3.98800 42.77300 25.51700
C  -2.60100 43.15000 25.26300
C  -5.28000 42.49000 27.77100
C  -5.09700 42.84000 24.48800
O  -4.90000 43.28400 23.35100
C  -6.48500 42.40900 24.80400
N  0.39000 43.83200 24.46800
C  -0.62700 43.65600 23.64400
C  -0.13300 43.92900 22.13500
C  1.33100 44.40000 22.34700
C  1.49600 44.12200 23.87000
C  -0.43900 42.79100 21.16500
C  1.69100 45.86500 21.91600
C  1.74300 47.01900 22.96700
N  2.19500 44.06100 26.86900
C  3.13700 44.21000 25.82400
C  4.51000 44.23200 26.34400
C  4.32600 43.93300 27.70300
C  2.89600 43.83800 27.94000
C  5.84100 44.39200 25.50100
C  4.94200 43.58700 29.02800
O  6.09700 43.36100 29.31300
C  3.79000 43.44000 30.05000
C  4.01700 42.05600 30.52300
O  3.87300 40.99600 29.91900
O  4.37600 42.15900 31.85700
C  4.91200 40.93800 32.48300
H  -2.98500 42.30100 29.49000
H  -2.64900 43.40200 23.19000
H  3.52600 44.64100 23.86500
H  1.33400 42.17900 31.40500
H  -1.34800 43.31800 31.50000
H  -1.58900 40.60800 30.66800
H  -2.03800 41.27600 32.21300
H  -0.44900 40.56200 31.99400
H  -0.07100 44.93900 31.97300
H  1.63000 45.00000 31.74200
H  0.03200 44.56700 33.98400
H  1.76900 44.70900 33.92500
H  -6.23900 42.80200 27.35800
H  -5.11700 42.98800 28.72600
H  -5.51600 41.44000 27.94600
H  -6.91500 42.13400 23.84100
H  -7.15500 43.17800 25.19000
H  -6.48200 41.51100 25.42000
H  -0.78200 44.75800 21.85100
H  2.01200 43.66400 21.92100
H  -0.36400 41.87400 21.74900
H  0.29300 42.67000 20.36600
H  -1.45300 43.01800 20.83800
H  0.92300 46.17800 21.20800
H  2.65200 45.84100 21.40300
H  2.77500 47.36500 23.02200
H  1.40400 46.75400 23.96900
H  1.11600 47.81100 22.55800
H  6.47800 43.54300 25.74900
H  6.30000 45.36900 25.65500
H  5.57500 44.39500 24.44400
H  3.72700 44.04500 30.95500
H  5.97100 41.04400 32.71900
H  4.94900 40.10300 31.78400
H  4.22500 40.74700 33.30800

