158

Mg 2.59600 -1.13700 43.52000
C  6.00800 -0.47700 42.89400
C  1.77800 1.88200 41.89000
C  -0.55000 -2.21900 43.13000
C  3.52100 -4.16800 44.96200
N  3.77200 0.41100 42.34000
C  5.15600 0.49400 42.29800
C  5.60500 1.75400 41.55800
C  4.24300 2.63000 41.47000
C  3.21300 1.60700 41.96200
C  4.27300 4.02400 42.21400
C  6.24500 1.35000 40.14900
C  7.33800 2.25000 39.59900
H  7.03300 2.77500 38.16200
N  0.83500 -0.34500 42.59400
C  0.72100 0.99700 42.08700
C  -0.63700 1.14700 41.69400
C  -1.33200 -0.14500 41.86100
C  -0.34300 -0.99200 42.56300
C  -1.06100 2.38800 41.07200
C  -2.69600 -0.53500 41.34100
O  -3.38100 0.31800 40.89800
C  -3.24600 -1.92100 41.34900
N  1.65200 -3.10200 43.82700
C  0.31700 -3.11500 43.87100
C  -0.20900 -4.22600 44.76300
C  1.16700 -4.74900 45.48100
C  2.17800 -4.00000 44.68000
C  -1.33100 -3.87400 45.72500
C  1.46300 -6.28300 45.46800
C  2.30200 -6.78400 46.69000
N  4.35200 -2.10400 44.07200
C  4.56200 -3.36200 44.56000
C  5.98400 -3.67100 44.66200
C  6.56100 -2.51200 44.07900
C  5.53000 -1.58900 43.68900
C  6.73700 -4.85500 45.25800
C  7.86100 -1.93600 43.66700
O  8.96800 -2.35000 43.71500
C  7.51300 -0.52200 42.97500
C  7.96600 0.63700 43.80600
O  7.31800 1.28800 44.64800
O  9.23500 0.96300 43.31200
C  9.84800 1.96100 44.21500
H  1.53500 2.89900 41.57400
H  -1.60200 -2.50500 43.19900
H  3.82800 -5.09400 45.45200
H  6.35800 2.31900 42.10800
H  3.98300 2.70000 40.41400
H  3.94600 4.70000 41.42400
H  5.26100 4.22700 42.62900
H  3.58200 3.93800 43.05200
H  5.44700 1.36700 39.40700
H  6.66900 0.34600 40.17600
H  8.23700 1.63800 39.52400
H  7.52000 3.08400 40.27700
H  -0.86400 2.39600 40.00000
H  -0.57600 3.27200 41.48700
H  -2.12800 2.52200 41.25000
H  -3.99000 -1.97900 40.55400
H  -3.58800 -2.20700 42.34400
H  -2.42600 -2.59400 41.09900
H  -0.65600 -4.92800 44.05900
H  1.22700 -4.38900 46.50800
H  -1.26400 -4.33500 46.71000
H  -2.27800 -4.14100 45.25600
H  -1.28900 -2.81600 45.98500
H  2.03800 -6.53100 44.57600
H  0.60900 -6.94300 45.31500
H  1.61200 -7.49200 47.14900
H  2.39900 -6.05200 47.49200
H  3.24500 -7.28500 46.47000
H  6.66400 -5.79300 44.70800
H  6.40200 -5.06800 46.27300
H  7.80300 -4.64900 45.35100
H  7.98600 -0.43300 41.99700
H  10.12300 1.59200 45.20400
H  9.12400 2.76100 44.36900
H  10.82300 2.23100 43.80900
Mg 41.12500 8.81600 28.46700
C  42.77700 9.87700 31.35500
C  38.94900 7.01000 30.50900
C  39.52300 7.73000 25.80400
C  43.82200 9.94300 26.61400
N  40.87200 8.55400 30.74800
C  41.79800 8.92700 31.69600
C  41.32500 8.55300 33.11000
C  40.18400 7.49100 32.72800
C  40.01600 7.61300 31.25000
C  40.63500 6.07200 33.20400
C  40.94700 9.69300 34.09200
C  40.13000 9.42300 35.35800
H  40.76700 9.74600 36.73000
N  39.37100 7.64100 28.19600
C  38.58700 7.08800 29.15300
C  37.39800 6.56400 28.51200
C  37.50700 6.77900 27.12300
C  38.85800 7.40100 26.98800
C  36.19200 6.01400 29.32800
C  36.45600 6.60000 26.04400
O  36.74400 6.77200 24.85800
C  35.17400 6.12300 26.41000
N  41.60300 8.75800 26.49100
C  40.78400 8.22100 25.57900
C  41.45600 8.41900 24.26400
C  42.84500 9.10100 24.44000
C  42.75800 9.35100 25.93700
C  41.43900 7.18100 23.24900
C  43.17000 10.31900 23.60600
C  42.65200 11.63800 24.16200
N  42.86800 9.83500 28.80700
C  43.88900 10.21800 27.93800
C  44.91100 10.85800 28.62800
C  44.50300 10.88200 29.99300
C  43.27400 10.18100 29.99800
C  46.17800 11.40100 28.14400
C  44.85900 11.22100 31.34100
O  45.76600 11.93800 31.74600
C  43.75300 10.58900 32.26400
C  44.44700 9.64600 33.21200
O  44.92000 8.54700 32.92500
O  44.60600 10.25100 34.40900
C  45.28000 9.43000 35.43600
H  38.12900 6.63800 31.12700
H  39.10400 7.42000 24.84400
H  44.70500 10.28500 26.06900
H  42.19800 7.98300 33.42900
H  39.23700 7.84500 33.13600
H  40.21100 5.95200 34.20000
H  41.68900 6.10900 33.48000
H  40.52800 5.34800 32.39600
H  40.39800 10.43200 33.50900
H  41.85100 10.20300 34.42500
H  39.76700 8.39600 35.40200
H  39.27400 10.09500 35.29200
H  36.35100 5.90600 30.40100
H  36.01200 5.02600 28.90400
H  35.25600 6.56200 29.22000
H  35.21200 5.07100 26.69100
H  34.48600 6.16800 25.56600
H  34.69300 6.79800 27.11800
H  40.80400 9.13200 23.76000
H  43.60100 8.32600 24.31600
H  40.91700 6.30600 23.63700
H  42.43900 7.00600 22.85000
H  40.96300 7.54200 22.33700
H  42.66100 10.20900 22.64800
H  44.24600 10.22900 23.45700
H  42.25800 12.21200 23.32400
H  43.41700 12.32600 24.52100
H  41.79800 11.56000 24.83500
H  46.11800 12.47900 27.99900
H  46.67100 10.80400 27.37700
H  46.80500 11.41300 29.03600
H  43.28100 11.41600 32.79400
H  44.66200 9.59200 36.31900
H  46.31500 9.68800 35.65800
H  45.28200 8.36000 35.22800

