158

Mg 47.50800 24.95600 27.91600
C  48.32700 27.05200 30.78700
C  46.71800 22.48000 30.20000
C  46.94200 23.02600 25.41100
C  48.78300 27.46200 25.85600
N  47.60100 24.74100 30.27900
C  47.86800 25.76500 31.21900
C  47.69500 25.29400 32.68100
C  47.09500 23.82100 32.50700
C  47.15800 23.65800 30.93600
C  47.97500 22.67200 33.12300
C  46.68000 26.17500 33.47600
C  46.16800 25.60600 34.82800
H  45.93200 26.56600 35.95700
N  46.86200 22.98000 27.82500
C  46.59500 22.14400 28.84600
C  46.11200 20.88400 28.27700
C  46.03400 21.05900 26.85100
C  46.55900 22.43900 26.61300
C  45.84200 19.59600 29.04700
C  45.51900 20.10100 25.79100
O  45.49000 20.30800 24.57700
C  44.87000 18.80800 26.24300
N  47.69800 25.29200 25.91500
C  47.45400 24.25200 25.08400
C  47.65200 24.67400 23.64800
C  47.96700 26.20800 23.78400
C  48.27600 26.32300 25.23400
C  48.75400 23.93800 22.86500
C  46.71800 27.06200 23.41300
C  46.91700 28.24500 22.50300
N  48.48000 26.82000 28.22800
C  48.80700 27.73300 27.24600
C  49.24400 28.95000 27.91500
C  49.02300 28.74700 29.25600
C  48.49300 27.42800 29.45300
C  49.71400 30.14300 27.09200
C  49.07500 29.39100 30.53900
O  49.55000 30.43700 30.89800
C  48.52400 28.40300 31.65500
C  49.46000 28.28500 32.79100
O  50.44400 27.60200 32.84500
O  49.11600 29.25300 33.70200
C  49.63000 28.98500 35.08000
H  46.42400 21.71600 30.92300
H  46.81200 22.41000 24.51900
H  49.18200 28.21300 25.17100
H  48.63000 25.24500 33.24000
H  46.05100 23.80100 32.82200
H  48.68800 23.02700 33.86600
H  48.62500 22.28600 32.33800
H  47.33100 21.96600 33.64700
H  45.83000 26.33600 32.81300
H  47.25500 27.08700 33.63900
H  46.82100 24.80000 35.16400
H  45.19000 25.16400 34.63900
H  44.77300 19.41400 29.15400
H  46.33100 19.58400 30.02100
H  46.39300 18.78100 28.57700
H  45.47200 18.08900 26.80000
H  44.58100 18.21100 25.37900
H  43.99900 18.97900 26.87600
H  46.74700 24.47700 23.07400
H  48.82600 26.53200 23.19700
H  49.58400 24.54800 22.50800
H  48.24700 23.46700 22.02400
H  49.13300 23.10300 23.45400
H  46.31600 27.40300 24.36700
H  45.99000 26.40800 22.93300
H  46.51400 28.08600 21.50300
H  47.99200 28.41500 22.43800
H  46.39400 29.15300 22.80400
H  50.65000 29.83300 26.62700
H  49.85400 30.96500 27.79400
H  49.00100 30.41200 26.31200
H  47.56100 28.77200 32.00800
H  50.07200 29.92300 35.41600
H  50.43700 28.25400 35.08900
H  48.89900 28.62200 35.80300
Mg 35.01500 48.47500 25.09800
C  35.16600 46.70700 28.10500
C  33.55000 51.05700 26.82100
C  34.66400 50.07700 22.19600
C  36.27700 45.54700 23.45400
N  34.52800 48.88900 27.20500
C  34.70500 48.00700 28.25600
C  34.37000 48.65400 29.58700
C  33.62300 49.93200 29.15100
C  33.91400 49.98700 27.62500
C  32.12700 49.94900 29.50900
C  35.71900 48.97500 30.32500
C  35.73200 48.49500 31.80700
H  34.49100 48.54600 32.68100
N  34.23900 50.26600 24.58400
C  33.69400 51.23500 25.41900
C  33.38900 52.38800 24.72900
C  33.94000 52.21300 23.44500
C  34.39100 50.79800 23.33600
C  32.70100 53.57600 25.40300
C  34.06700 53.21800 22.27600
O  34.68400 52.98500 21.24500
C  33.38000 54.57600 22.46400
N  35.44100 47.90600 23.16900
C  35.07200 48.72000 22.11500
C  35.40300 48.00900 20.78000
C  36.26100 46.78400 21.15500
C  35.81100 46.62800 22.68000
C  34.09900 47.45800 20.02300
C  37.81600 46.99400 20.92900
C  38.55100 45.87500 20.14500
N  35.58000 46.54000 25.63000
C  36.04100 45.46900 24.91600
C  36.18200 44.30700 25.75900
C  35.91200 44.76800 27.03100
C  35.43900 46.10300 26.87200
C  36.73800 42.97200 25.31600
C  35.81100 44.38900 28.41900
O  35.97300 43.30700 28.95800
C  35.35300 45.60900 29.26100
C  34.10900 45.22900 29.92600
O  32.96200 45.36300 29.53800
O  34.45600 44.74100 31.14200
C  33.30900 44.42600 32.01700
H  33.07400 51.76400 27.50400
H  34.60100 50.57700 21.22700
H  36.63900 44.74000 22.81400
H  33.79600 47.93800 30.17500
H  34.11300 50.76900 29.64800
H  31.79800 48.91800 29.64000
H  31.59200 50.40700 28.67700
H  32.05200 50.58800 30.38900
H  35.74400 50.06500 30.33100
H  36.56800 48.58900 29.76200
H  36.24000 49.25300 32.40400
H  36.31400 47.58400 31.94900
H  31.80400 53.76600 24.81300
H  33.28200 54.48300 25.57100
H  32.33300 53.31500 26.39500
H  32.30500 54.44100 22.57900
H  33.47600 55.16200 21.55000
H  33.88800 55.13900 23.24700
H  35.94100 48.67400 20.10400
H  35.90700 45.86700 20.68400
H  34.11200 47.76200 18.97600
H  33.26000 47.84300 20.60300
H  33.88800 46.38900 19.99400
H  38.35800 47.22400 21.84600
H  37.89500 47.92600 20.36800
H  37.86400 45.10400 19.79500
H  39.14500 45.30100 20.85600
H  39.23600 46.23600 19.37700
H  37.65500 43.11700 24.74500
H  36.00000 42.61300 24.59900
H  36.84100 42.30100 26.16900
H  36.12200 46.07700 29.87500
H  33.58400 44.17400 33.04100
H  32.60500 43.74200 31.54400
H  32.69900 45.32300 32.12700

