158

Mg -1.09800 17.38600 26.95700
C  -1.92000 14.98500 29.46800
C  -1.93000 19.83100 29.14300
C  -0.76500 19.35600 24.41500
C  -0.69300 14.60900 24.82200
N  -2.05600 17.34500 29.03000
C  -2.02500 16.30900 29.89500
C  -2.23600 16.78300 31.30500
C  -2.48600 18.33000 31.11700
C  -2.08700 18.54500 29.72800
C  -3.87400 18.78000 31.34100
C  -1.19400 16.23600 32.31200
C  -1.23300 16.91400 33.63200
H  -0.67800 16.13600 34.81500
N  -1.31400 19.29400 26.80700
C  -1.58700 20.19400 27.82900
C  -1.51200 21.49300 27.37700
C  -1.10800 21.37000 25.95200
C  -1.07100 19.97800 25.61600
C  -1.71700 22.71300 28.14000
C  -0.83800 22.47500 24.90900
O  -0.55500 22.24600 23.68500
C  -0.85400 23.87800 25.43600
N  -0.96700 16.98100 24.86900
C  -0.62400 18.03600 24.11300
C  -0.40100 17.64600 22.63800
C  -0.16200 16.08400 22.74700
C  -0.53400 15.81300 24.20000
C  -1.60700 17.94800 21.77400
C  1.29700 15.60000 22.44100
C  2.43400 16.18700 23.36500
N  -1.35700 15.18100 27.05100
C  -1.07900 14.22300 26.15600
C  -1.55800 12.91200 26.59200
C  -1.79500 13.12400 27.96600
C  -1.72600 14.54500 28.13700
C  -1.50500 11.63600 25.83500
C  -2.26700 12.57400 29.21500
O  -2.72800 11.46200 29.49300
C  -2.20900 13.69100 30.24500
C  -0.95900 13.28800 31.09200
O  0.19600 13.59400 30.90400
O  -1.40900 12.50300 32.21900
C  -0.40800 11.95100 33.14700
H  -1.99400 20.62800 29.88700
H  -0.54400 19.98400 23.55000
H  -0.43800 13.71600 24.24700
H  -3.07900 16.19700 31.67200
H  -1.84300 18.83800 31.83500
H  -4.06300 19.56800 30.61200
H  -3.84300 19.11800 32.37600
H  -4.52300 17.90600 31.28100
H  -0.22200 16.37200 31.83700
H  -1.40300 15.20200 32.58400
H  -2.22700 17.29200 33.86900
H  -0.53000 17.71700 33.41600
H  -2.25300 22.59700 29.08200
H  -2.15100 23.54200 27.58300
H  -0.68200 22.97700 28.35700
H  -0.24100 24.08700 26.31300
H  -1.87400 24.20000 25.64500
H  -0.42300 24.49300 24.64600
H  0.46700 18.15100 22.21400
H  -0.82300 15.34900 22.28700
H  -2.33700 18.01300 22.58000
H  -1.71900 17.25000 20.94400
H  -1.54100 18.90700 21.26000
H  1.60100 15.86800 21.42900
H  1.41800 14.51800 22.49100
H  2.08500 17.01000 23.98900
H  3.27200 16.52100 22.75500
H  2.92000 15.49000 24.04700
H  -0.98000 11.87500 24.91000
H  -2.51900 11.37700 25.53100
H  -0.99200 10.85300 26.39400
H  -3.03700 13.70800 30.95400
H  -0.90300 11.77600 34.10200
H  0.39700 12.67600 33.27200
H  -0.10400 10.97700 32.76500
Mg 29.95800 58.48900 41.68700
C  27.14800 56.80700 40.19800
C  31.96800 56.46700 39.82800
C  32.45100 60.60800 42.20500
C  27.70700 60.88800 42.91000
N  29.49900 56.81100 40.17300
C  28.38000 56.33700 39.62300
C  28.62700 55.12500 38.70200
C  30.19700 54.99700 38.69700
C  30.58100 56.19400 39.61900
C  30.73400 53.67400 39.23500
C  27.96800 55.30600 37.32000
C  28.64300 54.54900 36.12800
H  27.74400 54.35200 34.94700
N  31.93600 58.46300 41.27200
C  32.58000 57.48100 40.53200
C  34.00300 57.74400 40.45300
C  34.20600 58.91400 41.26600
C  32.84000 59.36900 41.61900
C  35.04400 56.98800 39.63800
C  35.52700 59.53100 41.69800
O  36.55100 59.02400 41.22700
C  35.63000 60.65200 42.71900
N  30.07000 60.55200 42.46400
C  31.22500 61.13500 42.63500
C  31.02500 62.54700 43.21800
C  29.47000 62.73800 43.24800
C  29.03700 61.30600 42.88100
C  31.73100 62.75500 44.55200
C  28.92800 63.76200 42.20700
C  27.43600 64.08700 42.41300
N  27.91600 58.75700 41.72200
C  27.10400 59.73000 42.27000
C  25.71300 59.39500 42.11700
C  25.73300 58.24200 41.27500
C  27.06700 57.90800 41.05500
C  24.43400 60.08000 42.58800
C  24.82400 57.25600 40.65500
O  23.59400 57.24600 40.67700
C  25.65000 56.35900 39.86600
C  25.51800 54.94900 40.40400
O  25.75700 54.45800 41.50700
O  25.03100 54.17400 39.33800
C  24.71800 52.78200 39.65900
H  32.57700 55.69500 39.35400
H  33.29900 61.27300 42.38200
H  27.01900 61.63700 43.30800
H  28.22400 54.20800 39.13200
H  30.67700 55.11900 37.72600
H  29.90900 52.97100 39.35100
H  31.12300 53.81100 40.24400
H  31.52400 53.37400 38.54700
H  27.94100 56.35700 37.03400
H  26.91700 55.02500 37.39600
H  28.96400 53.57600 36.49900
H  29.53900 55.10700 35.85600
H  35.28500 57.67700 38.82800
H  34.62700 56.13800 39.09900
H  35.87400 56.73400 40.29800
H  36.69200 60.65700 42.96400
H  34.94200 60.44200 43.53800
H  35.27300 61.57600 42.26400
H  31.52500 63.17700 42.48200
H  29.16000 62.96400 44.26900
H  32.45800 63.56400 44.48100
H  32.22400 61.81400 44.79200
H  31.05900 62.94500 45.38900
H  29.01900 63.13900 41.31700
H  29.48200 64.69300 42.08400
H  26.80100 63.39900 41.85500
H  27.11900 65.07700 42.08600
H  27.18200 63.91600 43.45900
H  24.63200 61.14300 42.45300
H  24.55600 59.82200 43.64000
H  23.50700 59.73200 42.13300
H  25.41100 56.51700 38.81500
H  25.58000 52.11500 39.67900
H  24.20500 52.36400 38.79300
H  24.17100 52.62600 40.58900

