158

Mg 8.77800 3.11600 27.57700
C  10.28900 1.47500 30.37100
C  7.10800 5.24500 29.81300
C  7.57800 4.55600 24.93000
C  10.03500 0.50100 25.48100
N  8.74400 3.36500 29.89300
C  9.47000 2.56000 30.80100
C  9.22500 2.96000 32.25300
C  8.15100 4.14400 32.05000
C  7.88300 4.21400 30.49800
C  6.81500 3.86300 32.84100
C  10.57000 3.31000 33.04900
C  10.52200 4.37800 34.15100
H  11.22600 4.10600 35.48600
N  7.45100 4.62000 27.36900
C  6.90700 5.39300 28.39300
C  6.12800 6.46800 27.82200
C  6.31600 6.30100 26.37000
C  7.12700 5.08800 26.17700
C  5.45800 7.51600 28.59900
C  5.85100 7.24500 25.26900
O  6.27300 7.18100 24.13600
C  4.87300 8.29700 25.57800
N  8.89600 2.61200 25.49800
C  8.31100 3.45600 24.63200
C  8.65200 3.06500 23.15100
C  9.31100 1.66300 23.35400
C  9.48800 1.59200 24.83900
C  7.46200 2.98300 22.14400
C  10.77800 1.61100 22.69500
C  11.02600 0.59500 21.56400
N  9.95600 1.34000 27.77300
C  10.30600 0.40400 26.88100
C  11.16300 -0.58300 27.54400
C  11.27100 -0.15500 28.90500
C  10.47800 0.99600 28.96900
C  11.81300 -1.72000 26.82200
C  11.75300 -0.46900 30.23100
O  12.56100 -1.34800 30.58500
C  11.19300 0.64700 31.21600
C  10.48700 -0.11000 32.27000
O  9.41000 -0.59400 32.12300
O  11.17300 -0.10700 33.50800
C  10.41600 -0.49200 34.71800
H  6.56300 6.04900 30.31100
H  7.12500 4.93400 24.01100
H  10.35700 -0.32900 24.85000
H  8.72600 2.11700 32.73100
H  8.56400 5.12600 32.28000
H  6.84500 2.89200 33.33500
H  5.96600 3.83200 32.15900
H  6.51800 4.59000 33.59700
H  11.44900 3.52200 32.44100
H  10.75000 2.42900 33.66500
H  9.48200 4.63100 34.35700
H  10.97200 5.30000 33.78300
H  5.89700 8.49300 28.39600
H  5.38300 7.53900 29.68600
H  4.42200 7.55200 28.26200
H  4.30900 8.59700 24.69500
H  5.56700 9.07300 25.90300
H  4.14300 7.91000 26.28900
H  9.32200 3.83700 22.77100
H  8.77600 0.79400 22.96900
H  6.87700 3.88300 22.32900
H  6.81400 2.15100 22.42000
H  7.88400 2.98500 21.13900
H  11.43400 1.30300 23.51000
H  11.15100 2.59300 22.40800
H  11.46700 1.01700 20.66100
H  10.07200 0.19200 21.22300
H  11.60500 -0.23800 21.96400
H  11.95400 -1.64500 25.74300
H  11.30800 -2.67800 26.94600
H  12.80900 -1.73800 27.26300
H  11.99100 1.14400 31.76800
H  9.84800 -1.40800 34.55600
H  9.79500 0.36900 34.97000
H  11.05500 -0.82700 35.53500
Mg 26.41800 50.77400 26.41700
C  24.03400 51.72500 28.97700
C  28.44200 49.72000 29.04600
C  28.80800 50.24600 24.21500
C  24.37200 52.29900 24.16700
N  26.18700 50.62500 28.69900
C  25.11600 51.06200 29.54100
C  25.43500 50.80700 31.07100
C  26.91300 50.22100 31.04900
C  27.17700 50.07300 29.54700
C  27.89500 51.17100 31.83500
C  24.45300 49.82300 31.68800
C  24.04700 50.07000 33.20700
H  24.99000 50.75800 34.22800
N  28.38200 50.12400 26.56300
C  28.96900 49.67600 27.71300
C  30.22900 48.99700 27.38200
C  30.43900 49.33600 26.01400
C  29.18100 49.94200 25.54000
C  31.04800 48.16900 28.34500
C  31.70900 49.09300 25.14100
O  31.86800 49.43800 24.00200
C  32.90200 48.36600 25.81700
N  26.56200 51.35700 24.53900
C  27.57300 50.80600 23.76100
C  27.24500 51.02500 22.26000
C  25.71400 51.38600 22.26900
C  25.53600 51.72000 23.72300
C  28.09500 52.15600 21.59700
C  24.65900 50.36800 21.86200
C  23.58600 50.65900 20.82000
N  24.58800 51.80000 26.48000
C  23.89400 52.31700 25.48400
C  22.61000 52.91600 25.91700
C  22.61300 52.67100 27.30200
C  23.84900 51.97800 27.59100
C  21.54900 53.62000 25.05000
C  21.90700 52.91000 28.50700
O  20.86800 53.51000 28.69800
C  22.81000 52.32300 29.62400
C  23.27800 53.50100 30.45800
O  24.10700 54.32600 30.13600
O  22.75300 53.35500 31.76900
C  23.00200 54.55000 32.61100
H  29.05100 49.35500 29.87600
H  29.40600 49.97000 23.34400
H  23.61200 52.53700 23.41900
H  25.36200 51.80600 31.50200
H  26.95300 49.25700 31.55500
H  28.76100 51.50200 31.26200
H  28.13100 50.54200 32.69300
H  27.36500 52.02600 32.25400
H  24.83100 48.80400 31.76200
H  23.59100 49.73900 31.02700
H  23.70800 49.11700 33.61300
H  23.14100 50.67500 33.16700
H  30.63700 48.23400 29.35200
H  32.04600 48.59800 28.43400
H  31.12200 47.13300 28.01600
H  33.75600 48.31800 25.14100
H  32.69600 47.30900 25.98400
H  33.20900 48.85900 26.73900
H  27.34600 50.11400 21.66900
H  25.52500 52.34300 21.78300
H  28.98700 52.38100 22.18000
H  27.53500 53.09000 21.53700
H  28.40400 51.84100 20.60000
H  24.14000 49.90700 22.70200
H  25.32300 49.58200 21.50200
H  23.77600 50.26200 19.82300
H  23.46200 51.74100 20.79900
H  22.73200 50.08200 21.17800
H  20.64100 53.04900 25.24500
H  21.90400 53.73300 24.02500
H  21.44300 54.65600 25.37100
H  22.28400 51.59300 30.23900
H  23.10900 55.47000 32.03500
H  23.84100 54.43300 33.29800
H  22.08100 54.62200 33.19000

