158

Mg -1.82100 17.43800 26.72500
C  -2.10300 14.92600 29.20500
C  -2.44600 19.90100 28.93400
C  -1.86900 19.66200 24.07900
C  -1.92900 14.86200 24.39200
N  -2.13500 17.35300 28.89600
C  -2.23500 16.25700 29.74400
C  -2.45600 16.72300 31.22000
C  -2.63100 18.33500 31.01900
C  -2.46100 18.58000 29.49800
C  -4.08000 18.75600 31.49000
C  -1.48100 16.11500 32.27400
C  -1.28100 16.85100 33.64100
H  -1.55100 16.00900 34.94900
N  -2.02800 19.48300 26.51000
C  -2.21200 20.36400 27.60500
C  -2.19800 21.76600 27.09700
C  -2.11000 21.66500 25.69000
C  -1.98800 20.23100 25.37400
C  -2.39600 22.95000 28.00100
C  -2.19600 22.75300 24.69200
O  -1.89200 22.64900 23.49800
C  -2.60600 24.10900 25.04700
N  -1.88400 17.24400 24.55800
C  -1.81200 18.29600 23.65800
C  -1.68600 17.79800 22.15100
C  -1.72300 16.30800 22.30200
C  -1.83500 16.10800 23.83400
C  -2.78300 18.28200 21.14800
C  -0.45400 15.64900 21.62400
C  0.81400 15.25100 22.49500
N  -1.91600 15.38200 26.73500
C  -1.83400 14.48000 25.71000
C  -1.86500 13.11600 26.16000
C  -2.02800 13.25400 27.55600
C  -2.00600 14.65800 27.82200
C  -1.85300 11.90200 25.26700
C  -2.11200 12.53300 28.81700
O  -2.10200 11.34500 29.06100
C  -2.24100 13.64700 29.91000
C  -1.25500 13.32200 31.01400
O  -0.10100 13.72100 31.05200
O  -1.85500 12.55900 31.99200
C  -1.24000 12.31200 33.25400
H  -2.32500 20.64000 29.72900
H  -1.77700 20.40300 23.28200
H  -2.03700 14.10500 23.61300
H  -3.37700 16.17300 31.41200
H  -1.79800 18.73600 31.59700
H  -3.84400 19.40400 32.33400
H  -4.76600 17.94100 31.72000
H  -4.56100 19.34800 30.71100
H  -0.49000 16.04200 31.82500
H  -1.74000 15.09000 32.54000
H  -1.98700 17.68000 33.68000
H  -0.35100 17.41600 33.69800
H  -3.44100 23.25600 27.97600
H  -1.84200 23.86000 27.76900
H  -2.29800 22.62500 29.03700
H  -3.46000 24.13900 25.72300
H  -2.97700 24.46300 24.08500
H  -1.73000 24.73600 25.21300
H  -0.70400 18.02400 21.73500
H  -2.65400 15.97600 21.84100
H  -3.16800 19.25900 21.44200
H  -3.68400 17.67300 21.21000
H  -2.37700 18.39600 20.14300
H  -0.06800 16.15200 20.73800
H  -0.87000 14.67900 21.35300
H  0.96100 16.02300 23.25000
H  1.76400 15.23000 21.96100
H  0.61000 14.28100 22.94900
H  -1.03600 12.03500 24.55700
H  -2.67900 11.79400 24.56400
H  -1.67000 10.91400 25.69100
H  -3.23400 13.49400 30.33200
H  -0.95000 11.26300 33.19100
H  -1.82100 12.44000 34.16700
H  -0.32500 12.87500 33.43900
Mg 26.56600 0.56500 28.75400
C  28.34100 -0.02000 31.73700
C  23.61000 0.17500 30.59300
C  24.91600 0.97100 25.94300
C  29.65100 0.12000 27.04400
N  26.11700 0.23800 30.90100
C  26.96000 0.18000 31.91700
C  26.21200 0.22800 33.24800
C  24.71700 0.14300 32.90200
C  24.76400 0.06500 31.35600
C  23.91000 -1.08100 33.53000
C  26.56000 1.53500 34.08900
C  26.57600 1.18900 35.62700
H  27.17300 2.12600 36.58600
N  24.50900 0.62700 28.28700
C  23.51600 0.48700 29.19900
C  22.20000 0.79000 28.48800
C  22.56200 0.98200 27.16900
C  24.00800 0.87500 27.05000
C  20.82300 0.76200 29.24600
C  21.68600 1.08400 25.94100
O  22.12800 0.95100 24.83100
C  20.16300 1.29300 26.06100
N  27.23400 0.37200 26.72700
C  26.35300 0.77000 25.73000
C  27.10200 0.99700 24.33600
C  28.64100 0.96100 24.85700
C  28.54800 0.46400 26.30800
C  26.68900 0.10600 23.15800
C  29.25500 2.38000 24.77300
C  29.68600 2.72300 23.35100
N  28.57000 0.09800 29.20900
C  29.70200 0.00800 28.44600
C  30.85500 -0.13800 29.23000
C  30.32700 -0.10600 30.51500
C  28.92300 -0.05800 30.43900
C  32.22600 -0.37700 28.79300
C  30.73600 -0.16200 31.87600
O  31.84200 -0.23100 32.32000
C  29.42600 -0.09500 32.78500
C  29.16300 -1.33700 33.64900
O  28.53600 -2.33700 33.32700
O  29.64400 -1.04100 34.88000
C  29.38500 -2.06200 35.92400
H  22.70800 0.17000 31.20700
H  24.39400 1.07800 24.99000
H  30.59600 0.27900 26.52000
H  26.70600 -0.53900 33.84500
H  24.12400 1.02000 33.16000
H  23.07600 -0.74100 34.14300
H  24.56000 -1.63400 34.20800
H  23.46900 -1.71300 32.76000
H  25.76400 2.24000 33.84800
H  27.49900 1.93900 33.70900
H  26.77600 0.15100 35.89000
H  25.53900 1.30400 35.94200
H  20.48700 1.79600 29.32400
H  20.85400 0.32900 30.24600
H  19.99200 0.18400 28.84200
H  19.83100 1.69600 25.10400
H  20.02500 2.03100 26.85200
H  19.79200 0.29100 26.27600
H  26.69800 1.93400 23.95200
H  29.19200 0.20100 24.30300
H  26.09100 0.75900 22.52300
H  26.02800 -0.72700 23.39700
H  27.48800 -0.25700 22.51100
H  30.16600 2.38500 25.37200
H  28.60800 3.16200 25.17000
H  29.12200 3.61000 23.06200
H  29.41100 1.92700 22.65900
H  30.75300 2.86300 23.17800
H  32.80000 0.30300 29.42300
H  32.41500 -0.16200 27.74100
H  32.58000 -1.38700 28.99900
H  29.58700 0.76000 33.44200
H  30.08000 -1.98600 36.76000
H  29.55400 -3.05800 35.51400
H  28.34900 -2.02700 36.26200

