158

Mg -2.00600 16.59400 26.16500
C  -2.29400 14.28100 28.75000
C  -2.41600 19.14200 28.49300
C  -1.97200 18.84600 23.61500
C  -1.83100 14.05000 23.82100
N  -2.34300 16.66400 28.37100
C  -2.39300 15.59400 29.28700
C  -2.70100 15.99900 30.72500
C  -2.92700 17.58800 30.48400
C  -2.62500 17.81900 29.02900
C  -4.30000 18.26000 31.02800
C  -1.55600 15.57500 31.73800
C  -0.98300 16.62300 32.71700
H  -0.43800 16.05500 34.05700
N  -2.17500 18.66000 26.10000
C  -2.30400 19.54600 27.12400
C  -2.49500 20.88200 26.62200
C  -2.21700 20.87600 25.25100
C  -2.07300 19.40200 24.93200
C  -2.99000 21.97800 27.45400
C  -2.11200 22.04800 24.33900
O  -2.00200 21.99600 23.13000
C  -2.04500 23.47700 25.06000
N  -2.03400 16.51600 23.97300
C  -1.87900 17.55700 23.18900
C  -1.83600 17.20800 21.78100
C  -1.57800 15.59600 21.90600
C  -1.82100 15.38100 23.31900
C  -3.12300 17.60000 21.00400
C  -0.21500 14.98300 21.39800
C  -0.23200 14.77000 19.85000
N  -2.05600 14.59500 26.19900
C  -1.91900 13.69300 25.12900
C  -2.11600 12.32000 25.67000
C  -2.23800 12.56800 27.10200
C  -2.20800 13.91600 27.32600
C  -2.24300 11.06200 24.95700
C  -2.42000 11.91400 28.39800
O  -2.31300 10.68500 28.72500
C  -2.48900 13.00300 29.45900
C  -1.59800 12.72500 30.54200
O  -0.36000 12.62000 30.42300
O  -2.34000 12.55500 31.70500
C  -1.47000 12.14200 32.77900
H  -2.47600 19.90300 29.27400
H  -1.92800 19.57700 22.80500
H  -1.83400 13.22000 23.11100
H  -3.65500 15.52600 30.95400
H  -2.01500 18.06500 30.84200
H  -3.94400 18.91300 31.82600
H  -4.97800 17.54100 31.48700
H  -4.98100 18.69100 30.29400
H  -0.67800 15.17000 31.23500
H  -1.90100 14.89800 32.51900
H  -1.69700 17.39700 32.99600
H  -0.15100 17.11500 32.21300
H  -2.19700 22.70600 27.62800
H  -3.35100 21.63400 28.42400
H  -3.86500 22.51300 27.08700
H  -3.04700 23.67900 25.43600
H  -1.85100 24.18900 24.25800
H  -1.29700 23.52900 25.85100
H  -0.98400 17.60200 21.22800
H  -2.46900 15.22000 21.40100
H  -2.75100 18.43100 20.40500
H  -3.94800 17.97500 21.61000
H  -3.60200 16.79100 20.45300
H  -0.01500 14.15600 22.08000
H  0.48500 15.81100 21.50900
H  0.41800 15.46600 19.32000
H  -1.20000 14.78700 19.34900
H  0.18600 13.76600 19.76900
H  -1.36500 11.00400 24.31400
H  -3.13800 11.04100 24.33500
H  -2.22200 10.24100 25.67300
H  -3.43500 13.00900 30.00000
H  -0.60400 12.80000 32.85200
H  -1.25400 11.07600 32.71300
H  -2.04400 12.42500 33.66200
Mg 47.27300 24.60400 28.66100
C  47.81400 26.93400 31.31200
C  46.36900 22.35900 31.20400
C  47.06500 22.30600 26.42600
C  48.61800 26.94900 26.47600
N  47.15500 24.62100 31.03500
C  47.37700 25.70600 31.85400
C  47.04400 25.37600 33.31300
C  46.77000 23.85700 33.33000
C  46.76500 23.54200 31.80100
C  47.76400 22.96600 34.14600
C  45.83300 26.26700 33.80600
C  46.21600 27.06400 35.04000
H  46.35600 26.24700 36.31200
N  46.64700 22.65200 28.74400
C  46.28000 21.93000 29.85500
C  45.88500 20.59300 29.33900
C  46.09100 20.46300 27.95400
C  46.72900 21.78700 27.66500
C  45.11800 19.59800 30.30900
C  45.61500 19.38900 27.04100
O  45.84500 19.28500 25.80600
C  44.66900 18.41600 27.49300
N  47.75200 24.70800 26.73800
C  47.48100 23.59600 26.00100
C  47.78900 23.85300 24.51500
C  48.17800 25.37600 24.56500
C  48.32300 25.70200 26.00800
C  48.93800 22.93200 24.02300
C  47.13800 26.39200 23.98500
C  45.80900 26.60600 24.86300
N  48.03100 26.58600 28.78800
C  48.54600 27.38700 27.80000
C  48.85000 28.65500 28.32000
C  48.50400 28.56800 29.68600
C  48.12200 27.22800 29.92500
C  49.39900 29.86800 27.52800
C  48.41900 29.34200 30.98600
O  48.73800 30.48900 31.27800
C  47.98800 28.21000 32.06400
C  49.12400 28.20600 33.10500
O  49.93600 27.38700 33.18800
O  48.94400 29.22600 34.02200
C  49.90000 29.34300 35.12100
H  45.98900 21.65600 31.94800
H  46.89400 21.47700 25.73600
H  48.88700 27.66000 25.69200
H  47.98100 25.57400 33.83300
H  45.74700 23.70600 33.67700
H  47.39600 22.58500 35.09800
H  48.58800 23.60800 34.45600
H  48.15000 22.14900 33.53600
H  45.03200 25.61900 34.16100
H  45.39500 26.89400 33.03000
H  45.42900 27.80200 35.19300
H  47.03800 27.76500 34.89700
H  44.07300 19.65400 30.00300
H  45.14300 19.87200 31.36400
H  45.31400 18.52600 30.28700
H  43.80200 18.99100 27.81800
H  44.98300 17.77400 28.31600
H  44.45200 17.68200 26.71600
H  46.88900 23.58300 23.96200
H  49.11100 25.62100 24.05800
H  49.01600 22.09500 24.71700
H  49.76800 23.60900 23.81600
H  48.68800 22.50400 23.05200
H  46.96000 25.96600 22.99700
H  47.58700 27.37800 23.87300
H  45.81400 26.51200 25.94900
H  45.06400 25.86500 24.57200
H  45.35300 27.58300 24.70200
H  48.88100 30.78500 27.80900
H  49.18000 29.86100 26.46100
H  50.48600 29.91000 27.59800
H  47.13300 28.57400 32.63300
H  50.90000 29.06600 34.78700
H  49.63400 28.66400 35.93100
H  49.93900 30.32800 35.58600

