158

Mg 44.96100 4.27900 47.09600
C  42.87500 6.98200 47.23200
C  42.23100 2.20300 47.10300
C  47.01200 1.77200 46.34000
C  47.75700 6.49000 46.81800
N  42.83400 4.56600 47.10100
C  42.13100 5.76500 47.06200
C  40.66600 5.58700 46.97300
C  40.55800 4.04900 47.34200
C  41.98100 3.54900 47.20700
C  39.79200 3.68500 48.67600
C  39.93700 5.86600 45.60200
C  40.71000 5.74400 44.27400
H  40.58200 6.73600 43.10500
N  44.64500 2.24500 46.70500
C  43.47200 1.55100 46.83300
C  43.65400 0.19700 46.58600
C  45.03800 0.10800 46.19100
C  45.61700 1.39500 46.43100
C  42.61200 -0.86800 46.55200
C  45.66000 -1.05200 45.52500
O  45.01000 -2.06300 45.22000
C  47.13900 -1.17200 45.13500
N  47.10600 4.21600 46.30900
C  47.72300 2.99500 46.52400
C  49.24800 3.09700 46.38100
C  49.47300 4.64300 46.61200
C  48.02800 5.18500 46.56100
C  49.97300 2.27400 47.50200
C  50.36700 5.19300 45.52400
C  49.70400 5.23800 44.11500
N  45.35300 6.34600 47.08000
C  46.49600 7.07500 46.93700
C  46.17200 8.47600 47.00700
C  44.77000 8.45600 47.20300
C  44.35400 7.14900 47.21500
C  47.09900 9.69400 46.88800
C  43.57100 9.31000 47.41000
O  43.47400 10.54800 47.51000
C  42.31100 8.36300 47.37800
C  41.39100 8.60200 48.51000
O  41.41200 7.96400 49.53900
O  40.47000 9.60500 48.24000
C  39.32100 9.67000 49.10200
H  41.39600 1.50100 47.07800
H  47.72000 0.94400 46.27500
H  48.63300 7.13100 46.93500
H  40.20100 6.13800 47.79100
H  39.96000 3.48400 46.62600
H  38.74300 3.59000 48.39600
H  39.96300 4.50200 49.37600
H  40.14500 2.79200 49.19100
H  39.65400 6.91800 45.65200
H  38.99600 5.33200 45.47000
H  40.38100 4.72700 44.05700
H  41.75300 5.59800 44.55700
H  42.30100 -0.99100 45.51500
H  41.73500 -0.62100 47.15000
H  42.92900 -1.88500 46.78000
H  47.72000 -1.24600 46.05500
H  47.39100 -0.40400 44.40400
H  47.29700 -2.13600 44.65100
H  49.38400 2.70200 45.37400
H  50.01400 4.83500 47.53900
H  50.11800 1.19700 47.41100
H  49.24700 2.27300 48.31500
H  50.93100 2.72000 47.77000
H  51.26400 4.57400 45.49700
H  50.73500 6.16800 45.84100
H  50.37100 4.84100 43.34900
H  49.64000 6.31500 43.96100
H  48.72700 4.76100 44.03300
H  47.38900 9.81700 45.84400
H  48.00200 9.67500 47.49800
H  46.51100 10.57500 47.14200
H  41.71000 8.73500 46.54800
H  38.61000 8.85600 48.95900
H  38.88100 10.63700 48.85800
H  39.56600 9.73400 50.16200
Mg 47.41600 25.79300 29.30800
C  48.29300 28.10500 31.95700
C  46.24500 23.76800 31.77900
C  46.96100 23.55100 27.06300
C  48.94600 27.92600 27.12100
N  47.21300 26.03500 31.72500
C  47.68600 26.97000 32.52100
C  47.47500 26.61800 33.97200
C  46.90200 25.15300 33.82400
C  46.82000 24.89900 32.37000
C  47.67700 23.96200 34.62300
C  46.31800 27.59800 34.50100
C  46.10800 27.80300 35.97600
H  46.72400 26.99700 37.10500
N  46.57200 23.94300 29.38400
C  46.07000 23.32400 30.46700
C  45.41500 22.11100 30.10100
C  45.53600 22.05200 28.65700
C  46.36300 23.20500 28.31000
C  44.72500 21.06400 31.07700
C  45.08500 20.99600 27.63200
O  45.41100 21.02700 26.43000
C  44.22600 19.89800 28.00200
N  48.12600 25.62000 27.40700
C  47.77200 24.59600 26.63700
C  48.34500 24.77100 25.24200
C  48.76300 26.25900 25.18200
C  48.53900 26.69200 26.65500
C  49.54700 23.81900 24.86200
C  48.02300 27.15700 24.15600
C  48.80700 28.19600 23.43100
N  48.28200 27.77000 29.44700
C  48.97000 28.46500 28.40600
C  49.50000 29.71600 28.90600
C  49.25500 29.62600 30.35900
C  48.51300 28.39700 30.58500
C  50.11200 30.78000 28.16500
C  49.51300 30.21300 31.62700
O  50.14000 31.20100 31.91300
C  48.89500 29.29200 32.68500
C  49.95600 28.93500 33.71500
O  51.06200 28.62800 33.46300
O  49.46200 29.09900 34.99600
C  50.44500 28.94800 36.06700
H  45.69800 23.27600 32.58700
H  46.64800 23.02600 26.15800
H  49.39900 28.57400 26.36900
H  48.35900 26.66800 34.60900
H  45.86700 25.08700 34.16100
H  48.26500 23.35800 33.93200
H  47.00600 23.23400 35.08000
H  48.28000 24.40600 35.41500
H  45.38000 27.20100 34.11300
H  46.44000 28.52200 33.93600
H  45.02300 27.69800 35.97500
H  46.18400 28.86800 36.19900
H  44.79600 21.49400 32.07500
H  45.20300 20.08400 31.06800
H  43.70100 20.83900 30.77600
H  44.65300 19.30900 28.81200
H  44.04800 19.18300 27.19800
H  43.25200 20.28400 28.30500
H  47.46600 24.54000 24.63900
H  49.81900 26.40500 24.95400
H  50.40500 24.32300 24.41900
H  49.18100 23.07600 24.15400
H  49.98900 23.36800 25.75100
H  47.29400 27.69200 24.76600
H  47.47100 26.58100 23.41300
H  48.43800 28.28400 22.40900
H  49.88700 28.04700 23.44900
H  48.82500 29.16400 23.93300
H  49.39500 31.58800 28.01800
H  50.39400 30.51700 27.14500
H  50.93100 31.12700 28.79400
H  48.11600 29.85500 33.19800
H  51.19800 29.72000 35.90700
H  50.76800 27.90800 36.03500
H  49.89500 29.21700 36.96900

