158

Mg 45.03800 5.38300 47.89400
C  43.17600 8.32700 47.28900
C  42.23500 3.58800 46.72700
C  46.93800 2.61700 47.64100
C  47.84700 7.40700 48.28400
N  42.94700 5.92300 47.22300
C  42.48300 7.17100 46.98600
C  41.03200 7.09000 46.42300
C  40.63400 5.57200 46.50600
C  42.04000 4.98900 46.84200
C  39.55700 5.25000 47.58800
C  41.04400 7.50900 44.94700
C  40.12200 8.66900 44.61000
H  39.20700 8.37600 43.37300
N  44.64300 3.31000 47.39200
C  43.39300 2.81500 46.95500
C  43.53900 1.42700 46.82900
C  44.92200 1.05300 47.00500
C  45.59300 2.31100 47.34300
C  42.40400 0.44400 46.43800
C  45.48600 -0.31100 46.65400
O  44.69900 -1.22500 46.30700
C  46.96500 -0.67300 46.67700
N  47.09100 5.06600 48.08700
C  47.62100 3.76100 48.00600
C  49.13500 3.79500 48.23900
C  49.48700 5.33800 48.11800
C  48.11900 6.00000 48.23800
C  49.55000 3.13400 49.59400
C  50.18800 5.75300 46.78100
C  51.59400 6.27500 46.86300
N  45.32700 7.48000 48.16400
C  46.61100 8.09800 48.18200
C  46.37700 9.48900 48.06900
C  45.06100 9.64200 47.65500
C  44.54100 8.35100 47.69400
C  47.38200 10.57900 48.19000
C  44.04000 10.68000 47.23100
O  44.16100 11.89900 47.01500
C  42.68000 9.73300 47.17900
C  41.63700 10.06800 48.16900
O  41.41000 9.44200 49.18300
O  40.79800 10.99900 47.69400
C  39.59100 11.27400 48.54000
H  41.36600 3.11500 46.26500
H  47.48100 1.67400 47.73300
H  48.68200 8.11000 48.27500
H  40.35200 7.65800 47.05600
H  40.20900 5.28500 45.54400
H  39.12800 6.13400 48.06100
H  39.93600 4.89800 48.54700
H  38.66200 4.78700 47.17200
H  40.70400 6.75800 44.23300
H  42.08100 7.75000 44.71200
H  40.75800 9.53700 44.43600
H  39.54500 9.00800 45.47000
H  42.29600 -0.32700 47.20100
H  42.57300 0.02000 45.44900
H  41.48300 1.02600 46.39600
H  47.53000 -0.04600 45.98600
H  47.10100 -1.73100 46.45500
H  47.41900 -0.43400 47.63800
H  49.67900 3.23300 47.48000
H  50.11100 5.64800 48.95600
H  48.61700 3.04700 50.15000
H  50.33600 3.69600 50.09800
H  49.88800 2.11200 49.42400
H  49.52100 6.44200 46.26200
H  50.27100 4.83200 46.20500
H  51.52300 7.36000 46.78200
H  52.26100 5.87300 46.10100
H  52.02900 6.08000 47.84300
H  48.10100 10.58300 47.37100
H  48.00600 10.51300 49.08200
H  46.75100 11.45900 48.06500
H  42.25400 9.75200 46.17600
H  39.20200 12.27200 48.33800
H  39.67100 11.01600 49.59600
H  38.77000 10.62700 48.23100
Mg 36.06000 48.41300 25.96800
C  35.89500 46.63000 29.07300
C  35.37900 51.25100 27.56800
C  35.79200 49.87800 23.00800
C  36.74000 45.40200 24.44200
N  35.71200 48.87600 28.11700
C  35.75300 48.09200 29.20000
C  35.55700 48.85400 30.54200
C  35.27300 50.32800 30.00500
C  35.40900 50.18100 28.46500
C  33.83300 50.76800 30.57400
C  36.83900 48.75900 31.46200
C  36.58600 48.08100 32.81400
H  35.51200 48.67900 33.84800
N  35.69700 50.28000 25.35700
C  35.47700 51.33800 26.19600
C  35.24300 52.50900 25.46400
C  35.18400 52.11000 24.08700
C  35.53400 50.67000 24.09800
C  35.06900 53.95100 26.17500
C  34.88900 52.91800 22.86800
O  34.84100 52.47000 21.73900
C  34.73100 54.33000 23.06800
N  36.15200 47.72700 24.03800
C  36.01800 48.51800 22.94200
C  36.42600 47.80900 21.66700
C  36.96200 46.44700 22.18000
C  36.63300 46.54200 23.63800
C  35.23700 47.74400 20.67100
C  38.49100 46.23900 22.00400
C  38.80800 45.06600 21.09600
N  36.39100 46.43200 26.57000
C  36.66100 45.28100 25.83300
C  36.78400 44.16600 26.71900
C  36.47100 44.68500 27.99000
C  36.17300 46.00100 27.82400
C  37.17700 42.76800 26.38300
C  36.48700 44.27400 29.38800
O  36.77100 43.27400 29.96000
C  35.99400 45.59400 30.16200
C  34.65900 45.29400 30.69000
O  33.75900 44.78300 30.01100
O  34.68000 45.38100 32.09300
C  33.52900 44.78700 32.81100
H  35.07700 52.16600 28.08200
H  35.68900 50.31900 22.01400
H  37.06500 44.46300 23.98800
H  34.81100 48.29300 31.10500
H  36.07800 50.97800 30.34900
H  33.87100 51.81100 30.89200
H  33.43900 50.10400 31.34300
H  33.13200 50.68800 29.74300
H  37.22300 49.76100 31.65400
H  37.53400 48.13300 30.90200
H  37.54500 48.03900 33.33100
H  36.44900 47.00500 32.70800
H  35.42600 54.84000 25.65500
H  35.54500 53.95600 27.15500
H  34.03100 54.25700 26.31400
H  34.67200 54.78900 22.08100
H  35.61200 54.72300 23.57500
H  33.79600 54.52600 23.59300
H  37.25200 48.30900 21.16200
H  36.30700 45.67500 21.77600
H  34.32200 47.74300 21.26400
H  35.30600 46.83800 20.06900
H  35.25800 48.54300 19.93000
H  38.86000 45.97900 22.99600
H  39.02100 47.14700 21.71500
H  38.02400 44.31500 20.99400
H  39.67600 44.60400 21.56700
H  39.17600 45.34300 20.10800
H  36.91900 42.31600 25.42500
H  36.84500 42.15100 27.21900
H  38.26600 42.73000 26.40300
H  36.65500 45.85100 30.98900
H  33.15300 43.94600 32.22900
H  32.69300 45.47700 32.93400
H  33.84100 44.39600 33.77900

