158

Mg 44.21800 3.70500 47.02500
C  41.76400 6.29200 46.74700
C  41.70200 1.40100 47.07200
C  46.56600 1.46700 46.80300
C  46.58200 6.38200 46.54300
N  42.04000 3.83200 46.75800
C  41.23700 4.96000 46.82400
C  39.72800 4.56900 46.68700
C  39.78400 3.14000 47.25400
C  41.26300 2.72800 47.06700
C  39.25800 2.92000 48.65300
C  39.24200 4.45900 45.19700
C  38.38000 5.58800 44.57300
H  38.97500 6.33300 43.36100
N  44.17300 1.64000 46.82900
C  43.05600 0.93100 46.95700
C  43.39100 -0.44600 47.11000
C  44.83100 -0.54400 47.08300
C  45.29200 0.84700 46.89600
C  42.49700 -1.51400 47.38000
C  45.65200 -1.74100 47.19900
O  45.16200 -2.83400 47.35900
C  47.17600 -1.79100 47.16500
N  46.24700 3.89600 46.65100
C  47.09800 2.80300 46.75000
C  48.54900 3.24300 46.84700
C  48.44500 4.71000 46.25000
C  47.03300 5.06000 46.56300
C  49.19000 3.07400 48.25100
C  48.71600 4.92600 44.75200
C  50.22800 4.65400 44.49900
N  44.25100 5.93900 46.81900
C  45.29100 6.84800 46.66600
C  44.76700 8.20800 46.65400
C  43.34600 8.04000 46.65300
C  43.14700 6.62600 46.74200
C  45.55400 9.48900 46.51200
C  42.03700 8.67600 46.52700
O  41.68000 9.84200 46.34800
C  41.02000 7.64700 46.67800
C  40.12800 7.73300 47.92100
O  40.51800 7.48100 49.04400
O  38.87200 8.08800 47.54300
C  37.91000 8.15200 48.61500
H  40.87900 0.69200 47.18600
H  47.40300 0.76600 46.81700
H  47.40900 7.09200 46.46600
H  39.09100 5.36600 47.07000
H  39.20700 2.34500 46.78200
H  38.72400 3.84000 48.88800
H  40.17800 2.73400 49.20800
H  38.52800 2.11000 48.64700
H  38.65900 3.54300 45.10800
H  40.12700 4.39200 44.56400
H  38.05200 6.41300 45.20400
H  37.49800 5.16400 44.09400
H  42.89000 -2.41800 46.91600
H  41.45500 -1.38800 47.08300
H  42.46300 -1.67000 48.45900
H  47.60600 -1.20400 47.97600
H  47.47600 -1.49000 46.16100
H  47.57300 -2.78700 47.36100
H  49.10400 2.57800 46.18600
H  49.05700 5.44300 46.77700
H  49.62500 4.03600 48.52100
H  50.03300 2.40400 48.08100
H  48.41700 2.73700 48.94100
H  48.73900 5.98900 44.50900
H  48.00800 4.45300 44.07100
H  50.85400 5.51800 44.72100
H  50.41400 4.34200 43.47200
H  50.60800 3.81500 45.08200
H  45.11300 10.34500 46.00200
H  46.61800 9.34000 46.33400
H  45.49600 9.80300 47.55500
H  40.34300 7.70200 45.82500
H  37.16000 7.41800 48.32100
H  37.40200 9.11700 48.61900
H  38.08700 7.93900 49.66900
Mg 9.10500 47.75800 25.33600
C  7.29700 47.54500 28.35900
C  11.72800 49.15700 27.26800
C  10.96200 48.05800 22.64300
C  6.22900 47.33300 23.54600
N  9.41200 48.42200 27.52000
C  8.58000 48.05100 28.53800
C  9.24800 48.39400 29.84200
C  10.36400 49.45600 29.41600
C  10.54700 49.06000 27.99300
C  9.91400 50.95100 29.63900
C  9.78200 47.22600 30.59200
C  9.78800 47.36100 32.16600
H  8.96600 46.41000 33.03500
N  11.12900 48.27000 25.01400
C  12.02200 48.77000 25.89400
C  13.33500 48.70700 25.28700
C  13.11500 48.34200 23.93400
C  11.65500 48.13700 23.77800
C  14.59500 48.90900 26.02400
C  14.10500 47.93000 22.90000
O  13.79800 47.71100 21.77500
C  15.57000 47.71000 23.31500
N  8.61100 47.84200 23.36900
C  9.57300 47.94800 22.39200
C  8.91500 48.11100 21.03000
C  7.42700 47.70200 21.34100
C  7.43600 47.55100 22.84800
C  9.13300 49.34100 20.15800
C  6.98100 46.42900 20.52100
C  5.92200 46.78600 19.34700
N  7.19300 47.43300 25.84100
C  6.06100 47.27500 24.97000
C  4.91300 46.94000 25.78700
C  5.35700 47.06300 27.10100
C  6.69800 47.43500 27.07300
C  3.49800 46.99600 25.23700
C  4.88200 47.02600 28.45300
O  3.74300 46.74100 28.88700
C  6.11200 47.33300 29.31800
C  6.28900 46.06700 30.12900
O  6.95700 45.11200 29.80100
O  5.50600 46.10400 31.22600
C  5.11000 44.75300 31.71800
H  12.56500 49.53600 27.85800
H  11.50300 48.24700 21.71400
H  5.34400 46.93100 23.04900
H  8.40900 48.79800 30.41000
H  11.21300 49.29600 30.08200
H  8.85800 50.97500 29.91100
H  10.04100 51.59000 28.76600
H  10.45300 51.43100 30.45500
H  10.82800 46.99100 30.39500
H  9.20900 46.35500 30.27500
H  9.41400 48.33100 32.49700
H  10.80600 47.41600 32.55000
H  14.38400 48.90700 27.09300
H  14.93200 49.92900 25.84200
H  15.41700 48.20500 25.89800
H  15.81300 46.85400 23.94600
H  15.96500 48.55600 23.87700
H  16.15500 47.73800 22.39600
H  9.46100 47.29600 20.55400
H  6.76300 48.55600 21.20500
H  9.79500 50.03600 20.67500
H  8.14800 49.80200 20.08400
H  9.43400 49.05900 19.14900
H  6.48400 45.69700 21.15600
H  7.82500 45.86100 20.12800
H  6.22000 46.50700 18.33600
H  5.72700 47.85800 19.33300
H  4.95000 46.32100 19.51000
H  2.99800 46.03700 25.10100
H  3.37700 47.43800 24.24800
H  2.84100 47.51700 25.93400
H  5.77400 48.12600 29.98400
H  4.21600 44.83800 32.33500
H  5.87800 44.23200 32.29000
H  4.78400 44.16100 30.86200

