158

Mg -10.53000 17.06900 40.59700
C  -7.12300 16.56300 40.49000
C  -10.14700 20.32000 39.93000
C  -13.80300 17.13700 39.94100
C  -10.79400 13.42500 40.71700
N  -8.80100 18.27700 39.97500
C  -7.48600 17.92200 40.15800
C  -6.57800 19.07500 39.92300
C  -7.52000 20.28700 40.12700
C  -8.89500 19.62600 39.94200
C  -7.42500 20.94700 41.54500
C  -5.94100 19.06600 38.50800
C  -4.42000 18.74100 38.49000
H  -3.93200 17.89400 37.30800
N  -11.81400 18.57000 39.98000
C  -11.48900 19.87300 39.88200
C  -12.64200 20.67800 39.76000
C  -13.70100 19.79600 39.68000
C  -13.13900 18.41800 39.88600
C  -12.62100 22.16700 39.75300
C  -15.20200 20.20600 39.61800
O  -15.47200 21.37400 39.40300
C  -16.32400 19.18000 39.76900
N  -12.06400 15.55500 40.35200
C  -13.30900 15.89200 40.08500
C  -14.34200 14.62500 40.18300
C  -13.28900 13.49700 40.24500
C  -11.99600 14.19200 40.52300
C  -15.36100 14.67100 41.43500
C  -13.22800 12.62900 38.99700
C  -13.05800 11.08000 39.17500
N  -9.24800 15.29400 40.71200
C  -9.48100 13.92500 40.75400
C  -8.24200 13.22900 40.94900
C  -7.24600 14.22000 40.89800
C  -7.89300 15.44200 40.60200
C  -8.01400 11.71700 41.21700
C  -5.88300 14.39600 40.91800
O  -4.93300 13.61000 41.16300
C  -5.72800 16.01600 40.76400
C  -5.01200 16.61400 41.91500
O  -3.99800 17.28600 41.79800
O  -5.53600 16.11300 43.06400
C  -4.84000 16.51600 44.31400
H  -10.06900 21.40800 39.88900
H  -14.89300 17.16700 39.87900
H  -10.82300 12.34100 40.84200
H  -5.76100 19.12500 40.64300
H  -7.41300 20.96900 39.28400
H  -6.37000 20.83300 41.79300
H  -8.08900 20.35500 42.17500
H  -7.76600 21.95000 41.28800
H  -6.03900 20.09400 38.16000
H  -6.47000 18.31600 37.91900
H  -4.18900 18.35800 39.48400
H  -3.92800 19.70400 38.35500
H  -13.38900 22.64300 40.36200
H  -12.69900 22.55700 38.73800
H  -11.73800 22.66300 40.15600
H  -16.26800 18.58600 38.85600
H  -17.22400 19.78200 39.89400
H  -16.27000 18.51000 40.62700
H  -14.80100 14.54300 39.19800
H  -13.51300 12.85200 41.09400
H  -15.68400 13.68400 41.76500
H  -16.30200 15.18400 41.23300
H  -14.82600 15.26000 42.18000
H  -12.47500 13.03300 38.32000
H  -14.19000 12.78900 38.51100
H  -13.91800 10.63400 39.67400
H  -12.20200 10.90400 39.82800
H  -12.80900 10.48300 38.29800
H  -6.97700 11.64300 41.54300
H  -8.15300 11.10000 40.32900
H  -8.65900 11.28900 41.98500
H  -5.12200 16.31500 39.90900
H  -3.79900 16.20000 44.25300
H  -5.35000 16.22400 45.23200
H  -4.88300 17.60500 44.30100
Mg -5.23200 25.35500 26.00200
C  -4.21500 27.06400 28.86100
C  -7.06000 23.22500 28.00900
C  -5.83700 23.57500 23.22400
C  -3.26600 27.64700 24.01100
N  -5.49800 25.14400 28.18000
C  -5.00200 25.97800 29.16600
C  -5.52000 25.55800 30.53900
C  -6.38100 24.24800 30.29100
C  -6.32900 24.16900 28.71700
C  -5.79100 23.00100 31.00900
C  -6.44600 26.65900 31.20200
C  -6.28000 26.88600 32.64400
H  -5.83200 25.75500 33.47600
N  -6.22500 23.67100 25.68400
C  -7.01900 22.94300 26.58000
C  -7.56100 21.72900 25.92700
C  -7.35000 21.91700 24.52900
C  -6.38500 23.07600 24.46700
C  -8.45800 20.89300 26.65100
C  -7.77100 20.98400 23.41800
O  -7.40900 21.22900 22.28100
C  -8.66900 19.78500 23.63000
N  -4.37700 25.46500 23.89200
C  -5.01400 24.65100 22.96900
C  -4.61800 25.03900 21.56900
C  -3.78300 26.39500 21.82900
C  -3.88600 26.59200 23.33500
C  -3.85900 23.89800 20.91000
C  -4.16000 27.63600 20.95300
C  -3.01100 28.30700 20.21800
N  -3.92400 26.98100 26.30000
C  -3.28200 27.85000 25.39900
C  -2.62200 28.90100 26.17200
C  -2.95300 28.59500 27.49400
C  -3.70000 27.37800 27.55500
C  -1.89600 30.07800 25.55700
C  -2.81700 29.13700 28.83000
O  -2.35200 30.17900 29.26200
C  -3.58000 28.13300 29.77600
C  -2.49600 27.38200 30.59400
O  -1.36500 26.96500 30.17600
O  -2.92800 27.23400 31.87600
C  -2.00900 26.70700 32.90900
H  -7.77300 22.72000 28.66400
H  -6.13800 23.15100 22.26500
H  -2.75200 28.40200 23.41300
H  -4.61100 25.43200 31.12700
H  -7.43700 24.38800 30.52200
H  -4.82900 23.24100 31.46100
H  -5.60400 22.21600 30.27600
H  -6.47900 22.53000 31.71200
H  -7.46600 26.27500 31.18700
H  -6.33700 27.56900 30.61100
H  -7.14100 27.32300 33.14900
H  -5.61400 27.74700 32.70300
H  -8.91500 20.10700 26.05000
H  -9.31400 21.49500 26.95600
H  -7.93700 20.55300 27.54600
H  -9.69500 19.97600 23.94500
H  -8.18000 19.12900 24.35100
H  -8.78100 19.08600 22.80100
H  -5.44200 25.31700 20.91200
H  -2.72200 26.16600 21.73000
H  -3.33200 23.28800 21.64300
H  -3.18700 24.24900 20.12700
H  -4.65600 23.23700 20.57000
H  -4.78300 28.28300 21.57100
H  -4.85200 27.16900 20.25300
H  -3.13700 29.38200 20.34800
H  -3.15700 28.09300 19.15900
H  -2.05200 27.88400 20.51700
H  -2.25300 30.44600 24.59500
H  -0.86800 29.72100 25.50000
H  -2.01800 30.80600 26.35900
H  -4.18300 28.60400 30.55300
H  -0.95700 26.85600 32.66800
H  -2.10700 25.62500 33.00200
H  -2.24900 27.10200 33.89600

