158

Mg 47.03600 34.57700 27.90400
C  45.23800 32.59800 30.34600
C  47.15300 37.08500 30.33500
C  48.05900 36.75000 25.50300
C  46.18000 32.19600 25.49700
N  46.36800 34.75900 30.10200
C  45.74800 33.80300 30.89300
C  45.86200 34.34500 32.37200
C  45.95600 35.88900 32.20900
C  46.51300 35.93000 30.81000
C  44.54600 36.63100 32.41400
C  47.16000 33.75200 33.04700
C  47.08000 33.46500 34.58900
H  46.01800 34.28900 35.39600
N  47.54300 36.59700 27.93200
C  47.60200 37.40200 29.00500
C  48.21800 38.61100 28.63500
C  48.64200 38.48700 27.28900
C  48.10000 37.21100 26.83600
C  48.43400 39.76900 29.58900
C  49.37400 39.51600 26.29700
O  49.76200 39.30000 25.17200
C  49.71800 40.86100 26.77000
N  47.04100 34.49300 25.71400
C  47.48800 35.52500 25.00000
C  47.40800 35.09500 23.49400
C  47.19500 33.56100 23.55900
C  46.69500 33.39300 24.99400
C  46.33700 35.81700 22.62700
C  48.55000 32.78600 23.39900
C  48.48700 31.66200 22.33900
N  46.14300 32.71600 27.94200
C  45.84400 31.89600 26.85200
C  45.24100 30.60300 27.38100
C  44.97300 30.91200 28.72700
C  45.48600 32.23700 29.03400
C  44.83600 29.30800 26.60100
C  44.38000 30.39200 29.87100
O  43.98800 29.22400 30.11300
C  44.45500 31.41300 30.95900
C  44.74500 30.95100 32.34500
O  45.88800 30.63100 32.65300
O  43.62400 31.10900 33.12500
C  43.86900 30.79800 34.56200
H  47.29000 37.84100 31.11100
H  48.41100 37.44800 24.74100
H  46.10900 31.44200 24.71000
H  44.90100 34.07900 32.81200
H  46.72000 36.23200 32.90600
H  44.56700 37.32300 33.25500
H  43.77700 35.86500 32.51800
H  44.41400 37.21700 31.50500
H  47.96400 34.47500 32.90200
H  47.29700 32.80400 32.52700
H  48.05200 33.64600 35.04600
H  46.92700 32.40300 34.77700
H  48.37400 39.40800 30.61500
H  47.53300 40.36800 29.45400
H  49.28200 40.45200 29.53000
H  50.56100 40.77700 27.45600
H  48.90500 41.32400 27.32900
H  50.03000 41.62800 26.06100
H  48.39200 35.34300 23.09700
H  46.42700 33.20000 22.87500
H  45.69200 36.35700 23.32000
H  45.79800 35.09700 22.01200
H  46.84100 36.53300 21.97700
H  48.86300 32.29000 24.31800
H  49.36000 33.47500 23.15900
H  49.39100 31.54900 21.73900
H  47.56200 31.64400 21.76300
H  48.45200 30.81700 23.02600
H  45.61100 29.10400 25.86200
H  43.94600 29.34500 25.97300
H  44.75700 28.52700 27.35800
H  43.42100 31.75500 30.99300
H  43.01700 30.32600 35.05300
H  44.10700 31.76300 35.00800
H  44.69500 30.08900 34.62000
Mg -5.20700 24.99200 26.47900
C  -3.76900 26.40100 29.37600
C  -6.36700 22.41100 28.55600
C  -6.19800 23.34200 23.69200
C  -3.61900 27.29600 24.58200
N  -5.07400 24.45400 28.74500
C  -4.46200 25.21700 29.68500
C  -4.84100 24.71600 31.08800
C  -5.37200 23.31600 30.76500
C  -5.69500 23.39300 29.26200
C  -4.24300 22.32500 31.02300
C  -5.90800 25.69500 31.63600
C  -5.67200 26.28500 33.00200
H  -5.52600 25.26000 34.11400
N  -6.29900 23.30300 26.17700
C  -6.66700 22.35100 27.13500
C  -7.26700 21.19900 26.53200
C  -7.42700 21.48400 25.16800
C  -6.63300 22.80400 24.92600
C  -7.72800 20.14200 27.40500
C  -8.15300 20.78500 24.01700
O  -8.18300 21.25600 22.89200
C  -9.01700 19.57900 24.32800
N  -4.97300 25.24000 24.40100
C  -5.52900 24.50500 23.38900
C  -5.14000 24.95400 21.98800
C  -4.53600 26.41800 22.36300
C  -4.44600 26.40400 23.90800
C  -4.01800 24.05400 21.36000
C  -5.32800 27.75300 21.97300
C  -6.28900 27.76400 20.81100
N  -3.81300 26.41500 26.85000
C  -3.24800 27.31800 25.93400
C  -2.33700 28.22700 26.65400
C  -2.65500 27.96000 28.03400
C  -3.51100 26.84600 28.06000
C  -1.45300 29.32400 26.10800
C  -2.40100 28.36800 29.37200
O  -1.64400 29.27400 29.74200
C  -3.11300 27.34400 30.31800
C  -2.03600 26.80500 31.14100
O  -1.12300 26.01700 30.87500
O  -2.33300 27.21400 32.40000
C  -1.47500 26.81100 33.48800
H  -6.73100 21.59600 29.18500
H  -6.34900 22.62700 22.88100
H  -3.15000 28.03400 23.92700
H  -3.99300 24.84800 31.75900
H  -6.13400 23.02400 31.48800
H  -3.98000 21.91400 30.04800
H  -4.61300 21.51400 31.65100
H  -3.28700 22.68700 31.40000
H  -6.83200 25.11900 31.64600
H  -6.03400 26.51900 30.93400
H  -6.55300 26.91500 33.12600
H  -4.72100 26.81600 33.04400
H  -8.46500 20.58300 28.07700
H  -6.89300 19.85400 28.04300
H  -8.21100 19.32700 26.86600
H  -9.56100 19.93000 25.20600
H  -8.36100 18.73300 24.53200
H  -9.61200 19.10700 23.54600
H  -5.96300 24.99900 21.27400
H  -3.55600 26.42700 21.88700
H  -3.19500 24.65900 20.97900
H  -4.54600 23.51100 20.57600
H  -3.66300 23.28700 22.04800
H  -4.50800 28.45200 21.81100
H  -5.92200 28.09800 22.81900
H  -6.02900 27.10200 19.98500
H  -6.30200 28.75000 20.34500
H  -7.27700 27.52000 21.20200
H  -1.83700 29.61400 25.13100
H  -0.39300 29.10000 25.98700
H  -1.39100 30.23900 26.69700
H  -3.82400 27.84400 30.97500
H  -0.82300 27.67900 33.58800
H  -0.88100 25.93900 33.21700
H  -2.02500 26.63900 34.41400

