158

Mg 26.13100 0.91600 29.57100
C  28.01700 0.51500 32.52600
C  23.32500 0.92000 31.42600
C  24.35300 1.02400 26.66900
C  29.03400 0.36000 27.75300
N  25.70100 0.55400 31.77300
C  26.61500 0.57300 32.79100
C  25.92500 0.77800 34.18500
C  24.39700 0.65900 33.77300
C  24.40600 0.70800 32.23400
C  23.65500 -0.53600 34.21000
C  26.28400 2.05400 34.85800
C  27.10700 1.93900 36.18000
H  26.77500 2.92300 37.35700
N  24.13200 1.04000 29.17600
C  23.18300 1.01300 30.05100
C  21.89800 1.17100 29.31500
C  22.17300 1.42900 27.94600
C  23.63700 1.18600 27.89900
C  20.52100 1.15700 29.99200
C  21.28000 1.84800 26.76700
O  21.70600 1.82600 25.63400
C  19.83400 2.11100 26.97800
N  26.62800 0.82500 27.51400
C  25.71000 0.86100 26.51400
C  26.42000 0.78300 25.12700
C  27.94100 0.69900 25.57600
C  27.85600 0.60600 27.05600
C  25.95400 -0.20400 24.05000
C  28.89100 1.88400 25.13400
C  30.34400 1.49100 24.83800
N  28.10500 0.44600 29.94700
C  29.19700 0.30400 29.11900
C  30.42600 0.17800 29.87900
C  30.02800 0.15600 31.21600
C  28.55600 0.37200 31.23000
C  31.77500 0.01600 29.25000
C  30.48000 0.09200 32.61400
O  31.59900 -0.06400 33.11800
C  29.18900 0.51700 33.49300
C  29.09000 -0.49900 34.55200
O  28.66100 -1.62600 34.30800
O  29.66200 -0.12800 35.67500
C  29.51900 -1.00300 36.86000
H  22.47100 0.84100 32.10100
H  23.73400 0.97900 25.77100
H  29.93300 0.11700 27.18300
H  26.15500 -0.05100 34.85400
H  23.82900 1.51300 34.14200
H  22.91200 -0.90000 33.49900
H  23.13100 -0.36100 35.14900
H  24.40600 -1.30800 34.37300
H  25.41400 2.68600 35.03500
H  26.88300 2.64300 34.16400
H  28.10900 2.23800 35.87100
H  27.20200 0.89600 36.48100
H  19.76000 0.56600 29.48300
H  20.07400 2.15000 29.94200
H  20.57400 0.96100 31.06300
H  19.39700 1.11800 26.87200
H  19.40600 2.71300 26.17600
H  19.53300 2.60200 27.90400
H  26.28400 1.76600 24.67600
H  28.43900 -0.25700 25.41600
H  26.79500 -0.74600 23.61800
H  25.37400 0.31500 23.28700
H  25.31300 -0.94200 24.53400
H  28.97800 2.55800 25.98600
H  28.40300 2.48600 24.36600
H  30.55300 0.42100 24.86400
H  31.02900 1.93000 25.56500
H  30.54200 1.92900 23.86000
H  32.29700 0.74900 29.86500
H  31.82800 0.31200 28.20200
H  32.21500 -0.97200 29.39000
H  29.32500 1.45000 34.04000
H  30.23300 -0.89800 37.67700
H  29.42200 -2.08100 36.72500
H  28.58400 -0.67800 37.31600
Mg 6.07200 54.63300 41.02400
C  5.84900 51.05400 40.66800
C  9.17900 54.36700 39.43700
C  5.89300 57.90700 40.54100
C  2.70000 54.55900 41.97900
N  7.29700 52.86800 39.92200
C  7.01000 51.52400 39.95200
C  8.16700 50.70500 39.38400
C  9.35900 51.77500 39.19700
C  8.64900 53.09500 39.59300
C  10.72700 51.41600 39.82600
C  7.89700 49.94100 38.01900
C  7.03600 50.77000 37.05700
H  6.53800 50.00700 35.81000
N  7.37600 56.01400 40.29200
C  8.61100 55.66600 39.73900
C  9.39200 56.90600 39.68700
C  8.45100 57.96900 39.78700
C  7.16500 57.35300 40.22400
C  10.89400 56.98700 39.39600
C  8.74400 59.40800 39.53000
O  9.85600 59.69800 39.13700
C  7.76700 60.47400 39.72600
N  4.51800 56.00300 41.12400
C  4.70800 57.31500 40.93700
C  3.51900 58.17800 41.32700
C  2.44100 57.10500 41.69000
C  3.28300 55.78700 41.60600
C  3.86500 59.07900 42.54000
C  1.17800 56.99400 40.85000
C  0.08200 57.99100 41.37400
N  4.57700 53.19900 41.35200
C  3.27800 53.32500 41.77200
C  2.83300 52.05500 42.19800
C  3.82600 51.16300 41.81900
C  4.82500 51.88800 41.23700
C  1.58500 51.68800 42.95500
C  4.07700 49.75500 41.72300
O  3.55800 48.73400 42.17300
C  5.44700 49.64200 40.98800
C  5.25400 48.64300 39.91300
O  4.66500 48.75800 38.85100
O  5.98000 47.51600 40.30000
C  5.79100 46.37600 39.32700
H  10.14800 54.36800 38.93400
H  5.76100 58.99100 40.53200
H  1.76500 54.62800 42.53800
H  8.41500 49.88100 40.05300
H  9.62000 51.88200 38.14400
H  10.47300 50.62700 40.53500
H  11.18800 52.31600 40.23200
H  11.43700 51.06700 39.07700
H  7.46700 48.95500 38.19600
H  8.80800 49.70800 37.46800
H  7.72700 51.57600 36.80900
H  6.20600 51.23000 37.59300
H  11.25100 57.77300 40.06300
H  11.16200 57.34100 38.40100
H  11.41200 56.08500 39.72100
H  6.91100 60.23000 39.09600
H  8.27500 61.38100 39.39900
H  7.34300 60.58600 40.72300
H  3.33100 58.86200 40.50000
H  2.09800 57.19900 42.72000
H  3.21300 58.97100 43.40700
H  3.68500 60.09500 42.18900
H  4.88400 58.83500 42.84200
H  0.80000 56.01300 41.13600
H  1.31700 57.02200 39.76900
H  -0.80300 57.49200 41.76900
H  -0.17300 58.65500 40.54800
H  0.39500 58.57800 42.23800
H  0.91700 52.54700 42.89800
H  1.69300 51.41000 44.00300
H  1.02900 50.89800 42.45000
H  6.16500 49.20300 41.68000
H  6.06100 46.72400 38.33000
H  4.75900 46.03200 39.39400
H  6.53100 45.62000 39.59000

