158

Mg -12.14800 37.71600 42.35600
C  -10.05500 35.01400 41.50000
C  -9.93200 39.79900 40.63300
C  -14.58700 39.91800 42.31300
C  -14.49800 35.18100 43.45300
N  -10.29800 37.40400 40.94600
C  -9.61200 36.19800 40.89000
C  -8.33100 36.40400 40.08100
C  -8.13900 37.95900 40.07100
C  -9.51500 38.44300 40.59500
C  -7.05400 38.39300 41.01000
C  -8.40400 35.72900 38.69400
C  -7.16700 34.89000 38.40400
H  -6.11800 35.41300 37.50900
N  -12.18300 39.64000 41.71000
C  -11.11600 40.38300 41.11800
C  -11.61900 41.78800 41.07800
C  -12.94400 41.82000 41.56700
C  -13.34100 40.45300 41.84500
C  -10.73300 42.85200 40.60200
C  -13.84600 43.05000 41.65200
O  -13.43800 44.12800 41.19800
C  -15.18600 43.12900 42.29000
N  -14.32100 37.56900 42.40400
C  -15.01000 38.68500 42.61500
C  -16.43900 38.39800 43.11900
C  -16.39900 36.90100 43.45200
C  -15.02400 36.46600 43.06300
C  -16.94100 39.38000 44.25500
C  -17.50000 35.96700 42.78500
C  -18.26000 34.98300 43.78900
N  -12.25200 35.57400 42.61600
C  -13.16200 34.72700 43.17200
C  -12.60400 33.42700 43.35100
C  -11.36200 33.42100 42.69400
C  -11.24400 34.79200 42.18700
C  -13.27600 32.33300 44.13000
C  -10.25000 32.64500 42.21400
O  -9.96300 31.44300 42.31400
C  -9.33900 33.64500 41.44600
C  -7.95300 33.60700 41.93500
O  -7.15200 32.72200 41.60000
O  -7.65300 34.60800 42.76800
C  -6.28600 34.60800 43.40300
H  -9.17200 40.49600 40.27400
H  -15.33800 40.68600 42.50400
H  -15.15300 34.55900 44.06700
H  -7.56400 35.91500 40.68200
H  -7.97600 38.31700 39.05400
H  -7.48800 38.93000 41.85400
H  -6.34500 38.99800 40.44500
H  -6.51900 37.62200 41.56400
H  -8.49400 36.47200 37.90200
H  -9.24900 35.07900 38.46600
H  -7.55800 33.96400 37.98300
H  -6.70600 34.50700 39.31500
H  -9.66600 42.63100 40.62900
H  -10.81100 43.69700 41.28600
H  -10.98600 43.17900 39.59300
H  -16.04800 42.91400 41.65700
H  -15.28700 44.15100 42.65500
H  -15.31000 42.46500 43.14600
H  -17.14400 38.54700 42.30100
H  -16.51200 36.93900 44.53600
H  -16.46800 40.35200 44.11300
H  -16.70200 38.96200 45.23200
H  -17.98500 39.66900 44.13200
H  -16.98600 35.31200 42.08200
H  -18.21400 36.55300 42.20700
H  -18.37100 34.01000 43.31000
H  -19.16400 35.54100 44.03200
H  -17.62400 34.96800 44.67400
H  -12.68800 31.45100 44.38400
H  -14.13000 31.98400 43.54800
H  -13.62900 32.76900 45.06500
H  -9.37000 33.26700 40.42400
H  -5.62200 35.31400 42.90400
H  -5.76100 33.65300 43.39000
H  -6.50200 35.02400 44.38700
Mg -12.93700 16.03400 42.80900
C  -10.13300 14.03000 42.00600
C  -11.48700 18.58900 41.19400
C  -15.94400 17.49200 42.72400
C  -14.43200 12.90900 43.81300
N  -10.99400 16.18700 41.66200
C  -10.00300 15.32100 41.51500
C  -8.77600 16.05900 40.84000
C  -9.19300 17.52800 40.87700
C  -10.65600 17.43500 41.18500
C  -8.32300 18.59100 41.62400
C  -8.35100 15.43000 39.48900
C  -6.88300 15.08200 39.22600
H  -6.16200 15.84600 38.07300
N  -13.58700 17.93300 42.09900
C  -12.84400 18.83000 41.54100
C  -13.61700 20.02600 41.36600
C  -14.92500 19.78600 41.91300
C  -14.88500 18.36400 42.25700
C  -13.12600 21.25000 40.63000
C  -16.05500 20.75900 42.16700
O  -15.82100 21.90000 41.96300
C  -17.41800 20.33700 42.67600
N  -14.91400 15.32600 43.13300
C  -15.99000 16.14600 43.00000
C  -17.22500 15.39400 43.43100
C  -16.73500 13.88700 43.59000
C  -15.21400 14.04800 43.58900
C  -17.93500 15.91200 44.69600
C  -17.26400 12.83100 42.60700
C  -17.55500 11.48300 43.17700
N  -12.31700 13.98100 43.26500
C  -13.03000 12.81100 43.63900
C  -12.11900 11.69200 43.77100
C  -10.98700 12.14200 43.14000
C  -11.18400 13.52000 42.79300
C  -12.37400 10.31400 44.39500
C  -9.66500 11.77800 42.76900
O  -9.01500 10.82200 43.07100
C  -9.05900 12.95600 41.92400
C  -7.88000 13.39800 42.64000
O  -7.88500 13.87000 43.77900
O  -6.77700 13.15400 41.83200
C  -5.45900 13.44600 42.38500
H  -11.06400 19.47300 40.71300
H  -16.93600 17.94900 42.72000
H  -14.99900 11.99600 44.00700
H  -7.99400 15.96000 41.59200
H  -9.09800 17.98800 39.89400
H  -7.93700 19.30300 40.89400
H  -7.47200 18.03600 42.01800
H  -8.85200 19.09300 42.43300
H  -8.67600 16.10500 38.69700
H  -8.92500 14.52700 39.28000
H  -6.88600 14.05000 38.87700
H  -6.23600 15.19100 40.09700
H  -12.23900 21.60200 41.15600
H  -13.88800 22.03000 40.62200
H  -12.86900 20.95300 39.61300
H  -17.99300 19.67900 42.02500
H  -18.02500 21.20900 42.92000
H  -17.29500 19.84200 43.64000
H  -17.90200 15.44000 42.57800
H  -17.01100 13.58000 44.59900
H  -17.11600 16.27700 45.31600
H  -18.54600 15.28600 45.34700
H  -18.52000 16.79100 44.42700
H  -16.48400 12.73900 41.85100
H  -18.15400 13.23600 42.12500
H  -17.62000 11.44300 44.26400
H  -16.76200 10.82000 42.83000
H  -18.45200 11.14700 42.65700
H  -13.07100 10.43100 45.22500
H  -11.37800 10.00500 44.71300
H  -12.84800 9.59800 43.72300
H  -8.76300 12.62000 40.93000
H  -5.30300 14.49500 42.13400
H  -4.66100 12.82500 41.97900
H  -5.46400 13.37900 43.47300

