158

Mg 23.75400 -3.90800 45.30100
C  25.84900 -1.38100 44.02200
C  21.29800 -2.91000 43.16300
C  22.43800 -6.92800 45.57200
C  26.73200 -5.22300 46.91100
N  23.66600 -2.35900 43.68400
C  24.62200 -1.45800 43.34900
C  24.17400 -0.58100 42.19700
C  22.56000 -0.75000 42.25100
C  22.49400 -2.15000 43.05100
C  21.61400 0.17100 43.10200
C  24.85600 -1.13400 40.91500
C  25.11600 -0.07700 39.89200
H  25.27000 -0.39000 38.37600
N  22.02300 -4.81300 44.55100
C  21.10100 -4.17300 43.74900
C  20.00100 -5.05400 43.49500
C  20.33800 -6.25900 44.21100
C  21.62200 -6.05300 44.84200
C  18.86400 -4.73800 42.60000
C  19.40900 -7.42400 44.20100
O  18.36900 -7.50600 43.55300
C  19.86200 -8.63100 44.95900
N  24.53800 -5.80700 46.12100
C  23.70900 -6.82500 46.07500
C  24.29000 -7.99400 46.88000
C  25.68100 -7.52300 47.33100
C  25.67500 -6.04800 46.79400
C  23.43600 -8.77300 48.03300
C  26.88500 -8.27900 46.77200
C  27.65900 -9.01200 47.88600
N  25.76500 -3.32400 45.65400
C  26.78000 -3.89000 46.41100
C  27.97200 -3.01500 46.31500
C  27.62600 -2.03500 45.42800
C  26.30200 -2.23900 44.98600
C  29.30500 -3.38300 47.01900
C  28.25500 -0.94100 44.71300
O  29.38400 -0.38200 44.79700
C  27.14300 -0.46200 43.71700
C  26.76400 0.92300 44.08100
O  25.99200 1.20700 44.98300
O  27.50900 1.82000 43.33000
C  27.31700 3.27000 43.47900
H  20.42300 -2.46000 42.68900
H  22.13500 -7.95900 45.77000
H  27.59300 -5.75200 47.32500
H  24.44800 0.43700 42.47200
H  22.21300 -1.07200 41.27000
H  20.76900 0.50900 42.50100
H  22.14200 1.08500 43.37400
H  21.36400 -0.28400 44.06000
H  24.16500 -1.87900 40.52000
H  25.82100 -1.53900 41.22200
H  26.00500 0.48900 40.17000
H  24.27600 0.61400 39.82100
H  19.07100 -5.06000 41.57900
H  18.69400 -3.66200 42.56700
H  17.90900 -5.09600 42.98600
H  19.22600 -9.51600 44.96900
H  19.89400 -8.35100 46.01200
H  20.83800 -8.94000 44.58500
H  24.48800 -8.76400 46.13400
H  25.71200 -7.50300 48.42100
H  22.63100 -8.06500 48.22800
H  23.93100 -8.88700 48.99800
H  23.09300 -9.74900 47.69100
H  27.57500 -7.62500 46.23800
H  26.65300 -9.06400 46.05200
H  27.40700 -10.03900 47.61900
H  27.43000 -8.61700 48.87600
H  28.73200 -8.84600 47.79200
H  29.26700 -4.43200 47.31400
H  29.55800 -2.83100 47.92400
H  30.10700 -3.27800 46.28800
H  27.55100 -0.53200 42.70900
H  26.51600 3.47400 44.19000
H  27.20900 3.75700 42.51000
H  28.13100 3.75400 44.02000
Mg -6.22700 25.24100 26.09100
C  -4.70300 26.79300 28.80300
C  -8.16400 23.29500 28.36300
C  -7.34800 23.50000 23.53400
C  -3.92600 26.86800 23.94800
N  -6.37800 25.06200 28.33900
C  -5.66100 25.83800 29.22700
C  -6.05300 25.50400 30.68100
C  -7.05800 24.33300 30.43100
C  -7.27700 24.26100 28.92100
C  -6.71700 22.94000 31.11200
C  -6.64300 26.74200 31.38400
C  -7.52400 26.45900 32.68800
H  -7.00400 25.67900 33.82400
N  -7.69300 23.73100 25.94600
C  -8.36600 23.12700 26.97800
C  -9.25100 22.18200 26.38700
C  -9.11000 22.17400 24.96200
C  -8.04400 23.16700 24.76500
C  -10.05900 21.36200 27.29400
C  -9.71100 21.29200 23.78300
O  -9.34400 21.23900 22.61300
C  -10.71400 20.27700 24.15300
N  -5.63100 25.18700 24.06600
C  -6.26000 24.37700 23.23400
C  -5.75500 24.46700 21.73300
C  -4.60700 25.51800 21.90000
C  -4.78200 25.98300 23.38200
C  -5.27400 23.10700 21.03700
C  -4.53700 26.67300 20.84000
C  -3.27500 26.68000 20.04300
N  -4.68000 26.53600 26.28800
C  -3.90100 27.21100 25.35300
C  -3.01000 28.15700 25.99200
C  -3.27900 28.01600 27.39500
C  -4.31000 27.07700 27.47900
C  -1.94800 28.91600 25.20400
C  -2.92800 28.41000 28.73000
O  -1.96800 29.09700 29.09800
C  -3.83700 27.71600 29.72300
C  -3.02100 26.80200 30.59500
O  -2.27500 25.89200 30.16600
O  -3.24300 27.16700 31.90600
C  -2.29200 26.54400 32.88600
H  -8.66400 22.67600 29.11000
H  -7.78700 23.04900 22.64200
H  -3.30200 27.38400 23.21600
H  -5.13500 25.19500 31.18100
H  -8.03600 24.65200 30.79200
H  -6.62100 22.09400 30.43200
H  -7.39500 22.79700 31.95400
H  -5.74500 23.09400 31.58000
H  -7.20600 27.30400 30.63800
H  -5.82500 27.30500 31.83300
H  -8.57800 26.23200 32.52600
H  -7.56500 27.46000 33.11600
H  -10.96500 20.98000 26.82400
H  -10.43200 21.81700 28.21200
H  -9.38500 20.55100 27.57100
H  -11.13800 19.78800 23.27600
H  -11.49700 20.72900 24.76100
H  -10.25500 19.45200 24.69700
H  -6.51700 24.95500 21.12500
H  -3.63500 25.02300 21.91400
H  -5.60400 22.33100 21.72700
H  -4.20100 22.93600 20.96300
H  -5.65300 23.10100 20.01500
H  -4.55800 27.65800 21.30600
H  -5.33900 26.61400 20.10400
H  -2.60800 25.82800 20.17900
H  -2.69400 27.60000 20.11500
H  -3.58900 26.62800 19.00100
H  -1.11600 29.05700 25.89300
H  -2.15400 29.92800 24.85700
H  -1.68900 28.38100 24.29000
H  -4.30500 28.40200 30.43000
H  -1.91600 25.56600 32.58700
H  -2.95200 26.34100 33.72900
H  -1.53500 27.20500 33.30900

