158

Mg 50.63000 48.04300 43.70000
C  47.49100 49.03700 42.41900
C  50.41900 45.12700 41.88900
C  53.83000 47.40600 44.24600
C  51.02400 51.31300 45.03600
N  49.11400 47.14200 42.42700
C  47.93000 47.73300 41.94300
C  47.12800 46.71600 41.08600
C  48.10100 45.42600 41.05300
C  49.28600 45.93500 41.85100
C  47.47000 44.09300 41.58900
C  46.59000 47.23800 39.65000
C  45.06700 47.23200 39.46400
H  44.59200 46.60300 38.14600
N  51.85600 46.25800 43.46400
C  51.61400 45.26300 42.62100
C  52.73900 44.44000 42.51700
C  53.70000 45.00100 43.38000
C  53.18900 46.30000 43.72000
C  52.76600 43.17200 41.62300
C  55.04400 44.43600 43.71700
O  55.27700 43.27700 43.29600
C  56.10900 45.13700 44.56600
N  52.23100 49.29700 44.45200
C  53.50000 48.73600 44.63900
C  54.35800 49.67400 45.46900
C  53.48800 51.01000 45.66500
C  52.19000 50.56200 45.01200
C  55.04800 49.12200 46.85400
C  54.00700 52.24800 44.95100
C  54.29100 53.48200 45.85800
N  49.43700 49.77800 43.85200
C  49.77000 51.02000 44.47600
C  48.64700 51.89800 44.27300
C  47.74700 51.19200 43.50900
C  48.29400 49.88400 43.21400
C  48.49500 53.30200 44.68100
C  46.39100 51.16700 42.92000
O  45.51500 52.01500 42.90400
C  46.18800 49.80000 42.25300
C  45.02700 49.04700 42.75700
O  45.07600 48.26600 43.68500
O  43.91100 49.16600 41.94500
C  42.74700 48.37000 42.25300
H  50.26300 44.32000 41.17100
H  54.90500 47.21300 44.26900
H  50.94700 52.32800 45.43100
H  46.36700 46.50600 41.83800
H  48.50200 45.26600 40.05200
H  47.56500 43.34600 40.80000
H  46.41600 44.28600 41.79300
H  47.93100 43.70100 42.49500
H  46.97700 46.58900 38.86400
H  46.93200 48.27100 39.58900
H  44.82900 48.29500 39.45000
H  44.59000 46.65800 40.25900
H  53.80300 42.92200 41.39800
H  52.23200 43.40000 40.70100
H  52.25200 42.38400 42.17400
H  56.47600 45.97100 43.96900
H  56.89400 44.39400 44.71000
H  55.61200 45.51400 45.45900
H  55.20700 49.94500 44.84200
H  53.31000 51.13400 46.73300
H  56.13300 49.17400 46.94100
H  54.71500 48.08700 46.93600
H  54.64900 49.63600 47.72800
H  53.39500 52.62800 44.13300
H  55.00900 52.05400 44.57000
H  53.80700 53.29000 46.81600
H  53.83300 54.35100 45.38500
H  55.37300 53.48700 45.99100
H  48.55600 54.00900 43.85400
H  49.28300 53.52900 45.39900
H  47.57100 53.51500 45.21800
H  45.87600 49.92000 41.21500
H  42.46200 48.26500 43.30000
H  42.96100 47.40100 41.80300
H  41.94800 48.84100 41.67900
Mg -2.13700 33.98700 27.10400
C  -3.93100 32.40100 29.49700
C  -1.06300 36.20100 29.53900
C  -0.64500 35.89600 24.65400
C  -3.74400 32.17100 24.64500
N  -2.49800 34.23900 29.25100
C  -3.20400 33.41000 30.03400
C  -3.11100 33.79700 31.53400
C  -2.39000 35.21600 31.46100
C  -1.99900 35.20400 29.97100
C  -3.17900 36.44300 31.98400
C  -2.35100 32.74500 32.35400
C  -3.17300 32.17000 33.53700
H  -2.49800 31.70800 34.87600
N  -0.92500 35.65500 27.15300
C  -0.54200 36.40300 28.25000
C  0.50500 37.27900 27.90900
C  0.57100 37.24200 26.46500
C  -0.38300 36.27300 25.98600
C  1.37400 38.06500 28.91500
C  1.64600 37.91300 25.63800
O  1.71400 37.71200 24.44600
C  2.72400 38.85300 26.15600
N  -2.28600 34.09900 24.98100
C  -1.53000 34.93100 24.19700
C  -1.44300 34.40100 22.75500
C  -2.52000 33.28800 22.71800
C  -2.83700 33.12300 24.21400
C  -1.47400 35.35200 21.59000
C  -1.92700 32.04000 21.90700
C  -1.03300 31.08900 22.78300
N  -3.61400 32.61200 26.97600
C  -4.11500 31.87300 25.94100
C  -5.09500 30.88600 26.51000
C  -4.99000 31.05700 27.88300
C  -4.06100 32.07000 28.15800
C  -5.87400 29.81100 25.79500
C  -5.59200 30.55700 29.13300
O  -6.44200 29.74900 29.29500
C  -4.91200 31.43300 30.22500
C  -5.92300 32.20600 30.92400
O  -6.72700 32.95000 30.40300
O  -6.10500 31.77700 32.21300
C  -7.32300 32.24800 32.94000
H  -0.80600 36.88000 30.35500
H  -0.20800 36.49100 23.84900
H  -4.05900 31.57300 23.78700
H  -4.12100 33.95000 31.91500
H  -1.47900 35.26400 32.05600
H  -4.13200 36.25300 32.47900
H  -3.35000 37.08900 31.12300
H  -2.60200 37.06800 32.66500
H  -1.53900 33.27000 32.85700
H  -1.98000 31.91300 31.75600
H  -3.70700 31.32900 33.09600
H  -3.96500 32.87400 33.79200
H  2.23300 37.44600 29.17600
H  0.80100 38.36400 29.79200
H  1.75100 38.95400 28.41000
H  2.28600 39.75700 26.58000
H  3.53400 39.04600 25.45300
H  3.29600 38.25400 26.86500
H  -0.44100 33.97800 22.68800
H  -3.37300 33.67100 22.15700
H  -2.32300 35.09800 20.95500
H  -0.59600 35.22300 20.95700
H  -1.61400 36.37100 21.95100
H  -1.37700 32.37500 21.02800
H  -2.82300 31.48400 21.62800
H  -0.23800 30.54500 22.27400
H  -1.64400 30.28600 23.19600
H  -0.65400 31.74000 23.57100
H  -5.79100 28.87100 26.34200
H  -5.43800 29.83500 24.79700
H  -6.91300 30.13900 25.77000
H  -4.38000 30.72100 30.85500
H  -7.87400 33.04900 32.44700
H  -6.96400 32.76900 33.82800
H  -7.84000 31.34000 33.25100

