158

Mg 42.69400 42.02100 26.72200
C  41.59800 44.06600 29.36400
C  43.78200 39.75200 28.89500
C  43.73900 40.22600 24.02300
C  42.08900 44.69900 24.58000
N  42.56200 41.91400 28.84300
C  41.92400 42.76000 29.71100
C  41.92300 42.18500 31.17000
C  42.91100 40.99800 31.01300
C  43.07700 40.81100 29.46700
C  44.23900 41.11500 31.76800
C  40.48700 41.77700 31.67400
C  39.91400 42.65100 32.89500
H  39.49600 41.99900 34.24600
N  43.79000 40.24800 26.54300
C  44.05400 39.42900 27.56800
C  44.78700 38.35700 27.02500
C  44.71200 38.41600 25.64000
C  44.07600 39.72500 25.32200
C  45.55100 37.28900 27.86300
C  45.25200 37.47900 24.59700
O  44.98100 37.57500 23.40500
C  46.11000 36.32300 25.00800
N  42.78400 42.40900 24.48600
C  43.27500 41.49200 23.68200
C  43.28000 42.06700 22.22600
C  42.86400 43.53000 22.38100
C  42.48300 43.56700 23.87700
C  44.54500 41.97800 21.46800
C  41.74600 43.98900 21.39600
C  40.29000 44.03000 21.89600
N  41.89400 43.96800 26.86900
C  41.74000 44.90100 25.89600
C  41.21700 46.18000 26.49000
C  41.13100 45.81000 27.84900
C  41.66600 44.52900 28.02900
C  40.71600 47.46400 25.79600
C  40.79300 46.33700 29.21500
O  40.21400 47.35500 29.62500
C  41.01000 45.18500 30.19500
C  42.00600 45.67300 31.15100
O  43.22900 45.69900 30.87300
O  41.42500 46.12800 32.32800
C  42.23700 46.90600 33.26900
H  44.11700 39.04300 29.65400
H  44.06600 39.58800 23.19900
H  42.05100 45.63700 24.02200
H  42.27400 42.93800 31.87600
H  42.37600 40.14200 31.42300
H  44.50200 42.08200 32.19800
H  45.05600 40.82800 31.10600
H  44.20300 40.27200 32.45800
H  40.36800 40.71700 31.90000
H  39.82700 41.88800 30.81400
H  39.06000 43.20800 32.51100
H  40.66300 43.41700 33.09700
H  45.01600 36.34600 27.75400
H  45.37100 37.56400 28.90200
H  46.59600 37.28400 27.55400
H  46.17700 35.70000 24.11600
H  45.64100 35.72900 25.79300
H  47.09200 36.58500 25.40200
H  42.54500 41.55700 21.60300
H  43.67400 44.24700 22.25100
H  45.27900 42.58400 21.99800
H  44.50500 42.41600 20.47100
H  44.90400 40.95000 21.51000
H  41.86800 43.59200 20.38800
H  41.85200 45.05300 21.18500
H  40.17700 43.26400 22.66200
H  39.68400 43.66200 21.06800
H  40.04900 45.00500 22.32000
H  41.46700 47.37600 25.01100
H  40.91400 48.35800 26.38700
H  39.73500 47.33000 25.33900
H  40.04200 44.98800 30.65500
H  41.53800 47.54800 33.80500
H  42.94100 47.54700 32.73800
H  42.64700 46.15500 33.94400
Mg -13.07800 16.50400 41.82300
C  -10.00600 14.85600 41.22900
C  -11.91900 19.06500 39.83000
C  -16.16500 17.72100 41.78500
C  -14.40200 13.29900 42.69600
N  -11.08800 16.99500 40.82800
C  -10.02900 16.19600 40.71200
C  -8.89200 16.88600 39.89800
C  -9.47500 18.31900 39.63800
C  -10.93700 18.10500 40.12300
C  -8.65100 19.47500 40.30600
C  -8.44700 16.07500 38.61700
C  -6.92800 15.92800 38.64400
H  -6.21900 15.51200 37.31800
N  -13.89800 18.26100 41.15200
C  -13.29600 19.12600 40.26900
C  -14.10500 20.30800 40.12600
C  -15.35000 19.92800 40.74900
C  -15.20900 18.56800 41.21900
C  -13.69800 21.53500 39.28700
C  -16.53500 20.80800 40.69000
O  -16.52700 21.82900 40.04800
C  -17.83700 20.36000 41.41300
N  -15.04000 15.59200 42.14400
C  -16.11600 16.37600 42.20100
C  -17.35100 15.62400 42.68000
C  -16.81100 14.27200 43.12700
C  -15.33500 14.36400 42.67800
C  -18.25100 16.33900 43.75200
C  -17.61600 13.08700 42.61700
C  -17.55300 12.83700 41.09400
N  -12.35800 14.58900 42.11900
C  -13.02300 13.42100 42.42900
C  -12.04700 12.34500 42.40400
C  -10.89800 12.86700 41.98000
C  -11.13800 14.21600 41.82800
C  -12.25600 10.92100 42.80900
C  -9.54300 12.49100 41.63600
O  -8.94400 11.40800 41.54500
C  -8.86900 13.81200 41.28300
C  -7.75200 14.06200 42.23100
O  -7.89400 14.50600 43.37500
O  -6.46400 13.84000 41.70900
C  -5.32700 13.99200 42.58000
H  -11.59600 19.89100 39.19400
H  -17.15700 18.17800 41.81000
H  -14.71600 12.31800 43.05700
H  -8.02300 17.05500 40.53300
H  -9.57600 18.43200 38.55900
H  -7.99100 20.00000 39.61600
H  -7.95700 19.10400 41.06100
H  -9.37900 20.13900 40.77100
H  -8.79100 16.54500 37.69500
H  -8.86700 15.07200 38.54700
H  -6.56200 15.49300 39.57400
H  -6.59700 16.96600 38.67900
H  -14.10500 22.46600 39.68200
H  -14.23700 21.49200 38.34000
H  -12.63600 21.61400 39.05200
H  -18.50500 21.22100 41.44500
H  -17.57300 20.14900 42.44900
H  -18.28900 19.65400 40.71600
H  -17.97300 15.59300 41.78500
H  -16.81800 14.19500 44.21400
H  -18.04300 16.03700 44.77900
H  -19.29300 16.30100 43.43500
H  -17.90800 17.36900 43.65500
H  -18.62200 13.17000 43.02700
H  -17.22300 12.20100 43.11600
H  -17.39000 11.76000 41.06800
H  -16.77000 13.42800 40.61900
H  -18.57700 13.06300 40.79500
H  -12.46900 10.93200 43.87800
H  -11.38500 10.36500 42.46300
H  -13.07500 10.48500 42.23600
H  -8.53200 13.70600 40.25200
H  -4.35100 13.94000 42.09600
H  -5.31100 13.11500 43.22600
H  -5.36300 14.87100 43.22400

