158

Mg 47.37000 16.16800 28.19200
C  45.22700 16.16100 31.09900
C  49.57300 18.01300 30.09100
C  48.98500 16.73500 25.34300
C  44.76100 14.73100 26.50000
N  47.28900 17.06900 30.23500
C  46.44700 16.79100 31.27100
C  47.00900 17.16800 32.64400
C  48.35200 17.88800 32.31900
C  48.43000 17.68800 30.75200
C  48.48100 19.30200 32.82300
C  47.15600 16.00600 33.66500
C  46.51300 16.17500 35.11200
H  46.18600 17.54700 35.58200
N  49.13400 17.07200 27.80100
C  49.89000 17.76600 28.69800
C  51.03100 18.39300 28.04300
C  50.90600 17.95500 26.64100
C  49.69100 17.15500 26.56300
C  52.01800 19.26500 28.66100
C  51.84000 18.23800 25.48900
O  51.60600 18.01500 24.30900
C  53.17200 18.77600 25.78100
N  47.01700 15.71700 26.20000
C  47.74500 16.13200 25.13500
C  47.11100 15.68000 23.82100
C  45.95300 14.72600 24.28400
C  45.90200 15.06100 25.76000
C  46.63300 16.81200 22.91500
C  46.16300 13.18700 23.90900
C  45.21800 12.57300 22.88000
N  45.39500 15.47500 28.65500
C  44.54900 14.87900 27.86200
C  43.36500 14.40300 28.69100
C  43.56200 14.88400 29.94700
C  44.84600 15.48500 29.89100
C  42.11500 13.78300 28.26300
C  43.08200 14.98200 31.33800
O  42.12800 14.48500 31.89600
C  44.14700 15.84300 32.13800
C  43.45700 16.95800 32.81100
O  43.34200 18.11300 32.37600
O  42.86200 16.44200 33.94800
C  41.93200 17.36900 34.62500
H  50.37700 18.45600 30.68200
H  49.47700 17.02000 24.41100
H  44.10000 14.04800 25.96200
H  46.29400 17.91700 32.98700
H  49.21600 17.39200 32.76300
H  49.27600 19.35900 33.56700
H  47.50200 19.60800 33.19100
H  48.76000 19.96800 32.00700
H  48.23200 15.91100 33.81100
H  46.76000 15.11700 33.17400
H  47.30700 15.76600 35.73600
H  45.72200 15.42500 35.12100
H  52.21400 20.24900 28.23400
H  52.98600 18.76600 28.62300
H  51.83900 19.47800 29.71500
H  53.04000 19.62000 26.45800
H  53.58400 19.10100 24.82600
H  53.88100 18.01600 26.11000
H  47.92300 15.25200 23.23400
H  45.08900 15.10900 23.74100
H  45.75200 16.68200 22.28700
H  47.28100 16.80400 22.03900
H  46.55800 17.74700 23.47100
H  46.08500 12.52700 24.77300
H  47.14000 13.07500 23.43800
H  44.32600 13.17900 22.71700
H  44.74000 11.67800 23.27900
H  45.64200 12.27600 21.92100
H  41.86600 14.14600 27.26600
H  41.28100 14.10800 28.88400
H  42.26100 12.70300 28.25000
H  44.45100 15.11600 32.89200
H  42.16400 17.45900 35.68600
H  40.90700 17.02400 34.48600
H  41.85300 18.32800 34.11300
Mg 0.91600 43.03900 26.42000
C  2.97300 43.22800 29.11700
C  -1.77600 42.57400 28.82700
C  -1.38000 42.42600 23.95800
C  3.47600 43.35300 24.20500
N  0.65500 42.70800 28.70800
C  1.70900 42.91000 29.61300
C  1.26500 42.71700 31.00500
C  -0.20900 42.24500 30.78400
C  -0.51000 42.52200 29.30900
C  -0.51600 40.75900 31.21900
C  1.33100 44.10000 31.71200
C  1.14200 44.25300 33.19700
H  0.91900 42.93600 34.01200
N  -1.33000 42.61300 26.37400
C  -2.19100 42.57500 27.45800
C  -3.55300 42.27800 26.99700
C  -3.42000 42.17900 25.54900
C  -1.97500 42.44000 25.21600
C  -4.75600 42.12400 27.94000
C  -4.44800 41.69700 24.61500
O  -4.19700 41.39900 23.46800
C  -5.84400 41.59000 25.14200
N  1.06500 42.67700 24.48400
C  -0.00500 42.46700 23.64800
C  0.44200 42.50800 22.16600
C  1.89800 43.03100 22.21000
C  2.18300 43.07100 23.70300
C  0.30700 41.13100 21.44700
C  2.03100 44.41900 21.52500
C  1.94800 45.68800 22.39900
N  2.81700 43.29600 26.54200
C  3.82500 43.48300 25.61600
C  5.13600 43.71000 26.27500
C  4.82000 43.63900 27.60000
C  3.41300 43.36900 27.74700
C  6.58100 43.77600 25.69700
C  5.33500 43.79600 28.96300
O  6.43900 44.12300 29.33300
C  4.23900 43.45000 29.90900
C  4.64100 42.18600 30.54600
O  4.63700 41.10200 30.11100
O  5.00300 42.52000 31.81700
C  5.71800 41.54900 32.68300
H  -2.63500 42.36600 29.46900
H  -2.05800 42.37500 23.10300
H  4.39600 43.61400 23.67900
H  1.89900 41.95600 31.46000
H  -0.87400 42.86100 31.38900
H  -1.10700 40.28900 30.43300
H  -0.96700 40.75000 32.21100
H  0.36100 40.18000 31.50800
H  0.50700 44.71600 31.34900
H  2.28200 44.55600 31.43900
H  0.33900 44.92000 33.51000
H  2.11100 44.58200 33.57300
H  -5.45000 42.91000 27.63900
H  -4.48000 42.26500 28.98500
H  -5.18500 41.12800 27.82900
H  -5.98000 40.65500 25.68500
H  -6.46300 41.55000 24.24600
H  -6.16000 42.48200 25.68300
H  -0.34300 43.15100 21.76800
H  2.52400 42.27400 21.73800
H  1.24700 40.62000 21.23800
H  -0.27200 41.13800 20.52300
H  -0.29300 40.40400 21.99400
H  1.25400 44.45600 20.76100
H  2.95200 44.33400 20.94900
H  1.27100 46.37200 21.88700
H  2.95700 46.08800 22.49400
H  1.67000 45.63200 23.45100
H  7.18000 43.16400 26.37100
H  6.89800 44.81800 25.75100
H  6.58100 43.37100 24.68600
H  4.10700 44.31300 30.56200
H  6.60400 42.02300 33.10500
H  6.11300 40.71500 32.10300
H  5.11300 41.05000 33.44100

