158

Mg -1.14300 18.00700 27.55000
C  -1.85300 15.80700 30.18200
C  -2.05700 20.67900 29.67000
C  -1.14300 20.02600 24.84800
C  -0.90500 15.28100 25.40100
N  -1.80200 18.18700 29.62200
C  -2.01700 17.14400 30.51000
C  -2.44200 17.72300 31.89900
C  -2.63200 19.23700 31.57000
C  -2.13100 19.35900 30.18900
C  -4.10100 19.77500 31.85100
C  -1.44600 17.44200 33.09900
C  -2.10900 17.09800 34.49300
H  -1.06300 17.07200 35.58900
N  -1.34100 20.08900 27.30700
C  -1.68300 20.96900 28.29200
C  -1.59900 22.31200 27.67700
C  -1.29600 22.23500 26.27900
C  -1.17300 20.72600 26.06600
C  -2.05100 23.55800 28.40300
C  -1.26100 23.26500 25.23700
O  -1.12000 22.90700 24.07100
C  -1.49300 24.69700 25.55500
N  -1.19200 17.66600 25.44200
C  -1.17900 18.64400 24.56700
C  -0.95500 18.19000 23.11800
C  -0.57200 16.72200 23.40700
C  -0.97500 16.51900 24.82000
C  -2.19500 18.46800 22.11300
C  0.95700 16.31900 23.11200
C  2.07800 17.15800 23.74400
N  -1.23000 15.91600 27.74000
C  -1.13800 14.96900 26.75000
C  -1.35500 13.67800 27.37000
C  -1.60500 13.94400 28.72800
C  -1.50300 15.33600 28.90600
C  -1.51100 12.45300 26.58800
C  -1.97800 13.37100 30.05700
O  -2.26500 12.23700 30.46200
C  -1.97300 14.52100 31.05400
C  -0.70200 14.34200 31.81000
O  0.40600 14.38900 31.32200
O  -0.87400 14.19500 33.12800
C  0.28400 13.84500 33.98800
H  -2.38100 21.44600 30.37600
H  -0.81400 20.69000 24.04500
H  -0.77500 14.47400 24.67700
H  -3.36100 17.31300 32.31800
H  -2.11600 19.93300 32.23200
H  -4.76900 19.00700 32.24100
H  -4.45100 20.01700 30.84800
H  -4.06100 20.63500 32.52100
H  -0.82800 18.33500 33.19600
H  -0.75200 16.61100 32.97300
H  -2.64500 16.15900 34.36000
H  -2.89200 17.85100 34.57900
H  -1.44600 24.42200 28.13000
H  -1.97500 23.35600 29.47100
H  -3.11400 23.77300 28.29100
H  -2.46600 24.93700 25.98400
H  -1.46200 25.31500 24.65700
H  -0.66600 25.14100 26.10800
H  -0.01100 18.58500 22.74400
H  -1.24500 16.13700 22.78100
H  -2.75700 19.30300 22.53100
H  -2.76400 17.55200 21.95400
H  -1.77300 18.66900 21.12800
H  1.16900 16.29200 22.04400
H  0.99900 15.25400 23.34100
H  1.54200 17.81700 24.42700
H  2.69200 17.80000 23.11200
H  2.80600 16.54200 24.27100
H  -2.01600 12.81000 25.69000
H  -2.07300 11.70600 27.14800
H  -0.58000 11.96200 26.30500
H  -2.87000 14.49900 31.67100
H  0.30300 12.77300 34.18600
H  0.29900 14.25200 34.99900
H  1.25400 14.09100 33.55700
Mg 16.20800 52.22500 26.69400
C  18.24100 51.03400 29.31800
C  14.00000 53.37000 28.94100
C  14.49600 53.57700 24.17700
C  18.54200 51.01000 24.36000
N  16.11500 52.09300 28.89800
C  17.03400 51.71500 29.85500
C  16.64900 52.04700 31.29100
C  15.13700 52.52600 31.00500
C  15.06500 52.71000 29.52900
C  13.94100 51.83000 31.64000
C  17.51800 53.06000 31.96800
C  17.71500 52.89900 33.46000
H  16.61200 52.04700 34.20400
N  14.46100 53.18100 26.56800
C  13.70600 53.60800 27.62200
C  12.45000 54.30900 27.12100
C  12.61700 54.33700 25.73900
C  13.87000 53.69100 25.43800
C  11.31800 54.74300 27.95400
C  11.70800 54.89800 24.77200
O  11.93900 54.88100 23.57000
C  10.27800 55.43300 25.17900
N  16.39100 52.09900 24.56200
C  15.59600 52.86900 23.74000
C  16.16400 52.93800 22.26800
C  17.58400 52.24900 22.43200
C  17.49100 51.67200 23.82800
C  15.25700 52.22600 21.23600
C  18.82900 53.08400 22.08300
C  20.01800 52.33400 21.52500
N  17.92700 51.13500 26.81600
C  18.76900 50.67500 25.73500
C  19.79700 49.94400 26.34000
C  19.60900 50.06300 27.69300
C  18.53100 50.83800 27.99500
C  20.96700 49.20900 25.64100
C  20.21500 49.60100 28.90000
O  21.19100 48.94600 29.22300
C  19.32600 50.26000 30.06200
C  18.70200 49.18800 30.93800
O  18.24100 48.16300 30.53000
O  18.96000 49.55300 32.20500
C  18.78900 48.50200 33.25300
H  13.35500 53.75000 29.73600
H  13.98700 54.03300 23.32600
H  19.30700 50.69000 23.65000
H  16.64400 51.08200 31.79700
H  15.09300 53.47000 31.54800
H  13.19500 51.56200 30.89300
H  13.53000 52.45400 32.43400
H  14.23500 50.90000 32.12700
H  17.16400 54.05300 31.68900
H  18.52900 52.97500 31.57100
H  17.68100 53.84400 34.00200
H  18.66300 52.45100 33.75800
H  10.93300 55.70800 27.62700
H  11.45400 54.79300 29.03500
H  10.41400 54.14100 27.86500
H  9.73800 54.82000 25.90100
H  9.54500 55.50300 24.37500
H  10.47300 56.41700 25.60500
H  16.25900 54.00100 22.04600
H  17.56200 51.47700 21.66300
H  15.81500 51.66600 20.48600
H  14.65800 52.99700 20.75200
H  14.54700 51.52500 21.67500
H  19.30200 53.55200 22.94600
H  18.58500 53.92500 21.43300
H  20.81700 52.28000 22.26400
H  20.45200 52.92100 20.71600
H  19.80500 51.29100 21.29100
H  21.00700 48.17200 25.97800
H  21.87500 49.77600 25.84400
H  20.89500 49.18400 24.55400
H  19.85000 51.03700 30.62000
H  19.27900 47.53300 33.15900
H  17.74200 48.26000 33.43300
H  19.18300 48.99400 34.14300

