158

Mg -2.09700 34.73900 27.40400
C  -3.61400 33.01800 30.18400
C  -0.35600 36.63300 29.44600
C  -1.24500 36.67100 24.75200
C  -3.98600 32.67700 25.23900
N  -2.10400 34.85300 29.60900
C  -2.72000 34.05600 30.58300
C  -2.15700 34.38200 31.94700
C  -1.38600 35.74500 31.63800
C  -1.21700 35.76300 30.12500
C  -1.98600 36.95200 32.29800
C  -1.33800 33.18100 32.48800
C  -1.95100 32.43800 33.64300
H  -1.25000 32.41000 34.96100
N  -0.90400 36.36500 27.10200
C  -0.19500 37.00200 28.12900
C  0.64200 38.07100 27.64100
C  0.32200 38.05500 26.22500
C  -0.59900 36.99700 25.93500
C  1.48400 39.01700 28.56700
C  0.89500 38.92700 25.17600
O  0.47100 38.86200 24.03600
C  1.98300 39.79300 25.49300
N  -2.66200 34.73100 25.37100
C  -2.25500 35.68900 24.52500
C  -2.69200 35.45100 23.00200
C  -3.46900 34.10300 23.17000
C  -3.34500 33.73800 24.63500
C  -3.49200 36.63600 22.30800
C  -2.84700 33.06200 22.19500
C  -1.60300 32.25600 22.70000
N  -3.48500 33.14400 27.64600
C  -4.01900 32.35100 26.66400
C  -4.83100 31.31100 27.30500
C  -4.73100 31.56800 28.69500
C  -3.86200 32.62400 28.83900
C  -5.63300 30.26500 26.65500
C  -5.16500 31.10000 30.01400
O  -5.87500 30.22100 30.41400
C  -4.42300 31.98600 31.02200
C  -5.54400 32.58700 31.84700
O  -6.35800 33.44300 31.43400
O  -5.63200 32.03800 33.09700
C  -6.85000 32.15700 33.84700
H  0.27800 37.17000 30.15400
H  -1.02100 37.22000 23.83500
H  -4.49800 32.05800 24.50000
H  -3.05600 34.59400 32.52700
H  -0.32900 35.70100 31.90000
H  -2.95500 37.13600 31.83600
H  -1.38800 37.82100 32.02000
H  -1.97300 36.87200 33.38500
H  -0.39300 33.65600 32.75300
H  -1.18000 32.52100 31.63500
H  -1.98900 31.43400 33.22000
H  -2.92400 32.90500 33.79900
H  1.23800 38.91100 29.62300
H  1.31100 40.05100 28.26900
H  2.51900 38.74700 28.35300
H  2.15200 40.46000 24.64700
H  2.88300 39.30300 25.86500
H  1.68600 40.53400 26.23600
H  -1.81900 35.30100 22.36600
H  -4.52600 34.30900 22.99700
H  -4.56000 36.45100 22.18900
H  -3.03500 36.87100 21.34700
H  -3.39700 37.44100 23.03700
H  -2.43300 33.43800 21.26000
H  -3.68900 32.39500 22.00500
H  -0.69800 32.37200 22.10200
H  -2.02700 31.25400 22.76700
H  -1.31900 32.53700 23.71400
H  -5.72000 30.43500 25.58200
H  -6.66900 30.36000 26.98000
H  -5.51500 29.19200 26.80900
H  -3.87700 31.27800 31.64700
H  -7.76200 32.34700 33.28100
H  -6.80300 32.89400 34.64800
H  -7.06000 31.15000 34.20900
Mg -4.87600 24.93800 26.44200
C  -3.35400 26.66900 29.10400
C  -5.82000 22.65800 28.75100
C  -6.34700 23.54700 23.90500
C  -3.30700 27.32300 24.18600
N  -4.69000 24.80100 28.68100
C  -4.18000 25.65900 29.53300
C  -4.51500 25.35200 30.96000
C  -4.75800 23.77900 30.95300
C  -5.13500 23.74600 29.39500
C  -3.45200 22.99700 31.23600
C  -5.74100 26.17100 31.50900
C  -5.49400 26.94800 32.83800
H  -4.96000 26.18800 34.03400
N  -5.99200 23.31500 26.28500
C  -6.25900 22.45000 27.38900
C  -7.11300 21.40400 26.88300
C  -7.32200 21.69100 25.46800
C  -6.50500 22.89700 25.15700
C  -7.55000 20.27400 27.70100
C  -8.15300 21.00800 24.38400
O  -8.23900 21.27300 23.20200
C  -9.12000 19.96800 24.88300
N  -4.62400 25.28100 24.33300
C  -5.53700 24.68100 23.56400
C  -5.40200 25.13400 22.09600
C  -4.30600 26.21000 22.11100
C  -4.07800 26.33500 23.64300
C  -5.05500 23.94000 21.15400
C  -4.71700 27.56100 21.43100
C  -3.82600 28.01200 20.27500
N  -3.55400 26.59400 26.57100
C  -3.04900 27.44100 25.58800
C  -2.18700 28.40400 26.22800
C  -2.27100 28.13400 27.59300
C  -3.13700 27.06400 27.72900
C  -1.36300 29.59500 25.71500
C  -1.74400 28.58100 28.92600
O  -0.95700 29.45500 29.27600
C  -2.62300 27.69000 29.90900
C  -1.69000 27.10200 30.91500
O  -0.69900 26.44900 30.65700
O  -1.97300 27.40000 32.17100
C  -1.04600 26.95500 33.20500
H  -6.06400 21.86100 29.45700
H  -6.92400 23.25300 23.02500
H  -2.88800 28.12700 23.57700
H  -3.69800 25.63400 31.62400
H  -5.53800 23.57200 31.68600
H  -3.53400 22.35500 32.11400
H  -2.63100 23.69100 31.41400
H  -3.22800 22.38500 30.36200
H  -6.67500 25.61400 31.58000
H  -5.99500 26.92800 30.76700
H  -6.41900 27.33500 33.26400
H  -4.86600 27.83200 32.73400
H  -8.63900 20.24400 27.73900
H  -7.13700 20.29800 28.70900
H  -7.15300 19.35900 27.26200
H  -8.56500 19.06300 25.13000
H  -9.72600 19.71000 24.01500
H  -9.75000 20.35800 25.68200
H  -6.32000 25.51300 21.64500
H  -3.32200 25.84800 21.81300
H  -5.80100 23.88400 20.36100
H  -5.05400 22.98100 21.67300
H  -4.04700 24.07500 20.76200
H  -4.78200 28.34500 22.18400
H  -5.69100 27.34400 20.99200
H  -2.89500 28.53200 20.50000
H  -4.42300 28.66200 19.63600
H  -3.61400 27.23100 19.54400
H  -1.48300 29.71200 24.63800
H  -0.28400 29.45200 25.76800
H  -1.62000 30.43200 26.36500
H  -3.29000 28.31500 30.50200
H  -0.82200 25.89100 33.12400
H  -1.61500 27.21800 34.09600
H  -0.08900 27.47300 33.25700

