158

Mg 53.71700 23.94700 44.36600
C  50.76200 25.96700 44.11900
C  51.73000 21.27200 43.60700
C  56.44600 22.19100 44.07100
C  55.55700 26.91100 45.29900
N  51.39200 23.71700 43.77900
C  50.43000 24.63200 43.82100
C  49.10000 23.94900 43.43400
C  49.46900 22.43800 43.72700
C  51.02000 22.45200 43.72100
C  48.81200 21.93600 45.01700
C  48.54900 24.26400 41.96200
C  49.58000 24.49000 40.87200
H  49.55500 23.50700 39.72700
N  54.03800 22.05200 43.66700
C  53.13100 21.04800 43.54100
C  53.79100 19.77100 43.25700
C  55.20100 20.09100 43.39600
C  55.28700 21.49400 43.70500
C  53.06100 18.47900 43.00300
C  56.24200 19.02100 43.14700
O  55.96200 17.83100 43.04900
C  57.64100 19.45200 42.91700
N  55.67200 24.52900 44.42600
C  56.62100 23.54900 44.39800
C  57.93700 24.05400 44.96000
C  57.67900 25.61400 45.15400
C  56.19600 25.69000 44.94700
C  58.54700 23.30500 46.14900
C  58.54600 26.50400 44.16500
C  57.85700 27.37100 43.05800
N  53.29300 25.97900 44.83100
C  54.15100 27.00800 45.20000
C  53.35600 28.17400 45.34200
C  52.05300 27.79900 44.87400
C  52.06300 26.49100 44.49500
C  53.72700 29.56200 45.89800
C  50.66500 28.33300 44.71300
O  50.17900 29.43300 44.88100
C  49.83000 27.13200 44.22700
C  49.23900 27.47500 42.90900
O  49.84500 27.44300 41.81900
O  47.96600 27.86300 42.98600
C  47.41300 28.36800 41.67400
H  51.17800 20.33000 43.62500
H  57.29800 21.52000 44.19900
H  56.19100 27.77000 45.52800
H  48.39100 24.42900 44.10800
H  48.98100 21.84000 42.95800
H  48.19300 21.07200 44.77500
H  48.17500 22.66800 45.51400
H  49.61300 21.57300 45.66100
H  47.91700 25.13000 42.15800
H  47.90700 23.40100 41.78400
H  50.60300 24.39100 41.23600
H  49.32300 25.46800 40.46700
H  53.66300 17.71900 43.50200
H  52.90900 18.18400 41.96500
H  52.04700 18.44000 43.40000
H  57.70600 20.36300 42.32300
H  58.22000 18.65700 42.44800
H  58.15800 19.56400 43.87000
H  58.64500 23.87100 44.15200
H  57.76900 25.82900 46.21900
H  57.73200 22.86300 46.72200
H  59.28300 23.92800 46.65900
H  58.98600 22.38400 45.76500
H  59.18400 25.85600 43.56400
H  59.27100 27.04600 44.77200
H  57.46200 28.31400 43.43500
H  56.96600 26.85400 42.70300
H  58.52000 27.40100 42.19300
H  54.55100 29.45800 46.60400
H  52.80400 29.85500 46.39900
H  53.92900 30.35500 45.17700
H  48.97300 26.89100 44.85600
H  46.44900 28.87400 41.73300
H  47.13500 27.54400 41.01800
H  48.15900 28.92800 41.11000
Mg -1.54900 34.72700 26.72700
C  -3.02100 32.69100 29.38000
C  -0.30500 36.77300 29.11500
C  -0.60800 36.67200 24.35300
C  -3.29300 32.63700 24.49000
N  -1.65600 34.65100 28.98800
C  -2.28900 33.76400 29.90300
C  -1.87800 34.05500 31.35100
C  -1.11000 35.46300 31.18200
C  -1.04500 35.66900 29.64400
C  -1.75700 36.76400 31.81400
C  -0.94600 32.90400 32.00400
C  -1.55300 32.07200 33.21200
H  -0.63800 32.02300 34.50100
N  -0.56500 36.46800 26.70700
C  -0.02400 37.08700 27.75800
C  0.87500 38.13000 27.33500
C  0.79700 38.18100 25.90700
C  -0.14000 37.06100 25.59500
C  1.68800 39.05300 28.32800
C  1.55100 39.06800 24.87000
O  1.37100 38.96100 23.67800
C  2.56200 40.08500 25.32700
N  -1.86200 34.65300 24.71200
C  -1.39200 35.58200 23.92300
C  -1.87900 35.55400 22.52100
C  -2.65800 34.18600 22.55700
C  -2.68800 33.80000 24.05900
C  -2.64500 36.77100 21.94000
C  -2.17600 32.97100 21.67000
C  -0.68700 32.55300 21.91500
N  -2.72700 32.97200 26.82000
C  -3.37800 32.23100 25.83600
C  -4.21000 31.20500 26.35400
C  -3.97400 31.31700 27.74000
C  -3.23900 32.44700 27.99500
C  -5.00300 30.11500 25.72800
C  -4.21200 30.62700 29.01500
O  -4.79300 29.54100 29.19500
C  -3.71400 31.59200 30.19400
C  -4.86700 32.03800 31.05900
O  -5.79000 32.76400 30.74600
O  -4.81400 31.31400 32.15300
C  -5.77700 31.59300 33.20300
H  0.16100 37.41000 29.87000
H  -0.19000 37.27900 23.54700
H  -4.00100 32.17200 23.80100
H  -2.71600 34.20700 32.03200
H  -0.13000 35.40800 31.65800
H  -1.11700 37.39400 32.43100
H  -2.55900 36.42500 32.47000
H  -2.15200 37.39300 31.01600
H  -0.00100 33.38200 32.26400
H  -0.76900 32.19200 31.19800
H  -1.68600 31.04200 32.88000
H  -2.57000 32.42200 33.39100
H  1.97000 38.58400 29.27000
H  0.96600 39.82800 28.58700
H  2.55200 39.51700 27.85300
H  3.36100 39.65900 25.93400
H  2.15200 40.85200 25.98500
H  3.12700 40.40400 24.45100
H  -1.00800 35.48100 21.86900
H  -3.71300 34.34600 22.33400
H  -3.43300 36.43300 21.26700
H  -1.94200 37.36400 21.35400
H  -3.02900 37.34900 22.78100
H  -2.23800 33.27500 20.62500
H  -2.81500 32.09000 21.72800
H  -0.05500 33.01400 21.15600
H  -0.61600 31.46700 21.98700
H  -0.42000 32.87900 22.92000
H  -4.46700 29.66300 24.89400
H  -5.88900 30.53600 25.25400
H  -5.11300 29.28800 26.42900
H  -3.02400 30.97300 30.76800
H  -6.70200 31.83800 32.68200
H  -5.40500 32.37000 33.87200
H  -5.94300 30.69200 33.79300

