158

Mg 7.84600 2.95200 26.81400
C  8.90200 1.54700 29.75300
C  6.16700 5.38500 28.68500
C  6.56700 4.39800 23.93300
C  9.05200 0.24300 24.98500
N  7.57200 3.41900 28.98600
C  8.13600 2.69900 29.97300
C  7.90700 3.38200 31.32700
C  6.80900 4.48000 30.94500
C  6.86700 4.47900 29.44900
C  5.38300 4.13500 31.47800
C  9.21800 3.94300 31.92700
C  9.78300 3.50100 33.26700
H  9.89900 4.67100 34.28200
N  6.49500 4.61300 26.32900
C  5.98700 5.48100 27.27800
C  5.25300 6.55000 26.62000
C  5.36800 6.25000 25.17600
C  6.18000 5.09200 25.07500
C  4.50700 7.61900 27.33200
C  4.71300 7.00600 24.03400
O  4.90600 6.62500 22.85000
C  3.77000 8.11800 24.31900
N  7.87500 2.39900 24.79900
C  7.29300 3.20300 23.79100
C  7.27000 2.41700 22.46600
C  8.25800 1.19700 22.75500
C  8.39300 1.23600 24.29800
C  5.75400 1.92000 22.07600
C  9.67600 1.33700 22.12300
C  10.08000 0.21000 21.19600
N  8.68300 1.17000 27.23800
C  9.21900 0.22000 26.39100
C  9.93400 -0.71900 27.15100
C  9.76200 -0.24500 28.47300
C  9.03800 0.91600 28.47200
C  10.79300 -1.85700 26.69100
C  10.17900 -0.48600 29.85400
O  10.85900 -1.34100 30.36900
C  9.64600 0.74300 30.70700
C  8.89000 0.15700 31.90900
O  7.83500 -0.42400 31.89700
O  9.64700 0.29700 33.03600
C  9.24800 -0.25700 34.36900
H  5.67200 6.16200 29.27200
H  6.24000 4.64000 22.92000
H  9.44800 -0.58400 24.39300
H  7.52900 2.72100 32.10700
H  7.01700 5.44900 31.39700
H  5.32300 3.33300 32.21400
H  4.73800 3.84100 30.65000
H  4.84300 4.97900 31.90700
H  9.05900 5.01400 32.05500
H  10.06000 3.71000 31.27600
H  10.66000 2.92400 32.97300
H  9.10300 2.77500 33.71100
H  3.48700 7.23500 27.31200
H  4.51100 8.65400 26.99000
H  4.77300 7.70800 28.38500
H  2.93800 7.65900 24.85200
H  3.34300 8.37400 23.34900
H  4.16900 9.02300 24.77700
H  7.78800 3.07100 21.76400
H  7.73900 0.27400 22.49800
H  5.09600 2.13900 22.91700
H  5.78400 0.86800 21.79000
H  5.43100 2.47400 21.19600
H  10.41400 1.48800 22.91100
H  9.67900 2.29900 21.61100
H  10.12100 0.73100 20.23900
H  9.31400 -0.54300 21.01200
H  11.08600 -0.12400 21.44900
H  11.30300 -2.28800 27.55200
H  11.44800 -1.45700 25.91700
H  10.26700 -2.64000 26.14400
H  10.52700 1.34800 30.92000
H  10.05200 -0.91500 34.69600
H  8.30500 -0.80300 34.40200
H  9.12100 0.57600 35.06100
Mg 41.19000 9.53600 30.00800
C  43.05000 11.04500 32.56500
C  39.07300 8.13300 32.36900
C  39.36700 8.32100 27.55500
C  43.55400 10.78000 27.74100
N  41.02400 9.67500 32.24200
C  41.85100 10.38300 33.02800
C  41.44200 10.16900 34.50200
C  40.43000 8.96500 34.40500
C  40.13400 8.93800 32.91400
C  40.90500 7.60900 34.92900
C  41.03300 11.60700 35.04800
C  41.81400 12.20200 36.17100
H  41.05500 12.76500 37.38700
N  39.42700 8.42100 29.95700
C  38.73200 7.92200 31.01200
C  37.69900 7.12200 30.52400
C  37.55300 7.38600 29.12500
C  38.82800 8.03400 28.81100
C  36.89800 6.30600 31.48000
C  36.46200 6.91000 28.19900
O  36.60800 7.09900 26.97900
C  35.18500 6.26000 28.70700
N  41.49700 9.49900 27.99500
C  40.59300 8.86000 27.20600
C  41.14300 8.77100 25.80500
C  42.40900 9.69900 25.75000
C  42.45200 10.07200 27.18800
C  41.40800 7.31600 25.29000
C  42.23800 10.95400 24.93000
C  41.45800 12.15800 25.49000
N  42.98300 10.62000 30.06400
C  43.91200 11.02400 29.11200
C  44.96200 11.74300 29.72600
C  44.66800 11.78000 31.10800
C  43.45500 11.06400 31.24800
C  46.08900 12.42900 28.97500
C  45.11900 12.22700 32.43000
O  46.19400 12.75300 32.76000
C  44.05500 11.75200 33.44300
C  44.93700 10.99600 34.36600
O  45.41200 9.87700 34.21400
O  45.20200 11.81700 35.47700
C  45.79500 11.10900 36.66800
H  38.58500 7.53500 33.14200
H  38.86800 7.89600 26.68100
H  44.27100 11.27500 27.08300
H  42.32900 9.81000 35.02500
H  39.52800 9.23300 34.95600
H  40.12500 7.16600 35.54900
H  41.82000 7.63200 35.52100
H  40.98900 6.89000 34.11500
H  39.97700 11.58600 35.31700
H  41.08300 12.40500 34.30700
H  42.32000 13.08400 35.77700
H  42.62300 11.54600 36.49100
H  36.07700 6.86600 31.92800
H  37.46400 5.89900 32.31800
H  36.43900 5.43200 31.01800
H  34.24200 6.54000 28.23600
H  34.86100 6.55600 29.70500
H  35.30700 5.17700 28.70400
H  40.41500 9.18200 25.10700
H  43.33600 9.15700 25.56300
H  40.86700 6.97000 24.40900
H  41.34900 6.58600 26.09700
H  42.43200 7.25500 24.92100
H  41.85500 10.79000 23.92300
H  43.28700 11.22100 24.80100
H  41.03600 12.67300 24.62700
H  42.10100 12.89100 25.97800
H  40.76400 11.73200 26.21400
H  45.67500 12.78400 28.03100
H  46.92300 11.73100 28.90700
H  46.35300 13.30300 29.57000
H  43.53700 12.64500 33.79100
H  45.01200 10.49900 37.11900
H  46.12800 11.86900 37.37500
H  46.62900 10.50100 36.31900

