158

Mg 24.51800 -4.77500 46.55600
C  26.43500 -2.49600 44.87900
C  22.19100 -4.42900 44.06400
C  22.84900 -7.48800 47.88300
C  27.49500 -5.85500 48.42400
N  24.24800 -3.49100 44.75900
C  25.16000 -2.53600 44.32500
C  24.69600 -1.86600 43.00600
C  23.17600 -2.36100 42.94900
C  23.17200 -3.49700 43.96200
C  22.12000 -1.25400 43.36300
C  25.54600 -2.32600 41.76200
C  26.24600 -1.17300 41.03100
H  25.74900 -1.07400 39.58000
N  22.73500 -5.71700 46.16300
C  21.92100 -5.44800 45.05500
C  20.81700 -6.31500 45.01200
C  20.87400 -7.01100 46.25900
C  22.20700 -6.75800 46.88300
C  19.68500 -6.16700 43.99100
C  19.71800 -7.92300 46.75700
O  18.69300 -8.02000 46.11500
C  19.79700 -8.62000 47.99700
N  25.04800 -6.44400 47.96900
C  24.14500 -7.35000 48.40300
C  24.87500 -8.33700 49.32200
C  26.40100 -7.96800 49.37200
C  26.30400 -6.65900 48.62400
C  24.26400 -8.49800 50.77500
C  27.39700 -9.02800 48.75700
C  28.51600 -9.44700 49.77200
N  26.53100 -4.15200 46.88300
C  27.61200 -4.72400 47.58100
C  28.79000 -3.98200 47.21100
C  28.40100 -3.12000 46.17400
C  27.04600 -3.33000 45.95500
C  30.10900 -4.14000 47.79400
C  28.86800 -2.10000 45.27600
O  29.91100 -1.40800 45.19900
C  27.66000 -1.64400 44.35200
C  27.49200 -0.15800 44.63600
O  26.86400 0.29800 45.58300
O  28.20100 0.54000 43.76000
C  28.06100 1.97600 43.84900
H  21.43500 -4.23200 43.30100
H  22.30800 -8.35900 48.25700
H  28.38400 -6.25100 48.92100
H  24.65600 -0.78300 43.11400
H  22.81200 -2.77200 42.00700
H  22.60000 -0.41600 43.86700
H  21.41800 -1.55500 44.14100
H  21.47300 -0.98300 42.52800
H  24.97300 -2.89100 41.02700
H  26.39100 -2.89500 42.15100
H  27.31300 -1.39500 41.03100
H  26.04600 -0.19300 41.46600
H  19.99200 -5.78500 43.01800
H  18.81000 -5.70400 44.44800
H  19.34400 -7.14300 43.64500
H  20.17000 -7.91100 48.73500
H  20.29900 -9.58400 47.90900
H  18.79300 -8.78300 48.39000
H  24.84400 -9.33500 48.88300
H  26.50300 -7.83100 50.44900
H  24.77000 -7.91300 51.54400
H  24.29000 -9.56100 51.01300
H  23.21500 -8.27300 50.58600
H  27.91500 -8.62700 47.88600
H  26.96000 -9.91800 48.30400
H  29.46300 -9.84600 49.41000
H  27.99400 -9.96600 50.57500
H  28.76800 -8.48400 50.21600
H  30.01300 -4.28400 48.87000
H  30.75100 -3.26700 47.67800
H  30.61500 -5.01800 47.39200
H  27.82000 -1.82900 43.29000
H  28.23700 2.33900 42.83600
H  28.84800 2.39400 44.47700
H  27.07200 2.30800 44.16700
Mg 47.72600 15.66200 28.53300
C  45.75700 15.73300 31.35300
C  50.34300 17.20200 30.29500
C  49.45800 15.94700 25.57800
C  44.96400 14.24700 26.80500
N  47.93400 16.47600 30.47200
C  47.01800 16.28600 31.49700
C  47.55900 16.76900 32.82300
C  48.93600 17.45100 32.44900
C  49.13400 16.99100 30.96400
C  48.96200 18.93500 32.72400
C  47.84100 15.52700 33.76300
C  47.27600 15.64400 35.24200
H  47.27000 16.97300 36.07900
N  49.65900 16.44400 28.02600
C  50.60100 16.94600 28.87900
C  51.78800 17.26500 28.16300
C  51.49500 16.99700 26.76000
C  50.13900 16.45200 26.72700
C  53.07600 17.71900 28.84300
C  52.44900 17.14100 25.56600
O  52.04000 16.83700 24.46300
C  53.84600 17.78700 25.71100
N  47.26300 15.10100 26.50200
C  48.14700 15.39100 25.50900
C  47.52800 14.98500 24.10300
C  46.28300 14.15400 24.55500
C  46.10400 14.45700 26.03100
C  47.14900 16.22300 23.26600
C  46.46400 12.61400 24.25300
C  45.52900 12.03200 23.22400
N  45.73000 15.16200 28.93500
C  44.75800 14.57400 28.15900
C  43.54300 14.31600 28.98400
C  43.91800 14.64000 30.26800
C  45.26000 15.21600 30.23300
C  42.23400 13.68800 28.59300
C  43.40500 14.81300 31.64100
O  42.28600 14.57200 32.08700
C  44.63700 15.42900 32.44400
C  43.98700 16.59100 33.15400
O  43.48700 17.58500 32.60200
O  43.95400 16.37700 34.48900
C  43.23300 17.26500 35.35900
H  51.17300 17.55800 30.90900
H  49.96400 15.94600 24.61000
H  44.08100 13.85800 26.29500
H  46.78200 17.39800 33.25900
H  49.75400 17.08700 33.07100
H  49.09900 19.32800 33.73200
H  47.94700 19.29900 32.56400
H  49.64400 19.51300 32.10000
H  48.90600 15.29700 33.79500
H  47.47700 14.60100 33.31800
H  47.74500 14.83900 35.80800
H  46.22500 15.37200 35.14600
H  53.14900 17.26400 29.83100
H  53.10900 18.80600 28.92200
H  54.03100 17.46300 28.38300
H  53.55800 18.64400 26.31900
H  54.16500 18.01300 24.69400
H  54.55700 17.23200 26.32300
H  48.17800 14.31000 23.54700
H  45.44800 14.65100 24.06200
H  46.08600 16.31000 23.04100
H  47.76300 16.10600 22.37300
H  47.37900 17.09900 23.87300
H  46.41700 12.12200 25.22400
H  47.41900 12.37800 23.78300
H  46.15500 11.49900 22.50800
H  44.95700 12.73200 22.61400
H  44.83100 11.42500 23.80100
H  41.99400 13.85500 27.54300
H  41.52400 14.20100 29.24200
H  42.18000 12.60900 28.73200
H  44.88100 14.63200 33.14700
H  43.15000 16.85200 36.36400
H  42.20900 17.49100 35.06400
H  43.84100 18.15700 35.50600

