158

Mg 46.25200 3.61300 47.48900
C  43.70800 6.05900 46.73000
C  43.78100 1.35500 47.78000
C  48.70700 1.30400 47.44200
C  48.59400 6.21600 47.25600
N  43.99800 3.69900 47.12200
C  43.14900 4.73700 46.86900
C  41.68800 4.34000 46.84900
C  41.73800 2.83200 47.27100
C  43.28000 2.61400 47.48400
C  40.85900 2.43700 48.51300
C  41.05600 4.65600 45.39600
C  39.75300 5.51300 45.23300
H  39.85200 6.87300 44.36800
N  46.27800 1.63000 47.55400
C  45.08200 0.88700 47.68700
C  45.45800 -0.52400 47.70400
C  46.87100 -0.61100 47.52600
C  47.32900 0.80400 47.50500
C  44.45900 -1.69000 47.73700
C  47.70100 -1.88800 47.38900
O  47.21900 -3.00300 47.43200
C  49.18000 -1.82600 47.32500
N  48.32100 3.74300 47.06400
C  49.13100 2.60700 47.16500
C  50.59500 3.04800 47.42200
C  50.47200 4.60500 47.42300
C  49.02300 4.90100 47.20900
C  51.09500 2.45300 48.81600
C  51.41800 5.27900 46.42900
C  52.18300 6.52000 46.99000
N  46.22300 5.65500 46.96400
C  47.28000 6.60300 47.08400
C  46.75500 7.92800 46.71500
C  45.38100 7.76400 46.67100
C  45.10200 6.36600 46.83100
C  47.52100 9.17300 46.51400
C  44.13400 8.44800 46.48600
O  43.88000 9.68200 46.32800
C  42.96500 7.34400 46.58900
C  42.20000 7.65400 47.85600
O  42.17100 6.96100 48.90700
O  41.41500 8.77100 47.57600
C  40.29700 9.06000 48.54600
H  43.06200 0.61600 48.13800
H  49.47700 0.54100 47.57200
H  49.32900 7.02200 47.22800
H  41.20400 4.94800 47.61200
H  41.36300 2.19200 46.47300
H  41.38100 2.02000 49.37400
H  40.21600 1.61700 48.19500
H  40.23900 3.32100 48.65900
H  40.77700 3.69300 44.96900
H  41.84600 5.09400 44.78700
H  39.30100 5.67600 46.21100
H  38.97900 4.94400 44.71800
H  44.68900 -2.54700 47.10300
H  43.49900 -1.26800 47.43900
H  44.36300 -2.11200 48.73800
H  49.54600 -2.85000 47.25600
H  49.58100 -1.37000 48.23000
H  49.53000 -1.30000 46.43600
H  51.19200 2.61200 46.62100
H  50.79000 4.89700 48.42300
H  50.46000 1.63600 49.16100
H  51.16400 3.25800 49.54700
H  52.08700 2.02600 48.66800
H  50.84600 5.65800 45.58200
H  52.07300 4.60000 45.88200
H  51.88800 6.71300 48.02100
H  51.99500 7.32600 46.28000
H  53.24900 6.32800 46.86800
H  46.76400 9.90400 46.23000
H  48.15700 8.92100 45.66500
H  48.22500 9.28000 47.33800
H  42.39900 7.53900 45.67800
H  40.37900 8.59000 49.52600
H  39.26600 8.86800 48.24800
H  40.32200 10.15000 48.56700
Mg 6.83000 54.26000 41.32600
C  6.54500 50.82900 40.74700
C  10.07000 54.01600 39.78600
C  6.95100 57.55700 41.19700
C  3.37200 54.38300 42.28400
N  8.15900 52.61000 40.42300
C  7.80100 51.30500 40.30600
C  8.89900 50.44300 39.57000
C  10.07100 51.42700 39.62000
C  9.42900 52.80600 39.93900
C  11.16900 51.17400 40.59000
C  8.65700 49.94400 38.08400
C  8.07000 51.01900 37.06600
H  7.49000 50.55500 35.72500
N  8.35400 55.60300 40.62000
C  9.59000 55.30000 40.02200
C  10.26300 56.56400 39.77500
C  9.39600 57.63700 40.21500
C  8.19200 56.96200 40.77500
C  11.49600 56.58000 38.94200
C  9.70700 59.11700 40.32800
O  10.69700 59.60000 39.69500
C  8.91400 60.02100 41.15100
N  5.36500 55.79200 41.72700
C  5.64600 57.07000 41.58600
C  4.49800 58.02200 41.86100
C  3.35100 56.95100 42.16400
C  4.05100 55.60600 42.06600
C  4.77600 58.97400 43.07900
C  2.08100 57.01900 41.29200
C  0.65000 57.12100 41.75400
N  5.23300 52.87800 41.63300
C  3.89100 53.09300 41.99800
C  3.34900 51.77600 42.13900
C  4.36700 50.83300 41.60700
C  5.44400 51.58800 41.27800
C  1.97600 51.39400 42.70500
C  4.47400 49.42000 41.33900
O  3.74800 48.44000 41.48500
C  6.01000 49.39500 40.76700
C  5.92200 48.88800 39.37500
O  5.29300 49.36100 38.43900
O  6.51100 47.64500 39.37200
C  5.93300 46.64400 38.49400
H  11.09200 53.82200 39.45200
H  6.89700 58.64500 41.13200
H  2.31500 54.25000 42.52400
H  9.11200 49.53000 40.12700
H  10.64300 51.57900 38.70400
H  12.06100 51.64600 40.17700
H  11.36300 50.13700 40.86200
H  10.95600 51.71800 41.51000
H  8.04400 49.04700 38.00300
H  9.57200 49.55600 37.63900
H  8.82900 51.77700 36.87500
H  7.18700 51.49400 37.49500
H  11.93700 55.61100 38.70800
H  12.18600 57.08100 39.62100
H  11.41300 57.28200 38.11300
H  8.19400 60.49300 40.48200
H  9.58300 60.79000 41.53900
H  8.38300 59.59100 41.99900
H  4.36100 58.64300 40.97600
H  3.01000 57.09100 43.18900
H  3.89900 58.97800 43.72600
H  4.77800 60.03300 42.82000
H  5.70700 58.76500 43.60500
H  2.00500 56.10800 40.69800
H  2.22300 57.88500 40.64500
H  0.06300 57.47600 40.90700
H  0.47200 57.77700 42.60600
H  0.28100 56.16000 42.11300
H  1.32900 52.26800 42.77900
H  2.17300 51.05400 43.72100
H  1.64900 50.54100 42.10900
H  6.66400 48.71100 41.30800
H  4.84500 46.71400 38.50900
H  6.18100 45.72000 39.01500
H  6.37300 46.66000 37.49700

