158

Mg 5.89300 53.46300 40.84200
C  5.16600 50.10500 40.75400
C  9.11600 52.88300 40.00000
C  6.18800 56.80500 39.99800
C  2.49800 53.97900 41.51000
N  6.89500 51.66700 40.09700
C  6.44400 50.41300 40.36200
C  7.55200 49.35200 40.10900
C  8.83800 50.28800 40.28300
C  8.25900 51.69500 40.10400
C  9.69400 50.15900 41.61200
C  7.39000 48.56900 38.75500
C  6.58500 49.17100 37.56900
H  7.34200 49.88000 36.42500
N  7.47900 54.73500 40.08800
C  8.68500 54.27500 39.90100
C  9.55700 55.37700 39.53700
C  8.77700 56.57700 39.48600
C  7.42600 56.11200 39.86100
C  10.99300 55.05400 39.07300
C  9.23900 57.95300 39.09000
O  10.35000 58.11800 38.64100
C  8.38200 59.19300 39.19800
N  4.48100 55.18000 40.80800
C  4.88400 56.44700 40.40800
C  3.71100 57.47000 40.69600
C  2.53100 56.51600 41.06900
C  3.17300 55.15000 41.06500
C  4.02600 58.67500 41.72900
C  1.26600 56.59900 40.23600
C  0.05900 57.01400 41.05400
N  4.14500 52.29600 41.07300
C  2.89600 52.69300 41.46500
C  2.13600 51.46200 41.91000
C  3.08200 50.43500 41.58100
C  4.11100 51.00000 40.96200
C  0.85100 51.43700 42.68300
C  3.21700 48.98300 41.68500
O  2.54300 48.11900 42.32200
C  4.58100 48.69300 40.98900
C  4.21300 47.85600 39.83900
O  3.57100 48.22700 38.84100
O  4.71700 46.61400 40.08100
C  4.51200 45.71300 38.91400
H  10.15300 52.55400 39.90400
H  6.25300 57.88200 39.83000
H  1.44200 54.19500 41.68200
H  7.63400 48.62700 40.92000
H  9.56400 50.11500 39.48900
H  9.59900 51.08400 42.18000
H  10.75800 49.92200 41.59600
H  9.24400 49.32200 42.14600
H  7.02200 47.56700 38.97600
H  8.42800 48.43300 38.44900
H  5.90200 49.92600 37.95700
H  6.04100 48.39000 37.03700
H  11.08700 54.00800 38.78300
H  11.76600 55.37300 39.77300
H  11.10700 55.55600 38.11200
H  8.93300 60.08800 38.90900
H  8.04100 59.26100 40.23100
H  7.57900 59.12100 38.46400
H  3.55200 57.92800 39.72000
H  2.35100 56.71100 42.12600
H  5.00700 58.41100 42.12400
H  3.28300 58.80400 42.51500
H  4.17800 59.58900 41.15500
H  0.95000 55.67900 39.74300
H  1.37900 57.41600 39.52500
H  0.17800 56.76800 42.10900
H  -0.82600 56.56500 40.60200
H  -0.17900 58.04100 40.77600
H  0.59100 50.55300 43.26600
H  0.00300 51.64400 42.03000
H  1.10100 52.29600 43.30600
H  5.24800 48.09800 41.61200
H  4.64700 46.24500 37.97300
H  3.46400 45.43100 38.81500
H  5.02500 44.76400 39.07200
Mg -2.78400 34.77500 27.02900
C  -4.72600 33.49100 29.70000
C  -1.25000 37.05500 29.10500
C  -1.50200 36.28300 24.34900
C  -4.48500 32.44800 24.98200
N  -3.04000 35.23600 29.12300
C  -3.82800 34.54400 30.04900
C  -3.40900 34.95400 31.41800
C  -2.34300 36.17100 31.20700
C  -2.14000 36.09600 29.70300
C  -2.92600 37.58400 31.62100
C  -2.80300 33.76300 32.23600
C  -3.51600 33.35300 33.57000
H  -2.80100 33.17900 34.93800
N  -1.62200 36.49300 26.79400
C  -0.99100 37.19400 27.75300
C  -0.10600 38.23600 27.17700
C  -0.18200 38.02600 25.76100
C  -1.13800 36.92600 25.55900
C  0.51900 39.32600 27.96400
C  0.47700 38.74500 24.63400
O  0.37800 38.41900 23.49300
C  1.32800 39.92200 25.00300
N  -3.15600 34.56200 25.00000
C  -2.39200 35.21700 24.09900
C  -2.53500 34.71100 22.66400
C  -3.29900 33.38700 22.89800
C  -3.70800 33.47500 24.38300
C  -3.18500 35.70900 21.71400
C  -2.40800 32.12300 22.55300
C  -3.16300 31.07400 21.66800
N  -4.32800 33.19900 27.25600
C  -4.88500 32.36800 26.31000
C  -5.77400 31.44900 27.00700
C  -5.77100 31.84800 28.38900
C  -4.82000 32.93200 28.42700
C  -6.52000 30.25900 26.50300
C  -6.29600 31.55100 29.62900
O  -6.98200 30.59900 29.94200
C  -5.73800 32.65600 30.56300
C  -6.82300 33.39100 31.21000
O  -7.23700 34.44500 30.74000
O  -7.26600 32.84300 32.38300
C  -8.40900 33.45000 33.07000
H  -0.67300 37.68000 29.79000
H  -0.93300 36.46500 23.43500
H  -4.90700 31.72100 24.28500
H  -4.27000 35.33500 31.96700
H  -1.45700 35.99300 31.81600
H  -3.98500 37.46200 31.84700
H  -2.93600 38.23000 30.74300
H  -2.31500 38.05700 32.39000
H  -1.78300 34.08700 32.44200
H  -2.80000 32.84200 31.65300
H  -3.81600 32.32700 33.35800
H  -4.30300 34.09600 33.70400
H  -0.12600 40.20000 27.88000
H  1.57400 39.48500 27.74000
H  0.50500 39.05600 29.02000
H  0.78300 40.76800 25.42100
H  1.65800 40.37700 24.06900
H  2.17600 39.62300 25.61900
H  -1.52200 34.49600 22.32400
H  -4.24100 33.32300 22.35200
H  -2.58500 35.84200 20.81400
H  -3.30900 36.70800 22.13200
H  -4.21200 35.37100 21.57500
H  -2.18000 31.54400 23.44800
H  -1.52800 32.46700 22.00800
H  -3.20100 30.12100 22.19600
H  -2.67600 30.87500 20.71400
H  -4.16600 31.38500 21.37300
H  -6.43700 29.45200 27.23100
H  -5.91600 29.86600 25.68500
H  -7.54000 30.38700 26.13900
H  -5.29700 32.11400 31.40000
H  -8.05400 34.35800 33.55700
H  -8.79700 32.78400 33.84000
H  -9.31200 33.56600 32.47000

