158

Mg 54.41100 23.93100 45.23400
C  52.26700 26.63800 44.13300
C  52.23100 21.68800 43.81300
C  56.88800 21.68500 45.33100
C  56.66000 26.42700 46.23800
N  52.49700 24.21200 44.05600
C  51.77400 25.36600 43.77300
C  50.45400 24.96800 43.09700
C  50.33000 23.42500 43.44100
C  51.78900 23.07900 43.80200
C  49.39100 23.15900 44.70600
C  50.28200 25.28400 41.60600
C  48.87500 25.38300 41.07900
H  48.46800 24.40300 39.98500
N  54.49800 21.86700 44.84100
C  53.44700 21.12800 44.23500
C  53.95500 19.81900 44.16400
C  55.24600 19.76700 44.76600
C  55.60600 21.12500 44.96600
C  53.10200 18.64300 43.70400
C  56.12200 18.57700 44.98700
O  55.80800 17.45400 44.58200
C  57.45500 18.53800 45.80500
N  56.59000 24.04300 45.63400
C  57.34500 22.96100 45.62900
C  58.77700 23.28600 46.00700
C  58.71200 24.85600 46.37700
C  57.23000 25.13800 46.08400
C  59.40400 22.29800 47.02800
C  59.81700 25.63100 45.51800
C  61.17900 25.47700 46.23000
N  54.40800 26.04900 45.42000
C  55.42600 26.91200 45.82900
C  55.04900 28.28800 45.78900
C  53.79000 28.20900 45.08800
C  53.46500 26.82300 44.89800
C  55.91000 29.45100 46.31100
C  52.70900 28.97200 44.53300
O  52.56500 30.20200 44.45500
C  51.68900 27.98900 43.90100
C  51.64300 28.16500 42.43100
O  52.55300 27.87700 41.61200
O  50.46100 28.80000 42.12200
C  50.08800 28.86700 40.68800
H  51.51500 21.07300 43.26400
H  57.77300 21.04500 45.34600
H  57.31700 27.25300 46.52200
H  49.73100 25.51900 43.69800
H  49.98300 22.84700 42.58400
H  49.81700 22.46500 45.43100
H  48.46500 22.62400 44.49700
H  49.09000 24.10900 45.14800
H  50.67200 24.44200 41.03500
H  50.84500 26.14900 41.25600
H  48.70300 26.37300 40.65600
H  48.17100 25.30000 41.90700
H  52.56300 18.97000 42.81500
H  52.54300 18.31600 44.58100
H  53.82200 17.87800 43.41600
H  58.25800 19.00600 45.23600
H  57.67000 17.54500 46.20000
H  57.28200 19.13600 46.70000
H  59.34300 23.08200 45.09800
H  58.95400 25.03900 47.42300
H  59.64300 22.90300 47.90300
H  60.20700 21.74500 46.54100
H  58.71500 21.47900 47.23700
H  59.58800 26.69700 45.52000
H  59.74600 25.21300 44.51400
H  61.57900 26.45700 46.49200
H  61.98000 25.00000 45.66600
H  61.06700 24.91100 47.15500
H  56.45700 29.13000 47.19700
H  55.17700 30.17300 46.67100
H  56.55900 29.81900 45.51600
H  50.70400 28.13500 44.34400
H  49.96800 29.93700 40.51700
H  49.18400 28.33600 40.38900
H  50.88400 28.49100 40.04600
Mg 6.32400 53.83100 40.83600
C  6.23200 50.29300 40.57700
C  9.52800 53.79600 39.48900
C  6.30500 57.16100 40.87100
C  2.91200 53.68000 41.71900
N  7.60500 52.14500 39.97000
C  7.41800 50.83000 40.02900
C  8.67700 50.08200 39.63600
C  9.76500 51.20400 39.65700
C  8.88800 52.52200 39.65400
C  10.74800 51.18100 40.87500
C  8.52600 49.23500 38.32700
C  7.64900 49.80800 37.21000
H  8.23000 50.81800 36.19900
N  7.76700 55.25000 40.37400
C  8.98900 55.11800 39.80900
C  9.67900 56.37000 39.66600
C  8.79500 57.37100 40.12800
C  7.56100 56.59400 40.53300
C  11.08200 56.50200 39.21500
C  9.10100 58.83500 40.24900
O  10.15800 59.25800 39.85100
C  8.14100 59.86800 40.93500
N  4.80900 55.23900 41.19100
C  5.00800 56.59500 41.01300
C  3.70500 57.39400 41.29000
C  2.60500 56.21300 41.36600
C  3.45000 54.95600 41.51800
C  3.67700 58.35700 42.43000
C  1.63900 55.98300 40.15100
C  2.23700 55.45400 38.79800
N  4.79800 52.38800 41.16600
C  3.54500 52.44800 41.63800
C  3.01100 51.14000 41.82600
C  4.10100 50.26300 41.58800
C  5.10900 51.06100 40.98700
C  1.64200 50.81800 42.43600
C  4.62900 48.90800 41.70500
O  4.24900 47.96300 42.38700
C  5.96400 48.85100 40.84800
C  5.57700 47.93100 39.69600
O  4.87500 48.20200 38.71800
O  6.13400 46.70600 39.91500
C  5.73000 45.74300 38.92300
H  10.57900 53.71000 39.20500
H  6.37100 58.22100 41.12500
H  1.88900 53.45900 42.03100
H  8.90500 49.29900 40.35800
H  10.28400 51.08500 38.70600
H  10.67800 50.22700 41.39700
H  10.57100 52.05500 41.50100
H  11.74600 51.17400 40.43600
H  8.18000 48.23000 38.56800
H  9.53200 48.99400 37.98300
H  6.79700 50.32600 37.65000
H  7.26400 48.96000 36.64400
H  11.63700 55.60700 39.49300
H  11.67200 57.22900 39.77300
H  11.11900 56.82200 38.17300
H  7.25800 59.87200 40.29600
H  8.53400 60.88300 40.87900
H  7.76300 59.58900 41.91900
H  3.46000 57.96800 40.39600
H  2.09700 56.32200 42.32400
H  3.12000 59.20700 42.03700
H  4.64900 58.69000 42.79400
H  3.06800 57.98700 43.25500
H  1.28100 56.97700 39.88200
H  0.75900 55.36600 40.33200
H  1.81000 54.50600 38.47100
H  3.32500 55.49100 38.73200
H  2.02600 56.19000 38.02300
H  1.68300 51.24200 43.44000
H  1.74500 49.75600 42.65800
H  0.80000 51.21500 41.86900
H  6.65200 48.35200 41.53100
H  6.29300 46.01500 38.03000
H  4.64600 45.79500 38.81700
H  5.96000 44.69100 39.09500

