158

Mg 55.46200 25.37100 45.57100
C  52.59600 27.10200 44.47100
C  54.08600 22.45600 44.79900
C  58.56000 24.09300 45.74400
C  56.79300 28.58500 46.59900
N  53.66100 24.92700 44.80000
C  52.59800 25.65600 44.37200
C  51.30700 24.80800 44.03700
C  51.71600 23.36100 44.65600
C  53.30800 23.55700 44.86600
C  51.07300 22.90000 45.95600
C  51.05900 24.76000 42.51500
C  49.51500 24.70600 42.23300
H  49.04100 23.59300 41.23700
N  56.19300 23.47000 45.41900
C  55.50400 22.43800 44.91500
C  56.38300 21.33100 44.74400
C  57.62500 21.70300 45.18300
C  57.52700 23.12700 45.57700
C  55.86800 20.00000 44.28600
C  58.87200 20.79600 45.23800
O  58.79600 19.64400 44.82700
C  60.23000 21.22000 45.78400
N  57.37800 26.21500 46.01500
C  58.50500 25.46900 46.04100
C  59.77400 26.25000 46.49600
C  59.18200 27.69900 46.61400
C  57.63900 27.53600 46.41100
C  60.47900 25.69000 47.75200
C  60.01400 28.69200 45.67800
C  59.57500 28.84700 44.19400
N  54.79100 27.44500 45.54800
C  55.46000 28.60900 46.04100
C  54.52200 29.71100 45.87600
C  53.40000 29.19000 45.27500
C  53.63100 27.82500 45.08000
C  54.87200 31.04000 46.42200
C  52.08600 29.49600 44.70400
O  51.43800 30.49400 44.58600
C  51.62300 28.10300 44.05400
C  51.51100 28.32000 42.54400
O  52.37900 28.58200 41.76300
O  50.24200 28.22000 42.20700
C  49.90900 28.43500 40.80000
H  53.65300 21.48500 44.54600
H  59.59200 23.74400 45.67500
H  57.33200 29.48000 46.91600
H  50.40000 25.12000 44.55500
H  51.58100 22.56400 43.92500
H  50.53200 21.95700 45.87300
H  50.31100 23.55000 46.38700
H  51.81000 22.92400 46.75900
H  51.46700 23.82400 42.13400
H  51.55300 25.61200 42.04700
H  49.24800 25.70400 41.88500
H  48.96200 24.54800 43.15900
H  54.93400 19.92000 44.84300
H  56.31500 19.07400 44.64900
H  55.73800 19.98200 43.20400
H  60.86200 21.60500 44.98400
H  60.68900 20.40400 46.34400
H  60.01800 21.94600 46.56900
H  60.49300 26.15200 45.68200
H  59.32000 28.02900 47.64400
H  61.54100 25.93800 47.74200
H  60.47800 24.60500 47.85800
H  59.98900 25.99600 48.67700
H  61.05400 28.37200 45.62300
H  60.05400 29.68400 46.12800
H  59.51800 29.86000 43.79700
H  58.63300 28.30900 44.08700
H  60.29600 28.44500 43.48300
H  55.92300 31.14000 46.69400
H  54.39700 31.26100 47.37800
H  54.53900 31.72400 45.64200
H  50.62000 27.90000 44.42900
H  49.51700 29.44800 40.70600
H  49.11900 27.73900 40.51700
H  50.68800 28.50500 40.04000
Mg -9.98700 39.55200 40.47100
C  -8.54300 36.32900 39.45500
C  -6.92500 40.93900 39.70600
C  -11.38400 42.67200 40.44400
C  -12.94900 38.01100 40.87500
N  -7.97900 38.73200 39.56200
C  -7.57600 37.43100 39.49600
C  -6.09000 37.33300 39.25100
C  -5.59800 38.74900 39.57500
C  -6.94000 39.53300 39.66800
C  -4.65400 38.90000 40.75100
C  -5.80900 36.87000 37.77200
C  -6.53800 37.67600 36.65000
H  -7.27600 36.85700 35.53500
N  -9.29600 41.49600 40.07100
C  -7.95500 41.82700 39.85100
C  -7.86000 43.20500 39.59600
C  -9.09200 43.76600 39.87800
C  -10.05600 42.65200 40.23900
C  -6.51800 43.87400 39.18800
C  -9.43300 45.26400 39.80200
O  -8.61900 46.08900 39.44700
C  -10.71300 45.72700 40.22400
N  -11.93400 40.29300 40.64900
C  -12.35300 41.61800 40.60100
C  -13.82600 41.72800 41.04900
C  -14.24800 40.20300 41.34400
C  -12.97900 39.46000 40.92500
C  -14.14000 42.70300 42.25800
C  -15.59500 39.71800 40.65200
C  -16.77100 39.12000 41.48300
N  -10.66900 37.59400 40.31700
C  -11.94700 37.10100 40.47500
C  -12.02300 35.68700 40.09400
C  -10.68300 35.34300 39.77000
C  -9.91300 36.48300 39.87800
C  -13.18800 34.78300 40.14000
C  -9.86800 34.26200 39.26800
O  -10.14400 33.11000 38.98900
C  -8.37200 34.80000 39.13800
C  -7.56000 34.12700 40.25600
O  -7.96800 33.70900 41.34700
O  -6.17700 34.08100 39.83900
C  -5.31600 33.25200 40.74100
H  -5.91200 41.32700 39.57800
H  -11.91400 43.61500 40.29300
H  -13.93100 37.54300 40.96900
H  -5.73300 36.61500 39.98900
H  -5.10300 39.09800 38.66900
H  -5.29500 39.21200 41.57600
H  -3.93800 39.66200 40.44000
H  -4.23700 37.90800 40.92500
H  -5.89900 35.79700 37.60200
H  -4.74800 37.09200 37.65900
H  -5.78200 38.18900 36.05700
H  -7.03200 38.55200 37.07100
H  -6.75700 44.33800 38.23100
H  -5.64100 43.30400 38.88200
H  -6.20400 44.63500 39.90200
H  -10.99600 45.45500 41.24100
H  -11.46400 45.31800 39.54800
H  -10.85500 46.79400 40.05100
H  -14.27700 42.10200 40.13000
H  -14.28500 40.05100 42.42300
H  -14.87800 43.43700 41.93500
H  -13.29200 43.28100 42.62700
H  -14.67400 42.13300 43.01800
H  -15.32200 39.02600 39.85600
H  -15.97900 40.47500 39.96800
H  -17.65000 39.72700 41.26200
H  -16.45200 39.34300 42.50100
H  -16.91000 38.04200 41.40900
H  -14.06300 35.20800 40.63100
H  -12.90100 33.84300 40.61200
H  -13.52800 34.63900 39.11400
H  -7.79600 34.63700 38.22700
H  -5.79000 32.50400 41.37800
H  -4.83900 33.95500 41.42400
H  -4.54300 32.78600 40.13000

