158

Mg 35.08900 2.60800 29.45200
C  32.97300 3.53800 31.93700
C  37.67200 2.30700 31.72400
C  37.15700 1.61300 26.91600
C  32.50100 3.24800 27.15300
N  35.31300 2.95900 31.56500
C  34.25300 3.26500 32.43300
C  34.74200 3.41700 33.91600
C  36.35300 3.24400 33.74100
C  36.50700 2.84300 32.24900
C  37.31300 4.43800 34.19300
C  33.96900 2.34500 34.82600
C  33.49700 2.79000 36.26000
H  34.35900 3.78000 36.96800
N  37.11000 1.94300 29.35000
C  37.93800 1.80500 30.45200
C  39.12700 1.08900 30.00300
C  39.07000 0.98300 28.56700
C  37.73600 1.51400 28.19700
C  40.16100 0.79100 31.04400
C  40.15400 0.45500 27.67300
O  40.21100 0.66900 26.50200
C  41.34000 -0.23300 28.26200
N  34.76600 2.34200 27.39200
C  35.81500 2.00000 26.55700
C  35.38800 2.14400 25.09800
C  33.78600 2.39300 25.21000
C  33.68800 2.72400 26.68000
C  36.08200 3.42000 24.38600
C  32.90300 1.27400 24.68800
C  32.26400 0.23800 25.69000
N  33.14000 3.32200 29.45600
C  32.21600 3.58000 28.48700
C  30.96700 3.95000 29.10200
C  31.21000 4.05000 30.44400
C  32.55500 3.61700 30.61700
C  29.73200 4.05600 28.30100
C  30.58300 4.25000 31.67200
O  29.43000 4.56000 31.98600
C  31.71100 3.99200 32.74200
C  31.79800 5.22100 33.56900
O  32.50800 6.17000 33.33200
O  30.94500 5.12800 34.64700
C  30.93400 6.25500 35.52600
H  38.41500 2.14000 32.50600
H  37.81800 1.32600 26.09500
H  31.70900 3.43600 26.42500
H  34.45300 4.44100 34.15300
H  36.67800 2.41900 34.37500
H  38.03600 4.67600 33.41300
H  37.89500 4.12400 35.05900
H  36.70400 5.29900 34.47100
H  34.47900 1.39300 34.97300
H  33.09800 1.97600 34.28300
H  33.50400 1.88000 36.85900
H  32.45400 3.10600 36.23900
H  39.75200 0.71100 32.05200
H  41.01200 1.47000 30.98900
H  40.58400 -0.20500 30.91600
H  42.04800 -0.54200 27.49300
H  41.04800 -1.12500 28.81600
H  41.97000 0.34500 28.93800
H  35.58500 1.21300 24.56600
H  33.51500 3.29600 24.66400
H  35.37000 4.11000 23.93400
H  36.73500 2.96700 23.63900
H  36.66300 3.96300 25.13200
H  33.50000 0.67300 24.00200
H  32.03900 1.69300 24.17300
H  31.19200 0.04300 25.65000
H  32.47800 0.55300 26.71200
H  32.67600 -0.74600 25.46700
H  29.78800 3.31300 27.50500
H  29.66800 5.01300 27.78400
H  28.80800 3.91500 28.86100
H  31.33900 3.18400 33.37100
H  30.60800 7.19800 35.08700
H  31.92800 6.51000 35.89300
H  30.30300 6.08500 36.39800
Mg 4.81300 55.01900 42.05700
C  2.87900 52.11100 41.90700
C  7.26500 53.25300 40.29600
C  6.34700 57.86600 41.16200
C  2.03100 56.72200 42.94000
N  4.96300 52.96300 41.18500
C  4.01300 51.97600 41.10800
C  4.38500 50.83300 40.20900
C  5.91400 51.05600 40.02200
C  6.08500 52.53300 40.52400
C  6.94900 50.11600 40.69400
C  3.54500 50.73700 38.85600
C  2.93000 49.33100 38.49500
H  3.48200 48.61000 37.28200
N  6.69400 55.49900 41.15400
C  7.53200 54.61400 40.52100
C  8.70400 55.34400 40.11100
C  8.46700 56.70300 40.43900
C  7.11900 56.71200 40.91700
C  9.94700 54.65600 39.46000
C  9.48000 57.84800 40.15100
O  10.54500 57.58600 39.51900
C  9.33700 59.28100 40.62200
N  4.27800 57.04300 41.89100
C  5.03300 58.04300 41.51900
C  4.25900 59.37200 41.62500
C  2.87300 59.02300 42.22000
C  3.01400 57.52400 42.36400
C  5.08000 60.47700 42.34900
C  1.54900 59.50500 41.49900
C  0.17900 59.55700 42.23700
N  2.84900 54.59000 42.52000
C  1.84000 55.32500 42.97400
C  0.75000 54.58300 43.36200
C  1.12000 53.29900 43.07800
C  2.41300 53.34000 42.47700
C  -0.45700 54.98400 44.08800
C  0.80500 51.84100 43.09300
O  -0.16700 51.21600 43.46500
C  1.86500 51.02100 42.27900
C  1.18400 50.27200 41.13400
O  0.70800 50.73300 40.10700
O  1.22500 48.90600 41.46900
C  0.48400 47.90800 40.70500
H  7.81400 52.60200 39.61300
H  6.87400 58.78200 40.88600
H  1.11200 57.19700 43.28900
H  4.23700 49.87900 40.71600
H  6.12800 50.86200 38.97100
H  6.56900 49.64600 41.60200
H  7.76900 50.67200 41.14800
H  7.31800 49.38400 39.97600
H  4.19300 51.06600 38.04400
H  2.75500 51.48400 38.78800
H  1.84500 49.27400 38.40800
H  3.06300 48.56900 39.26300
H  10.09600 53.59400 39.65500
H  10.84500 55.11900 39.86900
H  10.17500 54.79300 38.40300
H  10.28100 59.82500 40.59400
H  9.01000 59.26000 41.66200
H  8.62700 59.85100 40.02400
H  4.05600 59.64700 40.59000
H  2.90100 59.69000 43.08300
H  4.80800 60.50300 43.40400
H  4.74000 61.43800 41.96300
H  6.12600 60.48900 42.04100
H  1.38000 58.83600 40.65500
H  1.70700 60.50800 41.10200
H  -0.18300 60.58400 42.29200
H  0.21200 59.28700 43.29300
H  -0.59900 58.88700 41.87100
H  -0.49500 56.02700 44.40200
H  -0.37000 54.34500 44.96600
H  -1.26000 54.76900 43.38300
H  2.21800 50.20600 42.91100
H  -0.22000 48.51000 40.13000
H  0.24800 47.11300 41.41200
H  1.15700 47.44700 39.98200

