158

Mg 24.67300 -6.87300 47.11700
C  27.54200 -4.73900 46.02800
C  22.97900 -5.34600 44.45800
C  22.62400 -9.36200 47.44500
C  27.22000 -8.65300 48.90000
N  25.25200 -5.26600 45.38000
C  26.41100 -4.60100 45.23500
C  26.22300 -3.52200 44.18500
C  24.71900 -3.49300 43.80800
C  24.24400 -4.79700 44.54400
C  23.96100 -2.12500 44.20700
C  27.16100 -3.86300 42.99100
C  28.16500 -2.65600 42.67000
H  27.82200 -1.91500 41.34900
N  22.90200 -7.21400 46.20800
C  22.33200 -6.45000 45.23300
C  21.06600 -7.06900 44.85000
C  20.97600 -8.27800 45.59200
C  22.21000 -8.32600 46.44400
C  20.09400 -6.51500 43.73900
C  19.84900 -9.30700 45.38400
O  18.82000 -9.08500 44.74800
C  20.00800 -10.61800 46.01900
N  24.91400 -8.80300 47.94200
C  23.91000 -9.65100 47.98200
C  24.22000 -10.87200 48.93300
C  25.68400 -10.59400 49.36800
C  25.96300 -9.29200 48.67100
C  23.07400 -11.13700 50.00000
C  26.72400 -11.70500 48.96900
C  27.68700 -12.15600 50.07700
N  26.82200 -6.68000 47.60100
C  27.65900 -7.44300 48.35300
C  29.01000 -6.90500 48.44300
C  28.96600 -5.78500 47.58700
C  27.65900 -5.77500 46.99200
C  30.15000 -7.48200 49.22600
C  29.74100 -4.64000 47.14900
O  30.83300 -4.19100 47.52500
C  28.73600 -3.83800 46.09100
C  28.41600 -2.47200 46.66800
O  27.89000 -2.20500 47.78100
O  28.90500 -1.49300 45.82100
C  28.56500 -0.13700 46.16800
H  22.37200 -4.70900 43.81200
H  21.88500 -10.11800 47.71800
H  27.83400 -9.30400 49.52600
H  26.46000 -2.53800 44.59100
H  24.56000 -3.60000 42.73500
H  23.37800 -1.68900 43.39600
H  24.65500 -1.31600 44.43600
H  23.25100 -2.33500 45.00700
H  26.60700 -4.10900 42.08500
H  27.69900 -4.78100 43.22700
H  29.22800 -2.85400 42.81000
H  27.91800 -1.88300 43.39700
H  19.08400 -6.33800 44.11000
H  19.99700 -7.08700 42.81700
H  20.44300 -5.56400 43.33500
H  19.73500 -10.36300 47.04300
H  20.98700 -11.03100 45.77400
H  19.24000 -11.29000 45.63700
H  24.20400 -11.64300 48.16300
H  25.60800 -10.36000 50.43000
H  22.44900 -10.27500 50.23500
H  23.56800 -11.63700 50.83300
H  22.42800 -11.82900 49.46000
H  27.40400 -11.23600 48.25800
H  26.28100 -12.54300 48.43200
H  27.66100 -13.24500 50.07000
H  27.30800 -11.86300 51.05600
H  28.68900 -11.72900 50.05200
H  30.81400 -6.72600 49.64500
H  30.88800 -8.03200 48.64200
H  29.85900 -8.10300 50.07400
H  29.24400 -3.72500 45.13400
H  27.91800 0.32000 45.42000
H  29.43100 0.51500 46.28300
H  28.11600 -0.05400 47.15800
Mg -1.62100 34.64200 26.06000
C  -3.23000 32.76800 28.54500
C  -0.50400 36.82300 28.52700
C  -0.18700 36.44600 23.65100
C  -3.00500 32.56800 23.70600
N  -1.85700 34.70800 28.27000
C  -2.64700 33.89600 29.08500
C  -2.46100 34.33400 30.54600
C  -1.71700 35.64400 30.48700
C  -1.34200 35.73800 28.95400
C  -2.55000 36.87700 30.98500
C  -1.74000 33.17200 31.27800
C  -2.30000 32.72200 32.66900
H  -1.29400 32.63700 33.91600
N  -0.48700 36.37000 26.13400
C  -0.07900 37.13700 27.22400
C  0.74200 38.26700 26.83500
C  0.80000 38.16900 25.39700
C  -0.01900 36.93800 24.99800
C  1.32000 39.26800 27.81400
C  1.52200 39.10000 24.42400
O  1.46200 38.97200 23.21600
C  2.09100 40.37900 24.96900
N  -1.74300 34.67100 23.96100
C  -0.93000 35.41400 23.19500
C  -1.10100 35.18000 21.74700
C  -1.95600 33.86500 21.73000
C  -2.28800 33.67400 23.23200
C  -1.83200 36.31000 20.93700
C  -1.25400 32.59100 21.17500
C  0.02300 32.23900 21.92700
N  -2.91300 33.03700 26.08000
C  -3.35900 32.29000 25.04000
C  -4.16100 31.21300 25.44600
C  -4.22500 31.35400 26.88000
C  -3.36300 32.43700 27.20800
C  -5.03600 30.36000 24.57700
C  -4.87900 30.95000 28.13600
O  -5.69900 30.03100 28.27300
C  -4.13600 31.79100 29.27500
C  -5.19800 32.50900 30.09500
O  -5.93400 33.42200 29.70300
O  -5.29100 32.05900 31.35000
C  -6.26800 32.56200 32.30400
H  -0.04600 37.37300 29.35100
H  0.45500 36.94600 22.92200
H  -3.41700 31.86400 22.98000
H  -3.49800 34.39200 30.87500
H  -0.80000 35.55700 31.06900
H  -2.67300 37.71600 30.30000
H  -2.03500 37.31800 31.83900
H  -3.54000 36.64600 31.37900
H  -0.72100 33.49600 31.48800
H  -1.50100 32.29100 30.68300
H  -2.78400 31.74600 32.61500
H  -3.05600 33.48000 32.87600
H  2.24300 39.72000 27.45100
H  1.38800 38.91700 28.84400
H  0.58800 40.07400 27.78000
H  2.29200 41.03200 24.11900
H  3.02100 40.15000 25.49000
H  1.36600 40.88900 25.60300
H  -0.15200 35.08200 21.21900
H  -2.83500 33.77800 21.09100
H  -2.35800 36.90800 21.68100
H  -2.51700 35.96400 20.16300
H  -1.07400 36.85400 20.37300
H  -0.88400 32.79700 20.17100
H  -2.04500 31.84100 21.20300
H  0.08300 31.17000 22.12800
H  0.11700 32.77800 22.87000
H  0.85300 32.47800 21.26200
H  -6.05600 30.28600 24.95400
H  -4.62500 29.39000 24.29700
H  -5.08700 30.91600 23.64100
H  -3.45800 31.17700 29.86800
H  -5.73100 33.22400 32.98300
H  -6.59200 31.72500 32.92100
H  -7.09200 33.11700 31.85400

