158

Mg 49.32100 47.02500 42.53400
C  46.05500 47.61000 41.24800
C  49.24300 43.95900 40.71300
C  52.61900 46.62000 43.00300
C  49.41000 50.32200 43.54600
N  47.81400 45.96500 41.08800
C  46.56000 46.37600 40.75100
C  45.75100 45.34600 39.89200
C  46.80800 44.15700 39.93200
C  48.03800 44.66600 40.68800
C  46.29500 42.66800 40.18600
C  45.34400 45.81200 38.42400
C  44.20900 45.02500 37.72300
H  44.48600 43.88400 36.77200
N  50.70800 45.38200 42.12200
C  50.49800 44.28700 41.29300
C  51.75700 43.55700 41.10100
C  52.76100 44.35200 41.71100
C  52.04100 45.51500 42.32400
C  51.85400 42.28800 40.34300
C  54.31300 44.02300 41.72100
O  54.68300 42.89000 41.28700
C  55.36400 44.97300 42.35100
N  50.87200 48.29000 43.15100
C  52.08600 47.84500 43.49700
C  52.93600 49.08200 44.01800
C  51.87700 50.18000 44.19800
C  50.57800 49.54200 43.61700
C  53.83300 48.91900 45.29600
C  52.23100 51.47100 43.50100
C  52.12500 52.62000 44.48600
N  48.03400 48.62000 42.52700
C  48.14400 49.80200 43.12800
C  46.94900 50.59000 43.00100
C  46.06600 49.72600 42.32900
C  46.78000 48.57800 41.96400
C  46.85700 52.03000 43.32700
C  44.78800 49.56200 41.76800
O  43.86500 50.36200 41.94900
C  44.69300 48.29800 40.89900
C  43.57000 47.57200 41.40300
O  43.27600 47.42200 42.55500
O  43.01500 46.97600 40.31200
C  41.91300 46.03800 40.51200
H  49.14600 43.07000 40.08600
H  53.68900 46.65500 43.22100
H  49.46800 51.28800 44.05200
H  44.83200 45.07400 40.41200
H  47.12500 44.09900 38.89000
H  46.74100 42.26300 41.09400
H  46.59200 42.03000 39.35400
H  45.22300 42.82100 40.31500
H  46.26200 45.75500 37.83900
H  45.02500 46.85300 38.46900
H  43.54800 45.82400 37.38900
H  43.58100 44.68100 38.54500
H  51.97800 41.44400 41.02200
H  52.74800 42.33600 39.72200
H  51.04500 42.05700 39.65000
H  56.37900 44.57800 42.31900
H  55.03600 44.88200 43.38600
H  55.26300 45.99300 41.98200
H  53.51900 49.29500 43.12300
H  51.64700 50.40500 45.24000
H  54.02600 47.84700 45.28400
H  53.40800 49.30200 46.22400
H  54.81500 49.38500 45.20500
H  51.57600 51.63500 42.64500
H  53.23700 51.50400 43.08300
H  53.13600 52.88900 44.79200
H  51.43900 52.36600 45.29400
H  51.69900 53.48000 43.96900
H  47.13100 52.33500 44.33700
H  45.79900 52.29400 43.31400
H  47.30800 52.70700 42.60200
H  44.65100 48.53700 39.83600
H  41.91700 45.69900 41.54800
H  41.94200 45.16400 39.86200
H  40.99400 46.58800 40.31300
Mg -12.35900 16.01500 41.87000
C  -9.44600 14.10500 41.40500
C  -11.11200 18.65900 40.27900
C  -15.60100 17.18700 41.72600
C  -14.00600 12.75200 42.50400
N  -10.49000 16.32100 40.95100
C  -9.33900 15.50500 40.92600
C  -8.13400 16.25200 40.30900
C  -8.73800 17.64600 40.03400
C  -10.16800 17.61000 40.54000
C  -7.93100 18.93100 40.43700
C  -7.39300 15.62200 39.12000
C  -5.85900 15.54300 39.07000
H  -5.18500 16.36300 37.93700
N  -13.19500 17.76300 41.22600
C  -12.50500 18.73200 40.57100
C  -13.29900 19.88200 40.34300
C  -14.66200 19.43200 40.63600
C  -14.53900 18.07800 41.23000
C  -12.79900 21.31200 39.89300
C  -15.93800 20.17200 40.39800
O  -15.89700 21.25200 39.87500
C  -17.27500 19.65300 40.79800
N  -14.47700 15.06400 42.04400
C  -15.54500 15.88300 42.13800
C  -16.84800 15.12500 42.49800
C  -16.32900 13.61500 42.76200
C  -14.86100 13.80200 42.29200
C  -17.63000 15.65700 43.70400
C  -17.04000 12.42700 41.97600
C  -17.10000 12.45900 40.41500
N  -11.83200 13.87600 42.16300
C  -12.62000 12.75500 42.41900
C  -11.69400 11.57900 42.57700
C  -10.43000 12.10500 42.15300
C  -10.59800 13.46400 41.91400
C  -12.02100 10.18800 42.84700
C  -9.02800 11.74700 41.87000
O  -8.41100 10.75300 42.16000
C  -8.36100 13.03300 41.27500
C  -7.14500 13.28600 42.09400
O  -7.18400 13.55400 43.30000
O  -5.98400 13.17800 41.31700
C  -4.90000 13.66600 42.15400
H  -10.68100 19.56900 39.85700
H  -16.65500 17.45900 41.64400
H  -14.54800 11.81200 42.62500
H  -7.47800 16.37300 41.17100
H  -8.98100 17.80300 38.98300
H  -6.95000 18.49500 40.62700
H  -8.28000 19.27300 41.41100
H  -7.86000 19.79800 39.77900
H  -7.63700 16.09400 38.16900
H  -7.73200 14.58800 39.06300
H  -5.64400 14.48900 38.88900
H  -5.27300 15.68800 39.97800
H  -12.70700 21.35800 38.80700
H  -11.78300 21.42000 40.27300
H  -13.41600 22.10600 40.31300
H  -17.51100 18.76100 40.21700
H  -17.99900 20.41500 40.50800
H  -17.25500 19.47100 41.87200
H  -17.55400 15.08700 41.66900
H  -16.40700 13.31700 43.80800
H  -18.68400 15.58100 43.43800
H  -17.32100 16.68300 43.90700
H  -17.49700 15.05200 44.60000
H  -18.04000 12.32000 42.39700
H  -16.73900 11.39100 42.12800
H  -16.48300 13.31800 40.15000
H  -18.06000 12.68700 39.95100
H  -16.65700 11.53900 40.03200
H  -12.55300 9.75300 42.00100
H  -12.61100 10.29700 43.75800
H  -11.09400 9.61700 42.88300
H  -8.23500 12.90400 40.20000
H  -4.89400 14.70400 42.48900
H  -4.04200 13.59800 41.48500
H  -4.74400 13.08900 43.06500

