158

Mg 0.19200 7.98600 26.65800
C  0.74000 10.17900 29.32400
C  0.28600 5.31700 28.96800
C  -0.20200 5.83000 24.10800
C  0.45200 10.61400 24.41300
N  0.53000 7.81300 28.89600
C  0.62800 8.85200 29.78000
C  0.78800 8.35700 31.21500
C  0.67300 6.79300 30.99000
C  0.48900 6.61800 29.51900
C  1.79800 5.86100 31.62000
C  -0.34400 8.90400 32.09500
C  0.01400 9.26200 33.54700
H  -0.69900 8.45300 34.61800
N  0.16900 5.83300 26.52000
C  0.14700 4.93300 27.58500
C  -0.01600 3.56300 27.09000
C  -0.25300 3.67900 25.70900
C  -0.13500 5.13900 25.33900
C  -0.15400 2.36900 27.89900
C  -0.68900 2.58800 24.66800
O  -1.24700 2.90000 23.59800
C  -0.58800 1.09200 25.04400
N  0.13000 8.17700 24.60900
C  -0.00300 7.18700 23.76700
C  -0.12700 7.71000 22.27000
C  -0.17700 9.22500 22.43800
C  0.04400 9.39100 23.93700
C  0.96300 7.22600 21.27800
C  -1.59300 9.87300 22.02400
C  -1.56400 11.17100 21.14300
N  0.52400 9.96800 26.80200
C  0.73200 10.89800 25.79900
C  1.18900 12.19100 26.41600
C  1.11100 11.89800 27.75200
C  0.71900 10.56500 27.98400
C  1.60600 13.44300 25.77000
C  1.29800 12.57600 29.01900
O  1.63100 13.74800 29.30800
C  1.11500 11.43600 30.14000
C  2.37100 11.25300 30.96400
O  3.50700 10.96400 30.54300
O  2.12800 11.56100 32.23000
C  3.27000 11.44200 33.21600
H  0.31800 4.51400 29.70800
H  -0.40200 5.13700 23.28700
H  0.58800 11.45500 23.72900
H  1.78000 8.66400 31.54900
H  -0.30100 6.47000 31.36000
H  1.28300 5.09700 32.20300
H  2.50500 6.32900 32.30400
H  2.31300 5.44600 30.75400
H  -1.21200 8.24500 32.11500
H  -0.69700 9.85000 31.68400
H  -0.19300 10.31800 33.72100
H  1.07800 9.09400 33.71500
H  -1.20200 2.22000 28.15800
H  0.37700 2.59800 28.82300
H  0.35500 1.47700 27.53300
H  0.28800 0.78700 25.61600
H  -0.66000 0.53900 24.10700
H  -1.51900 0.89400 25.57500
H  -1.10800 7.39000 21.91800
H  0.61400 9.72100 21.87600
H  1.25800 8.00700 20.57700
H  0.49600 6.39600 20.74800
H  1.79800 6.84900 21.86800
H  -2.13800 10.10000 22.94100
H  -2.22200 9.17900 21.46700
H  -0.57400 11.58700 20.95600
H  -2.05500 12.01800 21.62400
H  -2.09200 10.98300 20.20800
H  2.22700 13.11000 24.93900
H  2.19600 14.10900 26.39900
H  0.72600 14.00500 25.45500
H  0.31600 11.81800 30.77500
H  2.94800 11.46600 34.25700
H  3.95600 12.28300 33.11800
H  3.82100 10.51100 33.07800
Mg 0.69300 42.34300 25.54600
C  2.36700 42.54200 28.73700
C  -2.02700 41.10200 27.16600
C  -0.62000 41.74300 22.56300
C  3.79900 43.06400 24.04800
N  0.22600 42.00300 27.67900
C  1.01800 42.18500 28.80600
C  0.18100 41.93600 30.09700
C  -1.18700 41.34500 29.48500
C  -0.99500 41.48200 28.00100
C  -1.38100 39.88400 29.95000
C  -0.02200 43.22800 31.03300
C  0.34900 42.98500 32.50500
H  0.03400 41.66400 33.07400
N  -1.08600 41.46900 24.96700
C  -2.13800 41.10800 25.77000
C  -3.24300 40.72100 24.98400
C  -2.82600 40.95100 23.59600
C  -1.46700 41.32500 23.64100
C  -4.53000 40.10000 25.57900
C  -3.67200 40.94300 22.35000
O  -3.18000 41.14900 21.21000
C  -5.18000 40.78700 22.50700
N  1.45800 42.43400 23.60300
C  0.69900 42.24800 22.57300
C  1.51900 42.48400 21.26500
C  2.87400 42.98400 21.76000
C  2.70600 42.84600 23.25600
C  1.46300 41.29000 20.23900
C  3.27800 44.41100 21.42800
C  4.37800 44.57500 20.28500
N  2.58700 42.81100 26.20600
C  3.77600 43.08500 25.51000
C  4.92500 43.37200 26.39000
C  4.36400 43.14400 27.63400
C  3.00300 42.81600 27.49100
C  6.29600 43.86200 26.06200
C  4.63900 43.18500 29.06500
O  5.61000 43.57100 29.66400
C  3.39100 42.83100 29.85200
C  3.71700 41.64800 30.55600
O  4.09300 40.60100 30.01200
O  3.62100 41.86400 31.90100
C  4.21000 40.83200 32.75700
H  -2.90800 40.63000 27.60500
H  -1.03100 41.71100 21.55100
H  4.75000 43.26800 23.55100
H  0.65400 41.16100 30.70000
H  -1.92300 41.96000 30.00200
H  -2.46700 39.89500 30.04500
H  -0.86200 39.61400 30.87000
H  -1.21000 39.16400 29.14900
H  -1.07500 43.50600 31.08100
H  0.53400 44.14700 30.84500
H  -0.20500 43.70000 33.11400
H  1.39700 43.16100 32.74800
H  -4.24600 39.36300 26.33100
H  -5.00700 39.51100 24.79600
H  -5.21800 40.82000 26.02200
H  -5.61000 40.95700 21.52000
H  -5.61600 41.46000 23.24500
H  -5.44000 39.74200 22.67800
H  0.89100 43.25300 20.81600
H  3.63000 42.22900 21.54400
H  1.22600 40.30300 20.63700
H  2.42100 41.10700 19.75200
H  0.76700 41.47800 19.42200
H  3.70700 44.88000 22.31400
H  2.39400 44.98400 21.15000
H  3.91200 44.12600 19.40800
H  5.30900 44.11800 20.61900
H  4.55100 45.61800 20.02000
H  6.25400 44.42200 25.12800
H  6.88300 42.94500 26.01500
H  6.74600 44.52200 26.80400
H  3.10400 43.64900 30.51400
H  4.27500 39.89600 32.20200
H  3.53600 40.68200 33.60000
H  5.15400 41.23200 33.12800

