158

Mg 8.82400 3.46100 27.51100
C  10.12200 2.01200 30.35300
C  6.79200 5.40500 29.50600
C  7.28200 4.78500 24.76800
C  10.08300 0.92200 25.60800
N  8.46700 3.62800 29.71000
C  9.15700 2.93900 30.69000
C  8.81200 3.44300 32.07000
C  7.65500 4.42800 31.71900
C  7.58700 4.48400 30.21800
C  6.29800 4.00200 32.34800
C  10.07000 4.05600 32.79600
C  10.38500 3.48400 34.20400
H  9.21600 2.91700 34.88100
N  7.25400 4.94700 27.17700
C  6.69800 5.69500 28.13800
C  5.95400 6.76900 27.58900
C  6.03100 6.59800 26.14900
C  6.90700 5.41500 25.93900
C  5.21300 7.86000 28.32300
C  5.41400 7.43800 25.00100
O  5.52600 7.10700 23.81100
C  4.59600 8.74700 25.39200
N  8.55500 2.87500 25.51700
C  7.99000 3.56900 24.53500
C  8.16700 2.95800 23.10900
C  9.10800 1.70400 23.40600
C  9.29500 1.85300 24.94400
C  6.83300 2.54900 22.51200
C  10.48900 1.60800 22.65600
C  10.66000 0.37000 21.73000
N  9.95400 1.88700 27.81900
C  10.49600 0.95800 26.94000
C  11.33400 0.07900 27.67900
C  11.23300 0.43100 28.99000
C  10.45700 1.61200 29.00300
C  11.92700 -1.17500 27.12900
C  11.71000 0.11000 30.32900
O  12.41000 -0.78400 30.74400
C  11.09500 1.22200 31.22000
C  10.54600 0.46100 32.36500
O  9.52200 -0.22000 32.30100
O  11.34200 0.59600 33.50100
C  11.18800 -0.01500 34.85200
H  6.22800 6.05300 30.18000
H  7.05600 5.32700 23.84700
H  10.40200 0.11600 24.94400
H  8.34000 2.59200 32.56000
H  7.95300 5.42200 32.05300
H  5.56500 3.74500 31.58400
H  5.93500 4.85700 32.91800
H  6.32500 3.10400 32.96500
H  9.98300 5.14200 32.82100
H  10.97800 3.97900 32.19900
H  10.70400 4.39300 34.71400
H  11.24600 2.82800 34.07100
H  5.48900 8.84400 27.94600
H  5.45400 7.87900 29.38600
H  4.14900 7.70200 28.15100
H  3.96000 9.09600 24.57800
H  5.21100 9.57900 25.73300
H  3.93700 8.47000 26.21600
H  8.71100 3.67300 22.49200
H  8.54000 0.81700 23.12800
H  6.72500 1.51500 22.18400
H  6.66100 3.27800 21.72000
H  6.02700 2.71400 23.22800
H  11.24900 1.47000 23.42500
H  10.73800 2.55600 22.18000
H  11.19700 -0.36400 22.33100
H  11.25700 0.58900 20.84500
H  9.65500 0.02800 21.48200
H  11.24500 -1.99900 27.34000
H  12.92700 -1.36300 27.51900
H  11.98100 -1.06800 26.04500
H  11.87200 1.86700 31.63100
H  10.91900 0.85000 35.45900
H  12.06500 -0.49300 35.28800
H  10.30200 -0.64800 34.80900
Mg 15.66500 51.93800 24.67100
C  17.40300 50.70600 27.48300
C  12.95000 52.37500 26.78400
C  14.04300 52.51800 21.98800
C  18.53600 51.00200 22.72300
N  15.21200 51.65900 26.88200
C  16.11600 51.17000 27.78900
C  15.66700 51.44400 29.22300
C  14.16000 51.88200 29.03100
C  14.05400 51.97900 27.51100
C  13.10800 50.92000 29.74900
C  16.48900 52.40200 30.08000
C  16.97700 51.97800 31.50600
H  16.09700 51.08700 32.31500
N  13.69400 52.51900 24.42000
C  12.70400 52.56200 25.35800
C  11.53800 52.98800 24.71500
C  11.83400 53.01900 23.27900
C  13.21500 52.67400 23.17600
C  10.26300 53.34000 25.44600
C  10.98300 53.47400 22.13800
O  11.39800 53.63600 21.01400
C  9.63200 53.78900 22.40800
N  16.27800 51.75400 22.58000
C  15.39400 52.22400 21.69400
C  16.05200 52.32200 20.26100
C  17.57500 52.03800 20.53200
C  17.54500 51.70000 22.05000
C  15.45100 51.39300 19.19600
C  18.58500 53.21400 20.19700
C  19.80700 52.75700 19.32200
N  17.54900 51.08100 24.96100
C  18.50800 50.74100 24.06800
C  19.58000 50.17200 24.81100
C  19.19300 50.12800 26.17900
C  17.92700 50.70600 26.19700
C  20.85000 49.71200 24.23600
C  19.59800 49.82200 27.52300
O  20.65200 49.26600 27.85600
C  18.42500 50.23900 28.52000
C  18.02600 48.97400 29.25100
O  17.53800 47.96200 28.82200
O  18.39600 49.15400 30.52500
C  18.54700 47.91400 31.32600
H  12.07600 52.57300 27.40900
H  13.50100 52.61500 21.04500
H  19.46600 50.75500 22.20700
H  15.80200 50.48100 29.71400
H  13.92300 52.87100 29.42300
H  13.67100 50.20900 30.35500
H  12.47800 50.38500 29.03800
H  12.42500 51.41600 30.43900
H  15.79700 53.23600 30.19700
H  17.36000 52.76000 29.53000
H  17.24700 52.84200 32.11400
H  17.91800 51.42800 31.48700
H  9.75300 54.22300 25.05800
H  10.59500 53.53300 26.46600
H  9.54100 52.52300 25.43900
H  9.08000 53.85500 21.47100
H  9.76100 54.83500 22.68500
H  8.99000 53.30100 23.14300
H  15.88700 53.36000 19.96900
H  17.93000 51.10800 20.08600
H  14.79100 50.56800 19.46400
H  16.21500 50.92300 18.57600
H  14.82300 52.05100 18.59700
H  18.90300 53.56000 21.18000
H  18.03400 53.96900 19.63500
H  19.88300 53.49900 18.52700
H  19.53900 51.79200 18.89100
H  20.74400 52.73800 19.87900
H  20.53700 48.73500 23.86700
H  21.70500 49.79700 24.90800
H  21.05100 50.34000 23.36800
H  18.81000 51.04000 29.15200
H  19.16800 47.23400 30.74300
H  17.60200 47.40900 31.52700
H  19.12600 48.13900 32.22200

