158

Mg 35.95800 49.08500 25.32100
C  36.13500 47.37100 28.41400
C  34.70300 51.77700 26.94300
C  35.27100 50.48800 22.40000
C  37.23900 46.29300 23.77600
N  35.41400 49.45500 27.50700
C  35.70400 48.72700 28.59800
C  35.50800 49.58400 29.88900
C  34.77700 50.88000 29.33800
C  34.99300 50.70300 27.82900
C  33.22400 50.99900 29.68700
C  36.74400 49.83100 30.74300
C  36.69500 49.18600 32.20200
H  35.44600 49.22000 33.05400
N  35.15700 50.99100 24.75600
C  34.61800 51.95500 25.54600
C  34.27600 53.08500 24.70700
C  34.42700 52.62900 23.34600
C  34.98800 51.34100 23.42900
C  33.82800 54.45700 25.14600
C  34.17300 53.36900 21.99700
O  34.57800 53.10500 20.91800
C  33.47100 54.70200 22.08400
N  36.28300 48.56200 23.46700
C  35.98600 49.32700 22.33400
C  36.42600 48.62400 21.01000
C  37.39000 47.56900 21.65500
C  36.94200 47.36300 23.06700
C  35.22300 47.98100 20.27500
C  38.89900 47.77900 21.58000
C  39.70800 47.05900 20.43200
N  36.39800 47.15800 25.89800
C  36.84500 46.07700 25.14900
C  37.19300 44.91200 26.01600
C  36.94000 45.43700 27.31000
C  36.39200 46.72200 27.17400
C  37.72600 43.55200 25.61600
C  36.97000 45.01700 28.72500
O  37.18900 43.90400 29.25200
C  36.39800 46.28400 29.53000
C  35.29500 45.82400 30.40000
O  34.11400 45.90100 30.16400
O  35.80500 45.31400 31.53800
C  34.85700 45.04000 32.60300
H  34.23900 52.63300 27.43700
H  34.91300 50.77000 21.40800
H  37.74200 45.57300 23.12800
H  34.87200 48.95800 30.51400
H  35.35100 51.63400 29.87700
H  32.87600 50.39600 30.52600
H  32.61600 50.68200 28.83900
H  32.96300 52.02200 29.95600
H  36.90700 50.89200 30.93100
H  37.54800 49.35900 30.17800
H  37.52100 49.66600 32.72800
H  36.96200 48.15100 31.98800
H  32.87700 54.80100 24.73800
H  34.69200 55.10700 25.00800
H  33.68800 54.38400 26.22400
H  32.48100 54.44400 22.46200
H  33.31300 55.11500 21.08800
H  33.94400 55.55900 22.56500
H  36.96700 49.20600 20.26300
H  37.22300 46.61700 21.15100
H  34.26600 48.28400 20.69900
H  35.27100 46.89500 20.19800
H  35.32300 48.39000 19.26900
H  39.30000 47.71600 22.59200
H  39.00500 48.81500 21.26000
H  40.41400 47.76900 20.00100
H  38.99200 46.73300 19.67800
H  40.17400 46.22000 20.94900
H  38.31200 43.77300 24.72400
H  36.93900 42.86400 25.30700
H  38.28200 43.15600 26.46600
H  37.22200 46.69900 30.11100
H  34.43100 44.04400 32.47500
H  34.09300 45.80600 32.73400
H  35.42300 45.12600 33.53100
Mg 0.11900 44.27100 25.77400
C  2.30600 43.51300 28.36400
C  -2.54300 43.56100 27.82300
C  -1.95300 44.30400 23.03300
C  2.82800 44.66500 23.69100
N  0.00200 43.55100 27.75000
C  0.96400 43.33900 28.66200
C  0.36700 43.31000 30.09500
C  -1.07400 42.99400 29.78500
C  -1.22600 43.32700 28.33100
C  -1.50700 41.58000 30.17200
C  0.52200 44.67900 30.90400
C  0.54900 44.66700 32.43100
H  0.58600 43.30200 33.14400
N  -1.98100 44.17200 25.50100
C  -2.90700 43.86100 26.46400
C  -4.24100 43.91400 25.96500
C  -4.07800 44.18200 24.54200
C  -2.66100 44.23700 24.30000
C  -5.42300 43.58400 26.76700
C  -5.16800 44.28400 23.45200
O  -4.91200 44.57000 22.25800
C  -6.57600 44.11000 23.79900
N  0.34200 44.43500 23.65600
C  -0.61400 44.50900 22.73200
C  -0.10200 45.06000 21.36900
C  1.43900 45.03500 21.60100
C  1.57200 44.74400 23.06300
C  -0.57900 44.37500 20.03600
C  2.25200 46.24000 20.92800
C  2.45500 47.38900 21.84900
N  2.16900 43.95300 25.92200
C  3.20600 44.17300 24.98500
C  4.47800 44.00400 25.62500
C  4.20200 43.71300 26.93900
C  2.80100 43.75900 27.10000
C  5.73200 44.22500 24.92100
C  4.82300 43.51800 28.26000
O  6.02700 43.41600 28.57600
C  3.57600 43.42400 29.23800
C  3.63700 42.15200 30.11200
O  3.37900 41.06500 29.68800
O  4.15300 42.46600 31.36800
C  4.34800 41.25300 32.21100
H  -3.29800 43.34600 28.58200
H  -2.63700 44.30200 22.18200
H  3.69100 44.95100 23.08600
H  0.83400 42.49100 30.64200
H  -1.77200 43.63200 30.32600
H  -2.03300 41.27700 29.26700
H  -2.15000 41.63700 31.05000
H  -0.64300 40.93900 30.34200
H  -0.22400 45.41100 30.59600
H  1.49100 45.08500 30.61400
H  -0.32700 45.18400 32.82200
H  1.38700 45.25200 32.81100
H  -5.17000 43.13100 27.72500
H  -6.19600 42.97100 26.30300
H  -5.98700 44.46300 27.07700
H  -6.81300 43.09200 24.10800
H  -7.08800 44.31500 22.85800
H  -6.83200 44.88100 24.52600
H  -0.39600 46.10900 21.32800
H  1.86000 44.22600 21.00300
H  0.09500 44.51100 19.19000
H  -1.56000 44.81200 19.85300
H  -0.75700 43.31200 20.19900
H  1.77300 46.65000 20.03800
H  3.25300 45.94600 20.61200
H  2.36100 48.24000 21.17300
H  3.47100 47.60600 22.17700
H  1.69000 47.52600 22.61400
H  6.48800 43.53800 25.30000
H  6.10000 45.21400 25.19500
H  5.76000 43.98300 23.85800
H  3.59500 44.34300 29.82400
H  4.92900 40.43000 31.79600
H  3.43200 40.81900 32.61100
H  4.75700 41.60700 33.15700

