158

Mg 23.29800 -6.33800 45.42200
C  25.81200 -4.05500 44.37400
C  21.02200 -4.55300 43.62300
C  21.40200 -9.08100 45.47200
C  25.99800 -8.22900 46.90700
N  23.49300 -4.54000 44.05500
C  24.52900 -3.71000 43.84300
C  24.15100 -2.46200 43.02100
C  22.60600 -2.52800 43.16300
C  22.31400 -3.99700 43.60400
C  22.06700 -1.40500 44.13700
C  24.76600 -2.51000 41.67400
C  25.56400 -1.25200 41.24300
H  25.68200 -0.91100 39.74900
N  21.29500 -6.78200 44.75000
C  20.58600 -5.89100 43.95100
C  19.28100 -6.50300 43.76900
C  19.37400 -7.80900 44.38400
C  20.73200 -7.98200 44.87800
C  18.28800 -5.65300 43.05700
C  18.19300 -8.77500 44.56300
O  17.04600 -8.42600 44.20900
C  18.40800 -9.98100 45.32500
N  23.69700 -8.34100 46.07800
C  22.73800 -9.28600 46.03600
C  23.23400 -10.62800 46.56700
C  24.63800 -10.25700 47.12200
C  24.80500 -8.88400 46.59200
C  22.25500 -11.34400 47.55400
C  25.72700 -11.21400 46.60300
C  26.64400 -12.01400 47.59700
N  25.46700 -6.18400 45.70100
C  26.36600 -6.98700 46.35600
C  27.69900 -6.51600 46.20600
C  27.55900 -5.33300 45.47600
C  26.18500 -5.18600 45.17300
C  28.97400 -7.13700 46.80600
C  28.22200 -4.14900 44.89100
O  29.40300 -3.80700 44.88100
C  27.08100 -3.21900 44.22200
C  27.03600 -1.89400 44.90900
O  26.28500 -1.62700 45.78700
O  27.92200 -0.98000 44.36500
C  27.88000 0.45200 44.73500
H  20.25700 -3.90500 43.19100
H  20.90100 -10.04300 45.60100
H  26.70800 -8.91700 47.37100
H  24.48400 -1.53200 43.48200
H  22.10100 -2.45800 42.20000
H  21.58100 -1.78200 45.03800
H  21.36000 -0.77600 43.59700
H  22.85400 -0.77900 44.55600
H  23.96400 -2.57700 40.93800
H  25.36300 -3.40900 41.52400
H  26.56100 -1.38900 41.66000
H  25.11000 -0.36800 41.69200
H  18.10800 -4.72200 43.59400
H  17.28000 -6.06500 43.02200
H  18.63900 -5.36500 42.06500
H  17.45300 -10.47800 45.49300
H  18.89700 -9.78000 46.27900
H  18.95800 -10.74800 44.77900
H  23.34600 -11.25200 45.68000
H  24.62100 -10.18100 48.20900
H  22.05700 -12.36200 47.21800
H  21.32600 -10.78700 47.67500
H  22.58400 -11.22500 48.58600
H  26.37700 -10.71000 45.88800
H  25.25900 -11.89800 45.89500
H  27.67600 -11.84500 47.29000
H  26.49700 -13.08900 47.69400
H  26.48000 -11.57600 48.58200
H  29.36800 -7.92400 46.16400
H  28.77300 -7.64000 47.75200
H  29.68700 -6.34000 47.01700
H  27.33800 -3.14500 43.16600
H  26.91600 0.69600 45.18200
H  28.00200 1.17700 43.93000
H  28.62300 0.69400 45.49400
Mg 16.90300 51.49500 26.49600
C  18.84300 50.38800 29.13800
C  14.49800 52.49600 28.60500
C  15.22000 52.44700 23.78600
C  19.46800 50.22700 24.22400
N  16.81500 51.65400 28.68300
C  17.65100 51.03100 29.56800
C  17.07400 51.11000 30.97800
C  15.66100 51.68800 30.85500
C  15.59700 51.91800 29.27100
C  14.53100 50.80500 31.41700
C  18.05800 51.71800 32.00300
C  17.50400 52.52000 33.21600
H  16.51700 51.78900 34.10200
N  15.16500 52.43400 26.31500
C  14.29600 52.75200 27.30300
C  13.14300 53.45300 26.64200
C  13.41900 53.52700 25.23800
C  14.61800 52.74800 25.05700
C  12.07600 54.00500 27.50000
C  12.51500 54.16100 24.13300
O  12.71500 54.03100 22.92600
C  11.24100 54.92800 24.49200
N  17.24900 51.24800 24.24500
C  16.40500 51.81400 23.35400
C  16.83600 51.66800 21.93200
C  18.37700 51.27100 22.06800
C  18.39200 50.83200 23.57600
C  16.03700 50.58200 21.14200
C  19.42800 52.39100 21.79700
C  20.80600 51.86400 21.29500
N  18.74000 50.40700 26.59300
C  19.68500 50.06400 25.58700
C  20.79000 49.49900 26.20700
C  20.52100 49.51200 27.58400
C  19.28800 50.20400 27.80200
C  22.02400 48.93100 25.45400
C  21.03600 49.20600 28.97300
O  22.02700 48.62500 29.39500
C  19.97600 49.79400 29.99100
C  19.47100 48.62700 30.67900
O  18.60800 47.86000 30.25900
O  19.95200 48.54900 31.93200
C  19.24000 47.56900 32.70500
H  13.67500 52.81500 29.24900
H  14.77500 52.98100 22.94300
H  20.27300 49.96600 23.53400
H  16.96900 50.04500 31.18100
H  15.62300 52.70000 31.25900
H  13.93300 51.34800 32.14800
H  14.94000 49.91600 31.89700
H  13.85800 50.50900 30.61200
H  18.89200 52.25400 31.55000
H  18.52500 50.85800 32.48200
H  16.96500 53.39200 32.84600
H  18.37000 52.85800 33.78600
H  12.33200 55.04700 27.69500
H  11.77200 53.43000 28.37500
H  11.12400 54.14400 26.98900
H  10.64400 54.05300 24.74900
H  10.79500 55.57500 23.73800
H  11.39600 55.53200 25.38600
H  16.81000 52.69300 21.56200
H  18.64700 50.32900 21.59000
H  16.75900 49.87500 20.73400
H  15.53600 51.18700 20.38600
H  15.41100 50.20100 21.94900
H  19.63000 52.83500 22.77200
H  18.89500 53.08000 21.14200
H  21.04300 52.44800 20.40600
H  20.67200 50.82100 21.00900
H  21.60000 51.94500 22.03700
H  22.85200 48.78300 26.14700
H  22.27900 49.63500 24.66200
H  21.90100 47.96000 24.97600
H  20.55400 50.38100 30.70500
H  19.84800 47.46600 33.60300
H  19.22500 46.56700 32.27700
H  18.23700 47.86700 33.01200

