158

Mg -0.57400 7.39500 26.05700
C  -0.07500 9.55300 28.95000
C  -0.63400 4.82900 28.25300
C  -0.64300 5.49000 23.43300
C  -0.18500 10.21200 24.15400
N  -0.50200 7.23300 28.37200
C  -0.34000 8.24800 29.32600
C  -0.44100 7.62500 30.77100
C  -0.35600 6.09400 30.46100
C  -0.52200 6.03100 28.90100
C  0.97900 5.32700 30.90100
C  -1.66300 8.19500 31.43700
C  -1.29900 8.76900 32.78600
H  -1.82300 8.04900 34.04900
N  -0.69400 5.45300 25.89300
C  -0.79800 4.50700 26.90500
C  -0.87000 3.12300 26.32900
C  -0.89100 3.30500 24.92900
C  -0.79200 4.81100 24.71200
C  -0.93100 1.95000 27.27300
C  -0.75500 2.28200 23.85400
O  -0.68200 2.56200 22.66900
C  -0.75200 0.91400 24.22600
N  -0.23300 7.83500 24.05300
C  -0.42700 6.83200 23.11200
C  -0.63900 7.37200 21.69500
C  -0.61100 8.93100 21.92000
C  -0.32800 9.04600 23.41700
C  0.42900 6.86300 20.63000
C  -1.82500 9.76800 21.30400
C  -2.73100 10.48000 22.37200
N  -0.26900 9.43100 26.40500
C  -0.09600 10.47600 25.51800
C  0.14700 11.73400 26.20000
C  0.20100 11.36900 27.49500
C  -0.06400 9.99100 27.61600
C  0.44700 13.06500 25.53300
C  0.58700 11.88900 28.74600
O  1.09200 12.94600 29.08700
C  0.32400 10.73700 29.75900
C  1.55900 10.39100 30.51000
O  2.52800 9.70800 30.15300
O  1.42600 11.03100 31.68500
C  2.51300 11.07400 32.57600
H  -0.64700 4.02800 28.99500
H  -0.92800 4.85200 22.59400
H  -0.02300 11.04700 23.46900
H  0.52700 7.81900 31.23400
H  -1.25100 5.58000 30.81000
H  0.85600 4.46600 31.55800
H  1.59200 6.13000 31.30900
H  1.44600 4.77100 30.08700
H  -2.32600 7.35900 31.66100
H  -2.09100 9.04000 30.89700
H  -1.56800 9.82400 32.84600
H  -0.21800 8.74200 32.92200
H  0.06600 1.58400 27.52000
H  -1.50400 1.16100 26.78600
H  -1.44000 2.25500 28.18700
H  -0.15500 0.76800 25.12600
H  -0.31300 0.31300 23.43000
H  -1.77300 0.64900 24.50000
H  -1.65700 7.14600 21.37600
H  0.33700 9.32700 21.55500
H  -0.03400 6.43300 19.74200
H  1.12500 6.13300 21.04300
H  1.04200 7.65500 20.20100
H  -2.47000 9.17100 20.65800
H  -1.37600 10.56200 20.70700
H  -2.96600 9.73600 23.13300
H  -3.63600 10.84300 21.88400
H  -2.25300 11.28800 22.92600
H  1.02700 13.02200 24.61000
H  1.10400 13.53600 26.26500
H  -0.38900 13.73100 25.32200
H  -0.37600 11.13300 30.49500
H  2.56500 12.10800 32.91800
H  3.51500 10.71700 32.33800
H  2.26300 10.50800 33.47300
Mg 6.21800 52.93800 41.77800
C  5.53200 49.40500 41.40900
C  9.07600 52.50900 40.07400
C  6.49800 56.14000 41.83500
C  3.00500 53.16700 43.29800
N  7.12600 51.19400 40.91200
C  6.71100 49.93100 40.82000
C  7.68200 49.13800 39.92100
C  8.98900 49.99300 39.92200
C  8.37400 51.35900 40.30500
C  9.97700 49.41800 40.94900
C  7.00600 49.02900 38.53400
C  7.46500 47.81300 37.78800
H  7.92500 48.08200 36.30500
N  7.61900 54.24300 41.05700
C  8.74400 53.84100 40.41600
C  9.53100 55.03600 40.09000
C  8.77600 56.19200 40.50500
C  7.57000 55.53800 41.17100
C  10.79300 54.98500 39.29100
C  9.14200 57.65100 40.28600
O  10.23100 57.98400 39.74700
C  8.06100 58.69400 40.46700
N  4.79800 54.44700 42.22000
C  5.29800 55.71900 42.32400
C  4.35900 56.64300 42.98200
C  3.24000 55.70700 43.49900
C  3.70000 54.29700 43.01800
C  4.88200 57.69900 44.09000
C  1.81200 56.15900 43.08300
C  0.74900 55.95800 44.07200
N  4.52600 51.60200 42.19600
C  3.33300 51.86600 42.83600
C  2.63400 50.62700 43.19100
C  3.44100 49.60600 42.59200
C  4.63000 50.26400 42.05800
C  1.37500 50.43800 43.90400
C  3.63500 48.16400 42.49000
O  2.95700 47.28200 42.93700
C  4.96000 47.92900 41.57100
C  4.59200 47.18300 40.36300
O  3.50400 47.28200 39.82400
O  5.51200 46.21900 40.12500
C  5.09500 45.04100 39.36000
H  10.04200 52.41600 39.57400
H  6.65300 57.21300 41.96000
H  2.00200 53.33100 43.69800
H  7.85900 48.19900 40.44400
H  9.51300 50.03400 38.96700
H  10.91200 49.24800 40.41400
H  9.67900 48.46300 41.38000
H  10.26000 50.21500 41.63600
H  7.24400 49.86500 37.87500
H  5.94600 48.84100 38.69900
H  6.67600 47.07600 37.63300
H  8.26900 47.35500 38.36500
H  11.20300 54.04300 38.92700
H  11.53700 55.32700 40.01000
H  10.77200 55.67400 38.44600
H  8.47600 59.59900 40.02200
H  8.04200 59.05100 41.49700
H  7.09600 58.39500 40.05900
H  4.02200 57.29000 42.17200
H  3.43300 55.58400 44.56400
H  5.85400 58.17400 43.95400
H  4.61300 57.46000 45.11900
H  4.22100 58.49400 43.74500
H  1.60500 55.66700 42.13200
H  1.88100 57.24600 43.02800
H  0.09200 55.17700 43.68700
H  0.15600 56.84000 44.31100
H  1.09300 55.46100 44.97900
H  1.35300 51.15600 44.72400
H  1.31900 49.43100 44.31700
H  0.51100 50.57500 43.25400
H  5.63700 47.32600 42.17600
H  4.03300 44.84400 39.50300
H  5.75700 44.25400 39.72300
H  5.28700 45.22100 38.30200

