158

Mg 1.75700 -1.35400 43.71300
C  5.11700 -0.54400 43.46900
C  0.88300 1.77800 42.22700
C  -1.34600 -2.46100 43.14100
C  2.81000 -4.55800 44.83300
N  2.91700 0.39100 42.90400
C  4.27900 0.49900 42.98000
C  4.74700 1.82800 42.18800
C  3.37800 2.49800 41.89200
C  2.30100 1.52300 42.37100
C  3.31700 3.98400 42.45500
C  5.60500 1.60100 40.90900
C  6.78800 2.61400 40.68900
H  6.73200 3.35000 39.35600
N  -0.04600 -0.47400 42.81800
C  -0.19700 0.80600 42.32900
C  -1.48900 0.90700 41.71300
C  -2.16400 -0.32500 41.96900
C  -1.16700 -1.16600 42.71300
C  -1.98400 2.05100 40.83600
C  -3.53100 -0.73300 41.53300
O  -4.24200 0.08400 40.84500
C  -4.24700 -1.93400 42.00300
N  0.87000 -3.25200 43.83600
C  -0.51700 -3.41600 43.78900
C  -0.93200 -4.77700 44.37100
C  0.39400 -5.37900 44.95800
C  1.45000 -4.34700 44.45900
C  -2.20000 -4.90100 45.28200
C  0.57800 -6.87200 44.51900
C  0.96300 -7.88000 45.65600
N  3.56800 -2.35800 44.16200
C  3.81200 -3.63000 44.68400
C  5.26000 -3.82700 44.85400
C  5.82400 -2.58200 44.42600
C  4.74800 -1.77400 43.94400
C  5.94900 -5.12300 45.25100
C  7.03900 -1.84200 44.18200
O  8.17100 -2.10700 44.49500
C  6.58300 -0.51500 43.54400
C  6.90300 0.58200 44.49000
O  6.38900 0.82600 45.54000
O  7.88800 1.35700 43.90600
C  8.54000 2.39200 44.74700
H  0.56500 2.70600 41.74500
H  -2.36500 -2.84900 43.19300
H  3.04700 -5.57000 45.17000
H  5.34100 2.35700 42.93300
H  3.28300 2.54900 40.80700
H  2.82700 4.02100 43.42800
H  2.81900 4.66700 41.76700
H  4.35200 4.32400 42.47700
H  4.98000 1.65700 40.01800
H  5.94800 0.56700 40.95400
H  7.70600 2.03800 40.80300
H  6.72400 3.42000 41.42100
H  -2.39100 1.68200 39.89400
H  -1.16000 2.68100 40.50200
H  -2.61500 2.66200 41.48100
H  -5.29700 -1.80600 41.74200
H  -4.16900 -2.06400 43.08200
H  -3.80900 -2.83400 41.57200
H  -1.27100 -5.27800 43.46400
H  0.44100 -5.32300 46.04500
H  -1.77900 -5.27100 46.21700
H  -2.96400 -5.56200 44.87500
H  -2.66000 -3.94900 45.54700
H  1.32700 -6.93400 43.73000
H  -0.31300 -7.28700 44.04800
H  0.87400 -7.38300 46.62200
H  1.98400 -8.22900 45.50300
H  0.43600 -8.83200 45.72000
H  6.91900 -5.06700 44.75800
H  5.53900 -6.04300 44.83500
H  6.03300 -5.23600 46.33200
H  7.06100 -0.39700 42.57200
H  8.09900 3.38800 44.73600
H  9.51800 2.63700 44.33400
H  8.66000 2.11800 45.79500
Mg 41.86700 7.92200 29.48300
C  43.74600 9.46400 31.86600
C  39.61800 6.76100 31.83600
C  40.42800 6.12500 27.05600
C  44.46300 8.87000 27.12100
N  41.63700 8.27500 31.51500
C  42.50800 8.90300 32.29700
C  42.08300 8.91000 33.79300
C  40.95800 7.87800 33.82300
C  40.64800 7.61000 32.31400
C  40.98900 6.62400 34.76200
C  41.71400 10.39600 34.33100
C  41.00600 10.37800 35.67400
H  41.24400 11.46200 36.78300
N  40.14600 6.80000 29.35900
C  39.39400 6.44600 30.48500
C  38.30400 5.65900 30.01200
C  38.43200 5.51600 28.60900
C  39.73800 6.06800 28.27600
C  37.20900 5.06200 30.95600
C  37.50500 4.85100 27.54300
O  37.83700 4.76100 26.40400
C  36.16700 4.43100 27.91600
N  42.46000 7.50200 27.42400
C  41.55900 6.83000 26.60300
C  41.91000 6.89100 25.13200
C  43.04200 7.95100 25.14200
C  43.36500 8.16600 26.65400
C  42.20900 5.56900 24.31500
C  42.74700 9.23100 24.38000
C  41.78400 10.24500 25.05400
N  43.69400 8.90600 29.45700
C  44.63100 9.13800 28.45900
C  45.76800 9.84900 29.00600
C  45.45500 10.01800 30.35400
C  44.23300 9.38900 30.56700
C  46.88900 10.45000 28.23600
C  45.94700 10.59000 31.60700
O  47.03100 11.11900 31.94200
C  44.75100 10.29800 32.67100
C  45.34900 9.69700 33.85900
O  45.98100 8.63300 33.87500
O  44.99500 10.46200 34.87100
C  45.61600 10.24000 36.13800
H  38.86300 6.43800 32.55500
H  40.03800 5.43300 26.30700
H  45.04000 9.37500 26.34300
H  42.84000 8.43100 34.41400
H  40.02800 8.33500 34.16000
H  40.85800 5.69500 34.20700
H  40.05800 6.68000 35.32600
H  41.84200 6.48300 35.42600
H  41.10200 10.75300 33.50200
H  42.60500 11.00500 34.48300
H  41.07500 9.40300 36.15600
H  39.93100 10.46600 35.51800
H  36.19400 5.38200 30.72200
H  37.38600 5.47200 31.95000
H  37.35100 3.98400 31.03900
H  35.67700 4.01400 27.03600
H  35.52600 5.27300 28.17800
H  36.24300 3.83300 28.82300
H  40.99600 7.27700 24.68100
H  43.84300 7.40200 24.64800
H  43.08500 5.57500 23.66700
H  41.32400 5.45900 23.68900
H  42.34500 4.79000 25.06500
H  42.27200 8.95300 23.44000
H  43.61100 9.84500 24.12500
H  41.05300 10.57200 24.31400
H  42.38300 11.11600 25.32100
H  41.11900 9.76200 25.77000
H  47.37100 9.58800 27.77500
H  47.52100 10.86700 29.02000
H  46.43700 11.12700 27.51100
H  44.17500 11.13800 33.05700
H  44.92400 9.62200 36.70900
H  45.96900 11.19000 36.54000
H  46.53800 9.67100 36.01600

