158

Mg 47.29900 35.95700 28.98600
C  45.78800 34.06700 31.41900
C  47.72400 38.54100 31.43900
C  48.11000 38.13500 26.56300
C  46.37800 33.50800 26.58300
N  46.91600 36.24300 31.15000
C  46.32300 35.26100 31.92200
C  46.46800 35.60200 33.42900
C  46.49000 37.19800 33.29200
C  47.04500 37.42600 31.86300
C  45.07900 37.77800 33.56400
C  47.78700 35.08400 34.01100
C  47.82300 34.67000 35.47400
H  47.00400 35.39200 36.47900
N  48.05000 37.98400 28.97400
C  48.14500 38.86500 30.05800
C  48.76100 40.08700 29.68100
C  48.91500 39.98200 28.25500
C  48.44200 38.64800 27.87400
C  48.94100 41.25500 30.64700
C  49.54000 40.93600 27.24100
O  49.97600 40.55600 26.19200
C  49.84000 42.36600 27.62900
N  47.22000 35.88200 26.94900
C  47.65600 36.89000 26.13700
C  47.48100 36.57200 24.64800
C  46.94400 35.06400 24.68400
C  46.93900 34.73100 26.18400
C  46.42500 37.50500 24.01100
C  47.84100 34.12900 23.83700
C  47.10900 33.01600 23.17300
N  46.25500 34.18000 28.95500
C  46.05700 33.23000 27.96300
C  45.43500 32.04800 28.51600
C  45.24200 32.35200 29.89300
C  45.86200 33.62200 30.06400
C  45.12300 30.75400 27.76800
C  44.72200 31.84200 31.12600
O  44.20100 30.78800 31.50500
C  44.94600 33.01000 32.10500
C  45.46500 32.45900 33.43700
O  46.58100 32.07400 33.61900
O  44.45300 32.30300 34.27700
C  44.68000 31.50000 35.46000
H  47.69600 39.35900 32.16200
H  48.15300 38.89400 25.77900
H  46.07400 32.73500 25.87400
H  45.61000 35.24800 34.00100
H  47.15500 37.66100 34.02100
H  45.18200 38.31000 34.50900
H  44.31500 37.00400 33.63700
H  44.82700 38.48000 32.76900
H  48.62900 35.74100 33.79400
H  47.99200 34.21800 33.38100
H  48.87100 34.64300 35.77200
H  47.33900 33.69700 35.55600
H  48.25200 41.34400 31.48600
H  48.84100 42.20500 30.12200
H  49.93000 41.22500 31.10300
H  50.71300 42.27400 28.27500
H  48.91100 42.69800 28.09100
H  49.91700 43.08000 26.80900
H  48.43300 36.61100 24.11900
H  45.89400 35.10200 24.39400
H  45.98800 38.09100 24.82000
H  45.68100 37.00800 23.38700
H  46.96100 38.18600 23.35000
H  48.52800 33.60500 24.50100
H  48.28400 34.69400 23.01700
H  47.11000 33.17500 22.09400
H  46.04400 32.94400 23.39200
H  47.57300 32.04600 23.35500
H  44.99700 29.86600 28.38800
H  45.90500 30.42800 27.08200
H  44.20700 30.92900 27.20400
H  44.00500 33.53200 32.28100
H  45.45900 30.75000 35.31800
H  43.72600 31.02400 35.68800
H  44.99500 32.07900 36.32800
Mg 0.17600 43.73600 24.85900
C  2.41700 43.06300 27.47100
C  -2.38800 42.94700 27.09400
C  -2.16400 44.06800 22.28200
C  2.68000 43.98100 22.74100
N  0.08700 42.96200 27.05900
C  1.11400 42.98400 27.95700
C  0.65400 42.81400 29.38200
C  -0.85100 42.56600 29.23600
C  -1.09100 42.74900 27.68000
C  -1.46600 41.26700 29.76300
C  1.01000 44.08100 30.24000
C  1.26100 43.84500 31.78700
H  1.22900 42.49000 32.47800
N  -1.88900 43.52700 24.71600
C  -2.73100 43.13400 25.76100
C  -4.10500 43.14300 25.26700
C  -4.06300 43.48900 23.84500
C  -2.63200 43.75500 23.57000
C  -5.38200 42.95600 26.12300
C  -5.20200 43.59300 22.82000
O  -5.03600 43.91300 21.63800
C  -6.64100 43.31200 23.18400
N  0.28400 44.26100 22.89000
C  -0.77500 44.30300 21.95500
C  -0.27400 44.58000 20.51500
C  1.21600 44.85600 20.79400
C  1.41600 44.33000 22.23700
C  -0.50900 43.58600 19.30600
C  1.67100 46.24000 20.41300
C  0.90600 47.42500 21.12900
N  2.19000 43.52000 24.96800
C  3.14700 43.61400 24.01200
C  4.45500 43.36100 24.52800
C  4.24400 43.19900 25.90300
C  2.87500 43.26100 26.12400
C  5.78000 43.60800 23.69100
C  4.88400 42.96800 27.15100
O  6.07200 42.84700 27.46200
C  3.67200 42.88100 28.23600
C  3.88300 41.54900 28.94000
O  4.06600 40.44700 28.46800
O  3.94700 41.90800 30.25000
C  4.26200 40.69600 31.10100
H  -3.15300 42.83400 27.86500
H  -2.75500 44.01700 21.36500
H  3.48300 44.12800 22.01600
H  1.11500 41.91900 29.79900
H  -1.46800 43.35600 29.66500
H  -2.33100 41.44600 30.40200
H  -0.84400 40.75600 30.49700
H  -1.81900 40.67800 28.91600
H  0.11700 44.70500 30.27800
H  1.87800 44.55700 29.78300
H  0.51300 44.48100 32.26000
H  2.27500 44.18700 31.99400
H  -5.84300 43.90200 26.40900
H  -5.11500 42.53300 27.09200
H  -6.20400 42.31900 25.79600
H  -6.88700 43.93700 24.04300
H  -6.75900 42.29300 23.55200
H  -7.35500 43.67200 22.44400
H  -0.75300 45.53800 20.31100
H  1.83200 44.20200 20.17700
H  -1.01000 44.23000 18.58400
H  -1.19100 42.76800 19.53500
H  0.37200 43.21800 18.78000
H  1.70100 46.44500 19.34300
H  2.69000 46.26000 20.80000
H  1.56700 48.10600 21.66500
H  0.19800 47.19500 21.92500
H  0.29800 47.88000 20.34700
H  6.40600 42.76400 23.98100
H  6.33900 44.49600 23.98800
H  5.67300 43.64700 22.60700
H  3.70600 43.65200 29.00500
H  4.83000 39.91900 30.58900
H  3.31000 40.29200 31.44400
H  4.84300 41.08700 31.93700

