158

Mg 43.08900 4.32200 47.14700
C  40.84600 7.04800 46.91300
C  40.33900 2.25100 47.26700
C  45.12000 1.77400 47.02400
C  45.73000 6.50000 46.82800
N  40.86500 4.65200 47.23500
C  40.25600 5.81500 47.05100
C  38.71000 5.62400 47.20900
C  38.54100 4.17100 47.63200
C  39.97100 3.59800 47.32800
C  37.92200 3.84300 49.01200
C  37.78400 6.09500 45.97800
C  38.31900 5.68900 44.53500
H  38.47500 6.63800 43.40300
N  42.74900 2.34000 47.02700
C  41.56900 1.64700 47.11500
C  41.78300 0.22100 47.11900
C  43.18600 0.06500 46.95200
C  43.77100 1.42400 47.02400
C  40.70500 -0.72400 47.06100
C  43.89900 -1.24700 46.70200
O  43.29500 -2.33200 46.80400
C  45.27100 -1.29000 46.18200
N  45.08900 4.15700 46.67500
C  45.73100 2.98100 46.96300
C  47.25700 3.08800 47.07000
C  47.42900 4.64600 46.90700
C  45.99600 5.15500 46.84400
C  47.85800 2.44000 48.31000
C  48.29800 5.09300 45.71000
C  49.76500 4.61100 45.70400
N  43.29000 6.37100 46.76100
C  44.45800 7.08600 46.77900
C  44.11900 8.52800 46.86300
C  42.64500 8.56000 46.85200
C  42.25600 7.20700 46.80400
C  45.06600 9.74200 46.60400
C  41.43600 9.43400 46.84400
O  41.30800 10.65300 47.02000
C  40.23800 8.49000 46.88700
C  39.35900 8.80100 47.99000
O  39.63600 8.52200 49.16400
O  38.20600 9.39600 47.53500
C  37.29700 9.84400 48.63900
H  39.44700 1.63900 47.41300
H  45.80100 0.92300 47.07200
H  46.53800 7.16800 47.13400
H  38.28900 6.24300 48.00200
H  37.88500 3.71000 46.89300
H  36.99900 3.28000 48.87100
H  37.60900 4.64500 49.68000
H  38.44800 3.11400 49.62900
H  37.50000 7.14500 46.03500
H  36.78600 5.66900 46.07700
H  37.58000 4.98400 44.15500
H  39.24100 5.14900 44.75200
H  39.79300 -0.34700 47.52500
H  40.84400 -1.64600 47.62600
H  40.52000 -0.93400 46.00700
H  45.97800 -1.06300 46.98000
H  45.48100 -0.61100 45.35500
H  45.64400 -2.18600 45.68600
H  47.59100 2.65400 46.12700
H  47.93700 4.95300 47.82100
H  47.12800 2.30000 49.10700
H  48.63700 3.12100 48.65500
H  48.20600 1.42500 48.12000
H  48.28700 6.18000 45.62600
H  47.82500 4.63300 44.84200
H  49.75200 3.72400 45.07000
H  50.21200 4.29700 46.64700
H  50.30500 5.46800 45.30100
H  45.76500 9.53300 45.79400
H  45.72100 9.89400 47.46200
H  44.47400 10.63800 46.41700
H  39.60400 8.49800 46.00000
H  37.80400 10.60300 49.23500
H  36.91800 9.01000 49.22900
H  36.48400 10.42900 48.21000
Mg 35.58700 1.56800 30.15500
C  33.19100 2.68300 32.58500
C  37.98000 1.76600 32.52100
C  37.88800 1.03800 27.75800
C  33.08300 2.06600 27.73000
N  35.46600 2.05200 32.29200
C  34.42800 2.44900 33.11200
C  34.91100 2.48400 34.54100
C  36.47300 2.42600 34.45800
C  36.65500 2.11600 32.94700
C  37.15800 3.82800 34.75000
C  34.24000 1.39200 35.40300
C  34.08700 1.71100 36.96800
H  34.99100 2.76400 37.65900
N  37.62300 1.25100 30.22600
C  38.46400 1.40500 31.24800
C  39.80400 1.13800 30.87000
C  39.74500 0.83900 29.48800
C  38.34300 0.99900 29.09500
C  40.88400 1.03600 31.91600
C  40.87500 0.44300 28.53800
O  40.71700 0.24000 27.33900
C  42.28100 0.21400 29.05900
N  35.53000 1.50200 28.15300
C  36.58800 1.33300 27.29200
C  36.23800 1.36400 25.81700
C  34.69100 1.24800 25.90600
C  34.38700 1.65300 27.36900
C  36.67900 2.67100 25.10700
C  34.02000 -0.03200 25.50900
C  33.68700 -0.12200 23.99700
N  33.55300 2.23100 30.10600
C  32.72400 2.39100 29.04300
C  31.42800 2.88100 29.50700
C  31.51600 2.92300 30.94500
C  32.82400 2.56200 31.23400
C  30.22300 3.06700 28.66700
C  30.84400 3.22000 32.14500
O  29.66200 3.52700 32.23900
C  31.93700 3.11000 33.31200
C  31.90100 4.46100 33.98100
O  32.13400 5.52300 33.46800
O  31.50000 4.31600 35.31500
C  31.31900 5.61800 36.01000
H  38.74300 1.65500 33.29400
H  38.65200 0.90500 26.98900
H  32.33300 2.16900 26.94200
H  34.71200 3.50300 34.87000
H  36.95700 1.60100 34.98200
H  36.50800 4.40600 35.40700
H  37.41300 4.31500 33.80800
H  38.06200 3.52800 35.27900
H  34.75900 0.43500 35.35100
H  33.21100 1.23600 35.07800
H  34.04600 0.73200 37.44500
H  33.06500 2.09000 36.98900
H  41.67800 0.38900 31.54300
H  40.47500 0.59000 32.82300
H  41.23700 2.01000 32.25300
H  42.51500 0.97600 29.80200
H  42.88800 0.32100 28.16000
H  42.32500 -0.82700 29.38000
H  36.84700 0.54100 25.44100
H  34.27200 1.96100 25.19600
H  37.05600 3.36700 25.85600
H  35.84000 3.21400 24.67300
H  37.46700 2.57300 24.36000
H  33.10300 -0.35900 26.00000
H  34.75000 -0.80400 25.75300
H  32.63400 -0.38100 23.88400
H  34.22200 -0.89800 23.44900
H  33.84300 0.77300 23.39500
H  29.35700 2.56400 29.09700
H  30.27200 2.60100 27.68300
H  30.00500 4.12800 28.54700
H  31.68200 2.35200 34.05200
H  30.81100 6.36200 35.39700
H  32.25800 6.03000 36.38100
H  30.63600 5.48400 36.84800

