158

Mg 16.54600 51.13300 25.60500
C  18.62700 50.18300 28.36800
C  14.27600 52.38600 27.87800
C  14.75700 52.44900 23.02900
C  19.01700 50.00600 23.51500
N  16.56400 51.33300 27.93600
C  17.49900 50.89200 28.87500
C  17.06400 51.23600 30.28400
C  15.55200 51.72800 30.09900
C  15.43500 51.79400 28.50400
C  14.47100 50.81000 30.78400
C  18.02300 52.26500 30.94100
C  17.92000 52.45500 32.43400
H  17.02800 51.58100 33.29700
N  14.83600 52.40600 25.50400
C  14.05500 52.76700 26.50300
C  12.97900 53.59200 26.11600
C  13.14300 53.64300 24.65800
C  14.27900 52.84000 24.34100
C  11.92600 54.13300 27.06300
C  12.28300 54.48900 23.66000
O  12.34300 54.23200 22.47400
C  11.45500 55.60300 24.15600
N  16.81500 51.17700 23.53200
C  15.92000 51.64100 22.62800
C  16.26600 51.33000 21.17200
C  17.74500 50.95900 21.40600
C  17.84000 50.59300 22.90500
C  15.47800 50.20600 20.44500
C  18.69500 52.19600 21.09400
C  19.78500 51.77800 20.04900
N  18.33900 50.10700 25.82100
C  19.22900 49.75300 24.88200
C  20.33200 49.02800 25.52100
C  20.16300 49.23700 26.92700
C  18.91300 49.97300 27.04800
C  21.47900 48.40000 24.82100
C  20.76900 48.98700 28.17300
O  21.81300 48.41100 28.46400
C  19.82900 49.73900 29.21600
C  19.47800 48.82000 30.33600
O  18.55300 47.98800 30.24600
O  20.15200 49.16200 31.49500
C  19.52000 48.54300 32.69800
H  13.56900 52.78700 28.60700
H  14.23200 52.82400 22.14800
H  19.79200 49.65600 22.82900
H  16.99800 50.37000 30.94300
H  15.49800 52.73800 30.50500
H  14.99400 49.99600 31.28600
H  13.81100 50.52600 29.96400
H  13.95800 51.42200 31.52600
H  17.83200 53.21500 30.44200
H  19.06000 51.97300 30.77500
H  17.65500 53.49300 32.63100
H  18.97400 52.32200 32.68000
H  11.01500 54.50100 26.59200
H  12.33900 54.77000 27.84600
H  11.46200 53.27800 27.55400
H  10.43100 55.35400 24.43400
H  11.50500 56.21500 23.25600
H  11.96100 56.08800 24.99100
H  16.14300 52.26500 20.62600
H  18.04600 50.01200 20.95900
H  14.64000 50.02700 21.11800
H  15.91600 49.26700 20.10700
H  14.93800 50.62500 19.59600
H  19.33600 52.46400 21.93400
H  18.13600 52.96700 20.56300
H  20.78300 51.88200 20.47500
H  19.91100 52.38400 19.15200
H  19.57100 50.73800 19.80300
H  21.00600 47.55200 24.32600
H  22.10900 47.87500 25.54000
H  21.98800 49.05300 24.11200
H  20.40900 50.52800 29.69500
H  19.93200 49.03700 33.57700
H  19.72500 47.47300 32.72100
H  18.43500 48.64600 32.69000
Mg 9.53000 47.52100 25.49400
C  7.34900 47.77300 28.22400
C  12.01600 48.83100 27.45000
C  11.63200 47.40700 22.84600
C  6.80600 46.79200 23.40900
N  9.57200 48.25100 27.60400
C  8.65200 48.16300 28.60000
C  9.21000 48.79700 29.88100
C  10.65700 49.39400 29.51200
C  10.77300 48.77200 28.09000
C  10.68500 50.95300 29.63100
C  9.40100 47.67300 31.02700
C  8.60300 47.87100 32.33400
H  8.84700 46.76700 33.47200
N  11.58200 47.90900 25.25600
C  12.41300 48.47700 26.16100
C  13.80800 48.45200 25.60500
C  13.69700 48.00300 24.22900
C  12.26800 47.69400 24.08000
C  15.02800 48.98800 26.35500
C  14.79000 47.66200 23.23000
O  14.56600 47.21300 22.12400
C  16.23700 47.80800 23.71800
N  9.16800 47.40500 23.33500
C  10.25100 47.20800 22.56200
C  9.78400 46.82700 21.16400
C  8.27300 46.52900 21.30300
C  8.06800 46.84700 22.77900
C  10.27000 47.67200 19.94100
C  7.90200 45.03700 20.90500
C  8.10100 43.84100 21.87900
N  7.47500 47.33300 25.69200
C  6.51300 47.02000 24.78100
C  5.23000 46.93900 25.48300
C  5.56700 47.14300 26.85300
C  6.93800 47.46400 26.93700
C  3.86300 46.79500 24.93400
C  5.00400 47.11100 28.13400
O  3.86900 46.77800 28.49700
C  6.14000 47.58100 29.12100
C  6.20600 46.50400 30.14600
O  6.95300 45.56400 30.10000
O  5.24600 46.73200 31.14500
C  4.86800 45.51800 31.88700
H  12.72400 49.43700 28.02000
H  12.34900 47.37000 22.02300
H  5.97900 46.45400 22.78100
H  8.54200 49.55400 30.29000
H  11.49700 49.06300 30.12200
H  9.91800 51.39900 30.26400
H  10.45000 51.26500 28.61300
H  11.64900 51.37000 29.92300
H  10.42800 47.64000 31.39000
H  9.14300 46.72500 30.55600
H  7.54100 47.71500 32.14400
H  8.71000 48.90500 32.66300
H  14.68600 49.15400 27.37700
H  15.36600 49.92100 25.90300
H  15.81800 48.23800 26.35500
H  16.99400 47.79300 22.93400
H  16.29900 46.99500 24.44200
H  16.48700 48.70900 24.27900
H  10.15700 45.80600 21.08200
H  7.65700 47.23700 20.74800
H  9.42800 48.18600 19.47800
H  10.70100 46.98400 19.21300
H  11.02800 48.35400 20.32800
H  8.29700 44.87900 19.90200
H  6.83100 45.07300 20.70600
H  8.50500 44.25100 22.80400
H  8.73400 43.05500 21.46600
H  7.07800 43.46600 21.91300
H  3.75400 47.25100 23.95000
H  3.13100 47.02900 25.70700
H  3.60200 45.74300 24.82300
H  5.85400 48.55600 29.51400
H  3.78300 45.42000 31.84800
H  5.22300 45.86100 32.85900
H  5.35800 44.56800 31.67600

