158

Mg 35.09000 1.66600 29.51900
C  32.98300 2.58800 32.14000
C  37.59800 1.54700 31.52300
C  37.00900 1.53400 26.74800
C  32.32800 2.15500 27.31300
N  35.24700 2.13000 31.55200
C  34.34400 2.40400 32.48300
C  34.88900 2.50800 33.91400
C  36.35800 2.22500 33.71100
C  36.45300 1.97200 32.17900
C  37.31100 3.30600 34.37600
C  34.20300 1.59300 34.92600
C  33.57600 2.31500 36.16000
H  34.39800 3.43200 36.86600
N  36.96300 1.30500 29.20500
C  37.91500 1.25400 30.17400
C  39.14000 0.74400 29.62500
C  38.94000 0.81400 28.22200
C  37.59100 1.23700 27.99800
C  40.26600 0.35500 30.49100
C  39.94500 0.55900 27.12400
O  39.68400 0.75600 25.95400
C  41.37400 0.11000 27.53100
N  34.70200 1.91300 27.33000
C  35.70700 1.83100 26.41400
C  35.19000 1.95900 24.93200
C  33.63300 1.67200 25.19300
C  33.53900 1.91900 26.71700
C  35.50700 3.36300 24.27800
C  33.25800 0.18500 24.86300
C  31.94200 -0.00400 24.05300
N  33.06200 2.28200 29.63400
C  32.13000 2.43500 28.70400
C  30.84600 2.85000 29.28600
C  31.20400 2.98700 30.63100
C  32.51400 2.59900 30.77800
C  29.53500 3.05900 28.60700
C  30.70000 3.23900 31.94900
O  29.61100 3.62800 32.31700
C  31.82900 3.11000 32.96000
C  31.99900 4.42100 33.64500
O  32.56500 5.38800 33.15900
O  31.22900 4.46600 34.77500
C  31.16900 5.75300 35.41300
H  38.47500 1.50300 32.17200
H  37.71200 1.56200 25.91300
H  31.42200 2.19600 26.70600
H  34.77100 3.56700 34.14300
H  36.58300 1.32700 34.28600
H  37.96400 2.94400 35.17000
H  36.86500 4.27200 34.61500
H  37.97700 3.68100 33.59800
H  34.96200 0.92100 35.32800
H  33.44400 0.97400 34.44800
H  33.49100 1.57000 36.95100
H  32.60900 2.70300 35.84100
H  40.55600 -0.69200 30.40400
H  40.13900 0.66000 31.53000
H  41.06000 0.98400 30.08900
H  41.04300 -0.86800 27.87800
H  41.90900 0.83400 28.14600
H  41.98500 -0.11100 26.65500
H  35.62100 1.29800 24.18000
H  33.00700 2.43700 24.73400
H  35.80400 3.99700 25.11300
H  34.61600 3.83200 23.86200
H  36.34200 3.35300 23.57700
H  33.15300 -0.43000 25.75700
H  34.07500 -0.25200 24.28900
H  31.21400 -0.54400 24.65900
H  32.07300 -0.47600 23.07900
H  31.58700 1.02300 23.97300
H  29.45800 2.82600 27.54500
H  29.12100 4.06200 28.70900
H  28.83700 2.33500 29.02800
H  31.55900 2.39200 33.73400
H  32.16800 6.14700 35.60100
H  30.57500 5.63300 36.31900
H  30.65700 6.49300 34.79800
Mg -1.90100 33.69900 26.84500
C  -3.66800 31.77500 29.21900
C  -0.69700 35.60300 29.44000
C  -0.61700 35.77600 24.53500
C  -3.79000 32.07400 24.42900
N  -2.20300 33.70600 29.03500
C  -2.94000 32.77100 29.78700
C  -2.69100 32.98200 31.24700
C  -2.04900 34.41400 31.28400
C  -1.64000 34.59700 29.82900
C  -3.03000 35.50000 31.75600
C  -1.84600 31.82900 31.82500
C  -2.33700 31.26600 33.18400
H  -1.57500 31.92100 34.40000
N  -0.66900 35.39500 26.92900
C  -0.22800 35.98000 28.09000
C  0.64500 37.07800 27.77000
C  0.56000 37.18600 26.34400
C  -0.23300 36.07900 25.88600
C  1.36200 37.83800 28.87200
C  1.16500 38.23200 25.41800
O  0.99000 38.23200 24.19900
C  2.26200 39.10100 25.97400
N  -2.33900 33.97400 24.81600
C  -1.49800 34.80500 24.07200
C  -1.53800 34.44400 22.58800
C  -2.47500 33.16100 22.53600
C  -2.92000 33.01400 24.02000
C  -1.90300 35.67000 21.69300
C  -1.81700 31.83000 21.97700
C  -1.05800 30.88000 22.92600
N  -3.33300 32.11400 26.76400
C  -4.07000 31.65800 25.74700
C  -4.89400 30.54700 26.17500
C  -4.75100 30.45300 27.52600
C  -3.88100 31.53400 27.83700
C  -5.64000 29.52300 25.29500
C  -5.10100 29.75800 28.76600
O  -5.76900 28.76800 28.88500
C  -4.38100 30.55600 29.92400
C  -5.40900 30.95800 30.95200
O  -6.17600 31.87500 30.82300
O  -5.36600 30.21800 32.13900
C  -6.20700 30.64800 33.23400
H  -0.23900 35.96600 30.36200
H  -0.26700 36.33000 23.66200
H  -4.34100 31.45500 23.71800
H  -3.67000 33.04200 31.72300
H  -1.21800 34.58400 31.96800
H  -3.85500 35.08400 32.33300
H  -3.47100 36.03600 30.91500
H  -2.53300 36.21900 32.40800
H  -0.84400 32.24200 31.94200
H  -1.75200 31.02100 31.10000
H  -2.09300 30.20700 33.26800
H  -3.41400 31.41200 33.26500
H  2.42100 37.68300 28.66400
H  0.99000 37.63500 29.87600
H  1.28200 38.92100 28.78300
H  1.76400 39.86200 26.57500
H  2.78000 39.59100 25.14900
H  2.99100 38.49900 26.51500
H  -0.50600 34.12400 22.44300
H  -3.40900 33.29400 21.98900
H  -2.60600 35.45500 20.88800
H  -1.03500 35.94800 21.09500
H  -2.32100 36.49800 22.26500
H  -1.17400 31.95200 21.10600
H  -2.70000 31.32700 21.58100
H  -0.55400 31.33600 23.77800
H  -0.40000 30.28400 22.29300
H  -1.90500 30.27700 23.25300
H  -6.16000 29.98100 24.45400
H  -6.48200 29.07300 25.82000
H  -4.91700 28.76200 25.00000
H  -3.72700 29.81100 30.37900
H  -5.81700 31.47800 33.82500
H  -6.10400 29.82300 33.93900
H  -7.26300 30.81300 33.02400

