158

Mg 49.17200 34.73400 26.69000
C  47.34500 33.65700 29.35200
C  49.02900 38.04100 27.87100
C  50.77300 35.93000 23.95000
C  48.28400 31.75000 25.03000
N  48.24400 35.65200 28.45200
C  47.76700 34.95600 29.52000
C  47.47500 35.88700 30.73900
C  47.65700 37.31700 30.05400
C  48.35600 37.01900 28.68400
C  46.39500 38.24100 29.99100
C  48.30400 35.60200 32.03500
C  47.52400 35.17400 33.26900
H  47.03200 36.29900 34.22300
N  49.96400 36.61000 26.12600
C  49.83900 37.82200 26.76200
C  50.80200 38.74500 26.17400
C  51.42500 38.08500 25.09200
C  50.73100 36.84900 25.00500
C  50.89500 40.13400 26.63100
C  52.47300 38.55500 24.11700
O  52.93100 37.87000 23.23200
C  52.93200 39.96400 24.24300
N  49.31200 33.99400 24.60200
C  50.10700 34.65400 23.70600
C  50.21100 33.79700 22.41100
C  49.58300 32.42800 22.83700
C  49.07300 32.68200 24.26900
C  49.64200 34.38100 21.12200
C  50.50200 31.26300 22.61800
C  49.95200 30.06400 21.72200
N  47.94200 33.05100 26.99700
C  47.75000 31.91600 26.32400
C  47.06300 30.92600 27.08100
C  46.87300 31.56800 28.29000
C  47.37700 32.88100 28.17800
C  46.61700 29.58700 26.65900
C  46.27200 31.41300 29.67600
O  45.66300 30.47500 30.13600
C  46.61000 32.79000 30.45300
C  47.48500 32.48900 31.58300
O  48.71300 32.38300 31.52700
O  46.72700 32.17800 32.64600
C  47.31900 31.34500 33.64200
H  48.87800 39.07800 28.17800
H  51.27400 36.33000 23.06600
H  48.17300 30.77700 24.54800
H  46.42300 35.77200 30.99700
H  48.40000 37.85300 30.64400
H  46.63800 39.04900 30.68100
H  45.53700 37.74200 30.44100
H  46.25000 38.63600 28.98500
H  48.88700 36.47300 32.33400
H  49.00000 34.79600 31.80200
H  48.18600 34.50500 33.82100
H  46.61600 34.61600 33.04000
H  50.38400 40.75600 25.89700
H  51.88800 40.55100 26.79800
H  50.33900 40.30600 27.55300
H  53.40900 40.07500 25.21700
H  52.23000 40.79600 24.18400
H  53.73100 40.18300 23.53400
H  51.29000 33.72100 22.27600
H  48.63800 32.23200 22.33200
H  48.64500 33.97300 20.95600
H  50.14800 34.17000 20.18000
H  49.58800 35.46200 21.25400
H  50.88300 30.88400 23.56700
H  51.37100 31.57400 22.03700
H  49.56600 30.51500 20.80800
H  49.20000 29.41900 22.17700
H  50.89400 29.53000 21.59300
H  47.40700 28.91000 26.33200
H  45.92700 29.69200 25.82100
H  46.10900 29.10000 27.49200
H  45.74900 33.40500 30.71300
H  47.25100 30.32900 33.25400
H  46.76000 31.52200 34.56000
H  48.36200 31.55700 33.87900
Mg 5.68100 54.70200 40.79800
C  5.10100 51.17200 40.89300
C  8.81300 54.18600 39.44300
C  5.83400 58.03400 39.91200
C  2.28600 54.98100 41.60200
N  6.71100 52.91100 40.12300
C  6.33800 51.57400 40.37800
C  7.53700 50.66100 40.06000
C  8.80400 51.65300 39.92900
C  8.10400 53.06000 39.93400
C  9.99800 51.55800 40.98500
C  7.47200 49.78300 38.74000
C  6.68400 50.29800 37.58700
H  7.46200 50.60100 36.22600
N  7.18700 55.93200 39.85500
C  8.38100 55.53000 39.39500
C  9.09100 56.63600 38.84500
C  8.20800 57.78800 38.90500
C  7.00400 57.31700 39.61000
C  10.41800 56.62900 38.12700
C  8.55700 59.13800 38.26700
O  9.61200 59.40800 37.62700
C  7.65800 60.35900 38.34500
N  4.25200 56.23700 40.65100
C  4.63400 57.55200 40.41100
C  3.38400 58.47100 40.67000
C  2.28300 57.52300 41.17000
C  2.96300 56.16200 41.16500
C  3.69300 59.58400 41.66900
C  0.94700 57.42000 40.36400
C  -0.32300 57.51200 41.19500
N  4.05700 53.41500 41.33100
C  2.80000 53.70100 41.70300
C  2.03100 52.50800 42.09400
C  3.00400 51.47100 41.86000
C  4.12900 52.09000 41.26000
C  0.65000 52.40300 42.68100
C  3.21400 50.05100 41.92200
O  2.53600 49.16500 42.42500
C  4.57400 49.80400 41.10300
C  4.32200 49.09700 39.90000
O  3.79400 49.60600 38.91300
O  4.64200 47.76500 40.03900
C  4.40100 46.91100 38.91900
H  9.88300 53.98200 39.36500
H  5.84900 59.10200 39.68200
H  1.27000 55.06600 41.99400
H  7.72200 50.05400 40.94700
H  9.25200 51.46200 38.95400
H  10.08900 52.37700 41.69800
H  10.92100 51.50900 40.40600
H  9.91300 50.65200 41.58300
H  7.12400 48.80400 39.07000
H  8.50800 49.80000 38.40200
H  6.30600 51.24400 37.97400
H  5.87000 49.59400 37.41800
H  10.29700 56.82200 37.06100
H  10.99800 55.71900 38.27600
H  11.03300 57.44900 38.49800
H  8.04800 61.23200 37.82200
H  7.52700 60.72000 39.36500
H  6.71100 60.21400 37.82500
H  3.13400 58.78100 39.65500
H  2.14300 57.77300 42.22200
H  3.19400 59.45200 42.63000
H  3.32800 60.43200 41.08900
H  4.74200 59.76400 41.90100
H  1.01900 56.46700 39.84000
H  0.76300 58.21600 39.64300
H  -0.77300 58.43800 40.83500
H  -0.06900 57.49300 42.25500
H  -0.98500 56.66100 41.03800
H  0.80000 52.01400 43.68800
H  0.16700 51.54400 42.21500
H  0.09400 53.33000 42.53900
H  5.28300 49.25500 41.72200
H  4.53800 45.89700 39.29400
H  5.12000 46.98300 38.10200
H  3.39900 46.93800 38.49100

