158

Mg 40.18900 9.45900 29.65900
C  42.31800 10.37500 32.30100
C  37.99300 8.34500 32.02400
C  38.34400 8.29000 27.16700
C  42.98600 9.71400 27.49900
N  40.21500 9.16100 31.98300
C  41.10800 9.80200 32.79800
C  40.69900 9.72800 34.28200
C  39.23800 8.94000 34.15700
C  39.12600 8.76300 32.61600
C  39.14400 7.56600 34.89400
C  40.54000 11.06600 35.01100
C  41.39400 11.23200 36.28500
H  40.55400 11.73500 37.55400
N  38.37300 8.53900 29.62200
C  37.60500 8.17400 30.68500
C  36.36100 7.57600 30.18600
C  36.40000 7.67200 28.72100
C  37.71900 8.21600 28.42700
C  35.34600 6.93700 31.13700
C  35.36000 7.28500 27.67200
O  35.58100 7.32200 26.47200
C  33.98800 6.77500 28.14600
N  40.66400 8.92300 27.67200
C  39.62600 8.62700 26.81600
C  40.08900 8.54200 25.33400
C  41.48500 9.25400 25.36400
C  41.76500 9.24200 26.94500
C  40.15100 7.05000 24.77800
C  41.38300 10.68100 24.76000
C  40.21900 11.51800 25.12100
N  42.21200 10.01600 29.77100
C  43.20100 10.06100 28.83600
C  44.43800 10.56400 29.45300
C  43.99300 10.82900 30.74200
C  42.68700 10.35700 30.93500
C  45.71800 10.85200 28.73800
C  44.45700 11.35000 32.02800
O  45.54100 11.73600 32.33600
C  43.38600 11.03600 33.09300
C  44.08500 10.14300 34.05300
O  44.19200 8.94300 33.86200
O  44.44900 10.78700 35.18600
C  45.03300 10.01400 36.27100
H  37.27700 8.08700 32.80700
H  37.79300 7.90300 26.30700
H  43.76200 9.93400 26.76300
H  41.47100 9.12000 34.75500
H  38.33600 9.45300 34.49100
H  38.98800 6.85000 34.08800
H  38.25700 7.67100 35.51900
H  40.07900 7.36600 35.41800
H  39.49000 11.20500 35.27000
H  40.84300 11.93400 34.42700
H  42.22500 11.91600 36.10800
H  41.90700 10.30000 36.52100
H  34.41300 7.46400 30.93800
H  35.50000 7.21600 32.18000
H  35.38700 5.86000 30.97900
H  33.43400 7.51700 28.72100
H  34.25600 5.97100 28.83200
H  33.32600 6.30800 27.41700
H  39.38300 9.14800 24.76600
H  42.24000 8.82800 24.70400
H  41.18700 6.76400 24.59600
H  39.51900 6.72500 23.95100
H  39.81300 6.45200 25.62400
H  41.41900 10.70600 23.67100
H  42.27700 11.19300 25.11700
H  40.45900 12.40500 25.70700
H  39.47000 11.14100 25.81800
H  39.72200 11.95100 24.25300
H  46.03100 10.07200 28.04400
H  46.50300 11.05500 29.46700
H  45.62900 11.71100 28.07200
H  43.10800 12.01400 33.48600
H  45.57300 10.59300 37.02000
H  45.66200 9.17900 35.96500
H  44.13200 9.56500 36.68900
Mg 27.31300 49.82300 25.88100
C  25.56100 51.10800 28.45000
C  29.90500 48.93600 28.16100
C  29.11200 48.50300 23.21400
C  25.05100 50.88700 23.58600
N  27.72600 49.99200 28.02800
C  26.72100 50.40800 28.91900
C  27.08000 50.03800 30.33900
C  28.62100 49.66500 30.23900
C  28.79900 49.54300 28.73200
C  29.55600 50.77400 30.75200
C  26.16900 48.88200 30.92200
C  25.53700 49.17100 32.33100
H  26.31700 49.66900 33.51500
N  29.21500 48.89000 25.72900
C  30.12200 48.58800 26.77100
C  31.27300 47.80400 26.20000
C  30.91800 47.57300 24.84300
C  29.62900 48.29100 24.56000
C  32.50200 47.36100 27.01900
C  31.68100 46.71900 23.91700
O  31.45200 46.55100 22.72900
C  32.78500 45.85200 24.34900
N  27.19500 49.89300 23.62900
C  27.98600 49.15400 22.83200
C  27.41400 49.11100 21.37400
C  26.09800 49.96800 21.55300
C  26.14000 50.33800 22.95800
C  28.36300 49.69000 20.27100
C  24.85100 49.18400 21.17100
C  24.52400 48.99700 19.67900
N  25.68800 50.89000 25.97200
C  24.79900 51.24600 24.95800
C  23.64400 51.93600 25.57600
C  23.92600 51.82200 26.98800
C  25.17300 51.20200 27.13200
C  22.56700 52.68000 24.79800
C  23.45400 52.17200 28.31200
O  22.46800 52.87200 28.62000
C  24.46000 51.60200 29.31800
C  24.92700 52.67900 30.26600
O  25.62200 53.65900 29.98400
O  24.43500 52.42700 31.53100
C  25.08700 53.09500 32.59800
H  30.66500 48.68700 28.90400
H  29.54200 47.88600 22.42300
H  24.20900 51.15200 22.94300
H  27.01100 50.91600 30.98200
H  28.84900 48.73200 30.75400
H  29.78500 50.57700 31.79900
H  28.99900 51.70100 30.62000
H  30.48200 50.79100 30.17600
H  26.78700 47.99600 31.06500
H  25.45100 48.63400 30.14000
H  25.04500 48.25700 32.66500
H  24.70100 49.87100 32.31300
H  32.46700 47.49000 28.10100
H  33.24200 48.04800 26.60800
H  32.78700 46.32400 26.84100
H  32.31300 45.05200 24.92000
H  33.51700 46.49500 24.83800
H  33.25400 45.40600 23.47200
H  27.16700 48.11000 21.01900
H  26.17700 50.81600 20.87300
H  29.34600 49.78900 20.73200
H  28.10800 50.70900 19.97900
H  28.44100 49.11300 19.34900
H  23.90900 49.50300 21.61600
H  25.00400 48.19900 21.61200
H  23.47000 49.03900 19.40500
H  24.82700 47.95200 19.62100
H  25.19900 49.53400 19.01200
H  22.54100 52.57400 23.71400
H  22.59300 53.75700 24.96000
H  21.63000 52.37500 25.26500
H  24.02100 50.81900 29.93600
H  24.87300 54.16200 32.53300
H  26.14400 52.83800 32.66500
H  24.67100 52.71900 33.53300

