158

Mg 48.41400 34.74800 26.55600
C  46.78700 33.46700 29.51100
C  48.93200 37.67200 28.48000
C  49.36500 36.34800 23.84000
C  47.41600 32.03100 24.93700
N  48.04500 35.41800 28.77200
C  47.39400 34.67300 29.79400
C  47.65500 35.32500 31.11700
C  47.76400 36.81000 30.55100
C  48.33700 36.66000 29.17000
C  46.54500 37.75400 30.56700
C  48.99000 34.76900 31.72900
C  48.97400 34.70800 33.32000
H  47.99800 35.55700 34.01000
N  49.12200 36.70500 26.21300
C  49.29700 37.73500 27.12500
C  50.01300 38.80800 26.52400
C  50.23700 38.41000 25.17000
C  49.52600 37.11800 24.95400
C  50.54300 40.04400 27.31000
C  50.95400 39.19000 24.07200
O  51.03100 38.74600 22.92200
C  51.47700 40.55700 24.33700
N  48.08500 34.35800 24.55300
C  48.86300 35.02500 23.63900
C  48.96800 34.21900 22.31000
C  48.21400 32.87000 22.66700
C  47.98700 33.08500 24.14500
C  48.43800 35.03300 21.03700
C  48.98300 31.51900 22.22100
C  50.48400 31.39100 22.62800
N  47.18900 33.13700 27.00500
C  46.94400 32.01200 26.23200
C  46.24700 30.97300 26.98700
C  46.01000 31.57600 28.27200
C  46.70300 32.86600 28.24000
C  45.82500 29.58600 26.64500
C  45.40300 31.49900 29.54500
O  44.76300 30.57200 30.01300
C  45.72900 32.82500 30.31700
C  45.86200 32.62200 31.73100
O  46.91000 32.32100 32.30000
O  44.61900 32.66700 32.31000
C  44.53000 31.95400 33.57600
H  48.91800 38.58900 29.07400
H  49.80800 36.76800 22.93500
H  47.22600 31.11700 24.36900
H  46.77900 35.27900 31.76400
H  48.46500 37.29400 31.23100
H  46.09800 37.85500 29.57800
H  46.80300 38.78100 30.82800
H  45.83700 37.29200 31.25500
H  49.89700 35.28000 31.40500
H  49.11100 33.73700 31.40000
H  49.94200 35.02600 33.70500
H  48.76800 33.69400 33.66400
H  51.62100 39.99100 27.46700
H  49.89700 40.15800 28.18100
H  50.30300 41.00700 26.85900
H  50.74500 41.19000 24.84000
H  51.82100 40.96700 23.38700
H  52.39000 40.44400 24.92200
H  50.03500 34.09500 22.12900
H  47.25900 32.88800 22.14200
H  48.20900 36.02000 21.44000
H  47.50400 34.69800 20.58500
H  49.21500 35.18600 20.28800
H  48.87700 31.40100 21.14200
H  48.42800 30.66300 22.60500
H  51.07300 31.35300 21.71200
H  50.73300 30.48900 23.18700
H  50.82100 32.27500 23.16900
H  46.32400 29.48000 25.68200
H  44.76300 29.34500 26.68900
H  46.40700 28.90500 27.26600
H  44.89200 33.51800 30.22900
H  44.74700 30.91100 33.34700
H  43.52800 31.96900 34.00400
H  45.14400 32.39900 34.35900
Mg -12.50100 38.33500 41.52300
C  -10.65800 35.58800 40.49300
C  -10.47000 40.31000 39.86500
C  -14.74200 40.55800 42.01300
C  -14.94300 35.78900 42.75600
N  -10.94700 37.93700 40.17700
C  -10.25300 36.76700 39.91600
C  -8.99500 37.00600 39.14100
C  -8.86300 38.62400 39.06700
C  -10.18100 38.97400 39.77000
C  -7.63300 39.26000 39.81100
C  -8.99500 36.34500 37.67100
C  -7.75200 35.49400 37.26300
H  -6.78700 36.13700 36.26900
N  -12.59600 40.24300 41.07000
C  -11.61700 40.93000 40.43700
C  -11.96800 42.32200 40.46900
C  -13.22100 42.47800 41.13900
C  -13.56600 41.04400 41.47900
C  -11.07600 43.49100 39.83700
C  -13.90300 43.72700 41.42200
O  -13.50200 44.71400 40.86000
C  -15.15000 43.83200 42.24900
N  -14.47100 38.21100 42.45300
C  -15.19700 39.36100 42.45700
C  -16.60300 39.06300 42.93700
C  -16.73900 37.53900 43.02600
C  -15.33500 37.14100 42.74200
C  -16.96200 39.78700 44.29200
C  -17.71600 36.92700 42.07700
C  -17.39200 36.95600 40.56700
N  -12.67500 36.19900 41.81400
C  -13.66100 35.32300 42.41900
C  -13.19500 33.97400 42.41400
C  -11.99000 34.05800 41.69600
C  -11.77300 35.38700 41.28200
C  -13.82300 32.78900 43.07400
C  -11.00400 33.23500 41.19400
O  -10.85600 32.03100 41.19900
C  -10.01700 34.19600 40.44300
C  -8.69600 34.09000 41.11900
O  -8.54000 34.55700 42.24000
O  -7.75700 33.45700 40.35600
C  -6.43500 33.07600 40.99400
H  -9.80000 40.88000 39.21800
H  -15.52700 41.31100 41.91700
H  -15.63600 35.06100 43.18300
H  -8.19200 36.49400 39.67300
H  -8.91400 38.97800 38.03700
H  -7.82600 39.75000 40.76500
H  -7.14100 39.93300 39.10800
H  -6.95900 38.44000 40.06100
H  -9.20400 37.09600 36.90900
H  -9.88400 35.71400 37.66600
H  -8.01900 34.45900 37.04800
H  -7.18900 35.32600 38.18100
H  -11.17000 44.38800 40.44900
H  -11.31800 43.81700 38.82500
H  -10.03800 43.17100 39.92700
H  -15.95300 43.25700 41.79000
H  -15.59600 44.82600 42.26500
H  -14.97300 43.63500 43.30700
H  -17.35200 39.39100 42.21700
H  -16.97900 37.25500 44.05100
H  -17.50000 40.63400 43.86600
H  -16.07700 40.23500 44.74400
H  -17.56400 39.22400 45.00500
H  -18.68800 37.38900 42.25000
H  -17.93300 35.90500 42.39000
H  -17.37800 35.98900 40.06400
H  -16.36600 37.32300 40.54000
H  -18.09700 37.63400 40.08600
H  -13.84600 32.93300 44.15400
H  -13.27300 31.89700 42.77100
H  -14.83400 32.51100 42.77600
H  -10.02000 33.87700 39.40000
H  -5.99100 32.20000 40.52000
H  -6.50800 32.96800 42.07600
H  -5.88200 33.98300 40.74900

