158

Mg 24.96700 0.53300 30.47100
C  26.93700 0.59900 33.42000
C  22.17500 0.54800 32.42900
C  23.05100 0.09900 27.65500
C  27.77100 -0.15800 28.67300
N  24.61200 0.78900 32.67400
C  25.54900 0.78300 33.68500
C  24.88900 1.08100 35.08500
C  23.38000 0.85900 34.66700
C  23.31700 0.67000 33.12200
C  22.70200 -0.39500 35.40500
C  25.13100 2.52200 35.63100
C  26.14200 2.71500 36.71500
H  25.64200 3.46700 37.97400
N  22.88000 0.33600 30.13400
C  21.90200 0.42600 31.02500
C  20.62900 0.19800 30.44300
C  20.80300 0.11600 29.03600
C  22.30200 0.19900 28.88600
C  19.32300 0.33000 31.19100
C  19.79500 0.02500 27.89700
O  20.16300 -0.12800 26.77900
C  18.27700 -0.04300 28.21600
N  25.35300 -0.00100 28.42900
C  24.42600 0.02100 27.45600
C  25.08500 -0.01700 26.08200
C  26.61900 -0.03100 26.42100
C  26.59500 0.00200 27.93600
C  24.59400 -1.15700 25.26000
C  27.37500 1.21100 25.78500
C  28.70000 0.88600 25.00000
N  27.01100 0.35100 30.85100
C  27.98100 0.03100 30.00600
C  29.19900 0.04800 30.74600
C  28.89900 0.25200 32.09200
C  27.51600 0.37400 32.13500
C  30.52500 -0.38400 30.18900
C  29.43800 0.39300 33.48200
O  30.56800 0.32500 33.98800
C  28.17100 0.65400 34.38200
C  28.06800 -0.45600 35.44000
O  27.44200 -1.53200 35.34900
O  28.88700 -0.17200 36.49500
C  28.68200 -0.96900 37.67900
H  21.29500 0.53200 33.07500
H  22.46500 -0.01700 26.74200
H  28.68400 -0.33500 28.10100
H  25.14600 0.24400 35.73400
H  22.70500 1.68600 34.88800
H  22.48600 -1.10400 34.60500
H  21.72500 -0.12100 35.80400
H  23.26900 -0.78000 36.25200
H  24.13900 2.90100 35.87700
H  25.50400 3.09300 34.78100
H  26.90300 3.39600 36.33700
H  26.65400 1.77500 36.92100
H  18.73100 1.11900 30.72800
H  19.42700 0.47300 32.26700
H  18.76500 -0.58700 31.00100
H  17.95600 0.92600 28.59800
H  18.07000 -0.88100 28.88200
H  17.69200 -0.30200 27.33300
H  24.73300 0.88600 25.58400
H  27.16100 -0.91500 26.08600
H  25.47900 -1.65200 24.86100
H  23.96200 -0.83400 24.43300
H  24.05300 -1.89800 25.84800
H  27.76500 1.81600 26.60400
H  26.73600 1.95700 25.31300
H  28.75400 1.47700 24.08600
H  28.51500 -0.12200 24.63100
H  29.56000 1.00200 25.66000
H  31.04900 0.52400 29.88900
H  30.46800 -1.00800 29.29700
H  31.10000 -0.97100 30.90500
H  28.25100 1.68000 34.74200
H  27.74100 -0.70700 38.16200
H  29.53400 -0.87500 38.35300
H  28.63400 -2.03700 37.46800
Mg 36.50100 49.77900 25.69400
C  36.84300 47.66700 28.33800
C  35.48400 52.36100 27.60200
C  36.11700 51.70200 22.79300
C  37.39500 47.07600 23.51500
N  36.10000 49.96400 27.76200
C  36.52000 49.05200 28.67400
C  36.37700 49.67800 30.07800
C  35.71200 51.08900 29.80000
C  35.76000 51.15600 28.27900
C  34.42000 51.28000 30.60800
C  37.74700 49.67700 30.83000
C  37.76700 49.71900 32.32600
H  36.53100 49.85900 33.27200
N  35.91200 51.76400 25.28700
C  35.60800 52.70200 26.24100
C  35.53000 53.95600 25.63800
C  35.74800 53.80200 24.25800
C  35.96300 52.33400 24.03600
C  35.30900 55.17900 26.51300
C  35.78900 54.92200 23.16000
O  36.06100 54.73800 21.96100
C  35.38700 56.22900 23.47400
N  36.70800 49.43300 23.48300
C  36.47600 50.36000 22.48400
C  36.58700 49.76800 21.07100
C  37.08900 48.27300 21.30700
C  37.00500 48.23800 22.81600
C  35.31300 49.81000 20.21900
C  38.54100 47.98400 20.78600
C  38.81700 46.60100 20.27900
N  37.08300 47.76800 25.84700
C  37.44700 46.76900 24.93800
C  37.66800 45.55400 25.55700
C  37.45300 45.79900 26.95700
C  37.08800 47.17400 27.04300
C  37.86300 44.26300 24.81400
C  37.33400 45.24500 28.29300
O  37.45600 44.08000 28.69300
C  37.09000 46.48400 29.30300
C  35.83500 46.09200 29.98400
O  34.70000 46.10100 29.51200
O  36.07500 45.94900 31.31500
C  34.91500 45.80100 32.22100
H  35.14700 53.17600 28.24700
H  36.09600 52.29200 21.87500
H  37.76100 46.29300 22.84800
H  35.77400 48.96600 30.64100
H  36.36100 51.88600 30.16300
H  34.39000 50.69800 31.52900
H  33.57100 51.29100 29.92500
H  34.46600 52.30300 30.98300
H  38.35200 50.49300 30.43500
H  38.36300 48.81800 30.56400
H  38.53900 50.44600 32.57900
H  38.25100 48.78300 32.60600
H  36.02900 55.96700 26.29400
H  35.55000 55.06300 27.57000
H  34.32300 55.59100 26.29600
H  35.95700 56.50900 24.36000
H  34.32500 56.12900 23.69600
H  35.56800 56.90500 22.63800
H  37.39400 50.24000 20.51100
H  36.43200 47.52000 20.87000
H  34.98800 48.93200 19.66200
H  35.31100 50.73100 19.63600
H  34.46200 50.01800 20.86700
H  39.13000 47.97600 21.70300
H  38.90400 48.68300 20.03300
H  38.96000 46.66500 19.20000
H  38.03900 45.86800 20.49300
H  39.71300 46.33200 20.83900
H  38.17300 44.35100 23.77300
H  36.96400 43.65200 24.73100
H  38.50700 43.66000 25.45400
H  37.91000 46.69000 29.99100
H  35.21900 45.56600 33.24100
H  34.29200 44.97800 31.87100
H  34.43200 46.77800 32.23400

