158

Mg 26.21900 -0.08900 29.25200
C  28.15600 -0.32700 32.28400
C  23.47300 0.35100 31.28200
C  24.42900 0.05100 26.48700
C  29.00200 -1.12900 27.52600
N  25.87000 0.02300 31.62400
C  26.82900 -0.02300 32.63100
C  26.20500 0.39400 34.00900
C  24.65700 0.61600 33.65600
C  24.66800 0.25000 32.12200
C  23.63100 -0.16700 34.47900
C  26.82700 1.61700 34.73000
C  26.22100 2.08500 36.05200
H  27.04600 2.29900 37.25000
N  24.28500 0.18700 28.93800
C  23.28100 0.31200 29.88400
C  22.04900 0.57200 29.13200
C  22.27700 0.63200 27.74800
C  23.68100 0.26500 27.67900
C  20.73200 1.03300 29.79800
C  21.35700 0.88300 26.55000
O  21.72600 0.79500 25.40800
C  19.92000 1.35800 26.78300
N  26.59800 -0.50400 27.27400
C  25.73300 -0.24000 26.28300
C  26.38600 -0.20800 24.89500
C  27.83000 -0.76400 25.18800
C  27.84400 -0.82100 26.76100
C  25.55100 -0.96100 23.78100
C  28.96800 0.17500 24.66800
C  30.00300 -0.53600 23.79500
N  28.14900 -0.65500 29.75000
C  29.19100 -1.06800 28.87500
C  30.43800 -1.28900 29.66000
C  29.97300 -1.06400 30.95200
C  28.65700 -0.56700 30.94600
C  31.80800 -1.66700 29.17400
C  30.47700 -0.97000 32.27500
O  31.59900 -1.13100 32.73100
C  29.37700 -0.44100 33.21400
C  29.22900 -1.29400 34.37300
O  28.68600 -2.37200 34.35000
O  29.75400 -0.81900 35.51500
C  29.55000 -1.43200 36.86400
H  22.63500 0.69500 31.89200
H  23.98800 0.30200 25.52000
H  29.84100 -1.30700 26.85000
H  26.38500 -0.48500 34.62900
H  24.49600 1.68100 33.82200
H  24.12100 -0.67600 35.30900
H  23.00700 -0.94900 34.04600
H  22.89100 0.44700 34.99100
H  26.95500 2.45900 34.04900
H  27.83600 1.30400 35.00000
H  25.36700 1.44600 36.27300
H  25.87900 3.09600 35.83000
H  20.57500 2.07500 29.51600
H  20.74000 0.92100 30.88200
H  19.92500 0.39700 29.43400
H  19.97200 2.37300 27.17700
H  19.21400 0.71400 27.30600
H  19.32500 1.47800 25.87700
H  26.39100 0.84400 24.61100
H  27.94800 -1.78700 24.83000
H  26.22100 -1.58600 23.19000
H  25.12300 -0.15200 23.19000
H  24.86200 -1.60100 24.33400
H  29.43700 0.53000 25.58600
H  28.67700 1.14300 24.26000
H  30.40700 0.11600 23.02000
H  29.66600 -1.47400 23.35500
H  30.83200 -0.90500 24.39900
H  32.09800 -1.05900 28.31700
H  31.72900 -2.73100 28.95000
H  32.58200 -1.52600 29.92900
H  29.62800 0.56900 33.53800
H  30.40600 -1.06800 37.43200
H  29.52700 -2.52000 36.80400
H  28.61600 -0.95300 37.15900
Mg 16.32100 50.34100 25.58100
C  18.26400 49.68400 28.58100
C  13.68100 50.82900 27.72300
C  14.63100 50.94200 22.91600
C  19.07000 49.16900 23.78900
N  16.09900 50.56200 27.86100
C  16.95200 50.25400 28.89400
C  16.39800 50.57200 30.27800
C  14.88800 50.59500 29.98600
C  14.83700 50.67300 28.37900
C  14.24300 49.28200 30.53700
C  17.01400 51.85100 30.79900
C  16.89900 52.08500 32.36200
H  15.90800 51.15300 33.12400
N  14.40900 50.85400 25.32600
C  13.42500 50.90500 26.31900
C  12.17700 50.96900 25.65800
C  12.36400 51.28600 24.26300
C  13.88900 51.03100 24.10000
C  10.92400 51.00100 26.49000
C  11.41600 51.64300 23.15600
O  11.76700 51.78200 21.97200
C  10.02200 52.00200 23.49100
N  16.84900 50.33600 23.68700
C  15.94600 50.67300 22.72000
C  16.58700 50.53400 21.26200
C  18.05100 50.00500 21.59500
C  18.06100 49.84500 23.09200
C  15.76800 49.65700 20.20600
C  19.21700 50.84700 20.97400
C  20.23800 50.19100 20.05200
N  18.35100 49.59300 26.06000
C  19.26600 49.10900 25.13600
C  20.38900 48.54300 25.92800
C  20.03100 48.71000 27.31900
C  18.79300 49.43500 27.26200
C  21.57200 47.89400 25.32500
C  20.42800 48.49600 28.64900
O  21.42800 48.01800 29.11700
C  19.32400 49.14400 29.49500
C  18.78100 48.14200 30.47200
O  18.10800 47.15300 30.16600
O  19.04200 48.52100 31.77100
C  18.36100 47.66600 32.78000
H  12.77400 50.90000 28.32600
H  14.08000 51.06400 21.98100
H  19.84200 48.90000 23.06500
H  16.72100 49.81500 30.99300
H  14.35700 51.37300 30.53500
H  14.92400 48.54800 30.96900
H  13.85900 48.67500 29.71700
H  13.42000 49.43500 31.23400
H  16.48200 52.61700 30.23400
H  18.06700 51.76000 30.53300
H  16.64000 53.13000 32.53500
H  17.87000 51.95100 32.84000
H  10.77000 52.04200 26.77500
H  10.97200 50.49700 27.45500
H  10.14200 50.59600 25.84800
H  9.61300 52.62000 22.69200
H  10.06600 52.71400 24.31400
H  9.35600 51.19300 23.79000
H  16.59200 51.56900 20.91900
H  18.06500 48.99800 21.17900
H  14.96000 49.16900 20.75300
H  16.42500 48.90600 19.76700
H  15.52700 50.33000 19.38300
H  19.73700 51.32900 21.80100
H  18.76200 51.64900 20.39300
H  19.69000 49.27400 19.83700
H  21.11600 49.84300 20.59500
H  20.42100 50.76400 19.14300
H  22.44800 48.51600 25.51000
H  21.37600 47.95800 24.25500
H  21.63400 46.90800 25.78700
H  19.72900 49.94000 30.12000
H  17.35700 47.32100 32.53000
H  18.32700 48.31000 33.65900
H  18.99400 46.79300 32.94100

