158

Mg 35.37000 0.40700 29.63900
C  33.42200 1.35300 32.33400
C  38.02700 0.01100 31.88300
C  37.40300 0.21200 27.05700
C  32.72500 0.94800 27.46200
N  35.68200 0.72700 31.90200
C  34.70800 1.07400 32.80400
C  35.21000 0.95800 34.25200
C  36.83700 0.81400 34.10700
C  36.84700 0.49500 32.54700
C  37.71300 2.00800 34.56400
C  34.38600 -0.18600 35.05700
C  33.82300 0.26100 36.48500
H  34.54600 1.40400 37.19800
N  37.41900 -0.04400 29.50300
C  38.32700 -0.22000 30.49900
C  39.59200 -0.64400 29.89200
C  39.41100 -0.50800 28.49800
C  38.05200 -0.02400 28.31400
C  40.80900 -0.92300 30.72500
C  40.41700 -0.76400 27.35700
O  40.20700 -0.70000 26.18100
C  41.90700 -0.96600 27.72900
N  35.08000 0.41900 27.59500
C  36.06000 0.40800 26.69100
C  35.60000 0.40200 25.22000
C  34.02500 0.47400 25.35900
C  33.90500 0.55900 26.88700
C  36.17500 1.59200 24.37800
C  33.29400 -0.74000 24.66000
C  33.18600 -1.96600 25.54700
N  33.48800 0.96500 29.78500
C  32.46800 0.99100 28.88400
C  31.21200 1.36400 29.47700
C  31.55700 1.59800 30.82500
C  32.87000 1.27400 30.99400
C  29.91400 1.59000 28.72500
C  31.05600 1.93200 32.08300
O  29.89000 2.20600 32.40000
C  32.19400 1.71000 33.14400
C  32.39100 2.93300 33.94100
O  33.27000 3.74600 33.77300
O  31.39200 3.08400 34.93000
C  31.40900 4.33300 35.66500
H  38.86800 -0.02700 32.57900
H  37.90100 0.11600 26.08900
H  31.86100 1.11400 26.81600
H  34.93100 1.90700 34.71100
H  37.21500 -0.08800 34.58900
H  37.10300 2.69100 35.15400
H  37.92000 2.57300 33.65500
H  38.55400 1.83400 35.23600
H  35.08400 -0.98100 35.32100
H  33.61100 -0.72000 34.50700
H  33.98600 -0.48500 37.26300
H  32.77100 0.53500 36.41100
H  41.39300 -1.73300 30.28800
H  40.58400 -1.11600 31.77400
H  41.27300 0.06100 30.66600
H  41.99700 -0.30300 28.59000
H  42.64500 -0.65000 26.99200
H  42.22000 -1.99800 27.89200
H  35.81800 -0.60400 24.86100
H  33.59100 1.40800 25.00100
H  37.02400 1.97400 24.94500
H  35.46800 2.37100 24.09400
H  36.55100 1.19300 23.43600
H  33.90400 -0.92200 23.77400
H  32.35300 -0.35500 24.26800
H  33.48800 -2.76400 24.86900
H  32.13300 -2.22500 25.66600
H  33.84500 -2.11300 26.40300
H  29.59000 0.67500 28.23000
H  30.12000 2.31200 27.93400
H  29.15900 1.94200 29.42800
H  31.88800 0.92600 33.83700
H  30.70700 4.26700 36.49600
H  31.00600 5.14700 35.06200
H  32.39400 4.65700 36.00000
Mg 0.88700 43.62800 25.40200
C  3.24400 43.12000 27.99400
C  -1.59300 42.86500 27.48900
C  -1.34000 43.69000 22.71200
C  3.46700 44.11500 23.19300
N  0.91300 42.89700 27.49000
C  1.93700 42.92200 28.43900
C  1.40700 42.70300 29.82500
C  -0.14100 42.42100 29.60000
C  -0.30000 42.80600 28.14400
C  -0.75700 41.07100 30.09900
C  1.72500 43.90200 30.76200
C  1.73400 43.71000 32.32900
H  1.70700 42.30500 32.95100
N  -1.19000 43.32200 25.08900
C  -2.02300 43.06400 26.14700
C  -3.38300 43.02000 25.71000
C  -3.37900 43.29500 24.36000
C  -1.94000 43.48300 23.98200
C  -4.56400 42.70500 26.56900
C  -4.50000 43.45300 23.32900
O  -4.35000 43.84100 22.19100
C  -5.91800 43.37100 23.74300
N  1.03800 43.74200 23.21600
C  -0.02600 43.86000 22.36700
C  0.43500 44.27800 20.97400
C  1.91900 44.54800 21.16500
C  2.20500 44.23000 22.66400
C  0.17100 43.12600 19.96500
C  2.45400 45.98900 20.74500
C  2.07000 47.09500 21.80100
N  2.97800 43.48200 25.53000
C  3.90800 43.77700 24.52800
C  5.26100 43.73600 25.16600
C  5.03800 43.34100 26.47100
C  3.63700 43.32000 26.67000
C  6.53300 44.04900 24.52800
C  5.62000 42.99800 27.75100
O  6.77200 42.95500 27.99400
C  4.48300 43.03700 28.82400
C  4.64300 41.79900 29.59300
O  4.47900 40.68100 29.08500
O  4.98200 41.98900 30.91400
C  5.51300 40.83700 31.57900
H  -2.40200 42.77900 28.21800
H  -2.00600 43.84200 21.86000
H  4.24500 44.39600 22.47900
H  1.93500 41.82100 30.18600
H  -0.69100 43.22400 30.09200
H  -1.13700 40.47700 29.26800
H  -1.46200 41.23400 30.91500
H  0.05800 40.57000 30.62100
H  0.98600 44.66400 30.51400
H  2.70300 44.34200 30.56600
H  0.97000 44.37400 32.73600
H  2.65600 44.18800 32.66000
H  -4.29300 42.30900 27.54800
H  -5.09800 41.99400 25.93900
H  -5.03800 43.65400 26.82000
H  -6.46500 43.59200 22.82600
H  -6.13000 44.27400 24.31400
H  -6.28600 42.50400 24.29100
H  -0.12800 45.14000 20.62000
H  2.45900 43.81300 20.56700
H  -0.26700 42.24000 20.42500
H  1.02500 42.61900 19.51700
H  -0.38600 43.64800 19.18700
H  1.95600 46.19400 19.79800
H  3.53400 45.90600 20.62300
H  1.36900 47.78700 21.33500
H  2.93600 47.72600 22.00100
H  1.64300 46.61700 22.68300
H  7.21700 43.22600 24.73300
H  6.92100 44.98400 24.93300
H  6.40800 44.36100 23.49200
H  4.39400 43.90500 29.47600
H  6.53300 40.65900 31.23800
H  4.95600 39.93400 31.32600
H  5.55000 40.84200 32.66800

