158

Mg 39.97600 9.51400 29.45100
C  41.72900 10.73300 32.43500
C  37.80900 8.06000 31.47300
C  38.67200 8.69400 26.73500
C  42.85100 10.92900 27.63000
N  40.00700 9.23600 31.70700
C  40.56200 9.96700 32.70700
C  39.92500 9.73500 34.02000
C  38.59300 8.90200 33.67200
C  38.79900 8.69700 32.19200
C  38.46000 7.58400 34.45600
C  39.62200 10.96300 34.81600
C  39.97700 10.82400 36.34700
H  40.75000 11.94000 37.02500
N  38.43800 8.47400 29.18900
C  37.61600 7.91200 30.07800
C  36.56600 7.25100 29.34500
C  36.76400 7.51000 28.00700
C  38.00100 8.28000 27.93300
C  35.47300 6.46000 30.03000
C  35.86900 7.12100 26.83400
O  36.04500 7.52900 25.68600
C  34.63500 6.21400 27.03800
N  40.72400 9.76400 27.48300
C  39.91000 9.29300 26.51200
C  40.42700 9.68100 25.10900
C  41.77800 10.43300 25.35800
C  41.73100 10.47400 26.96800
C  40.37900 8.65000 23.91100
C  42.06800 11.69400 24.67200
C  41.20800 12.87100 25.09200
N  41.98200 10.51400 29.87300
C  42.92600 11.05800 29.05500
C  43.92900 11.71200 29.80900
C  43.47700 11.65400 31.08700
C  42.27800 10.88300 31.11800
C  45.15100 12.35500 29.34400
C  43.80500 12.02400 32.43400
O  44.72300 12.65600 32.84600
C  42.72800 11.48300 33.36000
C  43.51600 10.53900 34.27400
O  43.92500 9.43500 33.94500
O  43.65600 11.13800 35.51200
C  44.61800 10.44900 36.43300
H  37.05300 7.56100 32.08200
H  38.22100 8.41400 25.78100
H  43.77500 11.24100 27.13900
H  40.69000 9.19100 34.57300
H  37.66200 9.46800 33.66400
H  39.11000 7.48400 35.32500
H  38.67800 6.73100 33.81300
H  37.48300 7.49200 34.92900
H  38.57100 11.23700 34.72200
H  40.18500 11.76700 34.34200
H  40.55400 9.94200 36.62400
H  38.96600 10.77700 36.75100
H  34.51400 6.92300 29.80100
H  35.51100 6.51300 31.11800
H  35.61000 5.43200 29.69200
H  34.90000 5.22300 27.40500
H  34.08400 6.13500 26.10100
H  33.96500 6.77300 27.69200
H  39.66800 10.38900 24.77700
H  42.61200 9.75400 25.18300
H  40.57900 7.62100 24.20800
H  40.99400 8.95100 23.06300
H  39.30500 8.67400 23.72700
H  41.84200 11.50800 23.62200
H  43.09900 12.04500 24.72100
H  40.81900 12.74300 26.10200
H  40.40500 12.99000 24.36500
H  41.90100 13.71000 25.02900
H  45.98000 11.77800 29.75300
H  45.23200 13.37200 29.72800
H  45.30600 12.43500 28.26800
H  42.37800 12.35600 33.91000
H  44.07300 10.30600 37.36600
H  45.53200 10.99700 36.66300
H  44.94700 9.46500 36.10100
Mg 1.68500 41.63400 25.66100
C  2.59300 42.02600 29.14400
C  -1.52900 40.68100 26.78400
C  1.04600 40.59300 22.54800
C  5.02300 42.27200 24.89600
N  0.71300 41.44700 27.70200
C  1.23800 41.75500 28.95900
C  0.23100 41.51300 30.10800
C  -1.12000 41.09200 29.28300
C  -0.65300 41.05300 27.80200
C  -1.75700 39.72200 29.75000
C  0.03900 42.71900 31.06600
C  0.27600 42.39800 32.56700
H  -0.13100 40.96300 33.02000
N  -0.02500 40.80500 24.84200
C  -1.26300 40.47800 25.39300
C  -2.14800 40.01700 24.36500
C  -1.47000 40.15800 23.16900
C  -0.07100 40.52900 23.48000
C  -3.60100 39.69400 24.65900
C  -2.07200 40.09700 21.73000
O  -1.43300 40.23100 20.72400
C  -3.53400 39.75800 21.50600
N  2.88800 41.38800 24.04300
C  2.35200 40.97800 22.82900
C  3.39100 40.88000 21.66000
C  4.58500 41.63700 22.32700
C  4.18200 41.78000 23.87300
C  3.54900 39.48200 21.15700
C  4.78700 43.06300 21.76400
C  5.40900 43.18000 20.30900
N  3.51900 42.20600 26.76500
C  4.79800 42.40900 26.28600
C  5.61900 42.79200 27.39000
C  4.86100 42.56600 28.54200
C  3.57300 42.26100 28.11900
C  7.11800 42.99600 27.35200
C  4.87400 42.55700 29.98500
O  5.81400 42.76700 30.71300
C  3.34400 42.11300 30.45200
C  3.67600 40.81400 31.25100
O  3.58400 39.68400 30.88900
O  4.13000 41.17800 32.52800
C  4.56900 39.93700 33.31100
H  -2.56500 40.43900 27.03100
H  1.02200 40.25800 21.50900
H  6.00600 42.52400 24.49400
H  0.65000 40.68700 30.68200
H  -1.80000 41.93100 29.43100
H  -1.24300 39.29600 30.61100
H  -1.56700 38.91700 29.04000
H  -2.83700 39.74800 29.89600
H  -0.97800 43.10000 30.96700
H  0.61700 43.56700 30.69700
H  -0.41500 43.10100 33.03300
H  1.29500 42.57100 32.91300
H  -4.24200 40.56500 24.51800
H  -3.75000 39.32600 25.67400
H  -3.94100 38.96400 23.92500
H  -3.86900 39.93200 20.48300
H  -4.09700 40.41700 22.16600
H  -3.68300 38.69300 21.68800
H  3.07800 41.53100 20.84400
H  5.56000 41.14800 22.33500
H  2.78700 39.30100 20.40000
H  3.47200 38.75600 21.96600
H  4.55800 39.27200 20.80200
H  5.30300 43.70500 22.47900
H  3.81300 43.53600 21.64100
H  5.23500 42.28000 19.71800
H  6.46600 43.44300 20.35500
H  4.82600 43.99700 19.88300
H  7.43300 43.48900 26.43200
H  7.58900 42.01800 27.45200
H  7.40300 43.51600 28.26600
H  2.94400 42.78600 31.21100
H  5.54400 40.25000 33.68600
H  4.88400 39.07100 32.73000
H  4.00100 39.71600 34.21500

