158

Mg 42.60800 42.24000 25.82200
C  41.33300 44.35900 28.26300
C  43.81500 40.23500 28.24000
C  43.60700 40.06400 23.44100
C  41.57500 44.50300 23.44600
N  42.39100 42.23400 28.02300
C  41.91200 43.21500 28.86300
C  42.07600 42.94900 30.31200
C  43.00200 41.60700 30.30100
C  43.15900 41.35100 28.74700
C  44.39400 41.75800 30.96300
C  40.77400 42.74000 31.16800
C  40.83500 43.43400 32.55300
H  39.60700 43.58400 33.44900
N  43.63600 40.39900 25.81900
C  43.95500 39.73600 26.97500
C  44.49500 38.44800 26.57500
C  44.57300 38.39600 25.17200
C  43.92500 39.59300 24.73000
C  44.96600 37.38100 27.64800
C  45.31300 37.44700 24.31200
O  45.35900 37.64900 23.08500
C  46.08700 36.30900 24.83600
N  42.63000 42.25800 23.75200
C  43.16500 41.32000 22.92500
C  43.18300 41.82400 21.46500
C  42.36300 43.09100 21.51700
C  42.15600 43.34500 22.97500
C  44.58500 42.00800 20.82000
C  41.07800 42.88100 20.69000
C  40.52000 44.18800 19.96300
N  41.53200 44.02800 25.78000
C  41.17400 44.85100 24.75400
C  40.55300 46.08100 25.21200
C  40.59000 45.89700 26.65300
C  41.19400 44.66600 26.87200
C  40.00600 47.21100 24.42800
C  40.25200 46.46400 27.96900
O  39.70600 47.52100 28.24300
C  40.67600 45.52900 29.05700
C  41.74700 46.13000 29.82300
O  42.85200 46.29900 29.38600
O  41.28300 46.54000 31.02200
C  42.32600 47.10100 31.88100
H  44.24600 39.58000 29.00000
H  43.99100 39.45000 22.62400
H  41.19000 45.23500 22.73300
H  42.68200 43.73500 30.76300
H  42.56500 40.72600 30.77100
H  44.63000 41.07800 31.78100
H  44.55100 42.69000 31.50400
H  45.21500 41.76000 30.24600
H  40.71800 41.67000 31.36500
H  39.95100 43.05300 30.52600
H  41.49300 44.30200 32.52100
H  41.53300 42.82400 33.12600
H  44.32500 37.59400 28.50400
H  46.01000 37.56000 27.90600
H  44.84500 36.33500 27.36600
H  46.59600 35.74100 24.05800
H  45.45000 35.63000 25.40300
H  46.81200 36.74100 25.52600
H  42.72400 40.95900 20.98700
H  42.92100 44.00300 21.30200
H  44.76600 43.06400 20.62000
H  44.57000 41.44000 19.88900
H  45.27600 41.53700 21.51900
H  40.34400 42.51200 21.40600
H  41.34100 42.14600 19.93000
H  39.49600 44.44700 20.23000
H  40.56600 43.95900 18.89900
H  41.12400 45.07600 20.15100
H  39.54400 47.96700 25.06300
H  39.27700 46.83900 23.70900
H  40.80200 47.73400 23.89900
H  39.88700 45.19000 29.72800
H  43.04400 46.34400 32.19800
H  41.90400 47.64300 32.72700
H  42.86900 47.78300 31.22600
Mg 35.84400 49.60500 24.33100
C  36.01800 47.72300 27.23500
C  34.50300 52.21700 26.04500
C  35.04400 51.02800 21.33600
C  36.69300 46.61300 22.51900
N  35.37500 49.92100 26.42300
C  35.57600 49.03300 27.44300
C  35.46600 49.78200 28.76200
C  34.79600 51.08000 28.36100
C  34.81500 51.08700 26.84200
C  33.37000 51.29900 28.97000
C  36.88100 49.96000 29.44100
C  36.87500 49.74900 30.96500
H  35.57000 49.69200 31.71700
N  34.89200 51.39700 23.74400
C  34.56500 52.36800 24.66800
C  34.21900 53.59400 23.91400
C  34.24700 53.27600 22.58500
C  34.79800 51.87900 22.52000
C  33.89500 54.92800 24.56600
C  33.79100 54.06200 21.34300
O  34.10500 53.73300 20.19300
C  33.03900 55.38200 21.51900
N  35.72000 48.91900 22.26000
C  35.46500 49.66000 21.24400
C  35.56700 48.97700 19.95700
C  36.16600 47.58300 20.27700
C  36.26200 47.70400 21.79800
C  34.30900 48.90600 19.16800
C  37.49900 47.18900 19.57800
C  37.43700 46.36100 18.24200
N  36.42700 47.60700 24.71300
C  36.74400 46.50100 23.88300
C  37.11100 45.41600 24.75400
C  36.87400 45.87300 26.04200
C  36.34300 47.13100 25.95600
C  37.63100 44.08000 24.32300
C  36.88600 45.46200 27.42400
O  37.18100 44.36300 27.88900
C  36.36500 46.67600 28.21200
C  35.20800 46.19200 29.13400
O  34.08500 46.01100 28.67800
O  35.65900 45.99100 30.42400
C  34.63600 45.42400 31.32800
H  34.16400 53.12100 26.55600
H  35.02700 51.53900 20.37100
H  37.07700 45.69700 22.06300
H  34.89700 49.09400 29.38600
H  35.39700 51.88900 28.77700
H  33.29500 52.22100 29.54600
H  33.04300 50.43100 29.54400
H  32.64200 51.28900 28.15900
H  37.19100 50.99100 29.26900
H  37.62300 49.29800 28.99600
H  37.44100 50.56500 31.41500
H  37.42500 48.82500 31.14300
H  34.60500 55.03100 25.38700
H  32.84600 55.12500 24.78900
H  34.09900 55.63300 23.76000
H  33.72600 56.20200 21.72600
H  32.35400 55.38700 22.36700
H  32.47800 55.63900 20.62100
H  36.21700 49.53500 19.28300
H  35.42200 46.83100 20.01500
H  34.09400 47.90500 18.79500
H  34.43900 49.63200 18.36500
H  33.48300 49.33800 19.73300
H  38.14200 46.63600 20.26300
H  37.95500 48.15500 19.35600
H  37.83800 45.38000 18.49700
H  38.13600 46.75900 17.50700
H  36.43800 46.30900 17.81100
H  36.95100 43.24600 24.49600
H  38.54800 43.89600 24.88200
H  37.83700 44.04400 23.25400
H  37.22400 46.97700 28.81200
H  33.60400 45.55000 31.00200
H  34.71700 45.71700 32.37500
H  34.87900 44.36100 31.30600

