158

Mg 47.08000 34.82500 28.28400
C  45.70700 32.61800 30.51400
C  47.51600 37.12300 30.87400
C  47.80200 37.24800 25.96600
C  46.31800 32.56700 25.73800
N  46.72800 34.85400 30.43200
C  46.18300 33.78600 31.17900
C  46.25000 34.19200 32.72900
C  46.28300 35.74500 32.69100
C  46.95600 35.88600 31.26800
C  44.89800 36.49700 32.94000
C  47.44800 33.54300 33.45800
C  47.33000 33.21300 34.87900
H  46.51400 34.18700 35.78600
N  47.85800 36.82500 28.42600
C  47.98900 37.55500 29.55300
C  48.65200 38.75400 29.22500
C  48.61000 38.85500 27.78100
C  48.01400 37.61700 27.34100
C  49.11900 39.77700 30.28500
C  49.11700 39.92700 26.85700
O  48.97000 39.93100 25.65200
C  49.72300 41.19400 27.43300
N  47.01200 34.92600 26.17000
C  47.44800 35.98300 25.47000
C  47.22600 35.83000 24.02300
C  46.74500 34.35200 23.93200
C  46.66700 33.84300 25.37400
C  46.17400 36.81400 23.38900
C  47.80900 33.45200 23.23000
C  49.11100 33.06500 24.01800
N  46.26400 32.91600 28.10500
C  46.11000 32.08900 27.01900
C  45.37900 30.89900 27.45200
C  45.13700 31.12000 28.79600
C  45.83900 32.29300 29.16700
C  44.99000 29.68600 26.59700
C  44.58100 30.51900 29.99100
O  44.12400 29.40200 30.10800
C  44.77200 31.56800 31.04700
C  45.08500 30.90500 32.28000
O  46.20100 30.58400 32.68800
O  43.87800 30.70500 32.94100
C  44.00900 30.21600 34.29100
H  47.60700 37.89000 31.64500
H  47.99400 37.92400 25.13000
H  46.20200 31.89100 24.88800
H  45.35200 33.95100 33.29700
H  47.00100 36.16500 33.39600
H  45.11100 37.11600 33.81100
H  44.10300 35.80700 33.22100
H  44.62100 37.05400 32.04500
H  48.34200 34.13500 33.26600
H  47.60700 32.55800 33.02000
H  48.27900 33.22000 35.41500
H  46.90000 32.22000 35.01300
H  50.11600 40.12600 30.01700
H  49.12300 39.11000 31.14800
H  48.46000 40.63000 30.44500
H  49.12600 41.48900 28.29700
H  49.72100 41.85200 26.56400
H  50.72800 41.06700 27.83600
H  48.17700 35.87700 23.49200
H  45.79100 34.20700 23.42400
H  45.28200 36.29300 23.04300
H  46.67600 37.33200 22.57100
H  45.97600 37.55300 24.16500
H  48.02400 33.82400 22.22800
H  47.32900 32.48800 23.06500
H  49.11100 32.04100 24.39000
H  49.28400 33.80400 24.80000
H  49.98500 33.08300 23.36600
H  45.61200 28.79100 26.56300
H  44.87400 30.05300 25.57700
H  44.01500 29.44500 27.02100
H  43.78900 32.03900 31.03200
H  43.08900 30.03400 34.84700
H  44.57200 31.02800 34.75100
H  44.67100 29.35500 34.38900
Mg -5.21300 24.72200 26.32100
C  -3.72300 26.59500 29.03300
C  -6.67300 22.68600 28.69800
C  -6.72900 23.41500 23.86400
C  -3.44700 26.95000 24.15800
N  -5.28900 24.77800 28.65000
C  -4.65200 25.55200 29.51100
C  -5.08100 25.30000 30.96100
C  -5.81700 23.94600 30.89600
C  -5.91100 23.74500 29.33800
C  -5.15400 22.69900 31.55000
C  -6.03600 26.51100 31.39700
C  -6.45400 26.60300 32.93200
H  -5.83300 25.62900 33.92500
N  -6.49200 23.22700 26.24200
C  -7.00700 22.47700 27.32900
C  -7.86500 21.45400 26.75400
C  -7.97500 21.61200 25.36100
C  -7.13300 22.85300 25.12200
C  -8.47300 20.45700 27.67900
C  -8.69000 20.75000 24.33300
O  -8.80600 21.08000 23.14900
C  -9.20300 19.38900 24.75100
N  -5.05800 25.19000 24.25700
C  -5.83900 24.45500 23.38700
C  -5.53200 24.73400 21.89600
C  -4.70600 26.10900 22.04800
C  -4.35500 26.09800 23.56200
C  -4.81700 23.54700 21.18900
C  -5.44900 27.37700 21.61900
C  -4.59400 28.42800 20.84000
N  -3.74300 26.32600 26.55200
C  -3.15200 27.05100 25.54400
C  -2.11000 27.87400 26.13900
C  -2.33000 27.73600 27.56300
C  -3.35400 26.85500 27.71400
C  -1.03200 28.76300 25.37400
C  -2.09500 28.32600 28.91400
O  -1.39300 29.23500 29.33000
C  -2.87300 27.45100 29.89500
C  -1.86900 26.53300 30.62200
O  -1.51200 25.40600 30.30200
O  -1.58800 27.11200 31.81600
C  -0.89800 26.28400 32.82300
H  -7.21900 22.08900 29.43100
H  -7.31800 22.87800 23.11800
H  -2.82800 27.53100 23.47000
H  -4.22600 25.37700 31.63200
H  -6.84100 24.02500 31.26100
H  -5.80900 22.32100 32.33400
H  -4.27600 23.02900 32.10500
H  -4.82400 21.93000 30.85100
H  -6.93300 26.31800 30.80900
H  -5.57000 27.45400 31.11000
H  -7.54000 26.64400 33.02000
H  -6.08000 27.60900 33.12400
H  -9.52600 20.71400 27.78900
H  -7.97800 20.47000 28.65000
H  -8.33700 19.42300 27.36300
H  -8.34600 18.85800 25.16500
H  -9.50900 18.86000 23.84800
H  -9.96300 19.56800 25.51100
H  -6.52900 24.79700 21.46000
H  -3.81900 25.99200 21.42500
H  -3.79300 23.60200 21.56000
H  -4.92700 23.48600 20.10700
H  -5.33800 22.68600 21.60800
H  -5.79900 27.89700 22.51100
H  -6.31400 27.06000 21.03700
H  -3.79700 27.97800 20.24900
H  -4.06600 29.12900 21.48700
H  -5.14900 29.03600 20.12600
H  -1.55100 29.57500 24.86300
H  -0.45400 28.09500 24.73600
H  -0.42900 29.27500 26.12400
H  -3.41600 28.06100 30.61600
H  0.03400 26.70600 33.20000
H  -0.63100 25.27300 32.51800
H  -1.57600 26.04200 33.64100

