158

Mg 26.92100 50.48400 25.59000
C  25.13400 51.70100 28.30200
C  29.69100 49.93400 27.62900
C  28.80700 49.75000 22.87300
C  24.51700 51.87100 23.46100
N  27.32200 50.50100 27.82100
C  26.37800 51.11800 28.71000
C  26.89300 51.04600 30.14500
C  28.42400 50.56400 29.85100
C  28.51700 50.40900 28.35800
C  29.42400 51.57300 30.51000
C  26.00400 50.08900 31.02200
C  25.35800 50.75800 32.22700
H  26.23700 50.88500 33.46700
N  28.85600 49.72600 25.30500
C  29.89200 49.58000 26.29800
C  31.04900 48.86500 25.66300
C  30.65800 48.75000 24.27400
C  29.44700 49.41900 24.06200
C  32.35300 48.57100 26.40900
C  31.30900 48.01500 23.21500
O  30.92400 47.96100 22.01700
C  32.63700 47.32200 23.53400
N  26.58900 50.56700 23.51800
C  27.58400 50.35100 22.63100
C  27.14700 50.68900 21.12900
C  25.63800 51.19500 21.38700
C  25.56700 51.14700 22.88200
C  28.12300 51.66900 20.44600
C  24.52100 50.36400 20.67100
C  23.73500 51.14200 19.58200
N  25.16900 51.47000 25.81100
C  24.26000 51.94100 24.90500
C  23.09900 52.56600 25.57500
C  23.43900 52.47300 26.90800
C  24.61700 51.74800 26.98900
C  22.06700 53.31200 24.87400
C  22.93600 52.77000 28.14900
O  21.91600 53.37100 28.54100
C  24.02400 52.31600 29.15300
C  24.47000 53.52100 29.92900
O  25.49300 54.21600 29.68400
O  23.53400 53.70300 30.91300
C  24.01200 54.63200 31.97400
H  30.49900 49.68300 28.31900
H  29.41900 49.60400 21.98000
H  23.91900 52.44800 22.75300
H  26.73300 52.06600 30.49600
H  28.56900 49.60700 30.35200
H  28.85200 52.15900 31.22800
H  30.07900 52.13400 29.84300
H  30.11600 50.96700 31.09500
H  26.62500 49.27900 31.40300
H  25.19200 49.58800 30.49600
H  24.59300 50.09400 32.62800
H  24.85500 51.71400 32.08600
H  32.47000 47.52100 26.67700
H  32.15800 49.09600 27.34400
H  33.26600 49.04500 26.04900
H  32.55200 46.79900 24.48700
H  33.37400 48.11000 23.68400
H  33.12700 46.74700 22.74900
H  27.12700 49.75900 20.56100
H  25.55100 52.24800 21.11600
H  28.87400 52.02800 21.15100
H  27.51800 52.46500 20.01000
H  28.60600 51.01400 19.72200
H  23.77100 50.11500 21.42200
H  24.89200 49.43100 20.24500
H  23.47900 50.39800 18.82800
H  24.20400 52.03500 19.16600
H  22.72900 51.45000 19.86500
H  21.53300 52.69600 24.15100
H  22.56100 54.07800 24.27600
H  21.43500 53.76600 25.63700
H  23.68600 51.54800 29.84800
H  24.55600 55.51700 31.64200
H  24.43600 54.16300 32.86200
H  23.10900 55.11200 32.35000
Mg -1.51400 34.70900 27.18600
C  -3.25000 32.77100 29.61600
C  -0.24900 36.65900 29.53900
C  0.06800 36.22800 24.62600
C  -3.20300 32.64300 24.70400
N  -1.89600 34.86500 29.33000
C  -2.51000 33.89500 30.15700
C  -2.41300 34.31400 31.64000
C  -1.57500 35.57600 31.59100
C  -1.12300 35.65400 30.07100
C  -2.27000 36.86700 32.14600
C  -1.81100 33.13800 32.51800
C  -1.07200 33.41900 33.89900
H  -1.58500 32.69600 35.12900
N  -0.40900 36.32000 27.08600
C  0.01900 37.01100 28.15400
C  0.84500 38.11100 27.73200
C  0.97300 37.97900 26.33400
C  0.21700 36.77500 25.91800
C  1.55600 39.03300 28.74800
C  1.78200 38.94200 25.33200
O  1.71900 38.75700 24.14600
C  2.62900 40.04600 25.71300
N  -1.64400 34.53800 25.05800
C  -0.80800 35.20000 24.23400
C  -0.80400 34.69500 22.76600
C  -1.86600 33.61600 22.80700
C  -2.26400 33.55500 24.29300
C  -1.05100 35.78700 21.68300
C  -1.20700 32.23100 22.25200
C  -0.27700 31.58700 23.27900
N  -2.98000 33.11100 27.14700
C  -3.54300 32.41200 26.07000
C  -4.38600 31.34000 26.61200
C  -4.31400 31.43900 28.00200
C  -3.39200 32.48900 28.26900
C  -5.22000 30.35200 25.83100
C  -4.74300 30.88700 29.19700
O  -5.51200 30.02000 29.45200
C  -4.14800 31.81600 30.36100
C  -5.29100 32.35900 31.17300
O  -6.32100 32.85500 30.68400
O  -5.04300 32.17000 32.42700
C  -5.98700 32.68800 33.44700
H  0.41200 37.10000 30.28800
H  0.51500 36.80600 23.81400
H  -3.58800 31.93600 23.96600
H  -3.43800 34.49000 31.96700
H  -0.64600 35.55700 32.16100
H  -2.40000 37.54400 31.30100
H  -1.74700 37.41000 32.93300
H  -3.29000 36.64500 32.46100
H  -1.08800 32.62800 31.88100
H  -2.59100 32.41700 32.76600
H  -1.34900 34.47000 33.97800
H  0.01700 33.38400 33.85900
H  1.08100 40.00800 28.64100
H  2.62200 39.06400 28.52400
H  1.43700 38.73100 29.78900
H  2.01400 40.90100 25.99500
H  3.11300 40.30600 24.77100
H  3.40100 39.82100 26.44900
H  0.19700 34.32800 22.53800
H  -2.75600 33.85700 22.22700
H  -0.26700 35.97100 20.94900
H  -1.28100 36.76000 22.11800
H  -1.94600 35.57900 21.09800
H  -0.60700 32.30400 21.34500
H  -2.06000 31.56500 22.11900
H  -0.67900 30.57500 23.23000
H  -0.31100 31.97500 24.29700
H  0.74700 31.46700 22.92500
H  -5.03000 30.54800 24.77600
H  -6.26700 30.49300 26.09800
H  -4.83900 29.38700 26.16400
H  -3.61000 31.24500 31.11900
H  -6.81700 33.07900 32.85900
H  -5.51100 33.51700 33.97100
H  -6.19700 31.89100 34.16000

