158

Mg 41.79200 41.06200 26.10000
C  40.99700 43.31200 28.67300
C  42.86300 38.74400 28.57100
C  42.84300 39.07800 23.68600
C  41.13800 43.60300 23.76600
N  41.79600 41.03800 28.35000
C  41.39800 42.10000 29.15600
C  41.45600 41.65200 30.65600
C  42.25800 40.23600 30.55000
C  42.21200 39.94200 29.07800
C  43.66600 40.28800 31.10000
C  40.13400 41.45400 31.40200
C  39.67300 42.61300 32.32200
H  39.78000 42.50800 33.84000
N  42.63900 39.13100 26.13200
C  43.12200 38.39100 27.21900
C  43.66000 37.14100 26.68700
C  43.54700 37.18000 25.26800
C  42.97900 38.45600 24.96300
C  44.02000 36.09600 27.60800
C  43.99200 36.16900 24.15400
O  43.97000 36.39500 22.95000
C  44.52800 34.82300 24.61300
N  42.04700 41.31500 24.09700
C  42.39800 40.24400 23.32000
C  42.17100 40.55600 21.80700
C  41.30100 41.83000 21.83200
C  41.56700 42.33500 23.30000
C  43.51900 40.70700 21.06700
C  39.81100 41.75100 21.47600
C  38.96100 40.74000 22.29500
N  41.22600 43.06200 26.11500
C  41.00900 44.01200 25.06000
C  40.51800 45.23700 25.61000
C  40.44300 45.00500 26.97300
C  40.91900 43.72100 27.20100
C  40.08100 46.46900 24.82700
C  40.16900 45.59300 28.22900
O  39.85500 46.74800 28.51100
C  40.57500 44.51000 29.37000
C  41.66300 45.15600 30.18800
O  42.83600 45.26100 29.83300
O  41.18500 45.54300 31.40600
C  42.20400 46.32900 32.21300
H  43.20900 37.95300 29.24000
H  43.10400 38.53100 22.77700
H  40.77200 44.27900 22.99000
H  42.03600 42.44200 31.13300
H  41.73300 39.38200 30.97800
H  43.68600 39.98400 32.14700
H  43.96900 41.33100 31.00600
H  44.32000 39.70700 30.44900
H  40.14800 40.51600 31.95800
H  39.44900 41.28800 30.57100
H  38.66000 42.82300 31.97800
H  40.35200 43.41000 32.01800
H  43.16400 35.42100 27.62400
H  44.31500 36.35300 28.62500
H  44.83800 35.53800 27.15100
H  43.88100 34.24700 25.27500
H  45.44000 35.03100 25.17300
H  44.76800 34.29200 23.69200
H  41.56400 39.75500 21.38600
H  41.73600 42.56500 21.15500
H  43.95300 39.74000 20.81400
H  44.21700 41.34700 21.60700
H  43.26400 41.27300 20.17100
H  39.72400 41.61800 20.39800
H  39.37600 42.74500 21.57800
H  38.04600 41.20300 22.66500
H  39.54000 40.35300 23.13300
H  38.66000 39.90000 21.66900
H  39.13700 46.22700 24.33800
H  40.88000 46.78000 24.15400
H  39.94200 47.23800 25.58600
H  39.84500 44.43100 30.17600
H  42.25400 47.37300 31.90200
H  43.14100 45.77300 32.23100
H  41.81900 46.26700 33.23100
Mg -9.68500 40.38800 42.08800
C  -8.72300 37.00300 40.90900
C  -6.76100 41.51800 40.81100
C  -11.04300 43.38800 42.21300
C  -12.95900 38.80800 42.56600
N  -8.03900 39.36700 40.85500
C  -7.72900 38.00200 40.75900
C  -6.31600 37.83500 40.06200
C  -5.65700 39.20800 40.36400
C  -6.83300 40.11100 40.72700
C  -4.61200 39.30400 41.56100
C  -6.44000 37.43200 38.58900
C  -5.80900 36.12000 37.99300
H  -5.58000 36.21300 36.49500
N  -8.98900 42.26600 41.69000
C  -7.75600 42.53300 41.12900
C  -7.56800 43.94300 41.16100
C  -8.81900 44.50500 41.48700
C  -9.68000 43.41600 41.81100
C  -6.32000 44.62900 40.71000
C  -9.21100 46.06000 41.50700
O  -8.48100 46.98200 41.19700
C  -10.52000 46.51500 42.06100
N  -11.65700 40.97300 42.29100
C  -11.96100 42.33500 42.39700
C  -13.44600 42.64500 42.74600
C  -14.07100 41.18500 42.94900
C  -12.87300 40.25700 42.51200
C  -13.61400 43.58600 44.00800
C  -15.48300 40.91800 42.30000
C  -16.46000 40.04500 43.06700
N  -10.61400 38.33700 42.01700
C  -11.95500 37.89300 42.22700
C  -12.02200 36.39900 42.07800
C  -10.75300 36.01000 41.63900
C  -9.94900 37.20100 41.57100
C  -13.23500 35.54700 42.17500
C  -10.04800 34.87400 41.14400
O  -10.33600 33.70200 41.09400
C  -8.56600 35.51000 40.73200
C  -7.57900 34.79500 41.57400
O  -7.10600 35.21400 42.65200
O  -7.33100 33.64400 40.89300
C  -6.53700 32.62200 41.47900
H  -5.79300 41.92800 40.51800
H  -11.54300 44.31700 42.49300
H  -13.88600 38.26200 42.75400
H  -5.77100 37.02000 40.53800
H  -5.12000 39.60400 39.50200
H  -3.58700 39.27200 41.19200
H  -4.83100 38.44200 42.19100
H  -4.77400 40.18200 42.18700
H  -5.92200 38.24700 38.08500
H  -7.50800 37.45000 38.37000
H  -6.46400 35.26200 38.14500
H  -4.92600 35.82700 38.56100
H  -5.97600 44.23500 39.75300
H  -5.56500 44.39700 41.46100
H  -6.29700 45.71600 40.62700
H  -10.71700 46.05600 43.03000
H  -11.29500 46.09700 41.41800
H  -10.49500 47.60200 42.13400
H  -13.77600 43.22100 41.88100
H  -14.19500 41.15600 44.03200
H  -12.71700 43.62900 44.62600
H  -14.49000 43.22600 44.54800
H  -13.82700 44.63000 43.77800
H  -15.40900 40.51800 41.28900
H  -15.84800 41.92700 42.11300
H  -17.39900 40.58500 43.18400
H  -16.13300 40.04200 44.10700
H  -16.63400 38.99500 42.83200
H  -13.96000 35.59800 41.36300
H  -13.73400 35.84600 43.09700
H  -12.81500 34.57100 42.41700
H  -8.30100 35.21900 39.71600
H  -5.85800 33.01500 42.23700
H  -6.00900 32.05600 40.71200
H  -7.21700 31.94700 41.99900

