158

Mg 47.04900 15.79500 28.22300
C  44.92400 15.60100 31.03200
C  49.27000 17.37300 30.43400
C  49.16300 16.26300 25.63900
C  44.64900 14.48700 26.27900
N  47.05900 16.45400 30.50500
C  46.12800 16.15300 31.43000
C  46.59600 16.41500 32.87800
C  47.91100 17.19900 32.57600
C  48.12600 16.99600 31.09000
C  47.96200 18.72200 32.99100
C  46.66800 15.12100 33.77700
C  46.25700 15.39000 35.25900
H  46.10800 16.82000 35.78500
N  48.98000 16.58600 28.04800
C  49.75800 17.10900 29.07600
C  51.04400 17.29400 28.54100
C  51.03600 17.06300 27.09400
C  49.67400 16.58300 26.86500
C  52.18300 17.75000 29.33800
C  52.17500 17.18800 26.05100
O  52.19600 16.75900 24.89500
C  53.51600 17.80800 26.48800
N  46.97600 15.36300 26.27800
C  47.88600 15.74300 25.36100
C  47.51900 15.39400 23.92300
C  46.11900 14.76400 24.16200
C  45.88400 14.79500 25.68800
C  47.64100 16.52400 22.86000
C  46.01300 13.29200 23.72000
C  45.08400 13.15200 22.59000
N  45.12700 15.17000 28.53900
C  44.28200 14.58100 27.62300
C  43.10100 14.18600 28.31900
C  43.30400 14.54700 29.64900
C  44.55300 15.13700 29.73600
C  41.95500 13.51400 27.63300
C  42.69500 14.54800 31.03400
O  41.66000 14.08400 31.40000
C  43.82800 15.12000 31.99200
C  43.19400 16.26500 32.79800
O  43.21800 17.47600 32.52100
O  42.55800 15.66900 33.90200
C  41.90100 16.65500 34.77000
H  49.98500 17.96900 31.00600
H  49.73900 16.61400 24.77900
H  43.86200 14.08600 25.63700
H  45.84000 17.08000 33.29400
H  48.66900 16.67400 33.15700
H  46.95500 18.99700 33.30300
H  48.27700 19.35000 32.15800
H  48.73000 18.73900 33.76500
H  47.70300 14.80400 33.90800
H  46.21500 14.30200 33.21900
H  46.92600 14.84100 35.92100
H  45.29400 14.88300 35.32800
H  53.13400 17.36800 28.96700
H  52.02900 17.33800 30.33600
H  52.17600 18.84000 29.34000
H  53.50900 18.70300 27.11000
H  54.10000 18.02700 25.59500
H  54.09200 17.02500 26.98100
H  48.19400 14.59500 23.61600
H  45.40000 15.42300 23.67400
H  47.35200 17.50100 23.24700
H  47.07400 16.16200 22.00200
H  48.66300 16.61800 22.49500
H  45.74400 12.59700 24.51600
H  47.02500 13.02400 23.41500
H  45.47700 12.39700 21.90900
H  45.01200 14.11100 22.07700
H  44.10900 12.89800 23.00500
H  41.74200 14.08000 26.72700
H  41.02800 13.48600 28.20500
H  42.22700 12.50000 27.34000
H  44.08800 14.26700 32.61800
H  40.95300 17.03500 34.39100
H  42.48000 17.57400 34.86700
H  41.71700 16.25000 35.76500
Mg 49.50800 44.67900 42.83600
C  46.21400 45.24200 41.79800
C  49.22200 41.48100 41.65500
C  52.87900 44.48000 42.84000
C  49.88000 48.27100 43.03100
N  47.93100 43.51500 41.89200
C  46.65400 43.89900 41.64000
C  45.75700 42.74700 40.96700
C  46.63700 41.53600 41.29500
C  48.01800 42.15900 41.66200
C  46.08500 40.44500 42.25000
C  45.30800 42.98900 39.47900
C  43.84000 43.18000 39.11700
H  43.48800 42.97100 37.64200
N  50.85400 43.16000 42.49500
C  50.55200 41.92500 41.99700
C  51.78200 41.16700 41.81700
C  52.80600 41.97200 42.32400
C  52.21200 43.24900 42.63700
C  51.87200 39.90700 41.01000
C  54.26300 41.54200 42.57100
O  54.56700 40.40100 42.24700
C  55.33100 42.36900 43.21600
N  51.13300 46.19200 43.02000
C  52.40200 45.81300 43.15200
C  53.35800 46.98700 43.35700
C  52.37900 48.24100 43.56700
C  51.04500 47.56100 43.19700
C  54.35400 46.79200 44.55800
C  52.68800 49.38300 42.59100
C  53.09900 50.66700 43.29800
N  48.25700 46.46400 42.65600
C  48.61300 47.82600 42.70900
C  47.34400 48.62400 42.47000
C  46.37100 47.61800 42.13100
C  47.01200 46.35000 42.16800
C  47.35900 50.19500 42.42300
C  45.03500 47.37400 41.68800
O  44.09500 48.13500 41.40500
C  44.85800 45.85700 41.47500
C  43.84200 45.50300 42.37300
O  43.91600 45.72200 43.55700
O  42.75800 44.90300 41.68400
C  41.58700 44.55200 42.48600
H  49.14200 40.44400 41.32200
H  53.96500 44.38900 42.77800
H  49.88300 49.35600 43.15300
H  44.83400 42.86200 41.53700
H  46.95100 41.06000 40.36600
H  46.03900 39.52600 41.66600
H  45.14100 40.79600 42.66700
H  46.76700 40.35400 43.09600
H  45.69600 42.26800 38.75900
H  45.74600 43.91500 39.10700
H  43.49700 44.14300 39.49500
H  43.34900 42.34400 39.61600
H  52.40700 39.12000 41.54100
H  52.60200 40.08500 40.22000
H  50.84300 39.67300 40.73800
H  55.71900 43.16400 42.57900
H  56.14600 41.79600 43.65800
H  54.84200 42.88400 44.04200
H  53.99900 47.25000 42.51500
H  52.37900 48.56800 44.60700
H  55.38100 46.84000 44.19800
H  54.07900 45.80500 44.93200
H  54.25800 47.53500 45.35000
H  51.90600 49.57500 41.85600
H  53.57300 49.12300 42.01000
H  52.88800 50.68800 44.36700
H  52.54100 51.49100 42.85200
H  54.16400 50.88200 43.20900
H  46.33300 50.56200 42.40700
H  47.82500 50.38700 41.45600
H  47.86900 50.79000 43.18000
H  44.51800 45.70000 40.45200
H  41.66800 43.56600 42.94300
H  40.64700 44.39000 41.95800
H  41.36600 45.35300 43.19000

