158

Mg 30.67000 59.56800 38.69600
C  27.72600 58.24100 37.39800
C  32.27300 56.68300 37.84300
C  33.70100 61.10000 38.93500
C  29.06600 62.61400 39.20000
N  30.14900 57.71900 37.56600
C  28.84300 57.39500 37.34600
C  28.82000 55.93900 36.87400
C  30.06100 55.34700 37.67300
C  30.89500 56.64200 37.69100
C  29.55200 54.84500 39.08200
C  28.85700 55.87600 35.29500
C  27.87400 54.87500 34.54700
H  27.09000 55.31300 33.29500
N  32.72400 58.94600 38.47600
C  33.20200 57.71300 38.13300
C  34.60800 57.59300 38.08400
C  35.11900 58.90200 38.41800
C  33.85000 59.73600 38.67100
C  35.42700 56.31700 37.76900
C  36.59200 59.29100 38.50400
O  37.45800 58.43200 38.25000
C  37.03900 60.64900 38.91800
N  31.27500 61.54600 39.01100
C  32.58600 61.98500 38.99200
C  32.70400 63.52700 39.23100
C  31.19300 63.92200 39.42600
C  30.44700 62.57500 39.21200
C  33.57300 63.94900 40.43400
C  30.70000 65.13500 38.54300
C  29.80800 66.19700 39.25500
N  28.67200 60.30600 38.58200
C  28.19300 61.55000 38.79500
C  26.73700 61.47800 38.72000
C  26.50900 60.17400 38.17300
C  27.76200 59.54200 38.01800
C  25.82000 62.63900 38.77600
C  25.45500 59.27400 37.66600
O  24.26500 59.42800 37.52300
C  26.23200 58.05400 37.08100
C  25.59300 56.84600 37.77700
O  25.60900 56.53700 38.96400
O  24.95600 56.06000 36.83800
C  24.55400 54.67800 37.24500
H  32.65800 55.68000 37.64900
H  34.63600 61.66300 38.90100
H  28.52600 63.55100 39.35300
H  27.89900 55.48500 37.23800
H  30.54900 54.65400 36.98900
H  29.75900 55.65500 39.78200
H  30.08600 53.92600 39.32200
H  28.47900 54.66900 39.00300
H  29.83900 55.47500 35.04400
H  28.85000 56.90300 34.92700
H  27.19100 54.56900 35.33900
H  28.50600 54.01400 34.32700
H  36.16100 56.59400 37.01200
H  34.76100 55.65900 37.21200
H  35.74300 55.85000 38.70100
H  38.12500 60.60900 39.00600
H  36.62400 61.01600 39.85600
H  36.92500 61.35700 38.09700
H  33.02900 64.00400 38.30700
H  30.97400 64.00600 40.49100
H  33.07500 64.81900 40.86300
H  34.60700 64.21100 40.21000
H  33.45100 63.09100 41.09500
H  30.11400 64.63900 37.76900
H  31.50700 65.67600 38.04900
H  29.90000 66.04000 40.33000
H  28.77100 65.92400 39.05800
H  30.13900 67.20600 39.00600
H  25.40000 62.74800 37.77700
H  26.34100 63.57900 38.95800
H  25.01600 62.48300 39.49500
H  25.99700 58.12000 36.01900
H  23.66000 54.67200 37.86800
H  25.33200 54.30800 37.91300
H  24.44300 54.19500 36.27400
Mg -10.31700 16.81000 43.16000
C  -6.83400 17.67300 43.14200
C  -10.93700 20.06000 42.48800
C  -13.57000 16.00900 42.90400
C  -9.43300 13.45800 43.07100
N  -8.99400 18.62400 42.92800
C  -7.64300 18.81100 42.95100
C  -7.17500 20.27800 42.63800
C  -8.53000 21.03200 42.61600
C  -9.57900 19.85900 42.68900
C  -8.76000 22.04500 43.78400
C  -6.31400 20.37800 41.39300
C  -4.97900 21.08900 41.48300
H  -3.79500 20.24100 41.03600
N  -12.02200 17.92600 42.77400
C  -12.11300 19.24600 42.53500
C  -13.50900 19.68400 42.50000
C  -14.32100 18.51000 42.49000
C  -13.32500 17.42700 42.73600
C  -14.01900 21.06200 42.29400
C  -15.81900 18.43900 42.18500
O  -16.50900 19.45600 42.04800
C  -16.49200 17.05500 42.11000
N  -11.32800 14.98500 42.75200
C  -12.63500 14.92000 42.96400
C  -13.13000 13.51700 43.29800
C  -11.86400 12.66500 42.96500
C  -10.79500 13.74100 42.92400
C  -13.76500 13.39400 44.72300
C  -11.95200 11.81000 41.71300
C  -12.20500 10.33700 41.95300
N  -8.54100 15.73200 43.17600
C  -8.39500 14.36900 43.22600
C  -7.01100 14.08300 43.38500
C  -6.36300 15.36600 43.33000
C  -7.34700 16.30000 43.24900
C  -6.40400 12.70800 43.47200
C  -5.09400 16.04500 43.45400
O  -3.93500 15.65900 43.69700
C  -5.38300 17.56200 43.20000
C  -4.87600 18.42400 44.35800
O  -5.48800 18.70600 45.44700
O  -3.66100 18.85800 44.01000
C  -2.96900 19.81200 44.84700
H  -11.18100 21.12400 42.46600
H  -14.56600 15.57600 43.01800
H  -9.27000 12.38400 43.18700
H  -6.59300 20.57900 43.50800
H  -8.76600 21.43500 41.63100
H  -7.75000 22.40500 43.97700
H  -9.26200 21.63100 44.65800
H  -9.36100 22.82800 43.32200
H  -6.93600 20.96100 40.71400
H  -6.33800 19.38000 40.95500
H  -4.90600 21.33700 42.54200
H  -4.88700 22.01500 40.91600
H  -14.71500 21.01800 41.45700
H  -13.29600 21.79200 41.93000
H  -14.39700 21.40500 43.25700
H  -17.49400 17.25400 41.73100
H  -16.56900 16.61500 43.10500
H  -15.87500 16.38300 41.51400
H  -13.93500 13.23300 42.62000
H  -11.69800 12.02800 43.83400
H  -14.85300 13.46300 44.72000
H  -13.37400 14.21100 45.32900
H  -13.63400 12.42600 45.20800
H  -11.01600 11.97600 41.18000
H  -12.88100 12.11600 41.23300
H  -11.97200 9.83100 42.89000
H  -11.81400 9.76700 41.11000
H  -13.29400 10.30800 41.91900
H  -5.53200 12.89700 44.09800
H  -6.09200 12.31300 42.50500
H  -7.06900 12.01000 43.98000
H  -5.00300 17.97400 42.26600
H  -3.52300 20.16800 45.71600
H  -2.74600 20.57700 44.10300
H  -2.03500 19.41400 45.24300

