158

Mg 0.86800 7.20600 25.41500
C  1.55400 8.90100 28.38000
C  1.15500 4.27000 27.20800
C  0.40300 5.47100 22.63500
C  1.11100 10.24000 23.68000
N  1.07100 6.67200 27.60500
C  1.29700 7.56700 28.55000
C  1.36100 6.82800 29.87500
C  1.55000 5.28900 29.47000
C  1.26000 5.38400 27.97100
C  2.78900 4.59200 29.97800
C  0.10300 7.07200 30.72100
C  0.44400 7.49800 32.20600
H  1.73700 6.97700 32.85900
N  0.78100 5.12800 24.96700
C  0.95200 4.06900 25.81000
C  0.86400 2.84800 25.07200
C  0.68500 3.25700 23.71600
C  0.67000 4.68600 23.69400
C  1.12800 1.53600 25.73400
C  0.56500 2.33600 22.46200
O  0.49000 2.79800 21.30900
C  0.47800 0.89900 22.63100
N  0.86400 7.75600 23.44000
C  0.39900 6.89000 22.51400
C  0.10700 7.60600 21.21100
C  0.34900 9.09700 21.49700
C  0.78000 9.08500 22.98600
C  0.97400 6.95300 20.09900
C  -0.87700 10.04000 21.38700
C  -0.79200 11.24700 20.37600
N  1.39200 9.19100 25.90400
C  1.40000 10.31600 25.12800
C  1.57900 11.49900 25.93900
C  1.66300 10.98900 27.24500
C  1.63100 9.52600 27.15900
C  1.53000 12.91600 25.27200
C  1.84100 11.35200 28.67600
O  2.01900 12.43600 29.21700
C  1.83700 9.95500 29.42900
C  3.15300 9.82100 30.12900
O  4.20200 9.43100 29.60400
O  3.12800 10.49000 31.40200
C  4.43500 10.67800 32.14000
H  1.37400 3.39300 27.82100
H  0.07000 4.96100 21.72900
H  1.11400 11.20100 23.16100
H  2.23600 7.29500 30.32900
H  0.74100 4.69000 29.88900
H  3.43600 5.30100 30.49400
H  3.38600 4.19200 29.15800
H  2.51000 3.80100 30.67400
H  -0.49000 6.15900 30.78200
H  -0.60000 7.75300 30.24100
H  -0.44600 7.24300 32.78200
H  0.48900 8.58200 32.31100
H  2.05500 1.15800 25.30300
H  0.34200 0.84900 25.42100
H  1.02600 1.54900 26.81900
H  1.48800 0.52500 22.79600
H  0.05000 0.33500 21.80200
H  -0.25200 0.81600 23.43600
H  -0.97200 7.54100 21.07500
H  1.18600 9.39100 20.86300
H  1.14100 7.64800 19.27600
H  0.45500 6.06400 19.74000
H  1.97000 6.70100 20.46200
H  -1.07200 10.50000 22.35700
H  -1.77600 9.48000 21.13000
H  -0.92000 12.16800 20.94400
H  -1.45700 11.14600 19.51900
H  0.21000 11.34200 19.95700
H  1.33400 13.54800 26.13800
H  0.71400 13.07500 24.56600
H  2.41400 13.28700 24.75300
H  1.03000 10.06300 30.15300
H  5.22000 10.77900 31.39100
H  4.82900 9.87900 32.76900
H  4.29700 11.59500 32.71300
Mg 25.79500 0.64500 29.23400
C  27.61500 0.30000 32.18900
C  23.01000 1.20600 31.12900
C  23.96700 0.62900 26.42300
C  28.64500 -0.44500 27.45500
N  25.35600 0.68200 31.36500
C  26.30500 0.71300 32.39200
C  25.71600 1.33300 33.65500
C  24.24700 1.56900 33.29900
C  24.16600 1.08600 31.83600
C  23.23000 1.00800 34.34000
C  26.56700 2.54100 34.23100
C  27.23300 2.20600 35.65100
H  26.64900 2.98300 36.89800
N  23.81300 0.97800 28.84400
C  22.80100 1.12900 29.73200
C  21.51000 1.28700 29.00900
C  21.78100 1.20600 27.62100
C  23.21700 0.89500 27.60000
C  20.24500 1.56500 29.71400
C  20.87100 1.45600 26.28600
O  21.26300 1.29400 25.15600
C  19.34800 1.71700 26.37700
N  26.25200 0.22400 27.24700
C  25.30700 0.33800 26.23600
C  25.90500 0.06800 24.86300
C  27.44500 -0.31600 25.14200
C  27.51100 -0.10500 26.70100
C  25.15400 -0.92700 24.02100
C  28.47700 0.64600 24.35900
C  29.70900 -0.03300 23.90100
N  27.74600 0.02500 29.67400
C  28.72100 -0.42100 28.87500
C  29.89700 -0.74300 29.66100
C  29.50500 -0.43700 31.00900
C  28.16400 -0.02400 30.94700
C  31.31000 -0.97800 29.07600
C  29.98200 -0.23200 32.38500
O  31.07400 -0.47200 32.90500
C  28.78000 0.27000 33.18600
C  28.51300 -0.65600 34.30200
O  27.69700 -1.57400 34.24900
O  29.36300 -0.42800 35.31700
C  29.09800 -1.27300 36.53600
H  22.10000 1.26600 31.72900
H  23.42100 0.59900 25.47800
H  29.52400 -0.86400 26.96100
H  25.70500 0.51100 34.37200
H  24.13200 2.65200 33.26200
H  22.36700 1.67100 34.40300
H  23.65400 0.91800 35.34000
H  22.80000 0.15100 33.82100
H  25.92200 3.40800 34.36800
H  27.29500 2.84600 33.48000
H  28.29800 2.39800 35.77900
H  27.09100 1.15100 35.88600
H  19.75500 0.60000 29.83700
H  19.72400 2.27500 29.07200
H  20.38700 1.92900 30.73200
H  19.04900 0.83500 26.94400
H  18.85300 1.66900 25.40800
H  19.19000 2.66400 26.89500
H  25.82300 0.96000 24.24200
H  27.69000 -1.35800 24.94000
H  24.23500 -0.41800 23.72700
H  25.01700 -1.82900 24.61800
H  25.75200 -1.16800 23.14300
H  28.85000 1.52200 24.88900
H  27.86700 0.87700 23.48500
H  29.54800 -0.37400 22.87800
H  30.05700 -0.92000 24.43100
H  30.60100 0.59300 23.90200
H  31.98500 -0.86000 29.92300
H  31.37400 -0.25700 28.26100
H  31.31200 -1.96000 28.60200
H  28.91400 1.27900 33.57600
H  28.96100 -2.35300 36.48700
H  28.29900 -0.91200 37.18300
H  29.99200 -1.17900 37.15200

