158

Mg 47.17100 24.53500 28.05000
C  48.31100 26.79200 30.45700
C  46.79600 22.08600 30.49300
C  46.41900 22.36200 25.66300
C  47.99500 26.92100 25.59800
N  47.46200 24.44600 30.24100
C  47.84400 25.54900 31.00300
C  47.86700 25.15100 32.47100
C  47.38400 23.65400 32.51700
C  47.26400 23.34700 30.99900
C  48.39300 22.72400 33.34000
C  47.05700 26.15700 33.40700
C  46.57000 25.55700 34.70100
H  46.99900 26.29200 36.00900
N  46.58800 22.49800 28.02400
C  46.48100 21.67400 29.17200
C  46.07500 20.32300 28.68400
C  45.93200 20.38600 27.31000
C  46.32200 21.76100 26.92500
C  45.84000 19.19600 29.67000
C  45.60900 19.32200 26.33100
O  45.49300 19.54900 25.16100
C  45.34700 17.91900 26.74300
N  47.14200 24.62900 25.87300
C  46.79800 23.58300 25.12200
C  47.19100 23.84300 23.64100
C  47.31500 25.40900 23.70800
C  47.49200 25.69700 25.13700
C  48.48500 23.09400 23.21300
C  46.06800 26.14500 23.22800
C  46.25400 26.95700 21.93800
N  48.06900 26.41300 27.96000
C  48.30100 27.25800 26.90500
C  48.95300 28.53900 27.35800
C  48.90400 28.40100 28.77300
C  48.39700 27.07800 29.05400
C  49.43600 29.67700 26.56800
C  49.28000 28.99900 30.07800
O  49.78800 30.07700 30.32300
C  48.81200 27.98200 31.16000
C  49.94800 27.71000 32.09300
O  50.96700 27.09400 31.81800
O  49.67100 28.28900 33.30500
C  50.77600 28.38000 34.28000
H  46.63000 21.42400 31.34500
H  46.48000 21.70100 24.79600
H  48.22400 27.62400 24.79400
H  48.91000 25.27400 32.76200
H  46.39700 23.50700 32.95500
H  49.29300 23.12200 33.80700
H  48.69300 21.82900 32.79500
H  47.79400 22.42700 34.20100
H  46.34900 26.61200 32.71400
H  47.78200 26.90800 33.72100
H  46.77400 24.49700 34.85000
H  45.48100 25.55800 34.64400
H  46.67500 19.15500 30.37000
H  45.72100 18.22100 29.19800
H  44.90100 19.45200 30.16100
H  44.97900 17.29800 25.92600
H  44.46700 18.09500 27.36100
H  46.16800 17.47700 27.30800
H  46.34200 23.64100 22.98800
H  48.20100 25.69200 23.14000
H  49.37400 23.72200 23.25800
H  48.30400 22.65900 22.23000
H  48.59900 22.26800 23.91600
H  45.72400 26.91000 23.92400
H  45.20400 25.52000 23.00100
H  47.01900 26.59000 21.25300
H  46.54700 27.93500 22.31900
H  45.30400 27.16300 21.44500
H  49.26500 29.56900 25.49700
H  50.52200 29.75700 26.60900
H  49.02500 30.61900 26.93300
H  48.01900 28.56500 31.62700
H  50.69100 27.64100 35.07600
H  50.70400 29.34200 34.78700
H  51.75500 28.29100 33.80700
Mg -11.23800 17.48500 40.63800
C  -7.73800 16.80600 40.61100
C  -10.41600 20.81100 39.95700
C  -14.52200 18.09900 40.04800
C  -11.76200 14.13600 40.98500
N  -9.27300 18.65100 40.26100
C  -8.01700 18.13900 40.29200
C  -7.01800 19.17200 39.84900
C  -7.78500 20.54400 40.02200
C  -9.26700 19.96700 40.13200
C  -7.42100 21.30600 41.35200
C  -6.43200 19.02800 38.37300
C  -4.88600 18.81700 38.20200
H  -4.32900 17.72500 37.28100
N  -12.30600 19.17900 40.05100
C  -11.79700 20.43000 39.86000
C  -12.92600 21.38500 39.59500
C  -14.15000 20.65100 39.53600
C  -13.73400 19.24700 39.86300
C  -12.71600 22.84900 39.54300
C  -15.53100 21.12300 39.19200
O  -15.76700 22.28500 38.93900
C  -16.65300 20.14500 39.20000
N  -12.94400 16.23500 40.49000
C  -14.21500 16.74000 40.39500
C  -15.23000 15.60000 40.45200
C  -14.35300 14.31400 40.78000
C  -12.95000 14.89100 40.74000
C  -16.37800 15.89500 41.40600
C  -14.60800 13.07500 39.86000
C  -13.73900 12.98800 38.54600
N  -10.06500 15.74100 40.63400
C  -10.42500 14.43900 40.93500
C  -9.24000 13.57800 40.91700
C  -8.16100 14.47900 40.79100
C  -8.67800 15.80000 40.73100
C  -9.13500 12.08900 40.96300
C  -6.73600 14.54400 40.80300
O  -5.88100 13.61100 40.92800
C  -6.40900 16.05800 40.61100
C  -5.38700 16.50500 41.61300
O  -4.37600 17.12300 41.35100
O  -5.91100 16.37000 42.85600
C  -5.15700 16.93700 43.97300
H  -10.10200 21.85500 39.89400
H  -15.60600 18.22900 40.02700
H  -11.86800 13.05500 41.10200
H  -6.10300 19.05800 40.43100
H  -7.82600 21.23300 39.17800
H  -6.76700 20.72300 42.00100
H  -8.30300 21.49000 41.96600
H  -6.95300 22.25300 41.08500
H  -6.64200 19.90200 37.75600
H  -6.95800 18.28300 37.77700
H  -4.43900 18.77000 39.19500
H  -4.56200 19.81700 37.91200
H  -12.32200 23.20600 38.59200
H  -12.00100 23.14900 40.30900
H  -13.66000 23.34900 39.76200
H  -17.55000 20.62700 38.81000
H  -17.02500 19.73300 40.13800
H  -16.56300 19.28200 38.54100
H  -15.58300 15.51900 39.42300
H  -14.49900 13.98500 41.80900
H  -17.12500 16.13900 40.65000
H  -16.32400 16.76300 42.06300
H  -16.70100 14.99000 41.91900
H  -15.66000 13.04900 39.57400
H  -14.37500 12.23500 40.51500
H  -12.90000 12.32700 38.76200
H  -13.37700 13.98400 38.28900
H  -14.34700 12.45600 37.81400
H  -8.21900 11.69000 41.39800
H  -9.28200 11.77600 39.92900
H  -10.01100 11.76500 41.52500
H  -6.05000 16.06900 39.58200
H  -5.44500 17.97900 44.10700
H  -4.09700 16.86600 43.73000
H  -5.29800 16.39600 44.90900

