158

Mg 1.86400 8.58000 26.61400
C  2.03500 10.77000 29.45400
C  1.55600 5.99700 28.78200
C  1.74200 6.62200 23.97100
C  1.91500 11.45500 24.64600
N  1.94300 8.43700 28.72000
C  1.91300 9.44800 29.65700
C  1.75100 8.84500 31.08500
C  2.01500 7.36500 30.84900
C  1.84100 7.23300 29.38600
C  3.35300 6.80100 31.44800
C  0.25300 9.10500 31.56800
C  0.16900 9.59700 33.03300
H  1.14800 8.93800 33.91900
N  1.54300 6.54700 26.41900
C  1.39400 5.65400 27.44900
C  1.25900 4.36100 26.88200
C  1.54000 4.49300 25.49600
C  1.64400 5.94100 25.25800
C  0.86800 3.09800 27.64800
C  1.50300 3.42900 24.39200
O  1.72900 3.73900 23.22600
C  1.32400 1.93600 24.72300
N  1.94500 9.02400 24.61900
C  1.77700 7.99400 23.67700
C  1.97900 8.56600 22.27700
C  1.86600 10.12600 22.46800
C  1.95400 10.24500 24.00600
C  3.18000 8.10800 21.47100
C  0.52700 10.66100 21.90500
C  0.35300 12.14400 21.59800
N  2.09000 10.72500 26.90500
C  2.08200 11.75700 26.03000
C  2.20600 12.99100 26.66500
C  2.08100 12.68800 28.01700
C  2.04300 11.25100 28.10500
C  2.35000 14.35100 26.06700
C  2.05600 13.24600 29.39200
O  2.07400 14.40200 29.80800
C  1.86600 11.98200 30.36300
C  2.91200 12.06500 31.49300
O  4.12200 12.01100 31.33200
O  2.22600 12.25600 32.64900
C  3.08300 12.62400 33.81800
H  1.44800 5.22300 29.54600
H  1.56900 6.04300 23.06200
H  1.94500 12.28900 23.94200
H  2.56800 9.19600 31.71500
H  1.26400 6.74600 31.33900
H  3.74900 6.03500 30.78200
H  3.25700 6.48300 32.48700
H  3.94400 7.71700 31.42200
H  -0.28200 8.16600 31.42700
H  -0.32800 9.83500 31.00400
H  -0.81000 9.23400 33.34500
H  0.05900 10.67300 33.17000
H  -0.10400 2.67600 27.39300
H  0.86500 3.33700 28.71200
H  1.56800 2.31900 27.34700
H  2.04100 1.35500 25.30400
H  1.29000 1.42000 23.76300
H  0.37600 1.76100 25.23200
H  1.05900 8.19800 21.82300
H  2.70100 10.65400 22.00700
H  3.70300 7.49200 22.20300
H  3.87800 8.88900 21.16900
H  2.80400 7.39200 20.74100
H  -0.28600 10.41000 22.58600
H  0.35000 10.08200 20.99900
H  -0.30700 12.21400 20.73300
H  1.31700 12.64800 21.53300
H  -0.05700 12.69400 22.44500
H  1.63300 15.04100 26.51200
H  2.27100 14.39600 24.98100
H  3.33400 14.73600 26.33800
H  0.85300 11.92900 30.76100
H  3.64600 13.53800 33.63000
H  3.80000 11.85500 34.10400
H  2.36500 12.95400 34.56900
Mg 16.52600 52.82400 26.73100
C  18.45600 51.20300 29.15500
C  14.44200 53.96500 29.13000
C  14.33700 53.84400 24.37600
C  18.50900 51.27800 24.32900
N  16.40900 52.53400 28.88900
C  17.38800 51.92300 29.65800
C  17.15400 52.28700 31.12200
C  15.71800 52.93300 31.10300
C  15.48500 53.14800 29.63400
C  14.56900 52.00900 31.75900
C  18.16200 53.27400 31.70000
C  18.54800 53.23400 33.20200
H  17.58400 52.39700 34.05800
N  14.65500 53.75200 26.75100
C  14.04600 54.21100 27.82000
C  12.91600 55.01400 27.53000
C  12.83400 54.98300 26.09400
C  14.00600 54.21000 25.64400
C  11.93200 55.69400 28.48700
C  11.83200 55.61800 25.14800
O  11.84200 55.46700 23.93700
C  10.79200 56.55800 25.67800
N  16.35200 52.44500 24.69800
C  15.39500 52.99200 23.89700
C  15.67400 52.81900 22.40600
C  17.06400 52.02900 22.34700
C  17.36800 51.96000 23.85300
C  14.49600 52.30800 21.53400
C  18.21500 52.73400 21.47200
C  18.85800 54.00800 22.02100
N  18.27200 51.58200 26.66100
C  18.91400 51.03200 25.60900
C  19.99600 50.27100 26.07900
C  19.87200 50.32900 27.45400
C  18.77900 51.08500 27.80000
C  21.12100 49.60800 25.31500
C  20.50400 49.87400 28.71400
O  21.47900 49.17600 28.95400
C  19.57200 50.42100 29.86700
C  19.12400 49.32900 30.71600
O  18.06600 48.69100 30.65900
O  19.98000 49.23000 31.78300
C  19.71700 48.21200 32.81000
H  13.82500 54.27100 29.97700
H  13.73600 54.26900 23.57000
H  19.28300 50.86000 23.68200
H  17.16200 51.33100 31.64700
H  15.55200 53.82600 31.70500
H  13.87800 52.64700 32.31000
H  15.07200 51.35300 32.47000
H  13.97500 51.46300 31.02600
H  17.79500 54.25400 31.39800
H  19.08600 53.26600 31.12100
H  18.56300 54.20500 33.69700
H  19.51300 52.74700 33.34500
H  12.01600 56.78000 28.53400
H  11.98700 55.36000 29.52300
H  10.89400 55.44000 28.27200
H  9.93400 56.02300 26.08600
H  10.47800 57.12000 24.79800
H  11.21300 57.31300 26.34300
H  15.88100 53.76800 21.91100
H  16.84700 51.03900 21.94600
H  14.60900 51.29500 21.14900
H  14.46500 52.92700 20.63700
H  13.56900 52.52200 22.06600
H  17.90000 53.08000 20.48700
H  18.93400 51.94800 21.24400
H  18.64500 54.04800 23.08900
H  18.48600 54.84900 21.43500
H  19.93500 53.87200 21.93100
H  20.77500 48.66300 24.89500
H  21.90500 49.41600 26.04800
H  21.40100 50.21900 24.45700
H  20.17700 51.08600 30.48200
H  19.16900 48.69800 33.61700
H  20.60300 47.82100 33.31000
H  19.23800 47.31300 32.42000

