158

Mg 25.67200 1.31200 29.02800
C  27.52100 1.06700 32.04900
C  22.77900 1.35300 30.88800
C  24.03500 1.57700 26.12900
C  28.68400 0.71400 27.28000
N  25.26500 1.29600 31.16100
C  26.13800 1.24700 32.20400
C  25.46400 1.44800 33.60300
C  24.00500 1.22700 33.15800
C  23.96000 1.25600 31.64000
C  23.59800 -0.29500 33.53400
C  25.82700 2.84500 34.16600
C  26.44100 2.97300 35.62500
H  26.07700 4.09800 36.56200
N  23.63200 1.56800 28.57800
C  22.53900 1.57400 29.48100
C  21.34700 1.65700 28.77300
C  21.73600 1.74500 27.40300
C  23.20800 1.67700 27.30500
C  19.98600 1.47500 29.38800
C  20.81100 1.73900 26.12400
O  21.16000 1.54300 24.95400
C  19.27500 1.79400 26.36900
N  26.32100 1.19100 26.96200
C  25.42300 1.31500 25.92800
C  26.07700 1.05400 24.55200
C  27.63600 1.07800 24.98100
C  27.58000 0.87900 26.51100
C  25.53900 -0.25400 23.84100
C  28.42100 2.33500 24.51700
C  28.15600 3.68000 25.25700
N  27.66600 0.98700 29.50400
C  28.70900 0.64700 28.67700
C  29.83900 0.47000 29.53200
C  29.47900 0.72100 30.82900
C  28.09800 0.94000 30.75600
C  31.20500 0.08000 29.09400
C  29.98700 0.90300 32.20800
O  31.14200 0.92300 32.70100
C  28.69000 1.09500 33.02200
C  28.63000 0.05800 34.07700
O  28.17400 -1.06600 33.97300
O  29.21900 0.57500 35.20700
C  29.08500 -0.17200 36.48400
H  21.83400 1.28000 31.43000
H  23.43000 1.70400 25.22800
H  29.72800 0.69000 26.96200
H  25.95900 0.77500 34.30300
H  23.25400 1.86400 33.62400
H  23.21900 -0.38900 34.55200
H  24.31500 -1.03400 33.17700
H  22.68300 -0.48800 32.97200
H  24.85900 3.33800 34.26100
H  26.40900 3.34700 33.39300
H  27.51400 3.14700 35.53900
H  26.39400 2.05400 36.20900
H  19.33500 2.25600 28.99400
H  19.87200 1.52800 30.47000
H  19.59800 0.50600 29.07200
H  18.90600 0.82400 26.70100
H  18.78400 2.00000 25.41800
H  18.92500 2.63900 26.96200
H  25.74800 1.84100 23.87300
H  28.15500 0.22300 24.54700
H  24.45400 -0.18100 23.90200
H  25.92200 -1.14400 24.34000
H  25.91700 -0.23800 22.81800
H  27.99300 2.41200 23.51700
H  29.48800 2.18600 24.35500
H  29.15000 4.10400 25.40100
H  27.62900 3.50300 26.19400
H  27.40000 4.30100 24.77600
H  31.82400 0.19000 29.98500
H  31.58400 0.72000 28.29700
H  31.20800 -0.98900 28.88000
H  28.66700 2.05200 33.54300
H  29.36400 -1.22400 36.41500
H  28.07800 -0.19400 36.90000
H  29.82800 0.27600 37.14300
Mg -9.83700 39.77500 39.60400
C  -9.21300 36.30000 38.94000
C  -6.73000 40.53500 38.55700
C  -10.99800 42.96900 39.24900
C  -13.37300 38.72000 39.98300
N  -8.13400 38.48400 38.68900
C  -8.01900 37.13000 38.63800
C  -6.53800 36.74100 38.36900
C  -5.84000 38.13200 38.56700
C  -6.96900 39.12200 38.69200
C  -4.80200 38.22000 39.65900
C  -6.37300 36.01900 37.00000
C  -6.82700 36.76000 35.76200
H  -8.09300 36.29700 35.01900
N  -8.99800 41.48700 39.04700
C  -7.63300 41.60700 38.66400
C  -7.29600 43.00000 38.64900
C  -8.49200 43.73300 38.83600
C  -9.57400 42.74200 39.05700
C  -5.80600 43.48800 38.59400
C  -8.51400 45.25200 38.73900
O  -7.49500 45.90600 38.48600
C  -9.74200 46.00300 39.04200
N  -11.89600 40.67500 39.64700
C  -12.01400 42.00000 39.57300
C  -13.52200 42.36800 39.67000
C  -14.19400 41.08200 40.16600
C  -13.09000 40.08800 39.91400
C  -13.75800 43.63700 40.59700
C  -15.63400 40.84500 39.52700
C  -16.70700 40.59100 40.66100
N  -11.02900 37.96600 39.60900
C  -12.40600 37.73900 39.72400
C  -12.70800 36.37500 39.43000
C  -11.48700 35.77600 39.26300
C  -10.48600 36.79500 39.37700
C  -14.06500 35.78100 39.46100
C  -10.89100 34.46800 39.09500
O  -11.35200 33.36000 38.91100
C  -9.37500 34.80300 38.84100
C  -8.55000 33.99800 39.79900
O  -8.86100 33.77400 40.99200
O  -7.33200 33.61500 39.19700
C  -6.35100 32.92800 40.00500
H  -5.71300 40.89400 38.38800
H  -11.28400 44.02300 39.24000
H  -14.42600 38.49400 40.16500
H  -6.29900 36.06700 39.19300
H  -5.34800 38.38900 37.62900
H  -3.83300 38.10600 39.17300
H  -4.85300 37.40300 40.37800
H  -4.91200 39.16800 40.18600
H  -6.87500 35.05200 36.97600
H  -5.34100 35.77500 36.74900
H  -6.01400 36.59800 35.05500
H  -7.01200 37.78500 36.08200
H  -5.55600 44.09500 37.72400
H  -5.03700 42.73300 38.75400
H  -5.74600 44.19700 39.42000
H  -10.07500 45.85800 40.07000
H  -10.52300 45.63000 38.37900
H  -9.66300 47.07300 38.84600
H  -13.69700 42.42900 38.59600
H  -14.33700 41.25100 41.23300
H  -12.93100 43.77500 41.29400
H  -14.63300 43.46500 41.22400
H  -13.89700 44.62200 40.15100
H  -15.76600 39.89400 39.01100
H  -15.99900 41.52100 38.75500
H  -17.16100 39.60400 40.56900
H  -17.53000 41.30400 40.69700
H  -16.25100 40.68000 41.64700
H  -13.91900 34.70100 39.41600
H  -14.59900 35.99600 38.53600
H  -14.56200 36.08500 40.38200
H  -9.29300 34.49500 37.79800
H  -5.46600 32.90200 39.37000
H  -6.77500 31.93900 40.18100
H  -6.13500 33.49500 40.91000

