158

Mg 30.68900 57.06900 39.35300
C  28.01900 54.92400 38.29000
C  32.90000 54.78300 38.40700
C  33.01100 59.42400 39.50800
C  28.16700 59.51200 39.91800
N  30.44100 55.08300 38.15500
C  29.29200 54.32700 38.05500
C  29.68200 52.87200 37.78000
C  31.27200 52.80800 38.03400
C  31.56100 54.30100 38.27400
C  31.73600 51.85500 39.20700
C  29.19000 52.35500 36.34600
C  29.41100 53.17300 35.03800
H  28.40100 54.11800 34.40000
N  32.72700 57.01000 39.10100
C  33.50300 56.01300 38.68800
C  34.89600 56.41100 38.61100
C  34.92100 57.78000 38.99600
C  33.50900 58.08200 39.28100
C  35.93500 55.52500 38.09900
C  36.16200 58.62300 39.00400
O  37.19500 58.16000 38.60400
C  36.15800 60.09300 39.25800
N  30.65600 59.16500 39.68400
C  31.76000 59.94600 39.68900
C  31.36900 61.45500 39.86300
C  29.81100 61.37000 40.14900
C  29.49200 59.91500 39.87600
C  32.12900 62.29300 40.97100
C  29.00900 62.33100 39.17800
C  27.74900 63.06600 39.71000
N  28.53300 57.29000 39.19800
C  27.70400 58.32300 39.44600
C  26.29600 57.83000 39.21500
C  26.43100 56.47000 38.79500
C  27.79600 56.25900 38.75500
C  25.00800 58.42600 39.48800
C  25.63800 55.40500 38.30300
O  24.44000 55.27700 38.13000
C  26.65300 54.22800 38.00800
C  26.36800 53.15100 39.03100
O  26.80200 53.05300 40.17700
O  25.46000 52.27300 38.46100
C  24.76700 51.38300 39.39900
H  33.59100 53.94700 38.27700
H  33.63600 60.30900 39.36800
H  27.37000 60.21300 40.17500
H  29.18000 52.26300 38.53200
H  31.63600 52.52100 37.04700
H  32.14700 52.41500 40.04700
H  32.44200 51.10300 38.85400
H  30.85500 51.41200 39.67200
H  28.11100 52.21000 36.30400
H  29.71900 51.41500 36.18900
H  29.79900 52.44700 34.32300
H  30.25800 53.77600 35.36600
H  35.83400 55.43900 37.01700
H  35.68200 54.56800 38.55400
H  36.95100 55.69300 38.45800
H  37.12600 60.43700 39.62300
H  35.58300 60.17000 40.18100
H  35.75100 60.65200 38.41500
H  31.67300 61.87600 38.90500
H  29.65400 61.45600 41.22400
H  32.07800 63.37600 40.86100
H  33.18400 62.01800 40.94200
H  31.82900 61.94900 41.96100
H  28.64400 61.73900 38.33800
H  29.75200 63.05700 38.84900
H  27.62800 62.88700 40.77800
H  26.80000 62.71500 39.30400
H  27.84100 64.14800 39.62200
H  24.45600 57.89200 40.26100
H  24.40600 58.43100 38.57900
H  25.13400 59.48800 39.69700
H  26.44400 53.85400 37.00600
H  24.96300 51.64000 40.44000
H  24.99600 50.35200 39.12800
H  23.69300 51.49000 39.24800
Mg 35.88400 48.93900 24.54500
C  36.32700 47.08200 27.56400
C  34.47500 51.46700 26.38300
C  35.31100 50.58000 21.64200
C  37.09000 46.08600 22.68100
N  35.31700 49.18500 26.69400
C  35.72200 48.38900 27.74800
C  35.35300 49.06000 29.12800
C  34.62500 50.38500 28.63000
C  34.85700 50.40600 27.14900
C  33.12100 50.50100 29.07800
C  36.61700 49.37400 30.06000
C  36.20700 49.05900 31.52200
H  35.01500 49.85800 32.20000
N  35.10500 50.71400 24.07300
C  34.49200 51.57900 24.98900
C  34.15700 52.82000 24.30400
C  34.40900 52.64500 22.92200
C  34.95200 51.31600 22.83600
C  33.74500 54.10900 25.00000
C  34.22700 53.66500 21.72200
O  34.50500 53.35300 20.53100
C  33.96200 55.13300 22.00800
N  36.13300 48.41300 22.47500
C  35.85100 49.30200 21.46600
C  35.83900 48.56700 20.11300
C  36.78600 47.31900 20.47600
C  36.64000 47.21000 21.99800
C  34.37700 48.26300 19.61100
C  38.24800 47.51000 20.26900
C  38.92500 46.59200 19.24300
N  36.41200 46.94700 24.94600
C  37.03900 45.94400 24.13000
C  37.48900 44.79300 24.94500
C  37.21200 45.25300 26.25200
C  36.63400 46.58200 26.23400
C  38.18600 43.48100 24.56600
C  37.32100 44.78000 27.58800
O  37.83200 43.72200 28.05700
C  36.78200 45.98800 28.47400
C  35.65100 45.52400 29.31200
O  34.62700 45.13600 28.86800
O  35.99100 45.46800 30.61700
C  35.03000 44.84300 31.56100
H  34.08900 52.27100 27.01300
H  35.14900 51.13300 20.71400
H  37.51700 45.19900 22.20800
H  34.67200 48.38500 29.64800
H  35.18400 51.26100 28.95900
H  32.99200 50.18700 30.11300
H  32.57800 49.94000 28.31800
H  32.87600 51.56300 29.05500
H  36.98100 50.38900 29.90000
H  37.44500 48.72000 29.78500
H  37.17100 49.09100 32.03100
H  35.78800 48.05400 31.48100
H  33.36000 53.82300 25.97900
H  32.97900 54.74900 24.56400
H  34.64800 54.69300 25.17900
H  32.92300 55.29000 22.29800
H  34.22100 55.71900 21.12600
H  34.57500 55.31700 22.89100
H  36.30200 49.21600 19.37000
H  36.28400 46.40600 20.15500
H  33.63700 48.54300 20.36000
H  34.32700 47.23000 19.26600
H  34.26400 48.79900 18.66900
H  38.84000 47.37200 21.17400
H  38.36100 48.52300 19.88200
H  38.18500 46.03300 18.66900
H  39.58100 45.85800 19.71000
H  39.41700 47.27300 18.54800
H  39.20100 43.60900 24.18800
H  37.59400 43.04100 23.76400
H  38.16900 42.83000 25.43900
H  37.56100 46.40300 29.11300
H  35.72400 44.32900 32.22500
H  34.46100 44.09600 31.00600
H  34.36500 45.59300 31.98800

