158

Mg 1.66300 -1.76900 44.87900
C  4.88700 -0.97100 44.12200
C  0.51900 0.83600 42.90500
C  -1.44600 -3.09400 44.92000
C  2.95300 -4.79900 46.48100
N  2.62500 -0.43000 43.48500
C  3.93000 -0.10800 43.56000
C  4.23700 1.22200 42.81200
C  2.85300 1.90400 42.78300
C  1.92800 0.69400 43.06200
C  2.61900 3.03700 43.70200
C  4.80200 0.95200 41.38700
C  5.94600 1.83800 40.85200
H  5.65700 2.72800 39.63500
N  -0.19300 -1.12600 44.15800
C  -0.47800 0.00000 43.41500
C  -1.88300 0.09100 43.23700
C  -2.52600 -0.98000 43.91000
C  -1.39800 -1.79800 44.36100
C  -2.52500 1.33200 42.58000
C  -4.06800 -1.22200 44.14300
O  -4.87000 -0.47200 43.67800
C  -4.66100 -2.26000 45.17900
N  0.87600 -3.69900 45.52500
C  -0.46400 -3.95500 45.47400
C  -0.78700 -5.30600 46.05200
C  0.55000 -5.69600 46.69700
C  1.53600 -4.69700 46.20800
C  -2.05300 -5.32400 46.98900
C  0.92700 -7.14400 46.22700
C  1.48600 -7.95300 47.37000
N  3.60200 -2.72300 45.30300
C  3.95300 -3.88000 45.96600
C  5.41200 -3.99600 46.02900
C  5.88700 -2.80200 45.31900
C  4.71100 -2.15700 44.84000
C  6.14200 -5.16000 46.69200
C  7.03700 -2.03100 44.87400
O  8.26100 -2.20200 44.91200
C  6.39600 -0.74000 44.11200
C  6.78400 0.33200 45.06700
O  6.19200 0.73800 46.05600
O  7.70900 1.03600 44.38900
C  8.17200 2.35900 44.96900
H  0.24400 1.75000 42.37500
H  -2.45600 -3.50100 44.82800
H  3.17800 -5.70300 47.05000
H  4.99200 1.80600 43.33700
H  2.53000 2.12400 41.76600
H  3.49100 3.68000 43.82200
H  2.12800 2.67200 44.60400
H  1.83700 3.68900 43.31300
H  3.95600 0.91000 40.70100
H  5.18300 -0.06900 41.40400
H  6.77700 1.18300 40.58900
H  6.22300 2.44000 41.71800
H  -2.90200 1.24500 41.56100
H  -1.86600 2.19200 42.45800
H  -3.38900 1.63800 43.16900
H  -5.06300 -3.12200 44.64600
H  -5.54800 -1.80700 45.62100
H  -3.99900 -2.49000 46.01400
H  -1.06700 -6.03900 45.29600
H  0.36300 -5.49100 47.75100
H  -2.82900 -5.84300 46.42600
H  -2.42500 -4.35300 47.31400
H  -1.78500 -6.01900 47.78500
H  1.76100 -6.95400 45.55100
H  0.08600 -7.67400 45.78100
H  0.86300 -8.83000 47.54100
H  1.57400 -7.35200 48.27600
H  2.46600 -8.33300 47.07900
H  5.48600 -5.64400 47.41500
H  7.09700 -4.83900 47.10900
H  6.32900 -5.94000 45.95500
H  6.83800 -0.59300 43.12700
H  8.94500 2.81900 44.35400
H  8.73000 2.13500 45.87800
H  7.33600 3.04300 45.11900
Mg 35.08600 3.47500 30.40000
C  32.70700 4.55400 32.71600
C  37.40100 3.59500 32.98800
C  37.29900 2.74500 28.16600
C  32.58800 3.73600 27.90500
N  35.00800 4.03500 32.59000
C  33.92200 4.35900 33.31300
C  34.25600 4.25300 34.86600
C  35.85800 4.29900 34.88100
C  36.08800 3.90400 33.38200
C  36.39500 5.72300 35.13900
C  33.72200 2.95700 35.59200
C  34.01300 2.76000 37.08900
H  34.44900 3.98100 37.91300
N  37.10400 3.12200 30.60500
C  37.93600 3.14500 31.72600
C  39.28900 2.72800 31.36600
C  39.30700 2.76200 29.92000
C  37.86800 2.85900 29.50500
C  40.41400 2.66200 32.46200
C  40.39800 2.61300 28.94100
O  40.15500 2.83300 27.76500
C  41.73300 2.08800 29.38700
N  34.94300 3.37000 28.29900
C  35.99400 2.99300 27.61300
C  35.77400 3.06600 26.01400
C  34.23100 3.29200 25.98600
C  33.86700 3.47200 27.48700
C  36.55200 4.18800 25.19300
C  33.50700 2.13900 25.26500
C  33.10700 0.94400 26.07200
N  33.07100 4.11900 30.27700
C  32.18800 4.08900 29.17400
C  30.84000 4.27000 29.66900
C  31.02100 4.50900 31.05300
C  32.41000 4.41000 31.38800
C  29.61900 4.28900 28.78200
C  30.37300 4.75500 32.29700
O  29.18700 4.93300 32.47900
C  31.39100 4.74600 33.46000
C  31.21100 6.02800 34.12100
O  30.98400 7.13200 33.56100
O  31.27900 5.81700 35.46600
C  31.49600 7.08400 36.14100
H  38.12100 3.70500 33.80200
H  38.03200 2.45200 27.41100
H  31.78400 3.67100 27.16900
H  33.78900 5.11300 35.34600
H  36.20400 3.64300 35.68000
H  36.91600 5.71400 36.09600
H  35.65900 6.52100 35.22400
H  37.15800 5.86900 34.37400
H  34.12400 2.05600 35.12900
H  32.63500 2.93400 35.51100
H  34.64300 1.87000 37.10700
H  33.15100 2.33600 37.60400
H  40.13700 3.22000 33.35600
H  41.23900 3.20800 32.00400
H  40.85700 1.70800 32.74900
H  41.50000 1.28700 30.08800
H  42.28500 2.94700 29.76800
H  42.36500 1.73800 28.57100
H  36.16700 2.13800 25.59700
H  34.01000 4.18800 25.40700
H  37.12200 4.71900 25.95600
H  35.81600 4.84100 24.72500
H  37.17700 3.63200 24.49400
H  34.18700 1.77600 24.49500
H  32.66200 2.58600 24.74200
H  33.63700 0.88000 27.02300
H  33.20300 0.08800 25.40500
H  32.04600 0.98700 26.32200
H  29.00200 3.39200 28.81300
H  29.88300 4.35100 27.72600
H  28.95300 5.11400 29.03400
H  31.06800 3.99000 34.17500
H  32.27800 7.61900 35.60100
H  31.96000 6.83200 37.09400
H  30.63200 7.74900 36.12800

