158

Mg -10.69600 17.22100 41.01500
C  -7.15200 16.68600 40.88500
C  -10.12100 20.55500 40.32100
C  -13.94500 17.56400 40.40900
C  -11.10200 13.74000 41.13000
N  -8.85400 18.42200 40.51700
C  -7.57000 17.98400 40.60100
C  -6.65800 19.18800 40.35500
C  -7.49300 20.38100 40.80300
C  -8.90200 19.82400 40.53600
C  -7.24900 20.70000 42.31000
C  -6.26500 19.22200 38.83600
C  -4.82400 18.96700 38.42700
H  -4.55200 17.84500 37.38500
N  -11.90400 18.85300 40.49600
C  -11.45100 20.08600 40.13200
C  -12.49800 20.92500 39.80500
C  -13.71900 20.14700 40.02300
C  -13.24400 18.79600 40.33800
C  -12.28800 22.37500 39.51900
C  -15.11800 20.72800 40.00400
O  -15.34500 21.89900 39.77700
C  -16.29800 19.80600 40.25100
N  -12.26700 15.86200 40.61800
C  -13.56500 16.27100 40.62100
C  -14.54100 15.12000 40.75200
C  -13.58500 13.92800 40.72000
C  -12.20800 14.54000 40.79500
C  -15.31900 15.06200 42.13300
C  -13.80100 12.86300 39.61900
C  -12.98200 12.94800 38.31500
N  -9.44800 15.54200 41.09000
C  -9.72600 14.15100 41.11500
C  -8.46700 13.41600 41.33500
C  -7.46400 14.32900 41.14500
C  -8.09000 15.58100 40.96200
C  -8.33100 11.99800 41.65100
C  -6.06100 14.50200 41.09500
O  -5.14600 13.68600 41.20700
C  -5.77800 16.01200 40.82700
C  -4.92500 16.45300 41.89200
O  -3.76200 16.74500 41.71400
O  -5.60200 16.58500 43.07000
C  -4.79600 17.07700 44.23300
H  -9.96300 21.63300 40.24800
H  -15.02800 17.70100 40.45500
H  -11.35100 12.67900 41.18000
H  -5.81100 18.96500 41.00400
H  -7.35600 21.30800 40.24700
H  -6.85800 19.86200 42.88700
H  -8.15700 20.91600 42.87400
H  -6.57300 21.53900 42.47400
H  -6.59000 20.23100 38.58300
H  -6.94900 18.56800 38.29500
H  -4.13900 18.61100 39.19600
H  -4.34700 19.86100 38.02600
H  -11.45200 22.59700 38.85600
H  -12.10400 22.86900 40.47300
H  -13.18300 22.77400 39.04200
H  -16.21800 19.05800 39.46300
H  -17.26900 20.28700 40.12800
H  -16.14100 19.35300 41.23000
H  -15.29800 15.12000 39.96700
H  -13.57700 13.37400 41.65900
H  -15.18100 14.09500 42.61700
H  -16.34700 15.25200 41.82600
H  -14.95000 15.80300 42.84300
H  -14.85100 12.91700 39.33100
H  -13.72800 11.85100 40.01700
H  -12.56500 11.97200 38.06700
H  -12.13500 13.63400 38.28400
H  -13.65800 13.12800 37.47900
H  -8.05600 11.47000 40.73800
H  -9.24700 11.54700 42.03200
H  -7.58600 11.92500 42.44300
H  -5.39900 16.19400 39.82200
H  -5.34800 16.78900 45.12800
H  -4.66900 18.15900 44.28100
H  -3.78900 16.66300 44.29100
Mg -5.09400 25.69700 25.38000
C  -3.99000 26.98600 28.45500
C  -6.93200 23.26600 27.23400
C  -5.65200 23.87200 22.62300
C  -2.85400 27.63800 23.80600
N  -5.37700 25.19000 27.59100
C  -4.84600 25.87900 28.64800
C  -5.53400 25.42900 29.95300
C  -6.19400 24.04700 29.56800
C  -6.13300 24.11500 28.05200
C  -5.36200 22.84900 30.14200
C  -6.56300 26.48500 30.50700
C  -6.35000 26.96700 31.95300
H  -6.05400 25.97800 33.09900
N  -6.18800 23.92400 25.01600
C  -6.90600 23.09500 25.85100
C  -7.63800 22.11000 25.09100
C  -7.27400 22.25100 23.73900
C  -6.35700 23.36100 23.76300
C  -8.42200 21.03700 25.74100
C  -7.71800 21.43500 22.50100
O  -7.34000 21.64600 21.37700
C  -8.67300 20.17900 22.69000
N  -4.23500 25.65200 23.50700
C  -4.66300 24.89100 22.49600
C  -3.98600 25.25300 21.15300
C  -3.05600 26.49700 21.58600
C  -3.44600 26.67000 23.03300
C  -3.21200 24.09200 20.52100
C  -3.09300 27.73800 20.75100
C  -4.48700 28.12400 20.28500
N  -3.72100 27.07400 25.95300
C  -2.89000 27.81200 25.19400
C  -2.08100 28.72400 26.00500
C  -2.55700 28.46500 27.31400
C  -3.40000 27.36000 27.22800
C  -1.03800 29.70300 25.55300
C  -2.52600 28.90200 28.68300
O  -1.87700 29.76600 29.23600
C  -3.40400 27.86400 29.54300
C  -2.51500 27.17900 30.56900
O  -1.84800 26.19900 30.30000
O  -2.67200 27.79700 31.81400
C  -1.92800 27.25200 32.99900
H  -7.59600 22.58500 27.77100
H  -5.92700 23.42400 21.66600
H  -2.14900 28.27600 23.26900
H  -4.77200 25.49700 30.73000
H  -7.20700 23.97800 29.96600
H  -4.68600 22.40200 29.41300
H  -6.07100 22.09800 30.49000
H  -4.86700 23.18300 31.05300
H  -7.55300 26.03500 30.43400
H  -6.55300 27.28900 29.77100
H  -7.19300 27.61400 32.19800
H  -5.55900 27.71200 31.86600
H  -7.94500 20.08900 25.49400
H  -9.43600 21.03200 25.34300
H  -8.53000 21.12300 26.82200
H  -8.30500 19.54400 23.49600
H  -8.63300 19.62100 21.75500
H  -9.69400 20.52100 22.86100
H  -4.84700 25.59900 20.58100
H  -2.02600 26.16100 21.70800
H  -3.51400 23.19200 21.05700
H  -2.17100 24.03500 20.83800
H  -3.31400 24.08700 19.43600
H  -2.38100 27.42700 19.98700
H  -2.44800 28.46200 21.24800
H  -4.70000 29.19200 20.32800
H  -5.22200 27.74600 20.99500
H  -4.66200 27.64600 19.32100
H  -0.81600 29.48400 24.50900
H  -0.17900 29.76300 26.22100
H  -1.72100 30.54800 25.46400
H  -4.19000 28.41300 30.06200
H  -0.97600 26.78900 32.73900
H  -2.68700 26.56100 33.36600
H  -1.81900 27.96700 33.81400

