158

Mg 0.29700 7.16300 26.13200
C  1.41300 9.30700 28.90100
C  0.03600 4.66300 28.37000
C  -0.57000 5.22100 23.57300
C  1.00000 9.81600 23.98800
N  0.63500 7.00400 28.42500
C  1.00700 7.97800 29.38600
C  0.92300 7.38900 30.78200
C  0.54200 5.84400 30.54700
C  0.34600 5.87100 29.00200
C  1.64300 4.82900 30.95300
C  -0.16300 8.12900 31.61900
C  0.16700 8.47900 33.10300
H  1.36600 7.79500 33.66500
N  -0.11100 5.18500 25.93500
C  -0.19200 4.32800 27.03400
C  -0.66800 3.04400 26.58900
C  -0.99000 3.22000 25.19500
C  -0.57200 4.60300 24.80600
C  -0.86400 1.85800 27.60700
C  -1.58700 2.22900 24.24900
O  -1.99400 2.57100 23.14900
C  -1.77400 0.81400 24.64700
N  0.31500 7.46600 24.08500
C  -0.10500 6.48000 23.20300
C  -0.24800 7.01200 21.72500
C  0.16100 8.54000 22.00100
C  0.50600 8.62600 23.50200
C  0.78100 6.39100 20.67800
C  -0.96800 9.53900 21.66500
C  -0.62300 10.74600 20.65400
N  1.05400 9.14100 26.39100
C  1.31900 10.09700 25.32500
C  1.86100 11.26900 25.89900
C  1.99000 11.04600 27.25400
C  1.45300 9.71100 27.52000
C  2.07800 12.58300 25.19700
C  2.30900 11.73200 28.49700
O  2.64700 12.88500 28.71300
C  1.81100 10.61000 29.63600
C  3.00600 10.31400 30.49900
O  3.86600 9.42600 30.40900
O  2.91800 11.16900 31.53700
C  4.06500 11.31000 32.51600
H  0.05200 3.85400 29.10400
H  -0.84500 4.58600 22.72800
H  1.12900 10.58400 23.22200
H  1.97000 7.38600 31.08400
H  -0.30300 5.43900 31.10400
H  1.36000 3.99400 31.59400
H  2.45700 5.33500 31.47200
H  2.04400 4.33700 30.06700
H  -1.08200 7.54400 31.61200
H  -0.49400 9.00500 31.06100
H  -0.75300 8.14400 33.58300
H  0.31900 9.53700 33.31600
H  -1.72600 1.23800 27.35900
H  -1.09900 2.20500 28.61300
H  0.09400 1.33700 27.58300
H  -2.20200 0.24700 23.82000
H  -2.52300 0.86000 25.43700
H  -0.80800 0.39600 24.93300
H  -1.28200 6.80200 21.45200
H  1.05100 8.81400 21.43500
H  1.59000 5.85600 21.17500
H  1.24700 7.14000 20.03800
H  0.26600 5.68700 20.02500
H  -1.34400 9.84800 22.64000
H  -1.79300 8.99300 21.20900
H  0.35400 10.50000 20.23900
H  -0.51000 11.62700 21.28600
H  -1.45800 10.88700 19.96700
H  1.28700 12.82300 24.48600
H  3.07000 12.64100 24.75000
H  2.10500 13.34200 25.97800
H  0.96500 10.95800 30.22900
H  4.30700 12.35300 32.72100
H  5.01700 11.00900 32.07900
H  3.78500 10.89500 33.48400
Mg 51.40600 45.73500 41.88700
C  48.68500 47.02600 40.29200
C  50.48000 42.47800 41.06500
C  54.72000 44.67800 42.41000
C  52.64600 48.97700 42.47500
N  49.73600 44.84900 40.79700
C  48.68900 45.62600 40.35900
C  47.61300 44.67200 39.91600
C  48.10900 43.19900 40.28600
C  49.52900 43.46900 40.81800
C  47.28500 42.36300 41.27400
C  47.26100 44.91800 38.37600
C  45.78800 44.68000 38.11200
H  45.31700 43.40400 37.35200
N  52.47300 43.74800 41.85400
C  51.88700 42.61900 41.43700
C  52.85800 41.56600 41.40900
C  54.11900 42.14600 41.82700
C  53.83800 43.54300 42.08100
C  52.48700 40.05700 41.07400
C  55.34400 41.33900 42.02400
O  55.30200 40.13100 41.71400
C  56.52400 41.98600 42.62700
N  53.40100 46.71100 42.17600
C  54.46500 46.05300 42.59900
C  55.59400 46.97400 43.02200
C  54.93900 48.30000 43.23800
C  53.56700 48.00100 42.57800
C  56.47800 46.50100 44.17900
C  55.66000 49.57800 42.62600
C  56.10100 50.65600 43.70400
N  50.78300 47.60800 41.47500
C  51.39900 48.79400 41.84600
C  50.54000 49.87400 41.39000
C  49.42000 49.21900 40.84400
C  49.64900 47.85100 40.89400
C  50.85700 51.35700 41.38100
C  48.17700 49.40900 40.14100
O  47.60500 50.44100 39.74300
C  47.64900 47.95800 39.69600
C  46.22200 47.87500 40.16700
O  45.77700 47.69200 41.26700
O  45.45400 47.89500 39.08600
C  44.03700 47.76400 39.32600
H  50.18900 41.43900 40.89600
H  55.79200 44.47300 42.35600
H  52.92200 49.97400 42.82300
H  46.79600 44.99000 40.56300
H  48.13400 42.71500 39.31000
H  46.40000 42.93300 41.55800
H  47.86100 42.23700 42.19100
H  46.95000 41.43500 40.81100
H  47.78900 44.14600 37.81600
H  47.52300 45.88500 37.94700
H  45.45100 45.55200 37.55200
H  45.26600 44.76100 39.06500
H  52.84400 39.48000 41.92700
H  52.94400 39.63900 40.17800
H  51.42800 39.90000 40.86900
H  56.25400 42.66000 43.43900
H  56.94400 42.54800 41.79300
H  57.33400 41.29400 42.86000
H  56.28000 46.90000 42.17800
H  54.70700 48.47900 44.28800
H  56.46500 47.29500 44.92500
H  57.48900 46.32200 43.81300
H  56.05000 45.55000 44.49700
H  55.02200 50.11000 41.91900
H  56.55200 49.20900 42.12000
H  55.60900 51.58400 43.41100
H  57.18400 50.69400 43.82100
H  55.69800 50.31600 44.65800
H  50.25900 51.89200 40.64300
H  51.92100 51.47600 41.17400
H  50.66300 51.75800 42.37600
H  47.73900 47.91200 38.61000
H  43.47800 47.36000 38.48200
H  43.62500 48.76800 39.43100
H  43.66100 47.14500 40.14100

