158

Mg 48.18300 15.89700 28.48400
C  46.17700 15.61900 31.38800
C  50.25000 18.00000 30.21800
C  50.07200 16.06100 25.81000
C  45.83200 14.00900 26.75700
N  48.09500 16.77700 30.55800
C  47.23200 16.36400 31.57100
C  47.75800 16.94700 32.94600
C  48.94300 17.86600 32.47300
C  49.05700 17.57200 30.96000
C  48.74200 19.44500 32.68500
C  48.19900 15.90200 33.92300
C  48.03200 16.33700 35.45200
H  49.10900 15.89200 36.41400
N  49.86800 16.96100 28.16500
C  50.59500 17.77600 28.95600
C  51.82200 18.21300 28.31200
C  51.79700 17.64900 26.96900
C  50.56900 16.80300 26.91600
C  52.89800 19.02100 29.02000
C  52.86100 17.74700 25.86800
O  52.81200 17.09800 24.82800
C  54.09800 18.54900 26.03800
N  47.88400 15.29300 26.53300
C  48.91500 15.37100 25.60500
C  48.58300 14.68200 24.27700
C  47.14500 14.23100 24.53100
C  46.92900 14.51200 25.99900
C  48.57900 15.70400 23.00500
C  46.97600 12.72800 24.14500
C  47.80100 11.64500 24.93800
N  46.38100 15.05700 28.94100
C  45.54500 14.25200 28.11500
C  44.37000 13.97900 28.83300
C  44.57000 14.45200 30.14300
C  45.82500 15.09200 30.16300
C  43.18600 13.19800 28.26700
C  43.95800 14.47300 31.43400
O  42.89600 14.00600 31.85900
C  44.98700 15.16800 32.34300
C  44.43100 16.48400 32.88500
O  44.11800 17.50400 32.23800
O  44.29500 16.38000 34.28100
C  44.08500 17.70200 34.93600
H  50.88200 18.68800 30.78300
H  50.74700 16.17000 24.95900
H  45.08100 13.41000 26.23700
H  46.98300 17.57200 33.39000
H  49.86300 17.56200 32.97100
H  48.58700 20.05700 31.79600
H  49.56900 19.82500 33.28400
H  47.86000 19.73400 33.25600
H  49.25600 15.73000 33.72200
H  47.67100 14.97800 33.68800
H  47.12000 15.80700 35.72400
H  47.86400 17.41000 35.53300
H  52.81600 19.10200 30.10400
H  53.06800 19.98700 28.54500
H  53.76900 18.39400 28.83100
H  53.85000 19.38000 26.69900
H  54.30600 18.86500 25.01600
H  54.99300 18.05800 26.42200
H  49.26000 13.85100 24.08000
H  46.35800 14.85000 24.10100
H  47.58100 15.84500 22.58800
H  49.22300 15.34100 22.20400
H  48.85000 16.72300 23.27900
H  47.42800 12.64500 23.15700
H  45.90200 12.58200 24.03200
H  47.08100 10.87400 25.21200
H  48.34200 12.02800 25.80200
H  48.57700 11.19300 24.32100
H  42.80900 13.40500 27.26500
H  42.36900 13.46700 28.93600
H  43.38000 12.12600 28.30200
H  45.34300 14.42300 33.05500
H  44.50600 18.49600 34.31900
H  44.60800 17.67300 35.89200
H  43.00100 17.81600 34.92600
Mg -3.27600 34.10200 26.55000
C  -4.33600 32.29800 29.38000
C  -1.97600 36.40400 28.67700
C  -3.00700 36.29100 23.89600
C  -5.07200 31.94000 24.44400
N  -3.20200 34.25300 28.77500
C  -3.46300 33.32600 29.75600
C  -3.01000 33.76400 31.13300
C  -2.26900 35.14500 30.84200
C  -2.48800 35.29500 29.32900
C  -2.50600 36.24500 31.86400
C  -2.19800 32.64600 31.86100
C  -2.72900 32.13600 33.22200
H  -1.80000 32.23500 34.40400
N  -2.40900 35.94800 26.34700
C  -1.81000 36.70700 27.32500
C  -1.11100 37.85200 26.72500
C  -1.43300 37.78200 25.32600
C  -2.35700 36.65200 25.11600
C  -0.26700 38.85200 27.54900
C  -0.86200 38.60800 24.20900
O  -1.05200 38.23700 23.05000
C  -0.09100 39.86700 24.48900
N  -4.00200 34.18100 24.43500
C  -3.77200 35.19800 23.62800
C  -4.11000 34.81100 22.16400
C  -4.63700 33.33100 22.32700
C  -4.52600 33.08000 23.80400
C  -5.21500 35.75900 21.74500
C  -3.74500 32.33500 21.53400
C  -2.35700 32.01500 22.09600
N  -4.40500 32.44100 26.79700
C  -5.06300 31.66900 25.84100
C  -5.92300 30.73500 26.54100
C  -5.58700 30.93300 27.89800
C  -4.68600 31.96700 27.99900
C  -6.97000 29.76000 25.97800
C  -5.95500 30.45500 29.23300
O  -6.67600 29.56800 29.62000
C  -4.98300 31.31000 30.22600
C  -5.93900 31.94900 31.10300
O  -6.53500 33.02100 30.89000
O  -5.99200 31.29100 32.27600
C  -6.52000 32.02900 33.43800
H  -1.46700 37.07500 29.37200
H  -2.88900 36.95600 23.03800
H  -5.77300 31.40300 23.80100
H  -3.90900 33.96300 31.71700
H  -1.21800 34.87000 30.94000
H  -1.53300 36.47700 32.29900
H  -3.24000 35.98400 32.62600
H  -2.88900 37.20200 31.50700
H  -1.16900 32.98900 31.96900
H  -2.13000 31.70700 31.31100
H  -2.81300 31.08700 32.93700
H  -3.65200 32.63800 33.51200
H  -0.30200 38.52900 28.58900
H  -0.81000 39.79600 27.52300
H  0.77000 38.87900 27.21200
H  -0.69200 40.49800 25.14300
H  0.10100 40.34000 23.52600
H  0.88500 39.61400 24.90500
H  -3.14200 34.91900 21.67300
H  -5.67400 33.20600 22.01500
H  -4.89700 36.28200 20.84300
H  -5.46400 36.42800 22.56800
H  -6.09400 35.12500 21.62300
H  -3.63100 32.84200 20.57600
H  -4.24100 31.40400 21.25900
H  -2.03500 32.67400 22.90300
H  -1.65900 32.05100 21.26000
H  -2.32700 30.96700 22.39500
H  -7.65700 29.26400 26.66400
H  -6.38300 29.08600 25.35400
H  -7.55000 30.27300 25.21100
H  -4.25900 30.78800 30.85200
H  -6.00800 32.97700 33.59800
H  -6.45400 31.39300 34.32100
H  -7.58000 32.16600 33.22300

