158

Mg 9.09500 47.29900 27.71400
C  7.37900 46.83500 30.71500
C  11.92800 47.87000 29.58200
C  10.70000 48.07500 24.86000
C  6.02900 47.68200 26.05500
N  9.56300 47.43200 29.84500
C  8.69200 47.13400 30.87700
C  9.34500 47.43800 32.24600
C  10.73500 47.92300 31.88700
C  10.77200 47.75200 30.36900
C  10.99100 49.40600 32.42300
C  9.40800 46.18800 33.22100
C  9.18800 46.49300 34.70400
H  9.67700 45.39700 35.64600
N  11.08300 47.65800 27.29500
C  12.15000 47.78500 28.16100
C  13.34200 48.02100 27.39300
C  12.99700 47.95000 26.02100
C  11.50800 47.89400 25.99000
C  14.62200 48.26100 27.96800
C  13.83500 47.80200 24.77900
O  13.36300 47.80500 23.65200
C  15.30700 47.64900 24.94900
N  8.44500 47.86800 25.74300
C  9.34300 48.08300 24.75600
C  8.69900 48.53200 23.41500
C  7.15600 48.29300 23.76800
C  7.17300 47.87200 25.23400
C  8.95900 49.99900 23.11300
C  6.54200 47.28400 22.78600
C  6.63000 47.57000 21.26000
N  7.07600 47.18300 28.22500
C  5.95100 47.35200 27.44700
C  4.72200 47.09700 28.30900
C  5.23900 46.91000 29.59300
C  6.69900 46.90700 29.49800
C  3.30300 47.10600 27.89600
C  4.92500 46.63800 30.95900
O  3.81300 46.50200 31.42700
C  6.28600 46.63600 31.76200
C  6.34300 45.28800 32.33700
O  6.76300 44.24900 31.82000
O  5.97600 45.45200 33.66300
C  6.33300 44.25000 34.52600
H  12.78100 47.99100 30.25300
H  11.10600 48.27800 23.86700
H  5.07900 47.91200 25.56700
H  8.79700 48.27700 32.67300
H  11.56800 47.31300 32.23700
H  10.22300 50.08300 32.04900
H  11.96900 49.64900 32.00800
H  10.95900 49.39900 33.51300
H  10.40000 45.74500 33.30400
H  8.93500 45.32800 32.74600
H  8.16900 46.72100 35.01600
H  9.65800 47.46500 34.85300
H  15.20000 47.33700 27.93300
H  14.32200 48.54100 28.97800
H  15.03800 49.09400 27.40100
H  15.82500 48.58300 25.16900
H  15.71000 47.12300 24.08300
H  15.37100 46.92300 25.75900
H  8.96800 47.91600 22.55700
H  6.60200 49.23100 23.79800
H  9.61800 50.09400 22.25000
H  9.37200 50.50700 23.98400
H  8.06700 50.55500 22.82300
H  5.47800 47.26900 23.02200
H  7.03700 46.34700 23.04100
H  5.67700 47.57800 20.73300
H  7.30300 46.84400 20.80500
H  7.01100 48.59200 21.26100
H  2.62300 47.53700 28.63200
H  2.92200 46.08800 27.81900
H  3.10700 47.65100 26.97200
H  6.29000 47.43100 32.50900
H  6.36000 44.53800 35.57700
H  7.34800 43.93100 34.29200
H  5.67600 43.39900 34.34700
Mg -0.02200 43.49200 26.43200
C  2.61700 43.10100 28.91100
C  -2.07000 42.08400 28.92200
C  -2.49700 43.62400 24.29100
C  2.41300 44.16600 24.24000
N  0.27200 42.76900 28.69800
C  1.37500 42.77800 29.47800
C  1.09700 42.59400 30.93900
C  -0.32300 41.96800 30.86500
C  -0.75500 42.27900 29.44400
C  -0.53500 40.44400 31.17800
C  1.14100 44.00000 31.66700
C  1.73800 44.01700 33.16500
H  1.57400 42.75600 34.02000
N  -1.96500 42.91700 26.55400
C  -2.59800 42.43500 27.66200
C  -4.01100 42.16600 27.21500
C  -4.16700 42.51600 25.84900
C  -2.86100 43.03000 25.50500
C  -5.00500 41.54600 28.20600
C  -5.26700 42.38700 24.95800
O  -5.22700 42.78500 23.80200
C  -6.62800 41.93500 25.45500
N  -0.02800 43.62000 24.41000
C  -1.20000 43.84700 23.76000
C  -0.89900 44.26200 22.30600
C  0.57300 44.71500 22.41400
C  1.05600 44.13300 23.75200
C  -1.20000 43.14900 21.26900
C  0.74000 46.27300 22.24000
C  1.14400 46.67100 20.83000
N  2.04200 43.48600 26.48400
C  2.89500 43.80300 25.47000
C  4.23500 43.73700 25.96300
C  4.16100 43.59900 27.28500
C  2.81000 43.30900 27.54600
C  5.38800 44.09000 25.08700
C  4.93400 43.57700 28.49700
O  6.10000 43.65700 28.77800
C  3.90600 43.36000 29.54200
C  4.34900 42.09100 30.20900
O  4.38000 40.96300 29.74700
O  4.79300 42.39200 31.53000
C  5.09000 41.14600 32.24000
H  -2.76800 41.64200 29.63600
H  -3.27400 43.74300 23.53300
H  3.22100 44.37200 23.53400
H  1.78700 41.87300 31.37900
H  -0.99000 42.40100 31.61200
H  -1.05000 39.99300 30.33000
H  -1.15100 40.30700 32.06700
H  0.42000 39.93100 31.29500
H  0.15700 44.46800 31.64800
H  1.81000 44.66300 31.11900
H  1.26300 44.84800 33.68500
H  2.76800 44.37400 33.17000
H  -5.51000 42.37600 28.70000
H  -4.63200 40.87200 28.97700
H  -5.73600 40.90800 27.70900
H  -6.81900 42.44900 26.39700
H  -6.62100 40.84500 25.48700
H  -7.27300 42.38200 24.69900
H  -1.60800 45.06900 22.12000
H  1.16600 44.06400 21.77200
H  -2.26300 43.26200 21.05700
H  -0.97600 42.14300 21.62400
H  -0.63400 43.37800 20.36600
H  1.47200 46.66000 22.94800
H  -0.21800 46.75100 22.44400
H  2.15000 47.08600 20.88800
H  0.41500 47.43100 20.55000
H  1.16600 45.82500 20.14300
H  5.95600 44.89700 25.55000
H  4.99600 44.40300 24.11900
H  5.96000 43.16900 25.20100
H  3.94000 44.08600 30.35400
H  5.35300 41.43900 33.25600
H  5.96700 40.68200 31.78700
H  4.17600 40.55400 32.27200

