158

Mg 26.64700 50.40500 26.90700
C  24.51800 51.56000 29.51700
C  28.79100 49.21300 29.48000
C  28.85400 49.48600 24.63200
C  24.52400 51.78400 24.57100
N  26.71100 50.50700 29.20800
C  25.66800 50.91700 30.04200
C  25.93300 50.55300 31.50400
C  27.34000 50.00300 31.47500
C  27.62400 49.90900 29.95900
C  28.40700 50.80300 32.27300
C  24.87400 49.58600 32.14600
C  24.18500 50.21700 33.36200
H  24.20500 49.43800 34.68300
N  28.51600 49.58100 27.02700
C  29.17900 49.09100 28.12500
C  30.37900 48.45400 27.69600
C  30.49100 48.51700 26.29200
C  29.30900 49.27000 25.93700
C  31.40600 47.80800 28.67700
C  31.63200 48.01900 25.35800
O  31.61400 48.21100 24.19200
C  32.86600 47.22900 25.85900
N  26.69800 50.72700 24.89700
C  27.67400 50.15800 24.15600
C  27.28500 50.23900 22.64800
C  25.92600 51.07400 22.67700
C  25.69100 51.22100 24.11100
C  28.45200 50.99800 21.79100
C  24.77400 50.42600 21.84200
C  23.67900 49.51100 22.54100
N  24.85000 51.41700 26.95000
C  24.09500 52.00000 25.93800
C  22.83500 52.49400 26.49100
C  23.02700 52.47100 27.87300
C  24.26500 51.74800 28.07800
C  21.66000 52.98700 25.68400
C  22.47700 52.82400 29.12900
O  21.55400 53.55500 29.45500
C  23.38800 52.17500 30.22600
C  23.98400 53.25300 31.04400
O  24.91200 54.04900 30.85100
O  23.28100 53.30000 32.20900
C  23.66900 54.25300 33.25400
H  29.39400 48.75900 30.27000
H  29.37000 48.93300 23.84400
H  23.73700 52.14400 23.90600
H  25.95500 51.51400 32.01700
H  27.32800 49.01500 31.93600
H  29.33500 50.23100 32.30000
H  28.07500 50.98200 33.29600
H  28.49900 51.76400 31.76600
H  25.24800 48.60600 32.44200
H  24.11100 49.40500 31.38900
H  23.12000 50.35400 33.17500
H  24.53900 51.22300 33.58400
H  32.39600 48.26300 28.65000
H  31.61900 46.78900 28.35200
H  31.08700 47.77600 29.71900
H  32.73900 46.15000 25.95600
H  33.05900 47.72300 26.81100
H  33.70000 47.44300 25.19100
H  27.12000 49.26300 22.19300
H  26.12400 52.01500 22.16300
H  28.11100 51.72700 21.05600
H  28.95700 50.27100 21.15500
H  29.16900 51.42800 22.49000
H  25.28200 49.70400 21.20300
H  24.33700 51.13900 21.14200
H  22.82100 50.17700 22.44800
H  23.84800 49.21100 23.57500
H  23.67700 48.55000 22.02700
H  20.90600 52.26500 25.37000
H  22.06900 53.58700 24.87000
H  21.16700 53.69300 26.35100
H  22.86500 51.46900 30.87100
H  24.71800 54.03700 33.46100
H  23.12100 54.14300 34.18900
H  23.36400 55.26600 32.99200
Mg -1.62100 34.64200 26.06000
C  -3.23000 32.76800 28.54500
C  -0.50400 36.82300 28.52700
C  -0.18700 36.44600 23.65100
C  -3.00500 32.56800 23.70600
N  -1.85700 34.70800 28.27000
C  -2.64700 33.89600 29.08500
C  -2.46100 34.33400 30.54600
C  -1.71700 35.64400 30.48700
C  -1.34200 35.73800 28.95400
C  -2.55000 36.87700 30.98500
C  -1.74000 33.17200 31.27800
C  -2.30000 32.72200 32.66900
H  -1.29400 32.63700 33.91600
N  -0.48700 36.37000 26.13400
C  -0.07900 37.13700 27.22400
C  0.74200 38.26700 26.83500
C  0.80000 38.16900 25.39700
C  -0.01900 36.93800 24.99800
C  1.32000 39.26800 27.81400
C  1.52200 39.10000 24.42400
O  1.46200 38.97200 23.21600
C  2.09100 40.37900 24.96900
N  -1.74300 34.67100 23.96100
C  -0.93000 35.41400 23.19500
C  -1.10100 35.18000 21.74700
C  -1.95600 33.86500 21.73000
C  -2.28800 33.67400 23.23200
C  -1.83200 36.31000 20.93700
C  -1.25400 32.59100 21.17500
C  0.02300 32.23900 21.92700
N  -2.91300 33.03700 26.08000
C  -3.35900 32.29000 25.04000
C  -4.16100 31.21300 25.44600
C  -4.22500 31.35400 26.88000
C  -3.36300 32.43700 27.20800
C  -5.03600 30.36000 24.57700
C  -4.87900 30.95000 28.13600
O  -5.69900 30.03100 28.27300
C  -4.13600 31.79100 29.27500
C  -5.19800 32.50900 30.09500
O  -5.93400 33.42200 29.70300
O  -5.29100 32.05900 31.35000
C  -6.26800 32.56200 32.30400
H  -0.04600 37.37300 29.35100
H  0.45500 36.94600 22.92200
H  -3.41700 31.86400 22.98000
H  -3.49800 34.39200 30.87500
H  -0.80000 35.55700 31.06900
H  -2.67300 37.71600 30.30000
H  -2.03500 37.31800 31.83900
H  -3.54000 36.64600 31.37900
H  -0.72100 33.49600 31.48800
H  -1.50100 32.29100 30.68300
H  -2.78400 31.74600 32.61500
H  -3.05600 33.48000 32.87600
H  2.24300 39.72000 27.45100
H  1.38800 38.91700 28.84400
H  0.58800 40.07400 27.78000
H  2.29200 41.03200 24.11900
H  3.02100 40.15000 25.49000
H  1.36600 40.88900 25.60300
H  -0.15200 35.08200 21.21900
H  -2.83500 33.77800 21.09100
H  -2.35800 36.90800 21.68100
H  -2.51700 35.96400 20.16300
H  -1.07400 36.85400 20.37300
H  -0.88400 32.79700 20.17100
H  -2.04500 31.84100 21.20300
H  0.08300 31.17000 22.12800
H  0.11700 32.77800 22.87000
H  0.85300 32.47800 21.26200
H  -6.05600 30.28600 24.95400
H  -4.62500 29.39000 24.29700
H  -5.08700 30.91600 23.64100
H  -3.45800 31.17700 29.86800
H  -5.73100 33.22400 32.98300
H  -6.59200 31.72500 32.92100
H  -7.09200 33.11700 31.85400

