158

Mg 7.58700 2.55600 27.08700
C  8.86800 1.20800 30.01700
C  5.47800 4.51000 28.99700
C  6.07300 3.63100 24.21300
C  8.97200 -0.13200 25.34600
N  7.06300 2.70900 29.28700
C  7.88300 2.16700 30.24800
C  7.48200 2.76900 31.60800
C  6.22800 3.71000 31.30700
C  6.28300 3.67000 29.77800
C  4.89000 3.06300 31.69700
C  8.64800 3.52400 32.23500
C  8.38500 3.96100 33.67200
H  9.41200 3.58000 34.79100
N  6.05900 3.93700 26.62400
C  5.30300 4.55700 27.55400
C  4.33300 5.44900 26.87900
C  4.61700 5.38200 25.52100
C  5.61700 4.26200 25.38900
C  3.39600 6.35300 27.63000
C  4.18400 6.21200 24.36500
O  4.43100 5.96500 23.19600
C  3.20400 7.37000 24.63900
N  7.46300 1.86300 25.13500
C  6.92000 2.57100 24.14600
C  7.10200 1.86300 22.83800
C  8.22900 0.72500 23.09700
C  8.17800 0.80800 24.64500
C  5.89200 1.32200 22.03400
C  9.59600 1.16500 22.44600
C  10.46400 2.09000 23.27700
N  8.68300 0.86900 27.48800
C  9.23900 -0.05000 26.71900
C  10.26900 -0.75500 27.43300
C  10.08000 -0.27500 28.75100
C  9.13200 0.71000 28.71800
C  11.24900 -1.77500 26.99600
C  10.51800 -0.54400 30.07600
O  11.30000 -1.37300 30.51700
C  9.82100 0.46400 30.95100
C  9.19000 -0.08400 32.14800
O  8.21700 -0.82200 32.25300
O  9.97800 0.26200 33.23800
C  9.43300 -0.06400 34.56800
H  4.96900 5.29100 29.56500
H  5.74100 3.94200 23.22100
H  9.50300 -0.92000 24.80800
H  7.26400 1.95700 32.30100
H  6.55500 4.65800 31.73500
H  4.44800 3.57400 32.55200
H  4.96200 1.99200 31.89200
H  4.14300 2.94400 30.91200
H  8.68900 4.50600 31.76400
H  9.57100 2.94600 32.17500
H  7.38500 3.68700 34.00800
H  8.42200 5.04800 33.74500
H  3.91800 7.30400 27.73700
H  3.31000 5.95600 28.64100
H  2.48300 6.43500 27.04000
H  2.22800 6.93300 24.84800
H  3.25900 8.02400 23.76900
H  3.52500 7.95300 25.50200
H  7.63700 2.52500 22.15600
H  7.89300 -0.25800 22.76400
H  5.06800 1.23700 22.74300
H  5.98200 0.33500 21.58000
H  5.75400 2.11600 21.30000
H  9.38300 1.64400 21.49000
H  10.03000 0.18600 22.24400
H  10.08800 2.23500 24.29000
H  10.57900 3.13400 22.98500
H  11.44100 1.61000 23.33600
H  11.08700 -1.76200 25.91800
H  10.88800 -2.73800 27.35700
H  12.30100 -1.53400 27.15200
H  10.47800 1.26400 31.29100
H  9.35300 -1.14600 34.67800
H  8.41100 0.30000 34.66700
H  10.05300 0.26000 35.40400
Mg -11.12800 38.83700 41.72800
C  -9.62400 35.77800 40.86100
C  -8.42300 40.49400 40.35500
C  -12.80200 41.64900 42.07100
C  -13.81000 36.97900 43.05800
N  -9.35400 38.12700 40.57200
C  -8.91900 36.85000 40.39600
C  -7.56800 36.85400 39.64400
C  -7.04600 38.31600 39.86600
C  -8.31000 39.04100 40.27500
C  -5.87000 38.44000 40.91000
C  -7.88900 36.45500 38.17500
C  -7.42300 35.14100 37.74600
H  -6.42300 35.26700 36.57300
N  -10.58900 40.81300 41.34900
C  -9.46200 41.30800 40.72200
C  -9.57600 42.76200 40.72000
C  -10.84600 43.08900 41.20100
C  -11.49600 41.84800 41.54700
C  -8.39700 43.61100 40.28700
C  -11.40600 44.57700 41.33400
O  -10.70900 45.51700 40.94400
C  -12.72100 44.90500 41.95900
N  -13.01800 39.26000 42.40100
C  -13.52900 40.47400 42.44500
C  -14.89600 40.63300 43.16400
C  -15.21100 39.06500 43.27800
C  -13.95200 38.38800 42.87400
C  -14.90400 41.42400 44.49500
C  -16.48100 38.45700 42.63100
C  -17.37000 37.41700 43.36200
N  -11.66000 36.79900 41.87000
C  -12.72600 36.16400 42.55200
C  -12.49600 34.75800 42.73600
C  -11.35800 34.53300 41.95900
C  -10.85600 35.80700 41.55600
C  -13.33300 33.76500 43.50200
C  -10.51100 33.54100 41.51400
O  -10.57300 32.35200 41.67900
C  -9.35300 34.29000 40.73400
C  -8.02000 33.77100 41.20900
O  -7.53700 32.74900 40.86000
O  -7.57000 34.51800 42.23800
C  -6.39800 34.15300 43.05800
H  -7.55200 40.99200 39.92300
H  -13.37500 42.56000 42.25600
H  -14.59200 36.47200 43.62700
H  -6.91400 36.08200 40.04800
H  -6.72200 38.77100 38.93000
H  -4.97600 38.41800 40.28700
H  -5.81700 37.50700 41.47200
H  -5.92200 39.39600 41.43000
H  -7.61700 37.17200 37.40000
H  -8.97000 36.35100 38.08600
H  -8.27400 34.53800 37.43000
H  -6.89900 34.53100 38.48200
H  -7.44300 43.12300 40.48500
H  -8.46200 44.55300 40.83200
H  -8.37000 43.74100 39.20500
H  -13.60400 44.44700 41.51300
H  -12.70700 45.98300 41.79600
H  -12.67000 44.54900 42.98800
H  -15.58700 41.14300 42.49300
H  -15.33600 38.87500 44.34400
H  -15.14900 42.47400 44.33700
H  -13.91100 41.30700 44.93000
H  -15.63900 41.04900 45.20700
H  -16.13400 37.96100 41.72400
H  -17.11700 39.32600 42.46100
H  -18.39300 37.78800 43.30500
H  -17.03800 37.36000 44.39900
H  -17.18300 36.41800 42.96800
H  -13.78400 34.12600 44.42600
H  -12.72700 32.87100 43.65200
H  -14.17400 33.48800 42.86600
H  -9.32300 34.07800 39.66500
H  -5.64000 34.81200 42.63500
H  -6.10500 33.13300 42.81000
H  -6.66800 34.37200 44.09100

