158

Mg 47.72600 25.68400 28.96000
C  48.53800 27.81800 31.60600
C  46.28800 23.56400 31.28700
C  47.35600 23.30400 26.65800
C  49.67100 27.64600 26.80300
N  47.41300 25.74200 31.15400
C  47.83200 26.70400 32.03100
C  47.22200 26.61700 33.37600
C  46.64600 25.15700 33.35700
C  46.71500 24.75900 31.82400
C  47.24500 24.10500 34.34500
C  46.15100 27.71400 33.76300
C  46.23200 28.30900 35.15800
H  46.70900 27.51900 36.35600
N  46.85700 23.75800 28.95000
C  46.19300 23.11600 29.97200
C  45.66000 21.86600 29.52100
C  46.03400 21.70500 28.21300
C  46.76700 22.92900 27.86500
C  44.85400 20.90800 30.41300
C  45.69200 20.60700 27.22900
O  45.98300 20.66500 26.04600
C  44.89500 19.39000 27.65200
N  48.42600 25.49200 27.11100
C  48.03200 24.42900 26.34000
C  48.62700 24.51800 24.90800
C  49.17600 26.00500 24.87500
C  49.12100 26.41500 26.35000
C  49.67600 23.43500 24.67000
C  48.49100 27.05600 23.93100
C  49.45100 28.11800 23.35300
N  48.83700 27.46200 29.08100
C  49.59600 28.15500 28.16400
C  50.11100 29.37600 28.76700
C  49.69200 29.27900 30.11900
C  49.02000 28.02600 30.24600
C  50.77800 30.45200 27.95600
C  49.80100 29.97900 31.35900
O  50.31400 31.03500 31.62200
C  49.12400 29.08300 32.32800
C  50.14800 28.76300 33.44600
O  51.01600 27.91100 33.33800
O  49.86000 29.41600 34.58200
C  50.81800 29.39400 35.71600
H  45.71100 22.98900 32.01500
H  47.06900 22.63600 25.84300
H  50.22200 28.19600 26.03800
H  48.11800 26.50500 33.98600
H  45.61600 25.13300 33.71400
H  47.85000 24.68600 35.04100
H  47.91600 23.42600 33.82000
H  46.45800 23.57000 34.87700
H  45.10000 27.42600 33.73700
H  46.24800 28.56800 33.09300
H  45.21800 28.64700 35.37300
H  46.70700 29.29000 35.12300
H  45.36000 19.94400 30.36300
H  43.83500 20.79000 30.04400
H  44.93500 21.23000 31.45200
H  45.44400 18.94100 28.48000
H  44.76800 18.71700 26.80400
H  43.89800 19.73600 27.92700
H  47.81000 24.43800 24.19000
H  50.23500 26.03700 24.62100
H  49.62400 23.28700 23.59200
H  49.30300 22.52300 25.13600
H  50.63300 23.64300 25.15000
H  47.78600 27.57800 24.57800
H  48.01800 26.51800 23.10900
H  49.08900 29.11500 23.60300
H  49.45200 28.12600 22.26300
H  50.51200 27.95300 23.54100
H  50.75600 30.27000 26.88200
H  51.81100 30.66400 28.23200
H  50.26700 31.40000 28.12100
H  48.32900 29.66400 32.79600
H  50.48900 28.77800 36.55200
H  50.85000 30.41700 36.09100
H  51.79600 29.07500 35.35300
Mg 49.72400 35.83900 27.38400
C  47.43800 34.27300 29.63200
C  50.11300 38.24500 29.72500
C  51.37200 37.51300 25.19500
C  49.04000 33.23800 25.10300
N  48.80900 36.20300 29.38700
C  48.06800 35.40700 30.16800
C  48.14800 35.69900 31.68400
C  48.64900 37.19600 31.54000
C  49.21500 37.21300 30.14600
C  47.68600 38.44100 31.76900
C  49.09600 34.71300 32.54400
C  49.67800 35.08400 33.95200
H  48.68900 35.85600 34.88400
N  50.67400 37.63100 27.41900
C  50.73500 38.47500 28.49600
C  51.55200 39.55500 28.18800
C  51.93900 39.41400 26.85400
C  51.28700 38.16700 26.41400
C  51.84400 40.57500 29.23600
C  52.71600 40.34300 25.90900
O  53.02800 40.15000 24.77900
C  53.19100 41.62100 26.53500
N  49.94300 35.46300 25.30100
C  50.85600 36.25700 24.68400
C  51.10100 35.73900 23.29700
C  50.65600 34.25600 23.35600
C  49.80900 34.27400 24.59100
C  50.47100 36.54200 22.18300
C  51.80000 33.21500 23.34000
C  52.43000 32.93600 24.70100
N  48.38600 34.19900 27.27300
C  48.28200 33.20900 26.31900
C  47.36300 32.18000 26.70400
C  46.97500 32.56100 27.99400
C  47.62300 33.75400 28.30200
C  47.02500 30.93200 26.02900
C  46.12200 32.19500 29.09000
O  45.31000 31.31300 29.26500
C  46.35300 33.37400 30.22700
C  46.62500 32.70200 31.53700
O  47.45300 31.80800 31.69600
O  45.76400 33.03100 32.53500
C  45.99500 32.32400 33.80800
H  50.24400 38.97700 30.52500
H  51.94800 38.01100 24.41300
H  48.89700 32.34200 24.49400
H  47.10400 35.75700 31.99500
H  49.55100 37.25600 32.14900
H  47.81700 38.79000 32.79300
H  46.66800 38.21900 31.44700
H  47.89000 39.20600 31.02000
H  49.95300 34.43800 31.92900
H  48.62200 33.75200 32.74700
H  50.57900 35.69400 33.88100
H  49.85500 34.12400 34.43600
H  52.06300 40.05800 30.17100
H  51.05200 41.27700 29.49700
H  52.80000 41.03800 28.99500
H  52.38400 42.11600 27.07600
H  53.55000 42.26000 25.72800
H  53.97600 41.49900 27.28200
H  52.18500 35.78800 23.19900
H  49.96300 34.04200 22.54100
H  50.05800 35.91600 21.39300
H  51.31200 37.04200 21.70200
H  49.83400 37.26900 22.68500
H  52.64200 33.36400 22.66400
H  51.31800 32.28500 23.03800
H  52.42200 33.63300 25.53900
H  53.46500 32.61700 24.57800
H  51.87600 32.06000 25.03400
H  46.11400 30.49100 26.43300
H  47.83400 30.20300 26.09200
H  46.84200 31.12400 24.97200
H  45.45100 33.98100 30.15400
H  47.04300 32.34300 34.10500
H  45.63200 31.30600 33.66600
H  45.43200 32.81900 34.59900

