158

Mg 2.55700 -1.31400 44.24300
C  6.05200 -1.22500 43.81400
C  2.23200 1.37300 42.21600
C  -0.74200 -1.95500 44.25000
C  3.12000 -4.20300 46.24300
N  4.01600 -0.21900 43.03200
C  5.39800 -0.24900 43.04100
C  5.98200 0.85300 42.25800
C  4.69000 1.92700 42.16500
C  3.53500 1.00900 42.53200
C  4.78900 3.09100 43.18700
C  6.54900 0.54500 40.84200
C  7.68600 1.37000 40.26200
H  7.41700 2.43300 39.18600
N  0.93700 -0.42600 43.33700
C  1.04800 0.67300 42.51900
C  -0.32500 1.03900 42.20700
C  -1.16600 0.11600 42.72400
C  -0.37400 -0.84500 43.47400
C  -0.53700 2.42100 41.50000
C  -2.75200 0.16300 42.62000
O  -3.29600 1.14300 42.05800
C  -3.61300 -0.77800 43.27600
N  1.35500 -2.97200 44.89300
C  -0.01100 -2.81400 44.96400
C  -0.69400 -3.92000 45.75300
C  0.56700 -4.69600 46.35300
C  1.82600 -3.92800 45.81300
C  -1.69900 -3.50100 46.80900
C  0.57200 -6.24300 46.16400
C  1.11000 -7.01600 47.38600
N  4.22000 -2.42000 44.92400
C  4.27300 -3.53200 45.75500
C  5.65000 -3.91900 46.05700
C  6.41400 -2.92500 45.37600
C  5.49800 -2.12900 44.63800
C  6.26900 -5.09400 46.94400
C  7.76700 -2.51400 45.10700
O  8.79900 -2.89700 45.67800
C  7.53300 -1.41500 43.99400
C  8.16900 -0.20300 44.69400
O  8.14200 0.02800 45.88500
O  8.89700 0.60600 43.81600
C  9.36200 1.95300 44.36600
H  2.21200 2.25200 41.56900
H  -1.80700 -1.98400 44.48900
H  3.32900 -5.09500 46.83700
H  6.63200 1.35800 42.97200
H  4.56700 2.31500 41.15400
H  5.28200 3.87900 42.61800
H  5.25200 2.64200 44.06600
H  3.82200 3.46300 43.52600
H  5.73000 0.60000 40.12600
H  6.88100 -0.49300 40.81200
H  8.52200 0.72700 39.98700
H  8.00100 1.87600 41.17400
H  -1.53600 2.79600 41.27500
H  -0.14900 2.33700 40.48500
H  0.00900 3.21500 42.01000
H  -4.58000 -0.65900 42.78700
H  -3.60200 -0.44800 44.31500
H  -3.34500 -1.82300 43.12500
H  -1.27300 -4.50700 45.04000
H  0.46100 -4.35300 47.38300
H  -1.83300 -2.42100 46.75000
H  -1.41400 -3.83200 47.80700
H  -2.66600 -3.97500 46.64000
H  1.24200 -6.50800 45.34600
H  -0.42500 -6.58900 45.89000
H  0.50100 -7.90800 47.53500
H  1.16000 -6.35200 48.24900
H  2.11700 -7.31400 47.09200
H  6.72100 -5.80400 46.25100
H  5.43700 -5.59900 47.43500
H  6.98300 -4.67500 47.65300
H  8.17700 -1.57000 43.12800
H  10.19900 1.75400 45.03500
H  8.58200 2.46700 44.92900
H  9.72700 2.61600 43.58100
Mg 8.70000 2.61900 27.76100
C  10.21200 1.34000 30.64700
C  6.81700 4.61500 29.80600
C  7.09500 3.64800 25.02100
C  10.31400 0.11900 25.81300
N  8.66500 2.97800 29.97600
C  9.40900 2.40900 30.99500
C  9.19400 3.00200 32.34200
C  8.13200 4.10100 32.00600
C  7.84600 3.96200 30.51100
C  6.82000 4.17100 32.83700
C  10.53300 3.56800 32.90200
C  10.37000 4.45000 34.19300
H  11.26500 4.20500 35.38000
N  7.13000 3.92900 27.46500
C  6.56000 4.69300 28.46600
C  5.58700 5.54300 27.86300
C  5.64600 5.31400 26.41400
C  6.68400 4.26400 26.22100
C  4.82600 6.61600 28.59200
C  4.80500 5.93700 25.37200
O  4.94400 5.58900 24.17700
C  3.61900 6.89900 25.74100
N  8.75700 2.02700 25.66700
C  7.94600 2.54300 24.74500
C  8.26500 1.98700 23.35600
C  9.29800 0.92700 23.59800
C  9.49600 0.98800 25.09000
C  6.93200 1.59000 22.63900
C  10.64900 1.10500 22.77800
C  11.23200 -0.19700 22.12600
N  9.90100 1.04100 28.07900
C  10.49300 0.11900 27.24100
C  11.37000 -0.77100 28.02400
C  11.25400 -0.36500 29.36000
C  10.33000 0.73900 29.33200
C  12.33600 -1.81700 27.44100
C  11.69800 -0.63300 30.63400
O  12.54700 -1.37200 31.06900
C  11.03200 0.51000 31.56300
C  10.32400 -0.19300 32.75400
O  9.27700 -0.78800 32.75300
O  10.95900 0.20000 33.91500
C  10.32400 -0.21400 35.18300
H  6.35700 5.30300 30.51800
H  6.61000 4.05700 24.13200
H  10.88400 -0.55500 25.17000
H  8.58000 2.35800 32.97000
H  8.67000 5.04000 32.13700
H  6.12000 3.59800 32.22900
H  6.43800 5.18400 32.96400
H  7.00600 3.67200 33.78800
H  10.98100 4.18400 32.12200
H  11.18600 2.72100 33.11400
H  9.33300 4.48900 34.52600
H  10.59800 5.50800 34.06400
H  5.03300 7.61700 28.21300
H  4.88700 6.54700 29.67800
H  3.75500 6.57200 28.39800
H  2.82800 6.35900 26.26000
H  3.31100 7.33700 24.79200
H  3.85500 7.85000 26.21900
H  8.67600 2.73900 22.68200
H  8.84400 -0.05300 23.45700
H  6.47500 2.34200 21.99700
H  6.22000 1.58600 23.46400
H  6.92800 0.61000 22.16300
H  11.35300 1.62100 23.43100
H  10.47800 1.79500 21.95100
H  11.24700 -0.00200 21.05300
H  10.62100 -1.02300 22.49100
H  12.29100 -0.23200 22.38000
H  11.71500 -2.47100 26.82900
H  12.82200 -2.40600 28.21900
H  13.13700 -1.36000 26.86000
H  11.89200 0.99600 32.02400
H  9.28000 0.10100 35.17000
H  10.81700 0.41300 35.92600
H  10.44100 -1.28400 35.35700

