158

Mg -1.79500 17.49500 25.42900
C  -2.13700 15.34800 28.35200
C  -1.90900 20.18100 27.44500
C  -1.47700 19.32300 22.74600
C  -1.67400 14.47000 23.41800
N  -1.93500 17.59900 27.66500
C  -2.05000 16.70200 28.67500
C  -2.33700 17.34100 30.03600
C  -2.61600 18.85600 29.63300
C  -2.09800 18.92000 28.18200
C  -4.13800 19.25700 29.74900
C  -1.14800 17.00900 31.02900
C  -1.19400 17.84400 32.38300
H  -1.09000 17.02900 33.73200
N  -1.56900 19.50000 25.16700
C  -1.57000 20.43400 26.12700
C  -1.30300 21.71500 25.47300
C  -1.22700 21.51600 24.08000
C  -1.42100 20.04400 23.91600
C  -1.22800 22.93600 26.20500
C  -1.11900 22.47900 22.94000
O  -1.12300 22.02300 21.81800
C  -0.91800 23.95900 23.23300
N  -1.58000 16.93600 23.33400
C  -1.61500 17.94700 22.44100
C  -1.74900 17.42500 21.00800
C  -1.39200 15.93800 21.17600
C  -1.63200 15.72700 22.70100
C  -3.17100 17.87200 20.39000
C  -0.00100 15.56700 20.67100
C  1.25000 15.62300 21.55800
N  -1.94000 15.39700 25.79100
C  -1.78900 14.29600 24.87100
C  -1.90400 13.12200 25.57300
C  -2.02300 13.43000 26.90200
C  -2.01900 14.86100 27.03800
C  -1.83000 11.73600 25.03900
C  -2.16400 12.84200 28.22900
O  -2.16400 11.67600 28.62500
C  -2.25300 14.09300 29.21600
C  -1.01600 13.74100 29.98600
O  0.09300 13.84200 29.44100
O  -1.24300 13.37000 31.31400
C  -0.09300 12.99700 32.17400
H  -1.95700 21.14400 27.95700
H  -1.69200 19.91400 21.85300
H  -1.55400 13.63200 22.72800
H  -3.21900 16.91000 30.51100
H  -2.09000 19.56500 30.27300
H  -4.25400 19.66000 30.75500
H  -4.85000 18.43100 29.72700
H  -4.54400 19.95200 29.01400
H  -0.20700 17.21500 30.52000
H  -1.27800 15.94500 31.22900
H  -2.06500 18.49900 32.41900
H  -0.40200 18.58300 32.25500
H  -0.79800 22.86200 27.20300
H  -2.24400 23.32900 26.26000
H  -0.56700 23.67300 25.74900
H  -0.86100 24.59800 22.35200
H  -0.00400 23.88200 23.82100
H  -1.78000 24.32100 23.79200
H  -1.02600 17.85000 20.31200
H  -2.12800 15.33300 20.64800
H  -3.16100 18.07800 19.32000
H  -3.59600 18.77300 20.83300
H  -3.81600 17.02300 20.61800
H  0.14300 16.01700 19.68800
H  -0.02800 14.53700 20.31500
H  1.92800 16.14600 20.88400
H  1.52800 14.61700 21.87300
H  1.05600 16.12700 22.50500
H  -2.35900 11.76100 24.08700
H  -2.32400 11.06300 25.74000
H  -0.79200 11.52000 24.78600
H  -3.16500 13.99100 29.80500
H  0.32300 13.88300 32.65300
H  0.61200 12.46900 31.53100
H  -0.44600 12.33800 32.96600
Mg 41.19400 41.36200 27.76600
C  40.44200 43.92500 30.01200
C  41.99000 39.28700 30.41000
C  42.02300 38.90900 25.60400
C  40.91700 43.60700 25.11500
N  41.04400 41.63800 29.88600
C  40.63700 42.73400 30.63200
C  40.63700 42.51100 32.11800
C  41.21500 41.00800 32.24800
C  41.41700 40.62800 30.76800
C  42.36800 40.76200 33.21200
C  39.23000 42.76400 32.78200
C  38.75600 41.99000 34.07600
H  38.27800 42.80500 35.27200
N  41.75200 39.31000 27.97500
C  42.19000 38.69200 29.13400
C  42.77000 37.41800 28.87600
C  42.58800 37.27100 27.49200
C  42.14000 38.54100 26.93800
C  43.36200 36.54600 29.86200
C  42.77600 35.97000 26.71700
O  42.70200 35.85500 25.50700
C  43.00700 34.60700 27.51800
N  41.68500 41.38500 25.69700
C  41.82600 40.18200 25.04000
C  41.78400 40.33300 23.51300
C  41.25900 41.78800 23.40000
C  41.32800 42.33400 24.79800
C  43.08600 40.00800 22.81200
C  39.85800 41.92300 22.81500
C  38.63700 41.61800 23.79400
N  40.93600 43.49600 27.51400
C  40.71800 44.21300 26.37800
C  40.34700 45.57800 26.84800
C  40.31900 45.52100 28.26400
C  40.58500 44.19400 28.60600
C  40.20500 46.70800 25.95000
C  40.01100 46.26100 29.44300
O  39.60900 47.42800 29.61400
C  40.10900 45.21300 30.64800
C  41.22100 45.73500 31.38100
O  42.34200 45.88600 30.97600
O  40.78500 46.16400 32.63000
C  41.95300 46.40500 33.47100
H  42.18600 38.64900 31.27400
H  42.40700 38.13900 24.93200
H  40.89700 44.27000 24.24800
H  41.42700 43.16700 32.48500
H  40.49600 40.31500 32.68500
H  42.30800 41.17700 34.21800
H  43.20100 41.14000 32.62000
H  42.43300 39.67700 33.29100
H  38.41000 42.76000 32.06400
H  39.30800 43.81600 33.05800
H  39.55200 41.37000 34.48800
H  37.94000 41.40500 33.65100
H  44.19600 36.13200 29.29500
H  42.68200 35.72500 30.08700
H  43.72600 37.02800 30.76900
H  42.96300 33.71900 26.88800
H  42.26400 34.55300 28.31400
H  44.02500 34.65300 27.90700
H  41.00600 39.72500 23.05000
H  41.84700 42.42500 22.73800
H  43.72900 39.59200 23.58700
H  43.50800 40.91400 22.37800
H  42.95300 39.39000 21.92300
H  39.76400 41.12900 22.07400
H  39.69500 42.83400 22.23900
H  38.91000 41.80000 24.83300
H  38.37600 40.56000 23.81100
H  37.80400 42.27100 23.53000
H  40.53700 47.59600 26.48800
H  39.22600 47.00100 25.57100
H  40.82100 46.40800 25.10200
H  39.24000 45.26000 31.30400
H  42.45500 47.32100 33.15900
H  42.66200 45.58300 33.36600
H  41.61500 46.51200 34.50100

