158

Mg 1.72400 -0.87600 43.93200
C  5.32100 -0.90500 42.82200
C  1.58600 1.96200 41.97700
C  -1.52300 -1.40900 43.84800
C  2.42400 -3.95200 45.41300
N  3.38900 0.46100 42.62000
C  4.68600 0.20100 42.24500
C  5.31900 1.35300 41.39900
C  4.14800 2.39500 41.46000
C  2.93100 1.56200 42.04700
C  4.37400 3.73600 42.29600
C  5.80800 0.83200 40.02300
C  6.95600 1.54800 39.30500
H  6.49600 2.23400 38.05400
N  0.26200 0.26400 43.15800
C  0.35500 1.42000 42.38400
C  -0.98100 1.88200 42.19600
C  -1.88900 0.87300 42.66000
C  -1.08100 -0.17800 43.20000
C  -1.29200 3.08600 41.45600
C  -3.41000 0.96600 42.59100
O  -3.91600 2.05100 42.20100
C  -4.34900 -0.11500 42.93300
N  0.68900 -2.45600 44.55200
C  -0.68700 -2.41700 44.48300
C  -1.27200 -3.74600 45.03600
C  -0.06300 -4.46500 45.66000
C  1.11000 -3.56200 45.28500
C  -2.57900 -3.68300 45.84700
C  0.04500 -5.98500 45.24200
C  -0.09500 -6.96100 46.36700
N  3.41300 -2.17600 44.09700
C  3.54600 -3.27300 44.91900
C  4.88600 -3.78100 45.00600
C  5.57500 -2.88200 44.18100
C  4.66500 -1.90300 43.66600
C  5.44500 -4.98400 45.84200
C  6.89600 -2.53400 43.81700
O  7.92000 -3.04800 44.16200
C  6.77900 -1.33900 42.81200
C  7.76600 -0.28400 43.18500
O  7.68800 0.40400 44.28300
O  8.74500 -0.11000 42.24000
C  9.70200 0.94900 42.58900
H  1.52800 2.96000 41.53800
H  -2.59400 -1.61800 43.86100
H  2.66400 -4.83200 46.01300
H  6.20900 1.76400 41.87500
H  3.81100 2.71100 40.47300
H  3.75100 3.64400 43.18600
H  3.94800 4.57000 41.73700
H  5.38400 3.96600 42.63700
H  5.00200 0.79300 39.29000
H  6.12400 -0.19700 40.19400
H  7.72600 0.80700 39.08800
H  7.39600 2.28500 39.97700
H  -2.04800 2.90200 40.69300
H  -0.39600 3.50100 40.99300
H  -1.65500 3.81000 42.18600
H  -5.40200 0.00800 42.67900
H  -4.25900 -0.29500 44.00400
H  -4.05500 -0.97100 42.32600
H  -1.64300 -4.23000 44.13200
H  -0.02200 -4.27400 46.73200
H  -3.50300 -3.88100 45.30200
H  -2.64400 -2.63800 46.15200
H  -2.55400 -4.30300 46.74200
H  1.03600 -6.08300 44.79900
H  -0.74800 -6.24100 44.54000
H  0.74600 -7.65400 46.39000
H  -1.08500 -7.41000 46.27900
H  -0.16100 -6.40300 47.30100
H  4.62200 -5.49600 46.34100
H  6.11000 -4.75000 46.67300
H  5.96000 -5.63500 45.13600
H  6.97500 -1.73600 41.81600
H  10.06500 0.80800 43.60700
H  9.18800 1.89400 42.41000
H  10.52000 0.93000 41.86900
Mg -0.22900 43.07400 26.02800
C  2.07900 42.64700 28.66500
C  -2.68800 41.79300 27.96500
C  -2.21100 43.25400 23.33500
C  2.50100 43.98500 23.92800
N  -0.26500 42.28600 27.94800
C  0.72100 42.37800 28.92500
C  0.27300 42.14400 30.36600
C  -1.16900 41.36100 30.09000
C  -1.40300 41.81700 28.56900
C  -1.22200 39.86200 30.30600
C  0.23800 43.37300 31.29900
C  0.60100 43.15200 32.79900
H  0.29800 41.69600 33.46300
N  -2.21400 42.60200 25.71500
C  -3.07700 42.09500 26.56900
C  -4.39500 41.97600 25.95900
C  -4.33600 42.63400 24.67300
C  -2.84400 42.75600 24.45400
C  -5.55900 41.37700 26.63200
C  -5.41400 42.84000 23.59400
O  -5.15800 43.13300 22.41300
C  -6.84600 42.70400 23.96300
N  0.10500 43.47700 23.96900
C  -0.90500 43.57900 23.04300
C  -0.40000 44.20700 21.69400
C  1.04000 44.57600 22.04400
C  1.28600 43.89600 23.35500
C  -0.66500 43.23900 20.57800
C  1.28400 46.14000 22.13100
C  0.76600 46.93100 23.30400
N  1.90100 43.23900 26.18900
C  2.83700 43.64800 25.25300
C  4.12400 43.58700 25.92800
C  3.88900 43.31600 27.24000
C  2.52000 43.08500 27.34600
C  5.43800 43.80000 25.21200
C  4.51300 43.03400 28.54200
O  5.68000 42.99400 28.84800
C  3.27200 42.84800 29.53000
C  3.72500 41.63300 30.39400
O  3.88800 40.47700 30.03000
O  4.11500 41.98100 31.66000
C  4.68300 40.91500 32.52400
H  -3.45900 41.43300 28.64900
H  -2.86400 43.58800 22.52600
H  3.33700 44.21300 23.26400
H  1.00800 41.51300 30.86600
H  -1.97700 41.83400 30.64700
H  -2.19800 39.68100 30.75500
H  -0.34500 39.55300 30.87400
H  -1.34000 39.24800 29.41300
H  -0.78800 43.73800 31.34500
H  0.72000 44.27500 30.92300
H  0.06300 43.85000 33.44200
H  1.67400 43.33400 32.85900
H  -6.24800 42.20700 26.79300
H  -5.14200 40.87000 27.50100
H  -6.01400 40.55100 26.08500
H  -6.98500 43.14200 24.95200
H  -7.07100 41.63700 23.96100
H  -7.49300 43.17200 23.22100
H  -0.99300 45.10100 21.50100
H  1.81800 44.19400 21.38300
H  -1.00500 42.26100 20.91800
H  0.25000 43.00700 20.03300
H  -1.55700 43.50200 20.01000
H  0.98200 46.57100 21.17600
H  2.36300 46.21800 22.26400
H  0.07000 47.62900 22.83800
H  1.49500 47.59100 23.77300
H  0.35100 46.33200 24.11400
H  5.44100 43.32000 24.23300
H  6.20300 43.32200 25.82300
H  5.64700 44.85900 25.06300
H  3.17800 43.65500 30.25600
H  5.70100 40.68500 32.21100
H  4.03700 40.04200 32.61200
H  4.82000 41.22100 33.56100

