158

Mg 2.24500 -2.15400 45.38000
C  5.76300 -1.62800 44.87300
C  1.52400 0.32600 43.31600
C  -1.04600 -3.25600 45.25300
C  3.01500 -4.86900 47.31000
N  3.59500 -0.83200 44.18000
C  4.99500 -0.74800 44.12000
C  5.42900 0.34200 43.07200
C  4.07400 1.12200 42.89300
C  2.91200 0.21300 43.57200
C  4.04600 2.58000 43.37000
C  5.93000 -0.32100 41.78700
C  7.36600 -0.01000 41.34600
H  7.80800 0.33600 39.94100
N  0.43600 -1.52700 44.38400
C  0.38900 -0.45200 43.61000
C  -0.99600 -0.15100 43.31300
C  -1.81300 -1.11400 43.94300
C  -0.81900 -2.07700 44.56800
C  -1.45400 0.96100 42.41700
C  -3.27500 -0.95800 44.12600
O  -3.88000 -0.00100 43.64800
C  -4.01300 -2.03500 44.90800
N  1.07600 -3.87400 46.18900
C  -0.26000 -3.99400 46.10500
C  -0.76500 -5.25500 46.88900
C  0.57600 -5.62800 47.65300
C  1.64000 -4.82800 46.95000
C  -2.08000 -5.01800 47.76400
C  0.90400 -7.22400 47.73900
C  1.64100 -7.61200 48.97100
N  3.97600 -3.00100 46.03000
C  4.12700 -4.15700 46.80100
C  5.57500 -4.36700 47.04700
C  6.23800 -3.37900 46.35600
C  5.24200 -2.59400 45.76100
C  6.16300 -5.46800 47.90100
C  7.51300 -2.81900 46.13800
O  8.63800 -3.26400 46.45000
C  7.23000 -1.64300 45.13200
C  7.75100 -0.35200 45.68100
O  7.43800 0.12000 46.77300
O  8.44300 0.21600 44.66700
C  8.79700 1.63100 44.92600
H  1.43700 1.26900 42.77200
H  -2.07500 -3.62200 45.22900
H  3.26100 -5.59200 48.09000
H  6.21400 0.86500 43.61800
H  3.74900 1.10600 41.85200
H  4.99000 2.89600 43.81500
H  3.28500 2.78300 44.12300
H  3.87300 3.06600 42.40900
H  5.31500 -0.04900 40.93000
H  5.81600 -1.40000 41.88300
H  7.95500 -0.86800 41.67300
H  7.63900 0.91900 41.84600
H  -2.21100 0.65800 41.69500
H  -0.62100 1.20900 41.75900
H  -1.84300 1.83100 42.94600
H  -3.34100 -2.27900 45.73100
H  -4.15100 -2.85700 44.20600
H  -4.91000 -1.47600 45.17500
H  -1.10100 -6.09600 46.28200
H  0.58400 -5.13300 48.62400
H  -2.91400 -5.58800 47.35500
H  -2.09100 -3.92900 47.71000
H  -2.01800 -5.29700 48.81600
H  1.42900 -7.58600 46.85500
H  0.07000 -7.92100 47.65500
H  1.03700 -8.36000 49.48400
H  1.70600 -6.73500 49.61400
H  2.60700 -8.06900 48.75200
H  6.25300 -6.42200 47.38300
H  5.58900 -5.58600 48.82000
H  7.22100 -5.24900 48.04200
H  7.84000 -1.86100 44.25500
H  9.64700 1.63500 45.60900
H  7.90700 2.11700 45.32400
H  9.02800 2.09200 43.96500
Mg 48.78500 45.22400 43.29100
C  45.30800 45.34900 42.64000
C  48.69700 41.75300 42.54300
C  52.08700 45.23300 43.04900
C  48.67300 48.66700 43.76500
N  47.13900 43.87200 42.60600
C  45.85900 44.04600 42.48600
C  45.09000 42.74600 42.07600
C  46.13900 41.61000 42.34800
C  47.43700 42.44100 42.42600
C  45.85400 40.71000 43.58900
C  44.35900 42.72100 40.65200
C  45.03200 43.26200 39.42500
H  45.05200 42.41700 38.08000
N  50.19600 43.64500 42.88300
C  49.98400 42.33400 42.62300
C  51.22200 41.70400 42.40500
C  52.25400 42.70400 42.53100
C  51.49100 43.92500 42.87600
C  51.44700 40.25300 42.13100
C  53.75400 42.47200 42.15200
O  54.13700 41.35000 41.88200
C  54.71600 43.66100 41.80600
N  50.21700 46.70300 43.32100
C  51.53400 46.50200 43.19300
C  52.30500 47.83700 43.23200
C  51.20500 48.96800 43.44700
C  49.91800 48.04400 43.54100
C  53.43700 47.83800 44.35600
C  50.94100 50.02500 42.24700
C  51.52600 51.38600 42.59500
N  47.32900 46.72700 43.34900
C  47.41600 48.06800 43.59300
C  46.15700 48.63900 43.56200
C  45.28600 47.61400 43.24500
C  46.06600 46.48900 43.05500
C  45.90600 50.04400 43.52600
C  43.87400 47.28800 42.82100
O  42.86600 47.93700 42.69000
C  43.88900 45.77500 42.41400
C  42.81000 44.98100 43.18200
O  41.99400 44.23900 42.62600
O  42.77000 45.35900 44.46800
C  41.68300 44.82700 45.29200
H  48.64300 40.66700 42.44500
H  53.17700 45.17800 43.09500
H  48.54300 49.75200 43.77900
H  44.24600 42.58900 42.74700
H  46.19800 41.00300 41.44500
H  45.50000 39.82000 43.06900
H  45.11100 41.18500 44.23000
H  46.74400 40.54500 44.19700
H  43.38600 43.20300 40.74700
H  44.13900 41.65500 40.59100
H  46.04800 43.57800 39.65700
H  44.42600 44.11000 39.10700
H  51.97800 40.20600 41.18000
H  50.51400 39.69600 42.04800
H  52.03900 39.84800 42.95200
H  55.08900 44.19400 42.68100
H  54.09000 44.31600 41.19900
H  55.50200 43.13400 41.26600
H  52.74800 48.02400 42.25400
H  51.33900 49.39100 44.44200
H  53.20400 48.52500 45.17000
H  54.36700 48.11700 43.86100
H  53.56300 46.83400 44.76000
H  49.90600 50.19900 41.95300
H  51.32300 49.74500 41.26500
H  50.84500 52.20100 42.34900
H  52.34600 51.55900 41.89700
H  51.77400 51.45800 43.65400
H  45.25500 50.35800 44.34100
H  45.44000 50.33500 42.58400
H  46.81800 50.63900 43.57200
H  43.62800 45.78300 41.35600
H  41.58900 43.74900 45.16400
H  40.68600 45.17500 45.02300
H  41.75800 45.03400 46.36000

