158

Mg -2.37400 17.31000 26.63100
C  -2.52700 15.08300 29.15700
C  -2.56600 19.87400 28.81300
C  -2.36900 19.52100 23.86500
C  -2.86200 14.75900 24.26400
N  -2.47500 17.47500 28.75500
C  -2.46000 16.40700 29.62500
C  -2.46800 16.89700 31.15500
C  -2.72300 18.43300 30.93900
C  -2.53400 18.59200 29.38700
C  -4.00000 19.07300 31.56900
C  -1.22700 16.42300 32.02500
C  -0.70500 17.37800 33.11600
H  -0.37500 16.61600 34.40000
N  -2.40200 19.40200 26.41500
C  -2.48200 20.29300 27.44500
C  -2.41000 21.66100 26.89100
C  -2.25900 21.58900 25.50000
C  -2.28800 20.15200 25.18900
C  -2.51000 22.88700 27.76500
C  -1.97300 22.62400 24.47700
O  -1.82300 22.30700 23.29400
C  -1.90200 24.08500 24.83500
N  -2.71900 17.20000 24.30700
C  -2.57700 18.24700 23.48000
C  -2.60400 17.75400 22.00800
C  -2.83800 16.26000 22.12900
C  -2.84500 16.04000 23.64800
C  -3.76600 18.37100 21.08600
C  -1.93100 15.32400 21.22000
C  -2.51400 14.59800 19.96000
N  -2.63400 15.33900 26.66900
C  -2.72400 14.37400 25.66700
C  -2.70900 13.01600 26.32900
C  -2.59900 13.26700 27.64400
C  -2.58200 14.68200 27.80500
C  -2.75700 11.67100 25.76400
C  -2.41200 12.60600 28.98600
O  -2.15400 11.43400 29.33900
C  -2.45600 13.84000 30.02500
C  -1.22800 13.60100 30.83200
O  -0.09500 13.94800 30.63100
O  -1.68000 12.89200 31.88700
C  -0.75000 12.54300 33.02000
H  -2.66700 20.68800 29.53300
H  -2.40900 20.06600 22.91900
H  -3.00300 13.92300 23.57600
H  -3.35800 16.51000 31.65000
H  -1.82800 18.93100 31.31200
H  -4.66600 19.61200 30.89600
H  -3.57000 19.82900 32.22600
H  -4.50100 18.33100 32.19100
H  -0.43600 16.32600 31.28100
H  -1.27500 15.47100 32.55300
H  -1.47800 18.11900 33.31700
H  0.28100 17.75700 32.84500
H  -1.56000 23.37500 27.98300
H  -2.85600 22.55100 28.74300
H  -3.30700 23.57100 27.47200
H  -2.81600 24.39700 25.34100
H  -1.73800 24.70100 23.95100
H  -0.97800 24.21800 25.39800
H  -1.65200 18.06200 21.57700
H  -3.85700 15.96400 21.87800
H  -3.41200 18.47700 20.06100
H  -4.08000 19.33000 21.50000
H  -4.65000 17.73400 21.06500
H  -1.35200 14.63500 21.83400
H  -1.24400 16.03600 20.76400
H  -2.12600 13.58500 19.84900
H  -2.27800 15.24300 19.11400
H  -3.60200 14.57100 19.90400
H  -1.78300 11.18100 25.77100
H  -3.26700 11.75100 24.80400
H  -3.37200 11.04500 26.41000
H  -3.36900 13.72700 30.60900
H  0.01800 11.82100 32.74200
H  -1.18800 11.94100 33.81700
H  -0.21800 13.44100 33.33500
Mg 7.18900 53.70500 41.63200
C  6.13200 50.36200 41.08700
C  10.30600 52.96600 40.46100
C  7.64300 56.97200 41.31800
C  3.76200 54.31500 42.32800
N  8.04200 51.88700 40.65300
C  7.50300 50.64000 40.67100
C  8.49100 49.61700 40.05600
C  9.81800 50.43800 40.24700
C  9.34400 51.88200 40.53400
C  10.82800 49.82900 41.24900
C  8.23300 49.21500 38.56800
C  8.14300 50.27900 37.48500
H  6.78300 50.36800 36.77400
N  8.82000 54.82000 41.07700
C  10.04300 54.36100 40.62300
C  10.93800 55.37700 40.34900
C  10.15000 56.54500 40.55300
C  8.81500 56.19800 41.02800
C  12.38600 55.23200 39.88000
C  10.75900 57.97200 40.44300
O  11.91200 58.18800 40.06300
C  9.83300 59.23000 40.67100
N  5.97600 55.41000 41.95400
C  6.41100 56.64100 41.89100
C  5.36300 57.72700 42.03300
C  4.06900 56.79800 42.21500
C  4.62500 55.41000 42.14900
C  5.58900 58.75300 43.19700
C  2.99800 57.05800 40.99900
C  1.71400 57.72200 41.47400
N  5.41100 52.57800 41.90100
C  4.13400 53.00100 42.29000
C  3.26700 51.87000 42.37000
C  3.99300 50.81800 41.90500
C  5.30500 51.28300 41.63300
C  1.83600 51.87000 42.78100
C  3.91000 49.39100 41.57700
O  3.07100 48.45800 41.69900
C  5.40200 49.10700 41.17800
C  5.25400 48.34500 39.86300
O  4.77800 48.77700 38.86000
O  5.86900 47.12800 39.93400
C  5.62000 46.24800 38.75800
H  11.36200 52.70600 40.36400
H  7.78100 58.05100 41.23000
H  2.77700 54.54300 42.74100
H  8.56300 48.73100 40.68800
H  10.42800 50.40800 39.34500
H  11.66700 49.29300 40.80500
H  10.34600 49.19600 41.99500
H  11.44200 50.56500 41.76800
H  7.26300 48.71800 38.57800
H  9.03900 48.50800 38.37000
H  8.93600 50.16000 36.74600
H  8.35500 51.16200 38.08900
H  12.60700 54.18100 39.69200
H  13.03500 55.59700 40.67600
H  12.46300 55.70200 38.90000
H  9.02400 59.17800 39.94200
H  10.38600 60.12100 40.37400
H  9.54100 59.22000 41.72100
H  5.25400 58.22800 41.07100
H  3.62800 56.88100 43.20800
H  4.87900 58.59900 44.01000
H  5.34500 59.72500 42.76800
H  6.61800 58.74100 43.55800
H  2.74700 56.13600 40.47500
H  3.36900 57.62500 40.14500
H  0.98900 56.90900 41.44100
H  1.41000 58.50000 40.77400
H  1.70500 58.18000 42.46300
H  1.20400 51.94300 41.89500
H  1.50800 52.57300 43.54700
H  1.57800 50.94400 43.29400
H  5.87500 48.37000 41.82800
H  4.54400 46.07400 38.72400
H  6.21000 45.34800 38.92800
H  5.94100 46.64700 37.79600

