158

Mg 24.62000 -5.69500 45.88700
C  26.71100 -3.56600 44.12300
C  22.05500 -5.00800 43.54400
C  22.86200 -8.52300 46.75500
C  27.39200 -7.11600 47.45400
N  24.33600 -4.38300 44.21500
C  25.37100 -3.61000 43.66500
C  24.83600 -2.74400 42.47000
C  23.30500 -3.00800 42.48400
C  23.22000 -4.21200 43.44300
C  22.46200 -1.79400 43.04500
C  25.65600 -3.14800 41.19700
C  26.43700 -2.06600 40.40500
H  26.05200 -1.91200 38.86700
N  22.62100 -6.46200 45.43700
C  21.73800 -6.03300 44.42900
C  20.57400 -6.82300 44.44400
C  20.65800 -7.83900 45.54600
C  22.09200 -7.65500 46.01600
C  19.35300 -6.60100 43.47400
C  19.62900 -8.92600 45.93600
O  18.57400 -8.85900 45.34300
C  19.80800 -9.87900 47.01400
N  25.07900 -7.63700 47.00900
C  24.20600 -8.59500 47.15700
C  24.77400 -9.91800 47.74800
C  26.32600 -9.35900 48.06100
C  26.25400 -7.96300 47.45700
C  24.08300 -10.46900 49.06600
C  27.50200 -10.25900 47.38400
C  28.48400 -11.06200 48.26000
N  26.71500 -5.31400 45.95200
C  27.68200 -5.91400 46.73300
C  28.92300 -5.26400 46.45400
C  28.66400 -4.32600 45.44400
C  27.28100 -4.40200 45.13800
C  30.22000 -5.62500 47.08800
C  29.19000 -3.27900 44.54600
O  30.31000 -2.81200 44.54200
C  28.02000 -2.84900 43.66300
C  27.99000 -1.37800 43.80700
O  27.55900 -0.82300 44.79800
O  28.62500 -0.84600 42.70400
C  28.81800 0.62400 42.83100
H  21.37900 -4.78000 42.71700
H  22.37700 -9.49400 46.87300
H  28.24700 -7.53200 47.99200
H  25.23500 -1.76000 42.71900
H  22.82800 -3.25900 41.53600
H  23.08200 -0.90600 43.16300
H  22.07000 -2.04500 44.03100
H  21.69100 -1.54900 42.31500
H  24.85500 -3.51200 40.55400
H  26.34400 -3.97200 41.38700
H  27.51700 -2.20400 40.34800
H  26.24000 -1.06400 40.78500
H  18.78500 -5.74800 43.84500
H  18.87000 -7.56300 43.29900
H  19.78200 -6.29700 42.51900
H  18.84500 -10.15500 47.44300
H  20.54000 -9.49800 47.72700
H  20.27200 -10.71400 46.48900
H  24.70600 -10.60100 46.90100
H  26.38100 -9.24300 49.14400
H  23.16000 -9.91900 49.24700
H  24.75100 -10.35600 49.92000
H  23.78400 -11.49300 48.84100
H  28.13000 -9.62100 46.76200
H  27.02600 -11.06000 46.81800
H  28.36600 -12.12700 48.06300
H  28.19900 -10.84300 49.28900
H  29.51900 -10.87600 47.97300
H  30.11700 -6.02400 48.09700
H  30.96000 -4.83000 47.18000
H  30.72200 -6.39500 46.50300
H  28.25900 -3.12400 42.63600
H  28.12500 1.00300 43.58200
H  28.59200 1.06400 41.86000
H  29.88200 0.72100 43.05100
Mg 47.26400 25.01400 27.63100
C  48.12000 27.26200 30.13700
C  46.55600 22.72400 30.06500
C  46.24300 23.02500 25.21700
C  48.57000 27.28800 25.25200
N  47.46900 25.00900 29.84800
C  47.61500 26.09500 30.62400
C  47.41500 25.70700 32.10200
C  47.29600 24.17200 32.05700
C  47.12600 23.88800 30.52600
C  48.35300 23.30300 32.72400
C  46.22100 26.43900 32.73300
C  45.60900 25.93400 34.12100
H  45.38400 26.97800 35.20300
N  46.55400 23.01600 27.64800
C  46.30200 22.25200 28.74400
C  45.76000 21.00100 28.27400
C  45.56100 21.16900 26.85900
C  46.19800 22.43500 26.49400
C  45.35200 19.84300 29.20600
C  44.79900 20.22900 25.94200
O  44.58400 20.51700 24.76000
C  44.18900 18.97600 26.37700
N  47.49400 25.08000 25.55100
C  46.88700 24.16700 24.80300
C  46.91100 24.56800 23.33200
C  47.67900 25.94400 23.28600
C  47.97600 26.11300 24.77800
C  47.47700 23.44800 22.41600
C  46.81700 27.06900 22.76300
C  47.54400 28.12600 21.96200
N  48.23700 26.85200 27.63300
C  48.73100 27.64900 26.60300
C  49.36400 28.86800 27.22800
C  49.11200 28.71600 28.57000
C  48.50100 27.47500 28.82700
C  50.10300 29.96800 26.54500
C  49.18000 29.42700 29.87000
O  49.61900 30.53000 30.13900
C  48.41800 28.53900 30.93800
C  49.24300 28.37300 32.21400
O  50.31300 27.87000 32.40000
O  48.54000 29.05900 33.19500
C  49.10300 29.26400 34.49400
H  46.33500 21.95500 30.80700
H  45.84500 22.45600 24.37400
H  48.88800 27.87900 24.39000
H  48.31200 26.03100 32.63000
H  46.34900 23.91200 32.52900
H  49.07000 23.96500 33.21000
H  48.73100 22.59300 31.98800
H  47.83700 22.72500 33.49000
H  45.49000 26.47100 31.92400
H  46.37200 27.50400 32.90600
H  46.25600 25.20000 34.60200
H  44.60000 25.53400 34.01600
H  44.32100 19.52900 29.04300
H  45.32200 20.06200 30.27300
H  46.06200 19.05600 28.95300
H  43.97800 18.25800 25.58400
H  43.24700 19.00000 26.92400
H  44.93400 18.48300 27.00200
H  45.85000 24.64100 23.09300
H  48.57500 25.84000 22.67500
H  48.29000 22.97400 22.96600
H  47.95300 24.02800 21.62500
H  46.72300 22.72100 22.11300
H  46.35800 27.50900 23.64900
H  46.06800 26.64400 22.09500
H  48.54600 27.81100 21.66900
H  47.68200 28.97100 22.63700
H  47.10600 28.38600 20.99800
H  49.55100 30.29200 25.66200
H  51.10400 29.71500 26.19700
H  50.06100 30.83200 27.20900
H  47.53500 29.04900 31.32300
H  49.17000 30.32800 34.72000
H  50.13500 28.91600 34.47300
H  48.65000 28.79000 35.36500

