158

Mg 9.33700 3.82000 27.23500
C  10.29200 2.19200 30.31500
C  7.63000 6.07400 29.19600
C  7.88000 4.99000 24.47400
C  10.55200 1.05600 25.43800
N  9.02600 4.03600 29.57000
C  9.56800 3.28100 30.60800
C  9.07600 3.85100 31.94700
C  8.01900 4.90400 31.47800
C  8.23300 5.02900 30.02300
C  6.51900 4.51800 31.82100
C  10.31100 4.41100 32.71700
C  10.71500 3.70200 34.02700
H  11.09700 4.48500 35.34100
N  8.06100 5.43000 26.81600
C  7.59000 6.30100 27.76100
C  6.85600 7.33200 27.07600
C  6.76500 6.99700 25.67700
C  7.59100 5.75700 25.61400
C  6.19700 8.49200 27.76000
C  5.99700 7.62000 24.51600
O  5.91800 7.08100 23.41500
C  5.50000 9.07600 24.66200
N  9.15400 3.05900 25.35100
C  8.52000 3.75000 24.33000
C  8.56500 3.02800 22.98500
C  9.84700 2.01300 23.24800
C  9.85300 2.04600 24.77800
C  7.22100 2.37100 22.59000
C  11.22300 2.46300 22.58800
C  11.22900 2.32800 21.01200
N  10.30600 1.99000 27.76400
C  10.79100 1.07200 26.90700
C  11.36600 -0.05700 27.69300
C  11.21200 0.36500 29.02800
C  10.59800 1.65300 29.05400
C  11.85200 -1.40900 27.26100
C  11.38400 -0.04400 30.45100
O  11.83200 -1.09800 30.88600
C  10.91200 1.14600 31.32900
C  10.09800 0.51400 32.39100
O  8.88400 0.17100 32.26900
O  10.88800 0.33000 33.54600
C  10.18000 -0.30300 34.63200
H  7.08200 6.82700 29.76600
H  7.37800 5.28200 23.54900
H  10.73700 0.17000 24.82800
H  8.68600 3.03500 32.55700
H  8.17700 5.89400 31.90300
H  5.99100 4.32000 30.88700
H  6.12000 5.37300 32.36600
H  6.32700 3.57700 32.33700
H  10.28300 5.46000 33.01100
H  11.15600 4.32300 32.03500
H  11.64500 3.23300 33.70400
H  10.03200 2.92800 34.37700
H  6.18400 8.50600 28.85000
H  5.15900 8.40300 27.43700
H  6.54300 9.46900 27.42300
H  4.48900 9.07200 25.06900
H  5.38700 9.61200 23.72000
H  6.11700 9.59800 25.39400
H  8.82800 3.70500 22.17200
H  9.45800 1.04500 22.93400
H  7.40500 1.31100 22.42000
H  6.92400 2.88700 21.67700
H  6.50000 2.46500 23.40200
H  12.00900 1.77800 22.90500
H  11.41900 3.48700 22.90500
H  11.36000 3.31500 20.56800
H  10.30300 1.76900 20.87300
H  12.08600 1.73400 20.69600
H  12.93100 -1.49200 27.39100
H  11.69700 -1.52700 26.18800
H  11.28700 -2.17900 27.78500
H  11.73000 1.48800 31.96200
H  9.55400 -1.06300 34.16400
H  9.52500 0.36700 35.18900
H  10.88400 -0.84800 35.26000
Mg 41.83600 40.50700 26.15700
C  41.51600 43.10300 28.51900
C  42.56600 38.33600 28.89500
C  42.50700 38.17500 24.04800
C  41.25000 42.84200 23.64300
N  42.07500 40.76000 28.42900
C  41.79600 41.92800 29.14800
C  41.75400 41.64800 30.63700
C  42.35300 40.20800 30.74500
C  42.27700 39.71300 29.28100
C  43.77500 40.03700 31.36700
C  40.31500 41.71500 31.27400
C  40.25600 41.48500 32.82600
H  39.62000 42.66400 33.68800
N  42.58000 38.58800 26.40100
C  42.78000 37.91200 27.59500
C  43.16900 36.59000 27.22500
C  43.07300 36.45000 25.82000
C  42.72800 37.73800 25.39000
C  43.69800 35.52500 28.23700
C  43.37200 35.16600 24.97600
O  43.48200 35.25800 23.76500
C  43.48000 33.77800 25.65400
N  41.96800 40.58000 24.16500
C  42.22400 39.43200 23.42300
C  41.88500 39.56700 21.96100
C  41.23500 41.04700 21.97800
C  41.56600 41.55300 23.32100
C  43.07800 39.19400 20.91600
C  39.77600 41.28000 21.54600
C  38.75200 40.75000 22.48600
N  41.47100 42.62200 26.02700
C  41.33100 43.45800 24.94100
C  41.20300 44.87600 25.36200
C  41.19000 44.80700 26.77800
C  41.43300 43.39800 27.12700
C  41.07300 46.13000 24.45200
C  41.03100 45.50200 27.98700
O  40.88800 46.68100 28.21500
C  41.10500 44.45900 29.12400
C  42.21600 44.95800 30.04700
O  43.38600 45.02400 29.76900
O  41.75400 45.01700 31.37800
C  42.81800 45.29400 32.40500
H  42.89500 37.68900 29.71100
H  42.45900 37.37900 23.30100
H  40.98800 43.33200 22.70300
H  42.43400 42.32900 31.14800
H  41.63700 39.61400 31.31400
H  44.18300 41.03700 31.51700
H  44.42500 39.45300 30.71500
H  43.75900 39.41700 32.26300
H  39.79200 40.87300 30.81900
H  39.69500 42.58700 31.06500
H  41.30300 41.40200 33.11500
H  39.83000 40.51500 33.08300
H  43.71700 35.88400 29.26700
H  44.69500 35.31300 27.85200
H  43.11100 34.63700 28.00100
H  42.49800 33.47600 26.01800
H  44.34300 33.81900 26.31800
H  43.74100 33.02900 24.90600
H  41.03900 38.87900 21.95800
H  41.78800 41.56900 21.19800
H  43.29500 40.00600 20.22100
H  42.90600 38.34100 20.26000
H  44.03700 39.09000 21.42400
H  39.62100 40.68800 20.64400
H  39.48400 42.30600 21.32400
H  39.18800 40.63500 23.47800
H  38.35600 39.76400 22.24400
H  37.92400 41.43900 22.65100
H  41.37000 47.11000 24.82500
H  40.02000 46.24900 24.19400
H  41.65700 46.13000 23.53200
H  40.23800 44.58700 29.77200
H  43.80600 45.46000 31.97600
H  42.86700 44.39200 33.01500
H  42.47700 46.18100 32.93800

