158

Mg 40.40500 9.19600 29.56000
C  42.36400 10.56200 32.21300
C  38.26100 7.93000 32.00100
C  38.64400 7.70200 27.19000
C  42.81700 10.17400 27.43700
N  40.31200 9.28300 31.84300
C  41.16300 10.02900 32.64400
C  40.66300 10.02000 34.14200
C  39.49300 8.99500 34.06200
C  39.31000 8.72900 32.52700
C  39.56800 7.65900 34.88100
C  40.36100 11.43300 34.66500
C  39.32700 11.59900 35.75400
H  39.57200 12.32200 37.12500
N  38.63800 7.99700 29.56700
C  37.90900 7.60500 30.66800
C  36.71100 6.91400 30.21500
C  36.84800 6.79200 28.80900
C  38.08600 7.49100 28.44100
C  35.54500 6.46500 31.12700
C  35.92600 6.07400 27.87100
O  36.16700 6.14300 26.67200
C  34.72400 5.25400 28.39900
N  40.53800 9.13000 27.58700
C  39.76700 8.37300 26.74000
C  40.20000 8.51600 25.24000
C  41.60000 9.22000 25.38600
C  41.67800 9.51100 26.89100
C  40.25700 7.26500 24.36000
C  41.83600 10.45200 24.48000
C  41.03500 11.73800 24.90900
N  42.23200 10.09500 29.70200
C  43.11200 10.46100 28.75000
C  44.27500 11.18000 29.31200
C  44.05900 11.23400 30.67800
C  42.83400 10.49700 30.88500
C  45.40900 11.79400 28.55100
C  44.49700 11.67300 32.01700
O  45.48400 12.28800 32.39600
C  43.40200 11.23400 33.09600
C  43.87200 10.32100 34.16500
O  43.89900 9.11300 34.05700
O  44.21300 10.98100 35.28600
C  44.35600 10.08400 36.41700
H  37.60600 7.52500 32.77600
H  38.20600 7.26900 26.28800
H  43.59400 10.45500 26.72300
H  41.46900 9.62600 34.76200
H  38.52600 9.41600 34.33800
H  38.65900 7.54100 35.47000
H  40.41600 7.64200 35.56600
H  39.77200 6.73500 34.34100
H  40.03000 12.10400 33.87300
H  41.26400 11.75100 35.18500
H  39.14800 10.65400 36.26700
H  38.37700 11.80000 35.26000
H  34.75100 7.18400 30.92500
H  35.85100 6.64000 32.15900
H  35.15400 5.46400 30.94600
H  35.11100 4.42000 28.98600
H  34.36100 4.75700 27.50000
H  34.19900 5.95400 29.04900
H  39.48200 9.22300 24.82400
H  42.52600 8.66100 25.25100
H  39.83700 7.48900 23.37900
H  39.65700 6.50400 24.86000
H  41.23400 6.86700 24.08500
H  41.41600 10.18000 23.51200
H  42.91400 10.58900 24.38900
H  40.39200 11.42900 25.73300
H  40.42000 12.20700 24.14100
H  41.77600 12.46700 25.23500
H  45.08300 12.14200 27.57200
H  46.21000 11.05700 28.48900
H  45.85100 12.64600 29.06800
H  42.98300 12.08800 33.62700
H  45.16800 9.38400 36.22500
H  43.39700 9.64000 36.68700
H  44.64400 10.64800 37.30400
Mg 9.93600 47.97200 26.30200
C  8.01700 48.09800 29.17800
C  12.55500 49.47800 28.04700
C  11.92400 47.28900 23.73000
C  7.11600 47.15800 24.40200
N  10.20600 48.67700 28.33800
C  9.38000 48.44300 29.44700
C  9.94900 49.01000 30.74700
C  11.12800 49.82300 30.23300
C  11.35300 49.36100 28.73200
C  10.96500 51.36000 30.46200
C  10.42200 47.92800 31.85800
C  9.81700 48.30900 33.30400
H  9.73100 47.17200 34.31900
N  12.01200 48.18000 26.01500
C  12.89000 48.79900 26.87000
C  14.18900 48.55400 26.39600
C  14.07500 48.02900 25.01700
C  12.65800 47.84600 24.83900
C  15.40900 49.13900 27.15100
C  15.18000 47.67200 23.98200
O  14.91500 47.33100 22.86000
C  16.66600 47.75700 24.38100
N  9.59100 47.52100 24.28700
C  10.57000 47.15900 23.39700
C  10.05900 46.54400 22.08200
C  8.55200 46.50000 22.32800
C  8.38300 47.03100 23.75300
C  10.41500 47.38600 20.82700
C  8.00400 45.05200 22.15700
C  8.42000 44.02300 23.26500
N  7.94700 47.93400 26.63600
C  6.93300 47.43000 25.77200
C  5.74700 47.22700 26.53300
C  6.07900 47.53500 27.90800
C  7.44700 47.91600 27.90100
C  4.44000 46.76800 26.02400
C  5.56800 47.71100 29.29000
O  4.45300 47.73900 29.80300
C  6.83600 47.94600 30.17500
C  7.17900 46.79100 31.08400
O  7.96200 45.86900 30.84500
O  6.41700 47.01400 32.20000
C  6.22200 45.85800 33.07700
H  13.27400 49.97000 28.70600
H  12.59500 47.05200 22.90100
H  6.33600 46.76900 23.74400
H  9.20900 49.70200 31.15000
H  12.02500 49.44300 30.72200
H  11.07700 51.78800 29.46600
H  11.65600 51.70000 31.23400
H  9.94100 51.59400 30.75200
H  11.50000 47.90200 32.01100
H  10.09000 46.98100 31.43300
H  8.79000 48.67100 33.25900
H  10.46700 49.11200 33.65200
H  15.14500 49.45300 28.16100
H  15.99100 49.81100 26.52100
H  16.10800 48.32200 27.33200
H  16.76200 47.33900 25.38300
H  17.10000 48.73700 24.57700
H  17.24800 47.25600 23.60700
H  10.60800 45.60300 22.13100
H  8.09800 47.12000 21.55400
H  11.44900 47.28700 20.49700
H  10.15500 48.40400 21.11700
H  9.77200 47.05800 20.01100
H  8.19900 44.71400 21.14000
H  6.92500 45.13000 22.29600
H  8.61900 44.47700 24.23600
H  9.34500 43.53300 22.96100
H  7.56200 43.35200 23.31200
H  3.82300 47.50700 25.51300
H  3.87800 46.50900 26.92100
H  4.56200 45.85500 25.44200
H  6.70700 48.85000 30.77000
H  5.17000 45.58300 33.00400
H  6.58500 46.13000 34.06900
H  6.77200 44.97900 32.74100

