158

Mg 1.64400 -2.39400 43.32200
C  4.90100 -1.77600 42.90700
C  0.57900 0.31800 41.65600
C  -1.75100 -3.54700 43.47300
C  2.54400 -5.53600 44.80900
N  2.66700 -0.91500 42.37200
C  4.04700 -0.81900 42.25200
C  4.40400 0.39100 41.42700
C  2.91300 1.13300 41.31200
C  1.94100 0.13200 41.85500
C  2.93600 2.43300 42.18800
C  5.07000 0.07400 40.03000
C  6.39200 0.76800 39.77100
H  6.39000 1.81000 38.69400
N  -0.32600 -1.63500 42.78500
C  -0.53400 -0.46100 42.06500
C  -1.96200 -0.26900 41.92300
C  -2.62500 -1.28300 42.63000
C  -1.58400 -2.27700 42.96900
C  -2.48700 1.05100 41.30800
C  -4.16700 -1.35500 42.83000
O  -4.90800 -0.45600 42.47300
C  -4.91200 -2.52100 43.45200
N  0.46700 -4.26900 44.17000
C  -0.83600 -4.43700 44.10100
C  -1.23500 -5.78200 44.75800
C  0.20900 -6.45000 45.06200
C  1.17000 -5.35300 44.64400
C  -2.27100 -5.85800 45.91300
C  0.47000 -7.83600 44.43100
C  0.75100 -8.97100 45.43700
N  3.34500 -3.50300 43.86000
C  3.58600 -4.65800 44.49700
C  5.07900 -4.85300 44.66700
C  5.67000 -3.68700 44.06700
C  4.54900 -2.95400 43.56300
C  5.88800 -5.96200 45.32200
C  6.92200 -2.94000 43.76600
O  8.08800 -3.12700 44.06000
C  6.42900 -1.67300 42.88900
C  6.96000 -0.62000 43.70300
O  6.70300 -0.40700 44.86300
O  7.93200 -0.02900 42.98200
C  8.50900 1.20400 43.66100
H  0.44500 1.26600 41.13000
H  -2.76800 -3.94600 43.46500
H  2.97100 -6.46500 45.19100
H  5.09200 0.98900 42.02400
H  2.89900 1.43600 40.26500
H  3.02900 3.27900 41.50700
H  3.73000 2.45900 42.93500
H  1.96600 2.51600 42.67900
H  4.40600 0.40000 39.23000
H  5.26800 -0.99800 40.03800
H  7.08200 -0.00700 39.43700
H  6.91000 1.25800 40.59600
H  -3.01300 0.77000 40.39500
H  -1.70900 1.81300 41.26000
H  -3.29300 1.45300 41.92200
H  -5.96500 -2.25200 43.52600
H  -4.48900 -2.83200 44.40700
H  -4.92700 -3.33900 42.73100
H  -1.66800 -6.29300 43.89700
H  0.09400 -6.67300 46.12300
H  -3.13800 -5.26900 45.61500
H  -1.82500 -5.51900 46.84800
H  -2.58700 -6.89200 46.05700
H  1.41000 -7.78900 43.88000
H  -0.36500 -8.14000 43.80000
H  1.79100 -9.27700 45.31900
H  0.07600 -9.82700 45.45500
H  0.82800 -8.54100 46.43600
H  5.30000 -6.57300 46.00700
H  6.73400 -5.53200 45.85900
H  6.30000 -6.62800 44.56400
H  6.94900 -1.71300 41.93200
H  8.84900 1.89800 42.89300
H  9.27200 0.97900 44.40700
H  7.75100 1.79800 44.17200
Mg 1.13000 7.79100 26.29400
C  1.70500 9.81100 29.22900
C  1.17000 5.09500 28.32900
C  1.10200 6.00800 23.46100
C  1.39200 10.78900 24.32000
N  1.42500 7.54800 28.51900
C  1.47000 8.47500 29.53900
C  1.20700 7.79000 30.88300
C  1.47400 6.25400 30.58300
C  1.33800 6.24700 29.02700
C  2.83600 5.65200 31.08900
C  -0.21600 8.07300 31.57600
C  -0.31400 8.28200 33.07900
H  0.75700 7.67900 33.97400
N  1.15000 5.81800 25.97900
C  1.20400 4.87400 26.93200
C  1.16700 3.55500 26.33400
C  1.05600 3.77200 24.92300
C  1.05100 5.29100 24.70800
C  1.10600 2.24200 27.10400
C  0.81700 2.75700 23.81000
O  0.68300 3.05800 22.62600
C  0.91900 1.26000 24.10800
N  0.96500 8.39100 24.19700
C  1.12100 7.45000 23.27400
C  1.30600 8.08400 21.84300
C  1.22600 9.61400 22.12200
C  1.26800 9.60900 23.66100
C  2.62400 7.69500 21.11400
C  -0.03800 10.27600 21.60800
C  0.01300 11.76800 21.36200
N  1.45600 9.84800 26.65200
C  1.50900 10.91400 25.70600
C  1.69000 12.15400 26.44900
C  1.90500 11.76800 27.76800
C  1.66700 10.33400 27.91700
C  1.80700 13.49200 25.80300
C  2.15300 12.32700 29.11800
O  2.51700 13.44300 29.47500
C  1.96300 11.13900 30.08900
C  3.08400 11.14600 31.13600
O  4.28200 10.75500 30.98200
O  2.64800 11.64400 32.28100
C  3.43500 11.32700 33.46700
H  1.10000 4.27400 29.04500
H  1.07400 5.43400 22.53300
H  1.30900 11.73100 23.77500
H  1.99800 8.02400 31.59500
H  0.78200 5.66600 31.18600
H  3.36600 5.36000 30.18200
H  2.68200 4.78700 31.73400
H  3.39400 6.42600 31.61600
H  -0.83600 7.19800 31.37900
H  -0.71600 8.95300 31.17000
H  -1.23600 7.81600 33.42600
H  -0.31800 9.30900 33.44200
H  0.08700 1.89800 27.27900
H  1.53900 2.40600 28.09100
H  1.78800 1.49600 26.69700
H  1.90800 1.07700 24.52800
H  0.74500 0.60700 23.25300
H  0.13000 1.06700 24.83600
H  0.49000 7.81900 21.17100
H  2.04100 10.20800 21.70800
H  3.36000 8.48900 21.23600
H  2.39300 7.52500 20.06200
H  2.88700 6.81500 21.70000
H  -0.89700 10.14300 22.26600
H  -0.28600 9.82000 20.65000
H  0.96900 12.22400 21.61800
H  -0.77600 12.23200 21.95400
H  -0.04400 11.97900 20.29400
H  2.65000 13.60700 25.12200
H  1.97400 14.18000 26.63200
H  0.90100 13.85500 25.31800
H  1.07100 11.55100 30.56000
H  2.87600 11.77800 34.28700
H  4.42500 11.78300 33.48000
H  3.66100 10.26100 33.47900

