158

Mg 16.68600 51.58700 26.81000
C  18.72100 49.62900 28.92900
C  14.52100 51.94100 29.37700
C  14.72600 52.99800 24.60900
C  18.97100 50.54700 24.20000
N  16.75900 51.06600 28.92900
C  17.71600 50.28900 29.55400
C  17.47800 50.29100 31.09100
C  15.94300 50.73400 31.14600
C  15.66500 51.27000 29.70800
C  15.01200 49.68800 31.77900
C  18.47100 51.28400 31.76400
C  18.77000 50.97200 33.20200
H  17.84700 51.49300 34.19200
N  14.88300 52.45300 27.04000
C  14.20600 52.59200 28.14600
C  13.06100 53.38600 27.92300
C  13.02400 53.59300 26.46000
C  14.24600 53.03600 25.98200
C  12.01800 53.77600 29.04500
C  11.97600 54.20500 25.54500
O  12.08900 54.26000 24.33400
C  10.77300 54.79300 26.11800
N  16.87700 51.77100 24.71700
C  15.87000 52.43200 24.06600
C  16.26300 52.51300 22.57800
C  17.65200 51.85700 22.50600
C  17.84900 51.36800 23.95000
C  15.12400 51.98600 21.68900
C  18.87900 52.84800 22.18400
C  19.60800 52.52200 20.87400
N  18.45700 50.37700 26.51400
C  19.27500 50.05300 25.45800
C  20.34400 49.23200 25.85700
C  20.18400 49.03800 27.19900
C  19.00300 49.81000 27.57800
C  21.46100 48.65200 24.94600
C  20.74100 48.35400 28.33800
O  21.65900 47.57400 28.37700
C  19.84100 48.89700 29.55900
C  19.51900 47.79400 30.43800
O  18.77200 46.88600 30.18800
O  20.16200 47.94700 31.64700
C  19.78700 46.97700 32.72100
H  13.93900 52.16400 30.27400
H  14.09600 53.48500 23.86200
H  19.60600 50.40600 23.32300
H  17.57700 49.30200 31.53800
H  15.82800 51.60900 31.78600
H  14.01300 50.04500 32.03000
H  15.48000 49.35800 32.70700
H  14.99100 48.85100 31.08200
H  18.02800 52.28000 31.79900
H  19.46300 51.31100 31.31500
H  19.79400 51.24200 33.45900
H  18.86400 49.91400 33.44700
H  11.71000 54.80800 28.87500
H  12.59900 53.82600 29.96600
H  11.13600 53.13600 29.08400
H  10.32000 54.02200 26.74300
H  10.15500 55.11600 25.28000
H  10.99700 55.64400 26.76100
H  16.39600 53.59400 22.63000
H  17.69000 50.98500 21.85400
H  14.43000 52.80100 21.48200
H  14.57200 51.14500 22.11100
H  15.54900 51.58100 20.77100
H  19.59900 52.94800 22.99700
H  18.43100 53.83900 22.11100
H  19.34400 51.54200 20.47700
H  20.68900 52.49300 21.00900
H  19.34900 53.31800 20.17600
H  21.63300 49.48500 24.26400
H  21.18100 47.75800 24.38900
H  22.34300 48.51300 25.57300
H  20.50300 49.62700 30.02300
H  19.83000 47.51200 33.67000
H  20.48200 46.13900 32.78000
H  18.81300 46.49600 32.63300
Mg 0.99700 42.29200 25.68300
C  2.49900 42.17800 28.95700
C  -1.85600 41.10800 27.02500
C  -0.11900 41.69100 22.56400
C  4.24700 43.13100 24.47300
N  0.38300 41.81700 27.72700
C  1.16200 41.87400 28.92400
C  0.31000 41.46800 30.11800
C  -1.05600 40.94800 29.44800
C  -0.86000 41.36400 27.99700
C  -1.21000 39.35600 29.38600
C  0.13000 42.69800 31.02700
C  -0.18500 42.41400 32.53200
H  -0.56600 40.97000 32.94700
N  -0.78800 41.65800 24.87200
C  -1.89700 41.23400 25.65100
C  -3.03500 40.99300 24.72200
C  -2.50800 41.33400 23.40900
C  -1.06000 41.51800 23.57100
C  -4.34800 40.49400 25.11900
C  -3.23300 41.26000 22.07500
O  -2.67700 41.31100 20.99500
C  -4.79500 41.25100 22.04100
N  1.95000 42.42500 23.82300
C  1.20300 42.21400 22.66900
C  2.09600 42.46400 21.35500
C  3.28000 43.34800 21.97000
C  3.23300 42.92100 23.51900
C  2.56100 41.13400 20.63900
C  3.16800 44.87700 21.61800
C  3.38100 45.27100 20.16700
N  2.99400 42.49800 26.50200
C  4.21700 42.92400 25.83800
C  5.22500 43.15000 26.87200
C  4.58900 42.81300 28.09500
C  3.24000 42.45400 27.78700
C  6.59000 43.67000 26.64300
C  4.79400 42.79600 29.55900
O  5.76600 43.03100 30.26100
C  3.44600 42.14100 30.15900
C  3.73600 40.85500 30.69200
O  4.19500 39.89600 30.04800
O  3.33300 40.80400 31.97300
C  3.09800 39.43200 32.51000
H  -2.82900 40.72200 27.33800
H  -0.44900 41.70100 21.52300
H  5.18700 43.56000 24.11800
H  0.81400 40.60200 30.54600
H  -1.90700 41.47500 29.88000
H  -0.98500 39.07300 28.35800
H  -2.24800 39.02600 29.39400
H  -0.61100 38.80000 30.10800
H  -0.67500 43.13600 30.43800
H  0.95900 43.34900 30.74900
H  -0.90100 43.22500 32.67100
H  0.75400 42.60700 33.05000
H  -4.54900 39.66900 24.43600
H  -5.08800 41.26500 24.90300
H  -4.39800 40.22900 26.17500
H  -5.15300 40.22600 22.13900
H  -4.99100 41.61100 21.03100
H  -5.15800 41.93400 22.80800
H  1.52000 43.01800 20.61300
H  4.21900 43.05200 21.50300
H  3.64000 40.98200 20.67000
H  2.19200 41.30900 19.62900
H  1.94400 40.32300 21.02800
H  3.82900 45.44500 22.27300
H  2.15900 45.16100 21.91800
H  3.24900 44.37800 19.55700
H  4.29200 45.85900 20.05500
H  2.63400 45.93700 19.73500
H  6.62100 44.51600 25.95600
H  7.23500 42.86300 26.29500
H  7.05400 44.13600 27.51100
H  3.17100 42.92300 30.86700
H  2.13000 39.05500 32.18200
H  3.01100 39.71400 33.55900
H  3.97300 38.81300 32.31000

