158

Mg 49.29000 47.20700 43.63000
C  45.98700 47.76100 42.83200
C  49.00000 44.11400 42.14000
C  52.60700 47.04200 43.80500
C  49.45100 50.55900 44.73200
N  47.70900 46.13400 42.54500
C  46.47800 46.55800 42.29100
C  45.63700 45.61100 41.32800
C  46.57700 44.36200 41.27300
C  47.82800 44.86700 42.01600
C  45.96700 43.03600 41.69400
C  45.32200 46.38400 39.97600
C  43.78100 46.34900 39.64700
H  43.30300 45.77800 38.35300
N  50.62700 45.66200 43.11700
C  50.32100 44.43900 42.59000
C  51.51700 43.64300 42.64900
C  52.61200 44.51000 43.08900
C  51.97800 45.79900 43.34900
C  51.55300 42.25300 42.03200
C  53.96400 44.14000 43.34100
O  54.27400 42.98600 43.10600
C  55.04000 44.98000 43.70200
N  50.87600 48.64900 44.15400
C  52.12500 48.21200 44.27100
C  53.02200 49.33900 44.89500
C  52.01900 50.52200 45.13000
C  50.69700 49.85900 44.68300
C  53.95200 48.92300 46.05800
C  52.31300 51.84000 44.51500
C  51.96200 53.07400 45.41800
N  48.01800 48.87700 43.86200
C  48.19400 50.14800 44.34600
C  46.95700 50.91500 44.30200
C  46.03300 49.97000 43.74200
C  46.76700 48.70100 43.52400
C  46.82800 52.37700 44.71400
C  44.65400 49.77000 43.44200
O  43.69000 50.51700 43.43900
C  44.56300 48.28700 42.83700
C  43.73100 47.43600 43.72600
O  43.67100 47.55300 44.94100
O  43.03000 46.54500 42.95200
C  42.04800 45.65700 43.69800
H  49.00900 43.07600 41.80100
H  53.60600 46.97400 44.24100
H  49.57300 51.60600 45.01500
H  44.76800 45.23800 41.86900
H  46.88500 44.14100 40.25100
H  44.88500 42.92000 41.75200
H  46.36700 42.67400 42.64200
H  46.22100 42.23200 41.00300
H  45.95100 46.01900 39.16500
H  45.46400 47.45300 40.13800
H  43.45600 47.38600 39.72800
H  43.24800 45.81800 40.43600
H  51.55900 41.49700 42.81800
H  52.24800 42.11700 41.20400
H  50.68200 41.93600 41.45800
H  55.02000 45.75500 42.93600
H  55.98100 44.43200 43.75200
H  54.83400 45.42200 44.67600
H  53.66300 49.56600 44.04300
H  51.78500 50.62300 46.19000
H  53.75200 47.85100 46.07500
H  53.76700 49.50300 46.96200
H  54.92100 49.19400 45.64100
H  51.78300 51.83300 43.56200
H  53.38700 51.92400 44.34700
H  51.13800 53.68600 45.04900
H  52.77700 53.79600 45.46500
H  51.77500 52.80200 46.45700
H  47.24700 52.89700 43.85300
H  47.37400 52.49000 45.65100
H  45.80600 52.73700 44.83600
H  44.13700 48.33500 41.83500
H  42.49200 45.12000 44.53600
H  41.85400 44.86400 42.97600
H  41.13000 46.14200 44.03100
Mg 1.12900 42.24400 26.81800
C  2.66600 42.16600 29.98000
C  -1.75600 41.03600 28.31000
C  -0.15100 41.72800 23.73700
C  4.23900 42.82200 25.45000
N  0.55500 41.64600 28.89100
C  1.28000 41.84200 30.04800
C  0.36600 41.68200 31.32100
C  -0.99600 41.21500 30.75600
C  -0.73400 41.27900 29.18500
C  -1.23500 39.77700 31.12800
C  0.33900 42.95700 32.15100
C  0.51000 42.84600 33.61700
H  -0.09900 41.63400 34.26500
N  -0.76700 41.66700 26.07000
C  -1.82900 41.18200 26.90500
C  -2.91200 40.81000 26.02300
C  -2.49800 41.09700 24.66200
C  -1.11600 41.56400 24.73700
C  -4.30600 40.26000 26.57100
C  -3.33000 40.86200 23.36000
O  -2.89800 41.23200 22.26100
C  -4.72400 40.28300 23.35100
N  1.91400 42.40200 24.94200
C  1.20700 42.05000 23.79500
C  2.13300 42.02100 22.57400
C  3.38200 42.79100 23.07000
C  3.19500 42.72500 24.58400
C  2.36600 40.58300 21.92700
C  3.44000 44.23200 22.69000
C  3.82900 44.44200 21.16400
N  3.04000 42.58500 27.43600
C  4.19600 42.80100 26.78700
C  5.27300 43.08300 27.73100
C  4.69500 42.85600 28.93500
C  3.34600 42.49600 28.78300
C  6.72600 43.38800 27.46100
C  4.93300 42.72100 30.35000
O  6.05000 42.77800 30.88000
C  3.62800 42.40100 31.11100
C  3.84900 41.07300 31.80600
O  3.88100 39.98000 31.31700
O  4.07100 41.33600 33.16200
C  4.25100 40.15600 34.06000
H  -2.66300 40.66500 28.79100
H  -0.55500 41.51800 22.74400
H  5.24000 42.85200 25.01400
H  0.76000 40.90500 31.97600
H  -1.76500 41.88100 31.14800
H  -2.31000 39.65000 31.25100
H  -0.63100 39.59600 32.01700
H  -0.90500 39.10700 30.33400
H  -0.61200 43.45200 31.95600
H  1.11800 43.61000 31.75700
H  0.19500 43.78300 34.07600
H  1.57800 42.89600 33.82900
H  -4.20700 40.12200 27.64700
H  -4.47700 39.23600 26.23800
H  -5.18800 40.86200 26.35200
H  -4.80500 39.33000 23.87400
H  -4.96800 40.10000 22.30400
H  -5.44900 41.01400 23.70900
H  1.65600 42.56300 21.75800
H  4.28600 42.26700 22.76000
H  1.46300 39.98500 22.05100
H  3.22000 40.03500 22.32700
H  2.47600 40.56900 20.84300
H  4.34100 44.57900 23.19600
H  2.54900 44.73300 23.06700
H  3.00400 44.95200 20.66500
H  4.03200 43.46100 20.73500
H  4.74400 45.02600 21.06700
H  7.02300 43.82800 28.41300
H  6.86300 44.01700 26.58100
H  7.31900 42.47400 27.44000
H  3.38500 43.24800 31.75300
H  5.28500 40.17400 34.40400
H  4.02600 39.20900 33.56900
H  3.59600 40.21800 34.92900

