158

Mg 16.96200 -2.57300 28.35000
C  15.62700 -0.77500 31.09400
C  18.86100 -4.43100 30.52600
C  18.37500 -4.05000 25.73300
C  15.14300 -0.47800 26.24700
N  17.24700 -2.53400 30.51000
C  16.57800 -1.77100 31.46600
C  17.08700 -2.06200 32.89900
C  18.22100 -3.10600 32.65100
C  18.12300 -3.38000 31.11400
C  19.59500 -2.76600 33.19800
C  15.96200 -2.59500 33.82100
C  15.77400 -1.78700 35.17800
H  16.91000 -0.96800 35.82000
N  18.32600 -4.12300 28.14100
C  18.91700 -4.81600 29.16400
C  19.87600 -5.86000 28.65100
C  19.69300 -5.75500 27.19200
C  18.73200 -4.59700 26.94900
C  20.62200 -6.76600 29.53700
C  20.35600 -6.58800 26.06900
O  20.18000 -6.35900 24.90400
C  21.13500 -7.81000 26.46000
N  16.69600 -2.44600 26.26600
C  17.47000 -3.08300 25.39400
C  17.46600 -2.42600 24.01600
C  16.21700 -1.45700 24.12300
C  15.88900 -1.52400 25.65600
C  18.75400 -1.68400 23.60300
C  15.10300 -1.97600 23.21400
C  13.93900 -1.08300 22.97200
N  15.62100 -1.00700 28.53100
C  14.94500 -0.27000 27.62500
C  14.07200 0.66300 28.28100
C  14.39900 0.51500 29.60600
C  15.32800 -0.50300 29.73300
C  13.11600 1.67900 27.61400
C  14.06000 1.05300 30.90300
O  13.34400 2.01200 31.23400
C  14.98600 0.25900 31.91400
C  15.86700 1.24500 32.41300
O  16.84000 1.73800 31.77400
O  15.38400 1.78900 33.56800
C  16.12000 3.01400 34.11100
H  19.61400 -4.84800 31.19900
H  18.78800 -4.45400 24.80600
H  14.78800 0.25800 25.52200
H  17.54400 -1.13200 33.23600
H  17.92800 -4.05400 33.10200
H  19.83200 -3.37300 34.07100
H  19.72200 -1.74400 33.55500
H  20.27700 -2.85000 32.35100
H  16.10700 -3.61800 34.16900
H  15.02600 -2.44900 33.28100
H  15.44700 -2.41200 36.01000
H  14.98300 -1.04800 35.05400
H  20.77900 -6.29800 30.50800
H  21.58900 -6.96500 29.07500
H  20.22500 -7.78100 29.57000
H  20.59000 -8.37200 27.21800
H  21.97700 -7.35700 26.98400
H  21.41200 -8.37800 25.57200
H  17.44400 -3.26400 23.32000
H  16.56700 -0.51700 23.69600
H  19.46900 -1.99200 24.36600
H  18.63500 -0.60300 23.68000
H  19.12200 -1.96700 22.61700
H  14.85100 -2.91900 23.70000
H  15.50200 -2.30800 22.25600
H  13.04500 -1.39300 23.51300
H  13.75200 -0.85800 21.92200
H  14.08600 -0.09500 23.40900
H  13.04500 2.54800 28.26800
H  12.16200 1.21100 27.37000
H  13.55100 2.03800 26.68100
H  14.34400 -0.13400 32.70300
H  16.68900 2.77000 35.00800
H  15.34600 3.68700 34.48000
H  16.81500 3.46200 33.40100
Mg 49.11500 46.86100 42.59700
C  45.90900 47.81600 41.54800
C  48.73700 44.15500 40.61400
C  52.38300 46.08600 43.14800
C  49.65900 50.05900 43.65700
N  47.52100 46.09400 41.11700
C  46.26600 46.63700 40.95800
C  45.43800 45.79200 39.94700
C  46.31100 44.46800 39.78300
C  47.60000 44.91900 40.53800
C  45.67300 43.14600 40.29000
C  45.16000 46.46900 38.58300
C  43.71600 46.65300 38.20200
H  43.29600 46.18000 36.76100
N  50.31400 45.19500 42.09200
C  49.91300 44.24000 41.24400
C  50.92600 43.25900 41.30700
C  52.06300 43.76500 41.99900
C  51.59100 45.09200 42.49900
C  50.84700 41.93000 40.49600
C  53.44400 43.07500 42.20600
O  53.57900 41.84400 41.92300
C  54.65100 43.78500 42.83400
N  50.77400 47.93400 43.25800
C  51.99500 47.38700 43.49400
C  53.06900 48.42300 43.90300
C  52.18200 49.64000 44.15500
C  50.80200 49.20200 43.57000
C  54.00800 48.06200 45.00600
C  52.74400 51.00400 43.65400
C  52.70600 52.12400 44.68200
N  47.99400 48.58800 42.78600
C  48.33500 49.77000 43.32800
C  47.24000 50.66000 43.24300
C  46.19300 49.83400 42.66700
C  46.78600 48.70300 42.29400
C  47.15900 52.01900 43.79100
C  44.78100 49.86000 42.26600
O  43.89300 50.72500 42.36200
C  44.56300 48.50500 41.36000
C  43.37500 47.88700 41.95200
O  42.24600 48.17600 41.68000
O  43.73000 46.93100 42.86800
C  42.67400 46.20600 43.60300
H  48.57300 43.28000 39.98100
H  53.40800 45.77100 43.35300
H  49.87900 51.04700 44.06700
H  44.45200 45.64400 40.38700
H  46.62400 44.30700 38.75100
H  45.64300 42.40400 39.49200
H  44.67000 43.48200 40.55300
H  46.12600 42.76100 41.20400
H  45.82100 45.95900 37.88200
H  45.67100 47.43200 38.61300
H  43.34700 47.67900 38.21500
H  43.00700 46.22500 38.91100
H  51.74000 41.54000 40.00800
H  50.17400 42.11400 39.65800
H  50.44600 41.13700 41.12800
H  55.53800 43.28200 42.44900
H  54.51200 43.81200 43.91400
H  54.69400 44.74800 42.32400
H  53.68100 48.59900 43.01800
H  51.93700 49.73300 45.21300
H  53.76400 47.17600 45.59100
H  53.99000 48.98000 45.59400
H  55.06600 48.01300 44.74800
H  52.16000 51.29300 42.78100
H  53.74600 50.85400 43.25300
H  53.69400 52.41200 45.04000
H  52.13100 51.87300 45.57300
H  52.13500 52.98300 44.32900
H  48.10400 52.54400 43.64800
H  46.90500 51.99300 44.85100
H  46.29200 52.45000 43.29200
H  44.47700 48.92200 40.35700
H  42.49800 46.59700 44.60500
H  43.03100 45.17800 43.67000
H  41.74300 46.16100 43.03800

