158

Mg 35.69600 3.40600 30.82400
C  33.02300 4.34000 32.76900
C  37.66600 3.35400 33.59800
C  38.32900 2.47700 28.86800
C  33.66300 3.54800 28.01300
N  35.32300 3.63000 32.92900
C  34.14500 4.00500 33.52200
C  34.24500 3.99700 35.04300
C  35.80400 3.95800 35.27200
C  36.30600 3.63600 33.85100
C  36.41100 5.24800 35.86500
C  33.34400 2.85800 35.61900
C  33.54600 2.20700 36.99700
H  33.97400 3.04700 38.20200
N  37.68600 2.91000 31.26900
C  38.34200 2.99800 32.43000
C  39.75300 2.82800 32.22800
C  39.91500 2.27500 30.92800
C  38.60400 2.52600 30.26000
C  40.74300 2.91500 33.33000
C  41.02200 1.54000 30.32200
O  40.97900 1.16200 29.12900
C  42.11600 1.11900 31.22900
N  35.90300 2.98500 28.77200
C  37.11700 2.71900 28.18900
C  37.04300 2.62700 26.64700
C  35.54000 2.95300 26.36200
C  35.00900 3.21600 27.78000
C  37.87400 3.68600 25.89800
C  34.79200 1.74800 25.76200
C  34.31900 0.55800 26.69400
N  33.74400 3.89200 30.36900
C  33.03200 3.88600 29.20500
C  31.67000 4.22800 29.44600
C  31.59100 4.51500 30.83700
C  32.87400 4.20200 31.38600
C  30.57400 4.21100 28.42000
C  30.78100 4.93000 31.96600
O  29.66100 5.46400 32.01800
C  31.65100 4.80500 33.25900
C  31.75900 6.15500 33.96100
O  32.56900 6.99400 33.59800
O  30.84100 6.30500 34.99200
C  31.05800 7.34500 36.00500
H  38.17600 3.37200 34.56300
H  39.16900 2.40100 28.17400
H  32.94300 3.65300 27.19900
H  33.80600 4.94600 35.35100
H  36.16100 3.13900 35.89600
H  36.94500 5.87700 35.15200
H  37.03300 5.22100 36.76000
H  35.52700 5.82500 36.13600
H  33.51600 2.01200 34.95400
H  32.28300 3.07700 35.49700
H  34.26300 1.40600 36.81800
H  32.56900 1.74600 37.14200
H  41.72200 3.18200 32.93400
H  40.65500 2.00800 33.92900
H  40.65600 3.76300 34.01000
H  42.52000 0.23900 30.72700
H  41.73200 0.76800 32.18700
H  43.01300 1.72800 31.34200
H  37.29500 1.59300 26.41400
H  35.43100 3.88800 25.81200
H  38.74100 3.18500 25.46600
H  38.26000 4.34300 26.67800
H  37.45900 4.25900 25.06900
H  35.45500 1.33200 25.00400
H  33.98000 2.20900 25.19900
H  33.89800 0.85700 27.65400
H  35.05800 -0.23700 26.80500
H  33.54700 0.14500 26.04500
H  30.52000 3.30900 27.81000
H  30.59100 4.99000 27.65800
H  29.62500 4.27900 28.95200
H  31.14000 4.15800 33.97200
H  31.33100 6.79100 36.90200
H  30.15300 7.85500 36.33600
H  31.91800 7.99500 35.84300
Mg 29.30900 57.18000 40.89100
C  26.38900 55.27800 40.18000
C  31.10100 54.80200 39.33500
C  31.97400 59.33100 41.08000
C  27.18400 59.74600 41.93100
N  28.73800 55.29100 39.79700
C  27.57200 54.63200 39.67500
C  27.61100 53.30700 38.90300
C  29.16300 53.04100 39.12600
C  29.75100 54.45600 39.47600
C  29.58700 52.09500 40.23400
C  26.91200 53.05300 37.48800
C  26.44200 54.24700 36.73900
H  26.66100 54.17600 35.22900
N  31.29800 57.02000 40.33400
C  31.88800 55.92000 39.75300
C  33.29500 56.18000 39.41800
C  33.47600 57.52400 39.84800
C  32.25800 58.02800 40.55000
C  34.17100 55.22900 38.62400
C  34.76800 58.37200 39.51000
O  35.75300 57.93900 38.97800
C  34.98000 59.90300 39.73700
N  29.56700 59.23500 41.58400
C  30.76800 59.90300 41.55100
C  30.55500 61.40000 41.80800
C  29.08600 61.53300 42.07200
C  28.54300 60.10700 41.90300
C  31.44300 62.02500 42.95200
C  28.23200 62.49400 41.18300
C  27.20400 63.35300 41.87800
N  27.30300 57.46400 41.07200
C  26.53400 58.55200 41.51000
C  25.08700 58.30800 41.45100
C  25.02000 56.98300 41.02000
C  26.38500 56.53700 40.72900
C  23.96300 59.33700 41.70500
C  24.07000 55.99000 40.66100
O  22.88800 55.86400 40.77600
C  24.95900 54.78700 40.18000
C  24.69800 53.52700 40.99700
O  23.59700 52.97500 41.03800
O  25.79600 53.20200 41.76000
C  25.65600 51.92200 42.48000
H  31.66400 53.89800 39.09200
H  32.78200 60.06400 41.09600
H  26.49100 60.51600 42.27700
H  27.12700 52.61700 39.59500
H  29.65900 52.68700 38.22200
H  30.56500 52.38600 40.61800
H  29.85600 51.16700 39.73000
H  28.87600 52.05600 41.05900
H  26.03700 52.43400 37.68700
H  27.54500 52.45600 36.83100
H  27.10100 54.98700 37.19200
H  25.40200 54.50000 36.94300
H  34.59400 55.68500 37.72900
H  33.60900 54.31900 38.40900
H  34.96100 54.84100 39.26600
H  34.81300 60.09700 40.79600
H  34.21700 60.51700 39.25800
H  36.00100 60.20600 39.50600
H  30.71200 61.96600 40.89000
H  28.93600 61.70300 43.13800
H  32.09700 61.33100 43.48000
H  30.78200 62.52700 43.65900
H  32.09700 62.80300 42.55800
H  27.67900 62.01100 40.37700
H  29.00000 63.19100 40.84800
H  27.53400 64.38600 41.77200
H  27.05300 63.12300 42.93300
H  26.24500 63.29200 41.36400
H  23.02900 58.93100 41.31900
H  24.20400 60.30100 41.25800
H  23.89100 59.35600 42.79300
H  24.67600 54.50200 39.16700
H  26.66600 51.51400 42.43800
H  24.94200 51.27400 41.97200
H  25.27000 51.95700 43.49900

