158

Mg 43.83800 4.12200 46.71500
C  42.04700 7.07300 46.94800
C  40.82000 2.41500 46.67400
C  45.52900 1.42100 45.75300
C  46.80800 6.00000 46.34400
N  41.65800 4.75800 46.69800
C  41.21400 5.97500 47.00300
C  39.69500 5.89700 47.37100
C  39.38500 4.42600 47.33900
C  40.71700 3.79200 46.86800
C  38.91400 3.87700 48.75800
C  38.87100 6.81300 46.38300
C  39.43000 7.09800 44.96000
H  38.41300 7.10600 43.75500
N  43.27700 2.08300 46.26700
C  41.99800 1.61100 46.26100
C  41.98000 0.25600 45.90600
C  43.33300 -0.12100 45.56200
C  44.13400 1.15100 45.80000
C  40.88300 -0.73700 46.16000
C  43.87500 -1.37900 45.06400
O  43.08000 -2.32400 44.74500
C  45.35000 -1.56300 44.73600
N  45.89200 3.80900 45.88700
C  46.38600 2.57300 45.85800
C  47.91500 2.44400 45.50800
C  48.33200 3.95100 45.84300
C  46.96700 4.67500 46.07400
C  48.60700 1.35600 46.41700
C  49.24400 4.60900 44.79500
C  50.43800 5.42100 45.35100
N  44.35400 6.10400 46.67000
C  45.61100 6.72900 46.49300
C  45.46900 8.18400 46.70800
C  44.05500 8.34000 46.83700
C  43.43300 7.05800 46.80000
C  46.61300 9.15200 46.63300
C  42.99300 9.33100 47.13400
O  43.05000 10.56400 47.22800
C  41.66800 8.50800 47.12200
C  40.99300 8.80100 48.40100
O  41.33000 8.29400 49.44800
O  39.93200 9.70200 48.28600
C  39.14100 10.17700 49.42000
H  39.87400 1.87200 46.62400
H  46.05300 0.46600 45.68300
H  47.75500 6.54400 46.37000
H  39.66100 6.25800 48.39900
H  38.77100 4.19900 46.46800
H  39.73300 3.35900 49.25800
H  38.24600 3.02500 48.63400
H  38.34200 4.55900 49.38700
H  38.56000 7.68300 46.96200
H  37.90000 6.34600 46.22000
H  40.21100 6.37000 44.73800
H  39.70800 8.15000 44.89900
H  40.15300 -0.70600 45.35200
H  40.24100 -0.32400 46.93900
H  41.09100 -1.76700 46.45100
H  45.99700 -1.49300 45.61000
H  45.67400 -0.80200 44.02600
H  45.51400 -2.53900 44.28000
H  48.11700 2.20500 44.46400
H  48.84100 4.13800 46.78800
H  48.76700 0.34500 46.04000
H  47.98900 1.27300 47.31100
H  49.64400 1.61000 46.63500
H  48.58000 5.19600 44.16000
H  49.65400 3.88800 44.08700
H  51.36700 5.07500 44.89700
H  50.51700 5.41000 46.43800
H  50.34800 6.48400 45.12700
H  47.46700 8.53900 46.91900
H  46.39100 9.94800 47.34400
H  46.79300 9.59200 45.65200
H  41.02400 8.74300 46.27500
H  39.10900 11.24300 49.64300
H  39.36300 9.63900 50.34200
H  38.10700 9.89000 49.23100
Mg -6.03100 25.57800 24.59100
C  -4.31800 26.44800 27.41400
C  -7.74000 23.13900 26.59100
C  -7.23800 24.00900 21.73700
C  -4.01500 27.49900 22.60700
N  -6.14100 24.89700 26.72700
C  -5.27600 25.46700 27.68100
C  -5.71900 25.09300 29.06200
C  -6.61100 23.82500 28.87500
C  -6.88400 23.95400 27.33000
C  -5.91600 22.45800 29.27200
C  -6.53200 26.28000 29.73900
C  -6.27600 26.55600 31.25000
H  -5.66900 25.45700 32.14200
N  -7.41600 23.86400 24.22300
C  -8.03200 23.06100 25.21000
C  -8.82100 22.06400 24.53100
C  -8.71500 22.28100 23.10200
C  -7.71900 23.35600 22.94100
C  -9.75300 21.08900 25.22600
C  -9.46400 21.64600 21.93400
O  -9.19200 21.86800 20.74700
C  -10.61300 20.60900 22.16800
N  -5.73200 25.69600 22.46600
C  -6.34200 25.05000 21.51800
C  -6.08100 25.66500 20.10700
C  -5.16700 26.85600 20.42700
C  -4.95500 26.71800 21.93800
C  -5.47900 24.63300 19.06700
C  -5.73900 28.34100 20.08200
C  -6.36200 28.47400 18.64400
N  -4.44000 26.79500 24.88900
C  -3.74800 27.54400 24.03200
C  -2.77100 28.30500 24.80100
C  -3.01600 27.98600 26.09400
C  -3.94900 26.95800 26.11800
C  -1.85900 29.38800 24.29400
C  -2.65300 28.28500 27.50900
O  -1.92200 29.13200 28.01200
C  -3.60800 27.32800 28.35300
C  -2.67700 26.57600 29.28400
O  -2.15500 25.48100 29.06500
O  -2.48500 27.36300 30.39900
C  -1.63400 26.91400 31.49700
H  -8.29600 22.42700 27.20400
H  -7.61100 23.69600 20.76000
H  -3.48400 28.15300 21.91200
H  -4.85000 24.79000 29.64600
H  -7.56800 23.90200 29.39100
H  -5.74600 21.75600 28.45500
H  -6.48100 21.95700 30.05800
H  -4.94800 22.74200 29.68600
H  -7.61800 26.18400 29.72600
H  -6.41600 27.16000 29.10600
H  -7.20600 26.88500 31.71400
H  -5.57700 27.38900 31.31600
H  -9.45700 21.07900 26.27500
H  -9.67700 20.08000 24.81900
H  -10.78800 21.42900 25.20700
H  -11.30800 20.59400 21.32900
H  -11.17300 21.01000 23.01300
H  -10.15800 19.62300 22.25700
H  -7.03300 26.09000 19.78800
H  -4.32800 26.83800 19.73200
H  -4.98600 23.77800 19.53000
H  -4.74200 25.17400 18.47400
H  -6.31800 24.35900 18.42700
H  -4.96400 29.10100 20.17600
H  -6.48400 28.58400 20.83900
H  -6.06700 29.38700 18.12700
H  -7.44400 28.58000 18.71600
H  -6.04200 27.64600 18.01200
H  -2.39100 30.33700 24.35800
H  -1.52200 29.20700 23.27300
H  -0.99600 29.26900 24.94900
H  -4.30500 27.88000 28.98300
H  -1.16600 25.94200 31.34500
H  -2.36400 26.78800 32.29700
H  -0.88600 27.69500 31.63400

