158

Mg 0.07400 7.43400 26.21300
C  1.18100 9.59900 28.68200
C  -0.01300 5.05000 28.59000
C  -0.48300 5.21900 23.79900
C  0.88100 9.95000 23.75700
N  0.65900 7.35100 28.38400
C  0.80200 8.34100 29.23200
C  0.67000 7.91700 30.67500
C  0.74100 6.40800 30.56700
C  0.44700 6.24800 29.08600
C  2.12700 5.82100 31.01300
C  -0.70700 8.51400 31.20900
C  -0.82700 8.31900 32.67400
H  0.40700 8.03100 33.63500
N  -0.36100 5.46300 26.24300
C  -0.37500 4.60500 27.34500
C  -0.79700 3.33000 26.96000
C  -1.00600 3.33400 25.48800
C  -0.60400 4.69100 25.07200
C  -0.83600 2.16800 27.98800
C  -1.45500 2.24800 24.53800
O  -1.35900 2.30400 23.35400
C  -1.99700 0.95300 25.00700
N  0.18300 7.57800 24.05600
C  -0.22000 6.51700 23.32300
C  -0.07100 6.87000 21.86200
C  0.14600 8.37300 21.90500
C  0.51400 8.70200 23.30200
C  1.06000 6.06400 21.08800
C  -1.16800 9.17600 21.42900
C  -0.99400 10.06400 20.20900
N  0.95300 9.35200 26.17700
C  1.16500 10.23100 25.15200
C  1.62000 11.43400 25.69600
C  1.60500 11.26000 27.10700
C  1.26600 9.96700 27.32000
C  1.86900 12.78000 24.96300
C  1.78500 11.87800 28.40200
O  2.11800 13.05600 28.71800
C  1.48400 10.80100 29.47200
C  2.65200 10.70400 30.40100
O  3.64800 10.05000 30.25700
O  2.42300 11.60900 31.44800
C  3.42100 11.43200 32.48900
H  0.06000 4.25000 29.33000
H  -0.78600 4.58500 22.96300
H  1.05700 10.69700 22.98000
H  1.52400 8.39600 31.15500
H  -0.06700 5.96600 31.14900
H  2.88300 6.57700 31.22500
H  2.46100 5.17700 30.19900
H  1.93600 5.19600 31.88500
H  -1.50500 7.98500 30.68900
H  -0.77700 9.57200 30.95600
H  -1.59000 7.63000 33.03900
H  -1.26700 9.23500 33.06800
H  -1.22100 1.16300 27.81400
H  -1.49500 2.52400 28.77900
H  0.15100 2.17800 28.45200
H  -2.59700 0.54800 24.19200
H  -2.58800 1.14100 25.90400
H  -1.17400 0.30500 25.30800
H  -0.95300 6.55300 21.30600
H  0.88500 8.73300 21.19000
H  1.74500 6.85400 20.78100
H  0.71000 5.62400 20.15400
H  1.57000 5.44700 21.82800
H  -1.52600 9.90000 22.16100
H  -2.04300 8.55700 21.22900
H  -1.86500 9.96700 19.56100
H  -0.09400 9.91600 19.61300
H  -0.90900 11.07500 20.60800
H  2.58500 12.70500 24.14400
H  2.22700 13.53800 25.66000
H  0.91200 13.13700 24.58300
H  0.55600 11.05400 29.98400
H  3.36000 10.54800 33.12400
H  3.13700 12.25800 33.14100
H  4.43400 11.62700 32.13500
Mg 36.17600 49.33200 24.95000
C  36.29300 47.62200 27.96400
C  34.70900 52.04300 26.55900
C  35.87100 50.78600 21.94200
C  37.27400 46.34500 23.34900
N  35.60800 49.76400 27.04900
C  35.80600 48.92200 28.18200
C  35.47300 49.67300 29.48000
C  34.84100 51.02600 28.96100
C  35.05400 50.90600 27.39900
C  33.37800 51.33800 29.41300
C  36.84600 49.85600 30.29500
C  36.77800 49.30300 31.69600
H  36.30700 50.31400 32.71700
N  35.45900 51.15100 24.32300
C  34.97400 52.15000 25.12300
C  34.54200 53.29200 24.32400
C  34.95000 52.97400 22.98100
C  35.43400 51.59700 23.03000
C  34.09500 54.64500 24.92600
C  34.98300 53.80700 21.73000
O  35.42300 53.44500 20.62900
C  34.63100 55.27000 21.90100
N  36.48300 48.63800 22.95800
C  36.26300 49.44600 21.86400
C  36.76600 48.72600 20.51400
C  37.61000 47.58200 21.16100
C  37.04700 47.45600 22.60300
C  35.45700 48.24800 19.72400
C  39.17000 47.83600 21.16000
C  39.92500 47.25300 20.00700
N  36.75600 47.37800 25.49700
C  37.16400 46.26200 24.77500
C  37.44000 45.11600 25.65200
C  37.16800 45.62700 26.87500
C  36.73100 46.97900 26.75400
C  37.79200 43.68800 25.30400
C  37.26700 45.24000 28.29500
O  37.64700 44.20500 28.79300
C  36.68600 46.52500 29.05700
C  35.65200 46.12900 30.02900
O  34.41600 46.33200 29.97500
O  36.30400 45.52600 31.10900
C  35.34900 45.16700 32.20200
H  34.14700 52.77800 27.13900
H  35.56100 51.13700 20.95500
H  37.78600 45.60100 22.73600
H  34.77800 49.02200 30.01000
H  35.48800 51.84000 29.28700
H  32.65800 51.25800 28.59900
H  33.35700 52.33400 29.85600
H  32.96700 50.66500 30.16600
H  37.11800 50.90500 30.41100
H  37.61800 49.37100 29.69800
H  37.69600 48.74800 31.89100
H  36.05200 48.49000 31.67300
H  34.80500 55.39800 24.58500
H  34.01200 54.59700 26.01200
H  33.09200 54.87300 24.56300
H  33.64700 55.45000 22.33300
H  34.77000 55.67900 20.90000
H  35.37000 55.77000 22.52600
H  37.33200 49.41400 19.88700
H  37.44100 46.66900 20.58900
H  35.58300 47.19200 19.48200
H  35.15800 48.78000 18.82100
H  34.59400 48.23300 20.39000
H  39.68400 47.61200 22.09500
H  39.29700 48.90500 20.98900
H  39.36800 46.91700 19.13300
H  40.35900 46.32100 20.37000
H  40.64600 48.03300 19.76200
H  37.77200 43.60500 24.21700
H  37.14800 43.05100 25.90900
H  38.81400 43.51300 25.64100
H  37.50400 46.92300 29.65700
H  35.93900 45.18100 33.11900
H  34.80600 44.22200 32.20700
H  34.67800 45.99900 32.41600

