158

Mg 24.36300 -4.90200 46.89700
C  26.32900 -2.75400 45.08200
C  21.70800 -4.15100 44.85400
C  22.93000 -7.90200 47.64400
C  27.31100 -5.97700 48.61500
N  24.06900 -3.61600 45.18600
C  24.97600 -2.74700 44.65300
C  24.41400 -1.90800 43.50000
C  22.83900 -2.18400 43.64800
C  22.82700 -3.35100 44.66900
C  22.08300 -0.99800 44.26100
C  25.02000 -2.16900 42.14900
C  25.48600 -1.07000 41.23100
H  25.04300 -1.07400 39.78400
N  22.46600 -5.78500 46.48700
C  21.50500 -5.29400 45.62900
C  20.34800 -6.17900 45.67200
C  20.65600 -7.27200 46.50300
C  22.05100 -7.06400 46.94400
C  19.17600 -6.03800 44.80400
C  19.68800 -8.40000 46.86000
O  18.52500 -8.45100 46.45200
C  20.18300 -9.45900 47.95500
N  25.13000 -6.74500 47.86200
C  24.30400 -7.73900 48.12700
C  24.96000 -8.74600 49.20800
C  26.40300 -8.10800 49.37100
C  26.27900 -6.86700 48.53100
C  24.13400 -9.00200 50.44000
C  27.55500 -9.08800 48.86700
C  28.64100 -9.51300 49.94900
N  26.42800 -4.45600 46.97600
C  27.43000 -4.86900 47.76300
C  28.61900 -3.97900 47.57900
C  28.22000 -3.18900 46.47900
C  26.89200 -3.52800 46.15400
C  29.92700 -4.02300 48.33700
C  28.69100 -2.24100 45.50300
O  29.78400 -1.74800 45.41700
C  27.47200 -1.95200 44.56600
C  27.31700 -0.50800 44.52000
O  26.96700 0.20000 45.44900
O  27.72900 0.00400 43.33800
C  27.65000 1.45500 43.17500
H  20.97300 -3.85900 44.10100
H  22.56700 -8.90700 47.86900
H  28.10400 -6.24500 49.31600
H  24.51300 -0.82800 43.61100
H  22.38200 -2.50600 42.71200
H  21.64500 -0.29200 43.55500
H  22.88100 -0.41400 44.71900
H  21.52000 -1.27200 45.15300
H  24.16900 -2.63000 41.64900
H  25.80400 -2.91800 42.04200
H  26.56900 -0.95000 41.25700
H  25.16300 -0.13300 41.68500
H  19.40800 -5.25700 44.07900
H  18.28100 -5.75000 45.35500
H  19.07100 -6.91500 44.16600
H  19.33300 -10.08000 48.23600
H  20.72000 -9.05000 48.81200
H  20.80600 -10.10900 47.34200
H  25.02000 -9.66100 48.61900
H  26.68700 -7.66700 50.32600
H  23.14800 -8.61200 50.18700
H  24.53400 -8.52900 51.33700
H  24.22300 -10.08100 50.56600
H  28.03900 -8.70700 47.96800
H  27.12300 -10.01100 48.48100
H  28.36700 -9.04400 50.89400
H  29.51800 -8.97200 49.59400
H  28.81600 -10.54400 50.25600
H  30.59800 -3.35300 47.79900
H  30.36900 -5.01600 48.40600
H  29.83400 -3.57400 49.32600
H  27.75700 -2.33500 43.58600
H  28.32900 1.59200 42.33300
H  28.12300 2.02300 43.97600
H  26.70200 1.95500 42.97400
Mg 39.74500 9.67900 29.47200
C  41.71200 10.81700 32.24500
C  37.68700 8.06400 31.64600
C  38.23900 8.43800 26.90300
C  42.40400 10.79300 27.39200
N  39.70900 9.49000 31.70200
C  40.58300 10.06000 32.60400
C  40.16400 9.72600 34.04300
C  38.96400 8.76000 33.82800
C  38.71400 8.74800 32.28900
C  39.12800 7.32500 34.32100
C  39.61500 10.97700 34.75000
C  39.85000 10.96400 36.29700
H  40.40900 12.22500 37.06900
N  38.08200 8.56500 29.28600
C  37.36500 8.00800 30.26200
C  36.16600 7.32300 29.69200
C  36.34200 7.52100 28.29700
C  37.63600 8.21400 28.10500
C  34.98800 6.75200 30.53600
C  35.36700 7.08600 27.19300
O  35.65600 7.19700 26.00000
C  33.97200 6.59200 27.53100
N  40.11000 9.76300 27.40600
C  39.35900 9.16500 26.53000
C  39.91600 9.31000 25.05300
C  41.13600 10.21400 25.27500
C  41.19100 10.34000 26.81600
C  40.16200 7.90700 24.39700
C  41.22300 11.48200 24.49900
C  39.99500 12.43500 24.46100
N  41.74000 10.63500 29.67600
C  42.70000 10.98800 28.72800
C  43.74500 11.72900 29.35200
C  43.28100 11.73600 30.69900
C  42.11000 11.01100 30.87100
C  45.01500 12.22700 28.75800
C  43.69300 12.31600 32.06600
O  44.63500 12.97600 32.42300
C  42.71300 11.57900 33.07100
C  43.45400 10.76600 34.00500
O  43.51300 9.51800 33.97600
O  43.68100 11.58500 35.11000
C  44.15900 10.84700 36.34700
H  36.94200 7.60700 32.30200
H  37.66300 8.09300 26.04200
H  43.23300 11.12700 26.76500
H  41.00900 9.26500 34.55400
H  38.04700 9.11100 34.30200
H  39.05900 6.65600 33.46400
H  38.41300 7.09300 35.11000
H  40.15300 7.26700 34.68700
H  38.57700 11.06400 34.42800
H  40.05700 11.91000 34.39900
H  40.48500 10.11500 36.54800
H  38.88400 10.85900 36.79100
H  35.10200 6.99100 31.59400
H  34.80200 5.67800 30.50900
H  34.10700 7.28500 30.17800
H  33.86400 5.57900 27.91900
H  33.45100 6.54700 26.57500
H  33.36600 7.25700 28.14500
H  39.02400 9.77800 24.63600
H  42.01300 9.65700 24.94500
H  40.03100 7.07600 25.09000
H  41.12000 7.78200 23.89400
H  39.43000 7.87500 23.58900
H  41.54200 11.29400 23.47400
H  41.98300 12.05200 25.03500
H  40.15900 13.45900 24.79500
H  39.26400 11.96000 25.11600
H  39.43000 12.29300 23.54000
H  45.10800 11.63000 27.85100
H  45.92300 11.90400 29.26600
H  44.95400 13.31500 28.71500
H  42.10300 12.18400 33.74100
H  44.98400 11.36600 36.83700
H  44.58400 9.87600 36.09500
H  43.34800 10.62900 37.04100

