158

Mg 35.44300 3.51400 29.91400
C  33.18000 4.46800 32.51900
C  37.87600 3.40000 32.18200
C  37.55000 3.02400 27.30500
C  32.81700 4.09500 27.69200
N  35.48800 4.10300 32.11000
C  34.45400 4.22100 32.98600
C  34.92000 4.25300 34.46100
C  36.45800 4.03800 34.26600
C  36.61600 3.83400 32.75900
C  37.33900 5.19200 34.82500
C  34.10800 3.08800 35.25700
C  33.60300 3.45200 36.61800
H  34.29300 4.55100 37.40000
N  37.41200 3.24700 29.79300
C  38.29500 3.18300 30.85500
C  39.60300 2.78600 30.43000
C  39.51800 2.60800 28.96200
C  38.09100 2.90600 28.63100
C  40.80000 2.65000 31.38300
C  40.66700 2.21200 27.97900
O  40.53500 2.30400 26.77100
C  42.04300 1.87100 28.55900
N  35.25600 3.58600 27.80900
C  36.20400 3.27000 26.97500
C  35.68900 3.27900 25.51500
C  34.17300 3.48200 25.66400
C  34.03400 3.79100 27.13200
C  36.40700 4.24800 24.64400
C  33.32700 2.29400 25.20400
C  33.53900 1.04500 26.09000
N  33.40700 4.18600 30.06500
C  32.47900 4.30600 29.05400
C  31.18000 4.57300 29.65800
C  31.44800 4.81500 30.95400
C  32.81200 4.46600 31.17700
C  29.98200 4.74200 28.82800
C  30.82200 5.09300 32.21600
O  29.64800 5.45600 32.43800
C  31.93300 4.97100 33.34000
C  31.91000 6.25900 34.12700
O  32.36400 7.35100 33.74500
O  31.29600 6.08400 35.36300
C  31.36200 7.20000 36.27300
H  38.70600 3.31400 32.88700
H  38.15800 2.86100 26.41200
H  32.03600 4.15200 26.93100
H  34.75900 5.25200 34.86600
H  36.71600 3.08200 34.72200
H  37.93800 5.45500 33.95400
H  38.04900 4.76700 35.53500
H  36.75100 6.00400 35.25400
H  34.79800 2.24600 35.31100
H  33.26300 2.61400 34.75800
H  33.68000 2.49800 37.14000
H  32.55400 3.74000 36.54900
H  41.41100 1.76900 31.18500
H  40.46900 2.47800 32.40700
H  41.35100 3.57800 31.23200
H  42.57800 1.63600 27.64000
H  41.96600 1.00300 29.21400
H  42.32900 2.79700 29.05800
H  35.96500 2.33000 25.05500
H  33.77800 4.39400 25.21700
H  37.09300 3.60700 24.09000
H  37.08300 4.89300 25.20600
H  35.70500 4.74200 23.97200
H  33.61000 2.14300 24.16200
H  32.26200 2.52200 25.25600
H  33.74200 0.16700 25.47600
H  32.63100 0.94000 26.68200
H  34.37300 1.25700 26.75900
H  30.13900 4.32600 27.83300
H  29.83900 5.81100 28.67100
H  29.07900 4.32000 29.27000
H  31.65100 4.11400 33.95200
H  30.61400 7.91700 35.93400
H  32.36400 7.62000 36.18200
H  31.19200 6.82600 37.28300
Mg 49.75000 46.57000 42.40400
C  46.42400 46.98900 41.76700
C  49.39800 43.37100 40.66000
C  53.13500 46.14200 42.39500
C  50.15200 49.80300 43.33600
N  48.13800 45.36900 41.16200
C  46.88000 45.84000 41.07800
C  46.09900 45.01300 40.14100
C  46.98000 43.72400 39.86700
C  48.26900 44.17700 40.53600
C  46.32000 42.49400 40.48900
C  45.69800 45.71900 38.83500
C  44.11300 45.73700 38.54800
H  43.71000 45.66300 37.08300
N  51.03900 45.03800 41.77100
C  50.64800 43.76000 41.16800
C  51.77000 42.84600 41.34400
C  52.93300 43.66200 41.69600
C  52.39400 45.09000 41.95900
C  51.66600 41.33500 41.06300
C  54.35100 43.07000 41.76700
O  54.57800 41.83200 41.67300
C  55.51100 43.96000 41.97200
N  51.44300 47.77800 42.80000
C  52.74500 47.39600 42.77700
C  53.69700 48.57100 43.11700
C  52.66200 49.72300 43.52800
C  51.30400 49.06800 43.24800
C  54.78500 48.18600 44.23900
C  52.84300 51.03700 42.72800
C  52.72300 52.33900 43.61800
N  48.58200 48.11200 42.63300
C  48.86500 49.41600 43.05400
C  47.58200 50.10200 43.17100
C  46.67000 49.09300 42.79200
C  47.29400 47.96900 42.37000
C  47.25600 51.44600 43.75100
C  45.29000 48.96900 42.62300
O  44.35300 49.67500 42.92400
C  45.07800 47.62200 41.93100
C  44.14100 46.70400 42.76400
O  44.27400 46.32700 43.90100
O  43.15300 46.24600 41.95800
C  42.18200 45.36000 42.61000
H  49.27900 42.38300 40.21000
H  54.16600 45.92800 42.68400
H  50.28500 50.86300 43.56100
H  45.16300 44.73200 40.62300
H  47.16800 43.59400 38.80100
H  45.63800 42.63100 41.32800
H  47.13200 41.93600 40.95400
H  45.84800 41.92500 39.68800
H  46.37900 45.38500 38.05200
H  46.00600 46.74300 39.04900
H  43.73300 46.67500 38.95500
H  43.54200 45.06100 39.18500
H  50.64600 40.95100 41.10500
H  52.37600 40.76500 41.66200
H  51.94900 41.29200 40.01100
H  55.52100 44.28600 43.01200
H  55.55100 44.75300 41.22500
H  56.47700 43.46000 41.89000
H  54.20500 48.78300 42.17600
H  52.63800 49.84000 44.61100
H  54.99500 47.11600 44.25200
H  54.56100 48.58500 45.22800
H  55.70700 48.76500 44.18300
H  52.13100 51.13100 41.90800
H  53.86500 51.10900 42.35600
H  53.51800 52.31600 44.36300
H  51.81800 52.54300 44.19100
H  52.83200 53.13100 42.87700
H  46.70600 52.13600 43.11200
H  48.15500 51.86300 44.20600
H  46.54400 51.24300 44.55100
H  44.75300 47.65200 40.89100
H  41.30000 45.40500 41.97200
H  42.00800 45.78500 43.59900
H  42.61800 44.37200 42.75600

