158

Mg 25.28000 2.04600 29.73300
C  27.02600 1.63900 32.74200
C  22.44900 1.60200 31.66900
C  23.51200 2.10300 26.87900
C  28.19800 1.64500 27.92400
N  24.82400 1.78700 31.98600
C  25.65200 1.75900 32.98800
C  25.01000 1.90200 34.38600
C  23.47200 1.81800 34.00800
C  23.54800 1.67100 32.45100
C  22.69600 0.56500 34.53100
C  25.44500 3.25100 35.15600
C  26.45200 3.05200 36.34800
H  26.32100 4.20600 37.37800
N  23.28600 2.00200 29.32800
C  22.28200 1.74400 30.25400
C  20.96500 1.75400 29.52600
C  21.26600 1.90700 28.14200
C  22.77500 2.03000 28.09600
C  19.65700 1.29800 30.21700
C  20.31900 1.75700 26.87200
O  20.67400 1.64200 25.71300
C  18.89300 1.77300 27.09900
N  25.78200 1.79200 27.66600
C  24.90500 2.00400 26.72000
C  25.56300 2.01200 25.30100
C  27.08500 1.94100 25.62400
C  27.06300 1.74500 27.12000
C  25.04500 0.89100 24.37900
C  27.87800 3.19200 25.17100
C  27.44200 4.61500 25.67900
N  27.23600 1.71500 30.15800
C  28.31400 1.57500 29.32700
C  29.44800 1.28900 30.18900
C  29.04400 1.41800 31.48600
C  27.63900 1.63500 31.45300
C  30.86700 1.00200 29.78700
C  29.46700 1.30900 32.88300
O  30.63000 1.31200 33.32600
C  28.20400 1.58100 33.74600
C  28.21800 0.56300 34.86000
O  27.77800 -0.56500 34.78500
O  28.88400 1.15500 35.93000
C  28.87200 0.29700 37.15300
H  21.54500 1.57600 32.28200
H  22.95700 2.16400 25.94100
H  29.16500 1.64800 27.41600
H  25.23200 1.01600 34.98100
H  23.04300 2.78200 34.28200
H  21.78700 0.91400 35.02200
H  23.31500 0.02200 35.24500
H  22.50400 -0.06000 33.65900
H  24.57600 3.73200 35.60500
H  26.05000 3.74800 34.39900
H  27.47000 3.18500 35.98200
H  26.41200 2.05400 36.78300
H  19.77100 1.39800 31.29600
H  19.46300 0.23800 30.05100
H  18.74900 1.82400 29.92200
H  18.62900 2.43200 27.92600
H  18.45100 0.78200 27.20000
H  18.39800 2.02300 26.16100
H  25.27700 2.96300 24.85100
H  27.50900 1.04500 25.17100
H  25.06200 1.21000 23.33700
H  24.07300 0.64300 24.80600
H  25.69900 0.02800 24.49900
H  27.81300 3.25800 24.08500
H  28.89900 3.07200 25.53400
H  28.31200 5.10900 26.11100
H  26.62400 4.62300 26.40000
H  27.07900 5.23900 24.86200
H  31.44700 1.47400 30.58000
H  31.13100 1.52500 28.86800
H  31.12700 -0.04900 29.91300
H  28.37500 2.50700 34.29600
H  29.04400 -0.77000 37.01100
H  27.92400 0.38600 37.68300
H  29.81100 0.48100 37.67500
Mg 17.26400 50.72700 26.20700
C  18.91400 48.95800 28.73000
C  14.71100 51.33800 28.66600
C  15.36200 51.84500 23.80000
C  19.27000 49.03900 23.86100
N  16.83000 50.13100 28.49000
C  17.73100 49.52700 29.31400
C  17.26800 49.76700 30.76000
C  15.76100 50.16600 30.59500
C  15.76400 50.59900 29.12400
C  14.71300 49.05000 30.75600
C  18.11100 50.82400 31.53100
C  18.51700 50.46700 32.97500
H  17.55800 50.87200 34.14900
N  15.37500 51.60800 26.23700
C  14.49000 51.89500 27.35900
C  13.37200 52.65200 26.87300
C  13.56900 52.84700 25.48400
C  14.79000 52.06000 25.14400
C  12.26100 53.17400 27.79900
C  12.80900 53.70500 24.48900
O  13.16700 53.75500 23.32100
C  11.61400 54.55900 24.99900
N  17.26000 50.39800 24.06200
C  16.45700 51.12700 23.33100
C  16.78500 51.00600 21.82200
C  18.01800 50.08700 21.82000
C  18.20200 49.80400 23.30800
C  15.60600 50.48200 20.94500
C  19.34100 50.68000 21.29000
C  20.18100 49.63500 20.53000
N  18.80900 49.50400 26.27900
C  19.54100 48.90700 25.20800
C  20.67400 48.20800 25.74400
C  20.58200 48.32600 27.17800
C  19.30500 48.93900 27.41300
C  21.73700 47.48100 24.89800
C  21.15300 47.95800 28.46600
O  22.27000 47.42100 28.68700
C  20.18600 48.52600 29.54700
C  19.88000 47.46300 30.52300
O  18.97200 46.63400 30.46600
O  20.72600 47.55900 31.61200
C  20.27300 46.77000 32.83100
H  13.94200 51.53900 29.41500
H  14.81700 52.32100 22.98200
H  19.97100 48.56600 23.17000
H  17.36100 48.80100 31.25500
H  15.47000 51.02600 31.19700
H  14.77400 48.27500 29.99300
H  13.73700 49.51300 30.60600
H  14.69700 48.57800 31.73900
H  17.48100 51.67500 31.78800
H  18.91700 51.33200 31.00100
H  19.55000 50.76900 33.14900
H  18.67800 49.38900 32.95300
H  12.16000 54.24800 27.64500
H  12.41800 52.83000 28.82100
H  11.38000 52.68100 27.38700
H  10.99400 53.86800 25.57000
H  11.17500 55.08100 24.14900
H  12.03200 55.30800 25.67100
H  17.03500 52.00300 21.46000
H  17.68500 49.18700 21.30200
H  14.90200 49.90900 21.54900
H  16.03300 49.85900 20.15800
H  15.00500 51.31100 20.57200
H  19.99600 50.95500 22.11700
H  19.19000 51.50400 20.59200
H  20.90400 49.29300 21.27100
H  20.68300 50.07400 19.66800
H  19.59800 48.74800 20.28400
H  22.24400 48.00200 24.08600
H  21.36200 46.50900 24.58000
H  22.47300 47.10100 25.60700
H  20.66500 49.32200 30.11600
H  20.43300 45.75000 32.48100
H  19.21100 46.74000 33.07600
H  20.84400 46.98200 33.73500

