158

Mg 1.33400 -1.56000 43.81300
C  4.58800 -0.75300 42.97600
C  0.17300 1.20600 42.21800
C  -1.91500 -2.78300 44.15600
C  2.50600 -4.60800 45.07000
N  2.32800 -0.08800 42.43000
C  3.70700 0.18700 42.45300
C  4.07600 1.52600 41.86900
C  2.62600 2.25300 41.89600
C  1.58300 1.07200 42.22300
C  2.32800 3.45600 42.81200
C  4.65800 1.23100 40.42700
C  6.00300 1.85200 40.16400
H  6.07900 2.58300 38.80700
N  -0.66600 -0.81000 43.34800
C  -0.85800 0.34900 42.65300
C  -2.30600 0.42700 42.45200
C  -2.97600 -0.60200 43.23500
C  -1.86700 -1.46800 43.62800
C  -2.94200 1.44100 41.62100
C  -4.41700 -0.77600 43.38000
O  -5.22100 0.08600 42.94200
C  -4.97500 -2.04500 44.02400
N  0.43700 -3.48200 44.38600
C  -0.90700 -3.69200 44.46000
C  -1.12200 -5.12500 44.96300
C  0.24600 -5.63900 45.33400
C  1.15200 -4.51400 44.91500
C  -2.16600 -5.18500 46.20000
C  0.66400 -7.07900 44.80700
C  1.16100 -8.15700 45.68500
N  3.18000 -2.51300 44.00300
C  3.44500 -3.68600 44.61900
C  4.90700 -3.84000 44.71100
C  5.42200 -2.71800 44.12300
C  4.30300 -1.91900 43.65400
C  5.70200 -4.88600 45.41300
C  6.59000 -1.95100 43.74800
O  7.72400 -2.30200 43.85100
C  6.12700 -0.73500 42.95000
C  6.72500 0.40900 43.59600
O  6.21000 1.01200 44.55900
O  7.89700 0.78600 42.91200
C  8.49400 2.08700 43.17000
H  -0.24700 2.17800 41.95100
H  -2.87700 -3.29900 44.12900
H  2.89100 -5.56100 45.44000
H  4.68100 2.14000 42.53600
H  2.33400 2.66200 40.92800
H  1.82000 4.31900 42.38000
H  3.36000 3.71600 43.04600
H  1.78900 3.11500 43.69600
H  3.96700 1.48300 39.62300
H  4.82300 0.16200 40.29400
H  6.80500 1.11700 40.09800
H  6.15900 2.62200 40.91900
H  -3.72200 1.05300 40.96600
H  -2.35600 1.89500 40.82200
H  -3.33800 2.22200 42.26900
H  -6.05600 -1.92000 44.08400
H  -4.59700 -2.39200 44.98600
H  -4.83200 -2.85300 43.30600
H  -1.56000 -5.70100 44.14800
H  0.36500 -5.64100 46.41800
H  -3.10600 -5.64400 45.89400
H  -2.39000 -4.13200 46.37600
H  -1.69500 -5.67400 47.05300
H  1.44100 -7.00400 44.04600
H  -0.17500 -7.49500 44.25000
H  0.31100 -8.78100 45.96100
H  1.65500 -7.71300 46.55000
H  1.94300 -8.72800 45.18400
H  6.68600 -5.01000 44.96100
H  5.06500 -5.77100 45.42700
H  5.90400 -4.46500 46.39800
H  6.44500 -0.85200 41.91400
H  9.20600 1.99100 43.99000
H  7.76800 2.76800 43.61300
H  8.90900 2.58800 42.29500
Mg -11.19600 16.32300 42.95600
C  -8.08400 14.70700 42.76300
C  -9.54400 19.24900 41.89300
C  -14.14800 17.64800 41.96400
C  -12.62700 13.36000 43.77500
N  -9.12100 16.85200 42.14100
C  -8.03000 16.04500 42.27700
C  -6.72500 16.69900 41.76800
C  -7.20000 18.28200 42.01500
C  -8.70900 18.11900 41.91400
C  -6.78900 18.91700 43.32400
C  -6.40900 16.37400 40.32500
C  -5.20500 15.38100 40.02000
H  -5.52700 14.40400 38.88400
N  -11.75800 18.16300 42.16300
C  -10.92100 19.26000 41.85700
C  -11.75400 20.31000 41.33400
C  -13.12100 19.91700 41.38500
C  -13.05200 18.47000 41.79800
C  -11.05900 21.52100 40.77600
C  -14.27200 20.70600 40.88800
O  -14.12900 21.82300 40.43000
C  -15.69400 20.26500 40.80600
N  -13.10700 15.63200 42.78900
C  -14.19600 16.30300 42.37700
C  -15.49300 15.37300 42.39200
C  -14.97700 14.13900 43.17600
C  -13.46300 14.39700 43.26300
C  -16.71600 16.03300 43.05800
C  -15.48500 12.81700 42.55300
C  -15.83500 11.65400 43.54500
N  -10.53800 14.43700 43.43500
C  -11.20800 13.30600 43.81700
C  -10.27600 12.24400 44.06100
C  -9.00000 12.77300 43.68200
C  -9.23700 14.07300 43.26300
C  -10.71000 10.86000 44.44600
C  -7.62000 12.51700 43.63000
O  -6.98100 11.50300 43.99000
C  -6.94900 13.76200 43.01600
C  -6.05000 14.20800 44.07500
O  -6.43100 14.57500 45.20700
O  -4.83100 14.19900 43.60600
C  -3.83000 14.85900 44.47100
H  -9.04500 20.19500 41.67500
H  -15.10100 18.03100 41.59200
H  -13.03400 12.42200 44.15900
H  -5.88000 16.56100 42.44300
H  -6.86400 18.89500 41.17800
H  -6.23800 19.84100 43.15000
H  -6.20100 18.27600 43.98000
H  -7.62000 19.09600 44.00700
H  -6.08800 17.28100 39.81300
H  -7.27200 15.92100 39.83800
H  -4.93300 14.82300 40.91600
H  -4.29300 15.94900 39.84000
H  -11.81000 22.31100 40.80000
H  -10.61500 21.39300 39.78900
H  -10.40000 21.96800 41.52100
H  -15.78000 19.46800 40.06700
H  -16.36900 21.02600 40.41300
H  -15.96700 19.96400 41.81700
H  -15.69900 15.17400 41.34100
H  -15.39400 14.24700 44.17800
H  -16.29400 16.84800 43.64500
H  -17.34600 15.32400 43.59600
H  -17.37100 16.46300 42.30000
H  -14.79700 12.33200 41.86000
H  -16.40800 13.06800 42.03100
H  -16.67500 11.01600 43.27000
H  -15.73700 11.99700 44.57500
H  -15.04800 10.92100 43.37000
H  -10.75100 10.25500 43.54000
H  -11.70300 10.81900 44.89600
H  -9.96200 10.43400 45.11500
H  -6.39300 13.43800 42.13600
H  -3.14300 15.40500 43.82400
H  -3.33600 14.16400 45.14900
H  -4.29200 15.60100 45.12300

