158

Mg 48.07800 34.32800 27.58700
C  46.20200 32.92400 30.15000
C  48.09400 37.35200 29.36300
C  49.24400 36.01800 24.84200
C  47.55400 31.50800 25.61600
N  47.41700 34.96400 29.50100
C  46.85200 34.11300 30.40400
C  46.92700 34.75400 31.76700
C  47.10000 36.28300 31.45200
C  47.58000 36.21700 30.03700
C  45.71400 37.03300 31.67700
C  48.16700 34.28500 32.47400
C  48.50400 34.72800 33.91200
H  47.37500 35.40600 34.71200
N  48.76200 36.37100 27.23200
C  48.65800 37.39200 28.12800
C  49.32900 38.49500 27.51300
C  49.70800 38.16600 26.19400
C  49.23500 36.81600 26.06700
C  49.61300 39.79400 28.26200
C  50.50400 39.06700 25.18400
O  50.74300 38.67100 24.01600
C  51.00000 40.45600 25.61800
N  48.32300 33.83400 25.43300
C  48.79700 34.68300 24.53900
C  48.94900 33.97700 23.12000
C  48.77900 32.43100 23.54500
C  48.21100 32.57900 24.92200
C  47.90700 34.41700 22.12600
C  50.00700 31.51100 23.50800
C  50.87100 31.72600 24.72800
N  47.17300 32.54500 27.84000
C  46.96200 31.50000 26.94600
C  46.24700 30.42600 27.58200
C  45.77600 30.96700 28.84800
C  46.42800 32.24200 28.92800
C  45.86400 29.14000 26.97700
C  44.96500 30.75300 30.05500
O  44.26700 29.82500 30.44000
C  45.11600 32.08900 30.92400
C  45.46200 31.53700 32.30800
O  46.45800 30.90500 32.67900
O  44.37900 31.79700 33.10300
C  44.57200 31.45000 34.53400
H  48.25100 38.21900 30.00800
H  49.70200 36.43500 23.94200
H  47.36100 30.56000 25.11000
H  45.99000 34.54100 32.28200
H  47.84700 36.73500 32.10400
H  44.86200 36.38500 31.88200
H  45.51400 37.55600 30.74200
H  45.80600 37.77600 32.46900
H  49.03900 34.49000 31.85300
H  48.20400 33.19900 32.38200
H  49.40300 35.34400 33.89400
H  48.63600 33.79900 34.46600
H  49.36200 40.61800 27.59400
H  50.63300 39.77300 28.64700
H  48.91800 39.88300 29.09700
H  51.55700 40.53600 26.55100
H  50.15500 41.13600 25.50700
H  51.65600 41.00500 24.94300
H  49.95700 34.10600 22.72600
H  48.00900 31.96900 22.92700
H  47.25100 35.16800 22.56500
H  47.30500 33.66600 21.61300
H  48.46800 35.02100 21.41200
H  50.66300 31.79200 22.68400
H  49.74600 30.45300 23.47900
H  51.27200 32.74000 24.75200
H  51.73700 31.12000 24.46100
H  50.57400 31.33500 25.70100
H  44.77400 29.14100 26.95800
H  46.23900 28.35700 27.63700
H  46.34700 28.91400 26.02700
H  44.17000 32.62900 30.96300
H  45.00800 32.20900 35.18400
H  44.98500 30.45400 34.69100
H  43.60600 31.27900 35.00900
Mg 26.91500 50.28100 26.55500
C  24.68300 51.38200 29.13100
C  29.13300 49.72000 28.89500
C  29.10000 49.69900 24.10300
C  24.60700 51.43600 24.15200
N  26.85000 50.49800 28.80300
C  25.83100 50.80200 29.66200
C  26.14300 50.49900 31.09700
C  27.71100 50.28600 31.02000
C  27.94900 50.12400 29.45600
C  28.67700 51.24700 31.74900
C  25.31300 49.29400 31.63000
C  24.31200 49.64800 32.85300
H  24.24000 48.69700 34.01900
N  28.83200 49.63100 26.52400
C  29.59300 49.36300 27.59500
C  30.92900 49.04800 27.16300
C  30.89600 48.93800 25.76200
C  29.57700 49.43500 25.36000
C  32.05300 48.94000 28.18200
C  32.07800 48.53200 24.88500
O  32.05800 48.89000 23.69400
C  33.31800 47.89000 25.48300
N  26.82100 50.62200 24.42400
C  27.91000 50.23900 23.66600
C  27.44500 50.10700 22.14300
C  25.91000 50.58500 22.09200
C  25.67900 50.74400 23.64000
C  28.41200 50.85300 21.18900
C  24.98700 49.55400 21.39800
C  23.95300 50.12300 20.41100
N  25.03800 51.18100 26.56100
C  24.27200 51.69500 25.48900
C  23.06700 52.31200 26.00000
C  23.11700 52.18200 27.45400
C  24.38200 51.52700 27.71000
C  21.97400 52.95700 25.15600
C  22.55300 52.45600 28.74900
O  21.55500 53.06100 29.04600
C  23.50000 51.83200 29.87200
C  23.89000 52.94500 30.77900
O  24.50700 53.96000 30.52100
O  23.32900 52.67700 32.03300
C  23.83100 53.50900 33.16500
H  29.85400 49.45400 29.67000
H  29.67900 49.37600 23.23500
H  23.81300 51.72200 23.46000
H  25.93200 51.40400 31.66700
H  27.79100 49.31200 31.50300
H  29.31900 51.72100 31.00700
H  29.35300 50.63300 32.34400
H  28.11000 51.95700 32.35100
H  25.97000 48.46400 31.88900
H  24.70500 48.94900 30.79400
H  23.29400 49.62400 32.46500
H  24.39100 50.70000 33.12800
H  32.97800 49.45800 27.92800
H  32.30600 47.88800 28.31600
H  31.79200 49.43500 29.11700
H  33.02400 47.10500 26.17800
H  33.84100 48.60900 26.11300
H  34.00400 47.46700 24.74800
H  27.48100 49.04200 21.91300
H  25.80700 51.59900 21.70500
H  28.91300 50.27900 20.41000
H  29.12600 51.39700 21.80700
H  27.86300 51.62400 20.64700
H  24.32600 49.20500 22.19100
H  25.52400 48.71200 20.96100
H  22.92400 49.80000 20.57000
H  24.09100 49.58000 19.47600
H  23.94800 51.21300 20.37700
H  21.38400 52.25300 24.56900
H  22.41100 53.76100 24.56300
H  21.30800 53.49600 25.82900
H  23.02200 51.08900 30.51100
H  24.27900 54.43600 32.80900
H  24.64700 52.94200 33.61200
H  23.01500 53.68400 33.86600

