158

Mg 2.22900 -1.68200 44.48800
C  5.75600 -1.12600 44.28700
C  1.81700 0.93700 42.35700
C  -0.98000 -2.57100 44.20100
C  2.91500 -4.75500 46.04000
N  3.69400 -0.28700 43.47200
C  5.05600 -0.25200 43.50800
C  5.57600 0.74500 42.37100
C  4.23800 1.53800 41.92700
C  3.14700 0.64700 42.62200
C  4.16500 3.04700 42.43100
C  6.16800 -0.09500 41.16800
C  7.58600 0.25700 40.76400
H  7.91400 0.69200 39.36300
N  0.66700 -0.82200 43.62700
C  0.64500 0.16700 42.70300
C  -0.71900 0.47100 42.27800
C  -1.59100 -0.39100 42.92000
C  -0.65100 -1.30900 43.66600
C  -1.10300 1.64800 41.27900
C  -3.05000 -0.41200 42.84000
O  -3.58200 0.44500 42.15200
C  -3.96900 -1.36300 43.59800
N  1.16700 -3.48400 44.90500
C  -0.18200 -3.61800 44.76800
C  -0.75000 -5.03600 45.19800
C  0.49200 -5.61100 45.90700
C  1.57100 -4.57400 45.60900
C  -1.98600 -4.86800 46.15300
C  0.93600 -7.04300 45.41100
C  1.50700 -7.10500 44.05000
N  3.95200 -2.65300 45.17800
C  4.02400 -3.91600 45.78700
C  5.39300 -4.16300 46.10300
C  6.11000 -3.10000 45.53800
C  5.17300 -2.22400 45.00400
C  5.94300 -5.33000 46.82200
C  7.49200 -2.56100 45.42600
O  8.49100 -3.03500 45.92400
C  7.23900 -1.29500 44.46400
C  7.85500 -0.09900 45.17200
O  7.38100 0.50600 46.13200
O  9.03000 0.32800 44.49700
C  9.49000 1.69400 44.95400
H  1.62200 1.85300 41.79700
H  -1.99300 -2.97700 44.16500
H  3.04600 -5.64400 46.66100
H  6.31400 1.34500 42.90300
H  4.08500 1.44300 40.85200
H  3.26700 3.06100 43.04800
H  3.97800 3.70700 41.58400
H  5.02700 3.31300 43.04100
H  5.58300 0.08000 40.26500
H  6.03600 -1.14000 41.44900
H  8.16100 -0.66000 40.89500
H  7.95400 0.99600 41.47600
H  -1.78800 2.33200 41.77900
H  -1.69700 1.23900 40.46200
H  -0.20000 2.10900 40.87700
H  -3.70200 -1.25500 44.64900
H  -3.72000 -2.38400 43.30900
H  -5.00100 -1.25500 43.26500
H  -1.05100 -5.57200 44.29800
H  0.32900 -5.55000 46.98300
H  -1.85200 -5.35100 47.12100
H  -2.91800 -5.20800 45.70200
H  -2.01900 -3.79300 46.33100
H  0.03600 -7.65300 45.49600
H  1.75300 -7.29900 46.08600
H  2.59000 -7.18900 44.14900
H  1.38300 -6.21600 43.43200
H  1.09500 -7.91900 43.45400
H  6.45300 -6.06200 46.19600
H  5.13300 -5.80800 47.37200
H  6.56200 -5.03100 47.66800
H  7.76600 -1.45700 43.52300
H  10.26200 2.19000 44.36600
H  9.78800 1.64600 46.00200
H  8.66100 2.40100 45.00700
Mg 25.87600 2.02000 28.81100
C  27.57100 1.79900 31.93500
C  22.94200 2.37200 30.66100
C  24.22500 1.88200 26.00700
C  28.85700 1.02900 27.13700
N  25.30500 2.02600 31.13300
C  26.21800 2.08700 32.12700
C  25.49800 2.37300 33.48900
C  23.97400 2.50300 33.05400
C  24.01700 2.34300 31.55100
C  22.97200 1.57300 33.74900
C  26.04500 3.60600 34.16600
C  25.36000 4.01500 35.51700
H  26.32600 4.12300 36.67700
N  23.82100 2.16400 28.43100
C  22.76300 2.30300 29.28000
C  21.53000 2.43900 28.51900
C  21.95700 2.22600 27.14200
C  23.37500 2.15500 27.15000
C  20.15500 2.62900 29.19500
C  21.03500 2.21700 25.87500
O  21.40300 2.01000 24.72900
C  19.63400 2.43800 26.09500
N  26.49600 1.38800 26.89900
C  25.59100 1.56400 25.90200
C  26.16500 1.29600 24.52000
C  27.68800 1.30500 24.80800
C  27.72800 1.28900 26.37000
C  25.59600 -0.03100 24.01700
C  28.37300 2.58500 24.17700
C  29.74100 2.46400 23.47000
N  27.91300 1.56900 29.36200
C  28.94300 1.10200 28.59000
C  30.14800 0.94900 29.48500
C  29.70700 1.19400 30.79200
C  28.35100 1.57400 30.64300
C  31.50600 0.65600 29.08200
C  30.04000 1.13800 32.19800
O  31.14000 0.82400 32.69200
C  28.81100 1.63100 32.92000
C  28.44500 0.78500 34.10000
O  27.76800 -0.17400 34.03000
O  28.87700 1.31000 35.32400
C  28.41300 0.67800 36.52800
H  22.10300 2.70800 31.27300
H  23.68400 1.90200 25.05800
H  29.84900 0.92300 26.69300
H  25.60200 1.46800 34.08700
H  23.69700 3.54100 33.24000
H  22.12400 2.09800 34.18800
H  23.47300 1.01700 34.54100
H  22.55600 0.82500 33.07500
H  25.99500 4.37900 33.39900
H  27.10300 3.41500 34.34600
H  24.64000 3.25900 35.83000
H  24.83800 4.96700 35.42500
H  20.25000 2.68100 30.27900
H  19.52600 1.74200 29.11500
H  19.61100 3.47900 28.78100
H  19.10300 1.54400 26.42400
H  19.14000 2.90900 25.24500
H  19.65400 3.29300 26.77100
H  25.74900 1.99800 23.79600
H  28.14200 0.39300 24.42100
H  25.05300 0.15400 23.09100
H  24.95200 -0.34800 24.83800
H  26.44200 -0.71500 23.94900
H  28.56600 3.32600 24.95300
H  27.69400 3.13500 23.52500
H  30.20400 1.47800 23.52100
H  30.46000 3.15100 23.91500
H  29.70900 2.78800 22.42900
H  32.18200 1.28100 29.66700
H  31.59700 0.76200 28.00100
H  31.71600 -0.38600 29.32200
H  29.11800 2.59700 33.32200
H  27.98200 1.49700 37.10300
H  29.33700 0.27500 36.94400
H  27.76600 -0.19700 36.46200

