158

Mg 44.44600 4.01400 48.03100
C  42.27800 6.73800 47.45900
C  41.88000 1.84600 47.92200
C  46.84100 1.43400 48.02200
C  47.13400 6.20900 47.73000
N  42.34500 4.27000 47.63600
C  41.66700 5.48100 47.45500
C  40.18000 5.17300 47.35200
C  40.00200 3.62000 47.76000
C  41.52300 3.21300 47.80700
C  39.10900 3.38600 48.99500
C  39.41400 5.58400 46.05300
C  38.42000 6.79100 46.13500
H  37.64900 6.99200 44.80700
N  44.37700 1.93600 47.88600
C  43.16300 1.24900 47.93200
C  43.46300 -0.16800 47.93900
C  44.88400 -0.28900 48.05700
C  45.44800 1.06500 48.01000
C  42.42500 -1.24600 47.79100
C  45.60100 -1.69800 48.24600
O  44.99400 -2.74700 48.29500
C  47.05100 -1.81900 48.32100
N  46.63900 3.80300 47.82100
C  47.37400 2.70000 48.00100
C  48.93600 2.90300 48.01700
C  49.01600 4.50600 47.99500
C  47.51800 4.87100 47.79400
C  49.61500 2.27600 49.28800
C  49.86300 5.07900 46.83500
C  50.73100 6.27600 47.23800
N  44.65800 6.02200 47.65300
C  45.82800 6.74100 47.61000
C  45.47600 8.13500 47.38200
C  44.10200 8.20700 47.36300
C  43.67500 6.91300 47.52200
C  46.43400 9.34900 47.25000
C  42.91400 9.06400 47.33600
O  42.77700 10.29300 47.15000
C  41.74100 8.11800 47.42100
C  40.96800 8.48500 48.63000
O  41.00100 7.85600 49.65100
O  40.32700 9.65400 48.41200
C  39.44500 10.22100 49.46800
H  40.95000 1.27500 47.96100
H  47.62000 0.67500 48.11900
H  47.99700 6.87600 47.67800
H  39.69400 5.67500 48.18900
H  39.46900 3.06100 46.99200
H  38.55500 4.25500 49.35100
H  39.71700 3.03400 49.82800
H  38.41300 2.62000 48.65400
H  38.97700 4.73500 45.52700
H  40.26300 6.04000 45.54300
H  39.00700 7.70700 46.06600
H  37.73600 6.78700 46.98300
H  41.51500 -0.92300 47.28500
H  42.20100 -1.68800 48.76100
H  42.80000 -2.01200 47.11300
H  47.14400 -2.90300 48.25500
H  47.46300 -1.63400 49.31300
H  47.68300 -1.50200 47.49100
H  49.34000 2.34600 47.17200
H  49.20900 4.95300 48.97000
H  50.14700 2.98100 49.92800
H  50.35100 1.60400 48.84700
H  48.83100 1.72300 49.80500
H  49.19900 5.28500 45.99600
H  50.53700 4.30500 46.46600
H  51.66400 6.18700 46.68200
H  51.06400 6.27100 48.27600
H  50.30700 7.25600 47.01600
H  46.61000 9.91500 48.16400
H  46.07900 10.09000 46.53400
H  47.40900 9.06600 46.85500
H  41.19200 8.28200 46.49400
H  38.39300 9.94200 49.40900
H  39.43500 11.31100 49.44400
H  39.71800 9.99600 50.49900
Mg 47.70600 16.29000 29.12500
C  45.75900 15.72500 31.96900
C  49.83700 18.06700 31.26900
C  49.41900 17.50900 26.39300
C  45.31000 14.96300 27.11600
N  47.68500 16.93500 31.33400
C  46.92500 16.45000 32.30600
C  47.29200 16.88100 33.79200
C  48.38800 17.90900 33.44000
C  48.69500 17.59000 31.90700
C  47.77200 19.38100 33.52100
C  47.87100 15.70300 34.64500
C  47.98500 15.84900 36.20600
H  47.65000 17.21600 36.98800
N  49.37900 17.50600 28.90000
C  50.14900 18.10100 29.90400
C  51.36000 18.69600 29.33500
C  51.24600 18.53900 27.88600
C  49.95000 17.85200 27.67600
C  52.50800 19.37600 30.20200
C  52.30000 19.08300 26.87000
O  52.06500 19.11400 25.68000
C  53.48900 19.79100 27.32100
N  47.42000 16.25000 27.07700
C  48.21200 16.83500 26.11700
C  47.73300 16.67300 24.64700
C  46.55100 15.69100 24.89000
C  46.43200 15.53200 26.46400
C  47.38800 18.07200 23.97500
C  46.54300 14.31700 24.12500
C  45.58000 14.00800 22.92500
N  45.87500 15.52700 29.37700
C  44.96400 14.92800 28.55800
C  43.82900 14.35200 29.28600
C  44.16100 14.60400 30.60500
C  45.35800 15.32200 30.62600
C  42.61100 13.67000 28.68900
C  43.60300 14.52100 31.94800
O  42.61100 13.99900 32.43700
C  44.63800 15.21800 32.92400
C  43.93500 16.36400 33.48200
O  43.37700 17.19500 32.82200
O  43.98300 16.32700 34.88900
C  43.49000 17.57800 35.48100
H  50.58800 18.55300 31.89500
H  49.92800 17.85600 25.49200
H  44.60900 14.52000 26.40600
H  46.48300 17.27200 34.41000
H  49.20100 17.85000 34.16400
H  48.63200 20.05100 33.50900
H  47.34500 19.54200 34.51000
H  47.07400 19.58700 32.70900
H  48.85800 15.59400 34.19400
H  47.26300 14.85200 34.33800
H  49.05500 15.69900 36.35100
H  47.42700 15.18400 36.86500
H  52.51000 18.98700 31.22000
H  52.51900 20.46100 30.09600
H  53.47500 19.02300 29.84400
H  53.23900 20.68000 27.90000
H  54.07200 20.26400 26.53200
H  54.13700 19.05800 27.80100
H  48.40600 16.04400 24.06400
H  45.66000 16.26700 24.64100
H  47.97400 18.81300 24.51800
H  46.34800 18.37600 24.09100
H  47.70100 18.22500 22.94200
H  46.39200 13.55000 24.88500
H  47.48100 14.30900 23.57000
H  46.13300 13.71200 22.03300
H  44.88400 14.83600 22.79000
H  44.98100 13.16100 23.25800
H  42.26200 13.11200 29.55800
H  42.97500 12.96400 27.94300
H  41.88800 14.37800 28.28300
H  44.79900 14.49900 33.72800
H  42.40200 17.52900 35.52200
H  43.81300 18.48300 34.96800
H  43.79900 17.65100 36.52400

