158

Mg 24.09100 -5.79100 45.10800
C  26.38500 -3.52000 43.74300
C  21.78900 -4.38000 43.05600
C  22.26200 -8.53100 45.45700
C  26.79800 -7.34700 46.70900
N  24.09700 -4.06200 43.65900
C  25.13800 -3.32700 43.20800
C  24.75200 -2.50100 41.99800
C  23.20100 -2.51500 42.14800
C  23.02900 -3.77700 42.95900
C  22.44300 -1.22700 42.63000
C  25.32800 -2.94300 40.64100
C  26.10000 -1.92800 39.77600
H  25.78900 -1.89500 38.22600
N  22.17600 -6.31800 44.60500
C  21.35600 -5.56700 43.72800
C  20.09400 -6.31400 43.52500
C  20.21100 -7.52800 44.25400
C  21.52500 -7.47000 44.85900
C  19.02900 -5.87300 42.53200
C  19.07400 -8.55200 44.38300
O  18.09100 -8.40800 43.65800
C  19.10300 -9.71900 45.28300
N  24.49600 -7.59800 45.91000
C  23.58500 -8.60800 45.97200
C  24.11400 -9.86100 46.60100
C  25.46800 -9.41200 46.99800
C  25.65100 -8.05500 46.54500
C  23.26700 -10.56300 47.78700
C  26.66200 -10.36900 46.68400
C  27.43800 -10.87900 47.91500
N  26.15100 -5.45300 45.31800
C  27.09400 -6.14100 46.05900
C  28.29100 -5.40900 45.98600
C  28.04100 -4.41700 45.10200
C  26.76000 -4.50000 44.61700
C  29.60900 -5.75000 46.56800
C  28.72100 -3.28500 44.54300
O  29.82800 -2.84800 44.64300
C  27.63100 -2.70800 43.48000
C  27.40100 -1.26300 43.73600
O  26.63500 -0.76500 44.64100
O  28.16900 -0.52300 42.85600
C  28.11800 0.93800 42.91000
H  21.04800 -3.99500 42.35200
H  21.75600 -9.49400 45.55200
H  27.53600 -7.97300 47.21600
H  25.17600 -1.50700 42.14300
H  22.75600 -2.61700 41.15800
H  21.61800 -0.96700 41.96700
H  23.18600 -0.43300 42.71200
H  21.95300 -1.44600 43.57800
H  24.46900 -3.32000 40.08600
H  25.85400 -3.88700 40.78500
H  27.15700 -2.11400 39.96300
H  25.92200 -0.92500 40.16600
H  18.04600 -5.90400 43.00300
H  18.98200 -6.52900 41.66300
H  19.17800 -4.87000 42.13200
H  18.10500 -10.09600 45.50400
H  19.72500 -9.48000 46.14500
H  19.56400 -10.57400 44.78800
H  24.09900 -10.67100 45.87100
H  25.30100 -9.27800 48.06600
H  23.09400 -11.62100 47.58900
H  22.27200 -10.13000 47.89300
H  23.76700 -10.37400 48.73600
H  27.42400 -9.89600 46.06600
H  26.30500 -11.28400 46.21000
H  27.35000 -10.17900 48.74700
H  28.48600 -10.75700 47.64400
H  27.16800 -11.87800 48.25800
H  29.37400 -6.40600 47.40600
H  30.23600 -4.89100 46.80800
H  30.19700 -6.34500 45.86900
H  27.98300 -2.81800 42.45400
H  27.15000 1.27400 42.54000
H  28.85800 1.39200 42.25100
H  28.29800 1.16600 43.96100
Mg 54.51500 23.55900 45.15800
C  52.01500 25.94200 44.53400
C  52.41100 21.14200 43.87000
C  57.20500 21.63100 44.62300
C  56.67200 26.14800 46.21800
N  52.51700 23.61300 44.38600
C  51.66400 24.65100 44.14300
C  50.40900 24.16400 43.45000
C  50.39200 22.60700 43.91600
C  51.87500 22.40000 44.11300
C  49.45200 22.21800 45.15800
C  50.49000 24.45100 41.81900
C  49.41000 23.69900 40.94600
H  48.85700 24.41100 39.73600
N  54.72600 21.67800 44.39000
C  53.79400 20.81600 43.91400
C  54.36300 19.49900 43.60200
C  55.75500 19.62000 43.80600
C  55.96000 21.06000 44.19600
C  53.58200 18.19500 43.25300
C  56.80100 18.47800 43.75800
O  56.46500 17.33900 43.43900
C  58.25800 18.65200 44.14000
N  56.58500 23.83000 45.39200
C  57.41800 22.79100 45.29600
C  58.82300 23.21000 45.81900
C  58.62000 24.54400 46.44000
C  57.15800 24.90400 46.02500
C  59.41900 22.04800 46.84700
C  59.63500 25.61000 46.15400
C  59.82800 26.54300 47.37800
N  54.35500 25.65200 45.45900
C  55.34800 26.60600 45.87700
C  54.77300 27.88500 45.78600
C  53.48500 27.67300 45.22600
C  53.25700 26.33000 45.13500
C  55.44400 29.20700 46.11800
C  52.22000 28.36600 44.86800
O  51.87100 29.51700 44.94700
C  51.25900 27.28200 44.40400
C  50.77900 27.61000 43.03500
O  51.51000 27.93700 42.09600
O  49.40300 27.50400 42.98500
C  48.68800 27.88100 41.75900
H  51.68500 20.36800 43.61200
H  58.12700 21.06800 44.46100
H  57.33500 26.92900 46.59700
H  49.58400 24.70600 43.91300
H  50.03000 22.02500 43.06800
H  48.80800 21.36100 44.96100
H  48.93800 23.05600 45.62800
H  50.07100 22.03200 46.03600
H  51.48000 24.06800 41.56800
H  50.34200 25.51800 41.65200
H  48.53600 23.35000 41.49600
H  49.89200 22.77000 40.64400
H  53.78900 17.94300 42.21300
H  52.53800 18.48400 43.13700
H  53.57200 17.47100 44.06900
H  58.71600 19.33800 43.42800
H  58.68400 17.64900 44.13300
H  58.26200 19.08400 45.14100
H  59.47000 23.35500 44.95300
H  58.39700 24.33700 47.48700
H  59.77300 22.39500 47.81700
H  60.24800 21.53400 46.36200
H  58.62400 21.30900 46.95100
H  59.27500 26.14800 45.27800
H  60.63400 25.21800 45.96400
H  60.88900 26.73500 47.53500
H  59.17400 26.34300 48.22700
H  59.35600 27.47800 47.07300
H  56.03200 29.05900 47.02400
H  54.81200 30.06500 46.34300
H  56.01300 29.37200 45.20400
H  50.43300 27.28600 45.11600
H  47.80500 28.33300 42.21300
H  48.40100 26.96600 41.24100
H  49.24000 28.64800 41.21600

