158

Mg 9.10100 3.40100 27.59600
C  10.33400 1.58400 30.31900
C  7.37000 5.32400 29.84200
C  7.52900 4.84600 24.91300
C  10.18200 0.80800 25.40900
N  8.88300 3.41100 29.79800
C  9.58300 2.68000 30.73200
C  9.58500 3.28400 32.17900
C  8.42600 4.45900 31.95200
C  8.15500 4.36400 30.47600
C  7.15800 4.26800 32.83600
C  10.94900 3.69800 32.79100
C  10.76800 4.67400 33.94600
H  11.55800 4.36100 35.23100
N  7.60400 4.86400 27.41900
C  7.08900 5.58900 28.42600
C  6.29200 6.65300 27.91200
C  6.18300 6.48100 26.50100
C  7.15700 5.35000 26.22800
C  5.56800 7.65800 28.91900
C  5.46300 7.28000 25.46700
O  5.63500 7.12000 24.24800
C  4.53500 8.43000 25.96300
N  9.00200 2.96600 25.45400
C  8.32900 3.73900 24.57000
C  8.28100 3.08500 23.12500
C  9.21900 1.84000 23.31900
C  9.42400 1.81200 24.83100
C  6.90600 2.70200 22.44400
C  10.61600 2.04300 22.66300
C  11.16900 0.78200 22.06200
N  9.99700 1.56000 27.78100
C  10.44900 0.68900 26.79100
C  11.17900 -0.32600 27.51100
C  11.21700 -0.00300 28.86000
C  10.48400 1.18700 28.97000
C  11.88200 -1.55800 26.87100
C  11.68800 -0.38900 30.15000
O  12.30400 -1.40300 30.48600
C  11.14200 0.62200 31.22800
C  10.25900 0.06000 32.24100
O  9.09400 -0.32600 32.03000
O  10.84600 0.17200 33.46700
C  9.94800 -0.16500 34.60400
H  6.79600 5.83900 30.61600
H  6.99200 5.21500 24.03700
H  10.67300 0.08500 24.75500
H  9.18300 2.51000 32.83100
H  8.83500 5.46900 31.91900
H  6.26900 4.10200 32.22700
H  6.92000 5.01600 33.59200
H  7.27400 3.31500 33.35300
H  11.69500 4.14900 32.13800
H  11.45100 2.79200 33.13200
H  9.69600 4.65000 34.14000
H  11.07000 5.66400 33.60300
H  5.40100 7.31600 29.94100
H  4.56600 7.86900 28.54400
H  6.19900 8.54300 28.99700
H  5.19300 9.00600 26.61400
H  3.70100 8.17800 26.61800
H  4.16000 9.02500 25.13100
H  8.77800 3.79100 22.46000
H  8.78600 0.86700 23.08500
H  6.17700 2.99300 23.20100
H  6.79100 1.62500 22.32500
H  6.71400 3.14900 21.46900
H  11.39200 2.27000 23.39400
H  10.58700 2.81600 21.89400
H  10.32800 0.25000 21.61900
H  11.71200 0.29500 22.87200
H  11.90500 0.96500 21.27900
H  11.28800 -1.79400 25.98800
H  11.78500 -2.36600 27.59600
H  12.91100 -1.28100 26.64400
H  11.90500 1.15900 31.79100
H  9.66800 0.81300 34.99600
H  10.44400 -0.77400 35.35900
H  9.01700 -0.68800 34.38700
Mg -0.02900 43.74500 26.19000
C  2.52300 43.20700 28.72900
C  -2.34900 42.52600 28.44300
C  -2.27800 43.75800 23.65300
C  2.52800 44.19500 23.93600
N  0.06400 43.14000 28.39900
C  1.17500 43.19400 29.21100
C  0.70200 43.00000 30.70200
C  -0.78100 42.55500 30.51600
C  -1.07800 42.89900 29.05400
C  -0.96000 41.05300 30.94300
C  1.02100 44.30500 31.54200
C  1.76400 43.98300 32.88700
H  1.41100 42.63600 33.55500
N  -1.99200 43.34200 26.14500
C  -2.78900 42.78700 27.14200
C  -4.10400 42.56000 26.58500
C  -4.11500 42.91000 25.22600
C  -2.74600 43.37200 24.96200
C  -5.21100 41.87800 27.38500
C  -5.24800 42.94500 24.20800
O  -5.22900 43.17900 23.00000
C  -6.64400 42.79900 24.78600
N  0.08000 44.17900 24.09900
C  -0.97800 44.15800 23.28200
C  -0.54000 44.48900 21.79200
C  0.94000 44.68600 21.96100
C  1.27200 44.35400 23.41800
C  -0.88800 43.28400 20.83500
C  1.48600 46.06500 21.64500
C  0.82000 47.21800 22.33000
N  2.06800 43.81000 26.28600
C  2.94800 44.00200 25.26900
C  4.30600 43.83100 25.72100
C  4.16600 43.64100 27.08800
C  2.83100 43.48400 27.35300
C  5.68000 44.09900 25.07300
C  4.90300 43.33800 28.30600
O  6.10300 43.34700 28.50500
C  3.86700 43.17600 29.43800
C  4.17400 41.94800 30.24700
O  3.84500 40.77400 29.91200
O  5.01500 42.19000 31.31800
C  5.25800 41.00300 32.18900
H  -3.10000 42.27900 29.19600
H  -3.01000 43.60300 22.85700
H  3.43500 44.44700 23.38300
H  1.36800 42.27900 31.17700
H  -1.40000 43.17200 31.16800
H  -0.09700 40.59500 31.42600
H  -1.35400 40.34600 30.21200
H  -1.76200 41.04200 31.68000
H  0.06700 44.82600 31.61400
H  1.61800 45.00900 30.96200
H  1.60900 44.81200 33.57800
H  2.78000 43.95600 32.49400
H  -5.91900 42.65700 27.67000
H  -4.78300 41.36200 28.24400
H  -5.62400 41.12100 26.71800
H  -7.44800 43.14000 24.13300
H  -6.56500 43.38300 25.70300
H  -6.88000 41.76000 25.01400
H  -1.10300 45.33700 21.40100
H  1.49700 44.05700 21.26700
H  -1.82200 43.45400 20.29900
H  -0.95100 42.34800 21.38800
H  -0.07300 43.36000 20.11500
H  1.49500 46.11000 20.55600
H  2.48900 46.13800 22.06600
H  1.51000 47.68400 23.03300
H  -0.13500 46.85800 22.71400
H  0.55800 48.03100 21.65300
H  5.85900 43.20400 24.47800
H  6.38400 44.14600 25.90400
H  5.56500 45.08200 24.61700
H  3.90700 44.04000 30.10100
H  6.29700 40.72800 32.00800
H  4.61000 40.13200 32.09900
H  5.18000 41.28400 33.23900

