158

Mg 1.24500 8.39100 25.66900
C  2.17700 10.33300 28.51400
C  1.46400 5.60200 27.69100
C  0.59700 6.60300 23.00100
C  1.88100 11.14800 23.74300
N  1.73500 7.93600 27.81800
C  1.90600 8.96700 28.75300
C  2.06000 8.39600 30.11800
C  2.16800 6.88500 29.80600
C  1.78500 6.79200 28.39100
C  3.55100 6.25800 30.07200
C  0.90800 8.89100 31.15400
C  1.39400 9.13300 32.61700
H  2.64200 8.32700 33.03400
N  1.09100 6.32200 25.35400
C  1.07200 5.33600 26.35400
C  0.78500 4.09400 25.72900
C  0.48200 4.32800 24.39100
C  0.73200 5.79600 24.16100
C  0.95100 2.72200 26.38700
C  0.18100 3.33100 23.30400
O  0.07800 3.59800 22.13800
C  -0.00200 1.91100 23.62200
N  1.55100 8.78900 23.59400
C  0.94400 7.92100 22.75700
C  0.91200 8.52300 21.38500
C  0.91000 10.01800 21.66500
C  1.47500 9.99500 23.04800
C  2.10800 8.07000 20.41000
C  -0.44900 10.79200 21.63900
C  -0.52900 11.88600 20.53700
N  1.84100 10.34900 26.02300
C  2.04400 11.34400 25.14200
C  2.39800 12.59000 25.81200
C  2.49300 12.18700 27.16500
C  2.16800 10.82800 27.24500
C  2.65200 13.88900 25.15300
C  2.79300 12.65400 28.50300
O  3.17900 13.75400 28.82700
C  2.49600 11.48800 29.46400
C  3.73900 11.29500 30.17200
O  4.84200 10.90700 29.73600
O  3.64500 11.80200 31.44800
C  4.78400 11.39100 32.46100
H  1.33800 4.70900 28.30800
H  0.31500 6.02100 22.12200
H  1.95900 12.05700 23.14300
H  3.03500 8.76000 30.44100
H  1.41000 6.38200 30.40600
H  4.18300 7.03900 30.49500
H  3.88600 5.77700 29.15300
H  3.49100 5.44400 30.79400
H  0.05600 8.22200 31.03500
H  0.50600 9.78000 30.66800
H  0.54900 9.13200 33.30500
H  1.72400 10.17100 32.57800
H  0.03700 2.12800 26.40800
H  1.34300 2.94200 27.38000
H  1.76000 2.22200 25.85400
H  0.97900 1.46000 23.77200
H  -0.44100 1.45300 22.73500
H  -0.81300 1.75900 24.33400
H  -0.07800 8.24300 21.02300
H  1.55700 10.53900 20.95900
H  2.96700 7.74700 20.99800
H  2.49300 8.78200 19.68000
H  1.83800 7.16600 19.86500
H  -0.60700 11.21500 22.63100
H  -1.28200 10.11500 21.44800
H  -1.54400 11.88500 20.13700
H  0.04900 11.64100 19.64600
H  -0.12700 12.74500 21.07200
H  3.49100 13.69400 24.48500
H  3.04500 14.67200 25.80100
H  1.81600 14.15700 24.50800
H  1.71000 11.72300 30.18200
H  5.44900 10.64200 32.03300
H  4.23600 11.00000 33.31900
H  5.42600 12.21100 32.78200
Mg 25.53600 51.02300 26.39100
C  23.28200 52.09700 28.91600
C  27.57200 49.68200 28.81600
C  27.93200 50.76200 24.04700
C  23.61500 52.76500 24.15800
N  25.45600 51.13000 28.65400
C  24.40400 51.41800 29.48700
C  24.72300 51.03400 30.95000
C  26.12900 50.36900 30.82700
C  26.36300 50.36500 29.30300
C  27.21800 50.94300 31.80200
C  23.63900 50.13100 31.57600
C  23.76500 49.69400 33.08500
H  24.36800 50.66300 34.14400
N  27.36900 50.07500 26.38600
C  28.04500 49.58800 27.43900
C  29.31500 48.90500 26.93300
C  29.44800 49.34900 25.58900
C  28.25700 50.15800 25.30000
C  30.17500 48.06900 27.85800
C  30.60700 49.01300 24.59700
O  30.57600 49.35100 23.40500
C  31.72000 48.13800 24.99200
N  25.91500 51.96900 24.43500
C  26.85600 51.59600 23.56800
C  26.63000 52.17400 22.15600
C  25.12900 52.45400 22.22500
C  24.85300 52.37500 23.73000
C  27.52000 53.42000 21.93300
C  24.14200 51.50700 21.45700
C  24.10500 51.76100 19.86100
N  23.88700 52.23400 26.41100
C  23.10200 52.73300 25.42800
C  21.81800 53.10800 25.80500
C  21.89200 53.01000 27.19000
C  23.11000 52.36500 27.53500
C  20.70100 53.68000 24.98900
C  21.17300 53.26100 28.45000
O  20.03800 53.64000 28.62900
C  22.12900 52.74700 29.58400
C  22.59000 53.82500 30.46000
O  23.18200 54.87300 30.21900
O  22.21300 53.48700 31.74400
C  22.43400 54.41200 32.89000
H  28.17800 49.14500 29.54900
H  28.65200 50.40800 23.30700
H  22.95900 53.21800 23.41100
H  24.68100 51.98400 31.48200
H  25.96300 49.38200 31.25900
H  27.86200 51.60600 31.22400
H  27.89200 50.11000 32.00300
H  26.79500 51.57800 32.58100
H  23.89200 49.21100 31.04900
H  22.58000 50.28500 31.36500
H  24.33300 48.76300 33.08900
H  22.71800 49.58100 33.36700
H  29.90800 48.10900 28.91400
H  31.18700 48.47400 27.81900
H  30.21100 47.07100 27.42100
H  31.13100 47.22300 25.05700
H  32.16000 48.32700 25.97100
H  32.47900 48.09600 24.21100
H  26.87200 51.39400 21.43500
H  24.97200 53.45300 21.81900
H  27.78200 53.67000 22.96100
H  26.92900 54.27700 21.60900
H  28.43500 53.19300 21.38500
H  23.10400 51.45300 21.78400
H  24.64700 50.54900 21.58200
H  23.53700 50.98900 19.34200
H  25.08900 51.83300 19.39700
H  23.61400 52.72800 19.75300
H  20.84700 53.69700 23.90900
H  20.71800 54.70500 25.35800
H  19.73200 53.24500 25.23100
H  21.62900 51.96800 30.16000
H  23.37600 54.07800 33.32600
H  21.59200 54.31000 33.57400
H  22.40300 55.45200 32.56600

