158

Mg -1.21900 18.32700 28.03700
C  -1.87000 16.02800 30.48700
C  -1.87200 20.82200 30.21700
C  -0.75300 20.41500 25.42400
C  -1.16300 15.51600 25.66600
N  -1.73100 18.34800 30.21200
C  -1.69500 17.38000 31.02200
C  -1.88900 17.88000 32.54800
C  -2.25500 19.39600 32.36100
C  -2.02700 19.56500 30.84100
C  -3.60100 19.83300 32.95300
C  -0.63800 17.56900 33.43800
C  -0.92200 16.90600 34.86100
H  0.21200 16.79300 35.84800
N  -1.28300 20.30800 27.87300
C  -1.47900 21.17000 28.90600
C  -1.39400 22.50800 28.34800
C  -1.02200 22.41400 26.99300
C  -0.99800 21.01800 26.70600
C  -1.67600 23.78100 29.22300
C  -0.82400 23.54100 26.05600
O  -0.82600 23.33200 24.83700
C  -0.73700 24.89700 26.52500
N  -0.90600 18.01000 25.87100
C  -0.78100 19.06400 25.05400
C  -0.56800 18.69600 23.61200
C  -0.38400 17.13200 23.73600
C  -0.82500 16.80600 25.11200
C  -1.64300 19.11900 22.57100
C  1.06100 16.61800 23.50900
C  2.17100 16.97900 24.45200
N  -1.42000 16.19400 28.00200
C  -1.46000 15.20600 27.03800
C  -1.70100 13.99500 27.59600
C  -1.82000 14.18900 28.96400
C  -1.70700 15.60300 29.18300
C  -1.83400 12.74700 26.85300
C  -2.00400 13.59800 30.31100
O  -2.18900 12.43700 30.60600
C  -1.95900 14.77300 31.32900
C  -0.78600 14.49100 32.06600
O  0.41600 14.74300 31.76600
O  -1.12200 13.90800 33.30800
C  0.05400 13.44200 34.02800
H  -2.04000 21.63600 30.92500
H  -0.55200 21.10200 24.59900
H  -1.04800 14.72100 24.92700
H  -2.77200 17.35900 32.92000
H  -1.56500 19.99800 32.95100
H  -4.06000 19.00400 33.49300
H  -4.29300 20.18300 32.18800
H  -3.46000 20.64900 33.66200
H  -0.05500 18.46200 33.66600
H  0.05700 16.90400 32.92500
H  -1.46700 15.97600 34.69700
H  -1.66400 17.57300 35.30100
H  -0.75100 24.29100 29.49300
H  -2.21300 23.50500 30.13100
H  -2.26000 24.55700 28.72700
H  -0.17700 24.88600 27.46000
H  -1.67100 25.43600 26.68400
H  -0.26300 25.58700 25.82700
H  0.40800 19.07600 23.30800
H  -0.93900 16.57300 22.98200
H  -2.40900 19.62300 23.16100
H  -2.10000 18.22900 22.13700
H  -1.18100 19.83900 21.89600
H  1.52700 17.01500 22.60800
H  1.17300 15.56900 23.23500
H  2.68800 17.90200 24.18600
H  2.79000 16.09300 24.31300
H  1.86700 17.03800 25.49700
H  -2.81600 12.32400 27.06400
H  -1.16700 11.98400 27.25200
H  -1.77500 12.77500 25.76500
H  -2.82900 14.73100 31.98400
H  0.12000 12.37300 34.22900
H  -0.02800 14.01900 34.94900
H  1.02600 13.77900 33.66700
Mg -10.52500 17.45900 40.99800
C  -6.93500 16.81700 41.05000
C  -10.00500 20.58700 40.14900
C  -13.74700 17.51500 40.14300
C  -10.82400 13.91400 41.54300
N  -8.66600 18.53900 40.55800
C  -7.34900 18.20300 40.75800
C  -6.40700 19.41800 40.42400
C  -7.43900 20.57300 40.58400
C  -8.77500 19.87900 40.39800
C  -7.22600 21.36600 41.95700
C  -5.76800 19.32400 39.02000
C  -4.17900 19.06600 38.99800
H  -3.71300 18.08400 37.90200
N  -11.79900 18.94000 40.49800
C  -11.42100 20.24100 40.25100
C  -12.55900 21.01100 40.00500
C  -13.67300 20.09600 39.91100
C  -13.09600 18.77700 40.10200
C  -12.48000 22.48300 39.82500
C  -15.08900 20.49200 39.79300
O  -15.38200 21.64000 39.68900
C  -16.23800 19.50100 39.85800
N  -12.10700 15.83700 40.56400
C  -13.37200 16.20200 40.48100
C  -14.27900 15.01800 40.61900
C  -13.36700 13.91600 41.28800
C  -11.99600 14.53000 41.10900
C  -15.60100 15.38000 41.35900
C  -13.55400 12.47500 40.73700
C  -12.56400 11.91300 39.67800
N  -9.24500 15.75200 41.28100
C  -9.55600 14.38700 41.57400
C  -8.36400 13.66700 41.73300
C  -7.31700 14.60900 41.70500
C  -7.85800 15.81900 41.25000
C  -8.24000 12.13200 41.92500
C  -5.87700 14.67800 41.84200
O  -5.08400 13.80300 42.19500
C  -5.56900 16.14200 41.32000
C  -4.66200 16.97900 42.26000
O  -3.43500 17.09500 42.20000
O  -5.42600 17.56200 43.11900
C  -4.70200 18.33600 44.14300
H  -9.94100 21.67000 40.02600
H  -14.82500 17.48600 39.97300
H  -10.92500 12.93400 42.01500
H  -5.70500 19.40000 41.25700
H  -7.25000 21.25100 39.75200
H  -6.66300 22.28900 41.81800
H  -6.67800 20.66900 42.59000
H  -8.12900 21.65500 42.49500
H  -5.94500 20.13800 38.31700
H  -6.29500 18.49000 38.55600
H  -3.79600 18.68400 39.94400
H  -3.62900 20.00300 38.92300
H  -12.51400 22.66600 38.75200
H  -11.64600 23.01900 40.27700
H  -13.31900 22.98100 40.31100
H  -16.03300 19.04600 38.88900
H  -17.25000 19.89600 39.95200
H  -16.19400 18.72900 40.62700
H  -14.54800 14.64500 39.63100
H  -13.50000 14.05100 42.36200
H  -15.34900 16.20300 42.02700
H  -16.04800 14.59300 41.96700
H  -16.34300 15.61400 40.59500
H  -14.55700 12.37500 40.32100
H  -13.54600 11.83900 41.62200
H  -12.04000 12.67600 39.10100
H  -13.06600 11.32400 38.91100
H  -11.87500 11.27900 40.23500
H  -8.95400 11.82200 42.68700
H  -7.24500 11.86600 42.28200
H  -8.43000 11.54700 41.02400
H  -4.96800 15.92100 40.43800
H  -5.52000 18.85300 44.64300
H  -4.05400 19.02200 43.59700
H  -4.14300 17.65400 44.78400

