158

Mg 24.11500 -4.64000 45.66700
C  26.16300 -2.25000 44.41000
C  21.55200 -3.40500 43.58700
C  22.39100 -7.41300 46.36200
C  26.94800 -5.96400 47.44900
N  23.88100 -3.03600 44.14300
C  24.85900 -2.13700 43.87400
C  24.31200 -1.04600 42.87400
C  22.74100 -1.26100 43.06100
C  22.71500 -2.66500 43.52100
C  22.11900 -0.13000 43.97000
C  24.88500 -1.34500 41.45900
C  24.53000 -0.29500 40.41700
H  23.92400 -0.77800 39.14500
N  22.23600 -5.31900 45.03100
C  21.37600 -4.72400 44.16000
C  20.20700 -5.55500 43.85100
C  20.37400 -6.72600 44.68100
C  21.70200 -6.53100 45.43700
C  19.12800 -5.10000 42.93000
C  19.61500 -8.01500 44.54400
O  18.71100 -8.09200 43.74200
C  19.71400 -9.20800 45.47300
N  24.59500 -6.46400 46.78200
C  23.72500 -7.49800 46.87000
C  24.32500 -8.71100 47.57800
C  25.71900 -8.17600 47.98300
C  25.77200 -6.73600 47.39900
C  23.47100 -9.19500 48.74300
C  26.86600 -9.00800 47.44000
C  27.83900 -9.48100 48.43400
N  26.19400 -4.16900 45.99400
C  27.22900 -4.72200 46.75900
C  28.44300 -3.92400 46.63100
C  28.01700 -2.90400 45.80300
C  26.68100 -3.17000 45.29100
C  29.71400 -4.14700 47.42400
C  28.40900 -1.66500 45.19600
O  29.43800 -0.99800 45.30000
C  27.28700 -1.32500 44.16700
C  26.99800 0.08800 44.27100
O  26.49300 0.62500 45.28100
O  27.31200 0.68400 43.07000
C  27.51400 2.12200 43.13500
H  20.61200 -2.99700 43.21100
H  21.97700 -8.40300 46.56500
H  27.82500 -6.38800 47.94300
H  24.49000 -0.02700 43.21600
H  22.31600 -1.22800 42.05700
H  21.15600 0.11900 43.52200
H  22.70000 0.78900 43.89100
H  21.96800 -0.40300 45.01400
H  24.34500 -2.24500 41.16500
H  25.95000 -1.55100 41.56400
H  25.43900 0.25300 40.16700
H  23.80700 0.34100 40.92900
H  18.40700 -4.37800 43.31500
H  18.67600 -5.95500 42.42900
H  19.68000 -4.58100 42.14600
H  19.82600 -8.92500 46.52000
H  20.54600 -9.63500 44.91300
H  18.86600 -9.89000 45.40900
H  24.46100 -9.60600 46.97100
H  25.75500 -7.98800 49.05600
H  24.12600 -9.16700 49.61400
H  23.12900 -10.22900 48.71900
H  22.57700 -8.61200 48.96600
H  27.48000 -8.46000 46.72600
H  26.40000 -9.83600 46.90500
H  27.79000 -10.55900 48.59000
H  27.69300 -8.95000 49.37400
H  28.79400 -9.20400 47.98800
H  29.54300 -4.11000 48.50000
H  30.38300 -3.31900 47.18800
H  30.25700 -5.07200 47.23400
H  27.73600 -1.65300 43.22900
H  26.53400 2.57600 43.28600
H  27.96500 2.43500 42.19400
H  28.10100 2.41400 44.00600
Mg 47.85000 16.06700 28.50400
C  45.89400 16.34200 31.40900
C  50.39200 17.77900 30.22900
C  49.48300 16.36000 25.54100
C  45.03600 15.08100 26.81200
N  48.06100 16.90600 30.62300
C  47.18500 16.81800 31.65600
C  47.89300 17.35500 32.86900
C  49.08200 18.20100 32.25100
C  49.22200 17.55000 30.91800
C  48.85300 19.75500 32.24600
C  48.47200 16.17100 33.84800
C  48.60600 16.48000 35.31500
H  48.55000 17.96500 35.82300
N  49.70400 16.84800 27.95600
C  50.62400 17.45900 28.80500
C  51.86600 17.61400 28.08400
C  51.61600 17.17900 26.69700
C  50.22100 16.75100 26.67700
C  53.18600 17.94200 28.83500
C  52.64200 17.07800 25.64500
O  52.34600 16.79700 24.50200
C  54.08100 17.48600 25.90000
N  47.36200 15.59400 26.53100
C  48.14300 15.94500 25.46500
C  47.42400 15.84200 24.14000
C  46.14200 15.17300 24.53600
C  46.10800 15.27400 26.02400
C  47.21700 17.09800 23.26400
C  46.09400 13.64200 24.12300
C  45.06400 13.29600 23.01800
N  45.88500 15.74600 28.97400
C  44.86700 15.33300 28.14600
C  43.74800 15.01500 28.96300
C  44.07300 15.37600 30.22100
C  45.36600 15.89800 30.15900
C  42.47400 14.26600 28.56000
C  43.54600 15.41900 31.54200
O  42.46600 15.03300 31.95400
C  44.78500 16.04500 32.39300
C  44.41800 17.28900 33.09100
O  44.43300 18.41300 32.59700
O  43.82700 16.90600 34.28000
C  43.27000 18.03700 35.00000
H  51.24300 18.29500 30.67900
H  49.97900 16.52300 24.58200
H  44.18300 14.66200 26.27400
H  47.19400 18.01500 33.38300
H  49.98000 18.05100 32.85100
H  47.97600 20.01700 32.83700
H  48.78800 20.05500 31.20000
H  49.70000 20.22700 32.74400
H  49.42800 15.82500 33.45500
H  47.85300 15.28500 33.70800
H  49.51900 16.13900 35.80300
H  47.80400 15.99400 35.87100
H  53.85600 17.08300 28.83000
H  53.03100 18.21700 29.87900
H  53.66000 18.76500 28.30000
H  54.12800 18.55000 26.13100
H  54.63700 17.40600 24.96600
H  54.53500 16.89600 26.69600
H  48.04200 15.15500 23.56300
H  45.35000 15.73700 24.04300
H  47.89700 17.02400 22.41500
H  47.43000 18.01100 23.82000
H  46.21300 17.28700 22.88300
H  45.99900 12.97700 24.98100
H  47.06500 13.35600 23.71900
H  45.66300 13.10400 22.12900
H  44.38500 14.12400 22.81500
H  44.46600 12.46100 23.38200
H  42.38300 14.33000 27.47600
H  41.52300 14.58300 28.98800
H  42.60900 13.21800 28.82700
H  45.03700 15.25700 33.10200
H  44.01800 18.81100 35.17000
H  42.77000 17.87500 35.95500
H  42.47200 18.44100 34.37700

