158

Mg 48.17100 15.72200 28.94900
C  46.02300 15.62800 31.61400
C  50.24800 17.76500 30.65700
C  50.07600 16.08700 26.17100
C  45.70400 14.14300 26.95800
N  48.16500 16.51300 30.89900
C  47.22000 16.38400 31.85600
C  47.74600 16.84100 33.25900
C  49.02100 17.76300 32.86900
C  49.16000 17.37100 31.35400
C  48.79000 19.31500 32.93500
C  48.08900 15.61100 34.14400
C  47.89200 15.73500 35.69100
H  47.33500 17.05700 36.16700
N  49.95900 16.72400 28.54700
C  50.73300 17.40000 29.41800
C  51.98600 17.66700 28.84200
C  51.95500 17.29900 27.49700
C  50.54800 16.73700 27.32300
C  53.10800 18.19500 29.62700
C  53.10500 17.35900 26.45300
O  52.93700 16.85800 25.32700
C  54.36900 18.04800 26.71500
N  47.96600 15.19800 26.90600
C  48.84700 15.59200 25.91800
C  48.43500 15.05600 24.51300
C  47.13000 14.23000 24.86700
C  46.87400 14.53000 26.37200
C  48.31600 16.20500 23.53600
C  47.30200 12.70700 24.74500
C  46.53300 12.15000 23.52000
N  46.29500 15.09500 29.21500
C  45.43300 14.45900 28.30100
C  44.18700 14.20600 29.00300
C  44.38500 14.60600 30.34200
C  45.69600 15.10900 30.40700
C  43.01100 13.68000 28.31800
C  43.74100 14.56300 31.64200
O  42.65900 14.02700 31.96600
C  44.88300 15.24900 32.61800
C  44.23800 16.36600 33.38100
O  44.32700 17.56700 33.11100
O  43.60500 15.86100 34.50300
C  42.88900 16.85400 35.27300
H  50.85900 18.38400 31.31700
H  50.69100 16.18200 25.27300
H  44.96200 13.60400 26.36500
H  47.03300 17.55900 33.66700
H  49.91500 17.35400 33.34100
H  49.30400 19.87800 33.71300
H  47.74900 19.33500 33.25800
H  48.85200 19.78300 31.95200
H  49.15500 15.39300 34.08000
H  47.45900 14.78300 33.82000
H  48.85400 15.47400 36.13200
H  47.18800 14.93800 35.93100
H  53.95900 17.51400 29.64700
H  52.83800 18.42500 30.65700
H  53.37100 19.22600 29.38600
H  54.17100 19.08000 27.00500
H  54.87400 18.20200 25.76100
H  55.04300 17.55900 27.41800
H  49.31100 14.45200 24.27600
H  46.28300 14.60000 24.28900
H  47.32000 16.33400 23.11200
H  48.90600 15.88900 22.67600
H  48.65900 17.17700 23.88900
H  46.85800 12.17900 25.58900
H  48.34700 12.42600 24.61900
H  46.90400 11.13100 23.40200
H  46.53700 12.84500 22.68000
H  45.50600 11.90400 23.79100
H  43.13500 12.63900 28.02000
H  42.85100 14.24600 27.40000
H  42.08400 13.91000 28.84300
H  45.26000 14.57700 33.38900
H  41.93700 17.02300 34.77000
H  43.35600 17.83900 35.27500
H  42.80400 16.48700 36.29600
Mg 26.45400 50.42500 26.83600
C  24.60100 51.80600 29.50300
C  28.84500 49.55900 29.23500
C  28.47500 49.40900 24.37200
C  24.26000 51.92100 24.58300
N  26.68800 50.68200 29.14000
C  25.68300 51.02300 29.98200
C  26.12700 50.73800 31.47100
C  27.65200 50.47700 31.27200
C  27.76600 50.17700 29.79400
C  28.58800 51.70800 31.75000
C  25.31600 49.55900 32.06400
C  24.64000 49.75200 33.44600
H  25.32300 50.66000 34.48400
N  28.33600 49.45400 26.80800
C  29.14000 49.19600 27.91300
C  30.27300 48.41400 27.44800
C  30.17400 48.38700 25.97800
C  28.98400 49.15000 25.64600
C  31.26300 47.71400 28.39200
C  31.14300 47.71200 24.94600
O  30.91600 47.72400 23.73200
C  32.39700 46.92700 25.39400
N  26.34700 50.58900 24.71800
C  27.30100 50.06500 23.93200
C  26.90600 50.15900 22.41400
C  25.57400 51.05100 22.51200
C  25.38100 51.22200 24.00500
C  28.00000 50.74000 21.44400
C  24.23300 50.36000 21.92800
C  23.79500 49.04500 22.54000
N  24.81400 51.59400 26.95100
C  23.96800 52.13100 25.95900
C  22.92800 52.92300 26.52800
C  23.11900 52.79500 27.90600
C  24.23700 51.97100 28.12000
C  21.93600 53.69700 25.83700
C  22.61500 53.23200 29.18400
O  21.61500 53.86600 29.40400
C  23.54100 52.53900 30.29600
C  24.24700 53.60800 31.07200
O  25.43700 53.92300 31.08900
O  23.33900 54.10300 31.92800
C  23.89100 55.08200 32.82700
H  29.56200 49.14600 29.94700
H  29.00700 49.06200 23.48300
H  23.58600 52.37900 23.85600
H  26.03300 51.62500 32.09700
H  27.91800 49.64700 31.92600
H  29.22200 51.54200 32.62100
H  28.01700 52.63200 31.83800
H  29.27900 51.93800 30.94000
H  25.93300 48.67800 32.24000
H  24.51400 49.32200 31.36500
H  24.55500 48.83300 34.02600
H  23.62100 50.09600 33.26700
H  32.26900 48.10900 28.25000
H  31.25000 46.66900 28.08300
H  31.05900 47.70500 29.46200
H  32.94800 47.57800 26.07200
H  33.08000 46.72000 24.56900
H  32.16900 46.04000 25.98500
H  26.60200 49.17500 22.05600
H  25.69900 52.04800 22.08900
H  27.69900 51.67200 20.96600
H  28.18500 49.94400 20.72400
H  28.92200 50.99300 21.96800
H  24.46800 50.13500 20.88800
H  23.42400 51.09000 21.97300
H  24.26800 48.94500 23.51800
H  23.99700 48.21100 21.86700
H  22.73500 49.02300 22.79200
H  21.79300 54.64200 26.36000
H  21.01700 53.13200 25.68000
H  22.37400 53.85200 24.85100
H  23.10400 51.80300 30.97000
H  24.04500 56.07600 32.40700
H  24.83800 54.72600 33.23100
H  23.42300 55.16500 33.80800

