158

Mg 47.28200 44.88700 42.29500
C  43.78200 44.38300 42.32400
C  47.63200 41.44800 42.06400
C  50.50500 45.37700 41.86700
C  46.61000 48.23800 42.03100
N  45.84400 43.16500 42.14200
C  44.54800 43.19700 42.22300
C  43.89500 41.79700 42.13600
C  45.13200 40.79500 42.26600
C  46.29900 41.80300 42.12100
C  45.28500 39.93700 43.58500
C  42.97500 41.56400 40.86600
C  43.29000 42.26000 39.50000
H  43.29700 41.45200 38.27200
N  48.88600 43.61600 41.99400
C  48.77900 42.22300 42.00100
C  50.15500 41.74800 41.83600
C  50.99100 42.87900 41.62600
C  50.12800 44.02200 41.83700
C  50.56400 40.32100 41.77600
C  52.45500 42.83900 41.29400
O  53.06500 41.81300 41.27100
C  53.24100 44.10000 41.11800
N  48.43600 46.53000 41.93100
C  49.74100 46.50100 41.93900
C  50.36800 47.92600 41.87000
C  49.11500 48.87700 41.67000
C  47.97700 47.83000 41.86500
C  51.12100 48.22700 43.11600
C  48.93700 49.74000 40.44000
C  48.42700 51.18800 40.73400
N  45.61800 46.08300 42.28400
C  45.54100 47.45200 42.26700
C  44.19800 47.89900 42.48500
C  43.47400 46.68500 42.46400
C  44.37400 45.64500 42.33900
C  43.63100 49.30900 42.41100
C  42.13200 46.12700 42.62300
O  41.08000 46.71300 42.79200
C  42.26800 44.55000 42.72200
C  41.73200 44.17000 44.01700
O  42.06200 44.77700 45.03600
O  40.92300 43.04100 43.97600
C  40.65900 42.41300 45.27000
H  47.81800 40.37300 42.10800
H  51.56100 45.64600 41.79800
H  46.61000 49.32600 41.93000
H  43.28400 41.68900 43.03200
H  45.01100 40.10700 41.42900
H  45.79900 39.04300 43.23400
H  44.31100 39.79900 44.05600
H  45.90700 40.53200 44.25400
H  41.96700 41.82200 41.19000
H  42.87600 40.48500 40.74600
H  44.25700 42.75600 39.57300
H  42.55400 43.06400 39.48700
H  51.44600 40.05500 42.35800
H  50.64500 39.93300 40.76100
H  49.82000 39.76700 42.34900
H  52.72600 44.76200 40.42200
H  54.25000 43.96400 40.72700
H  53.42100 44.50700 42.11300
H  51.00400 47.89100 40.98500
H  49.18100 49.56500 42.51300
H  52.08600 47.79200 42.85800
H  50.84200 47.75900 44.06000
H  51.29300 49.27200 43.37700
H  48.19000 49.28900 39.78800
H  49.90600 49.65200 39.94800
H  49.25400 51.78000 40.34200
H  48.17900 51.36500 41.78100
H  47.54800 51.38400 40.12100
H  43.37800 49.63800 41.40400
H  44.42100 49.99400 42.72100
H  42.86400 49.33800 43.18500
H  41.64800 44.13700 41.92600
H  40.26600 43.15700 45.96400
H  41.59400 41.96300 45.60500
H  39.84300 41.70600 45.12300
Mg -10.86100 40.07000 42.15900
C  -9.56700 36.83400 41.44700
C  -8.10600 41.39200 40.60500
C  -12.32700 43.02600 42.32700
C  -13.88100 38.52400 43.02500
N  -9.10300 39.15600 40.98600
C  -8.72800 37.86300 40.98600
C  -7.45600 37.71300 40.12900
C  -6.90000 39.19700 40.07900
C  -8.11100 39.97900 40.54700
C  -5.62300 39.49800 40.80700
C  -7.77300 36.98300 38.78400
C  -6.78600 35.90100 38.36100
H  -5.76200 36.34900 37.26000
N  -10.26700 41.99100 41.61400
C  -9.09000 42.30500 41.00900
C  -8.96000 43.67400 40.90100
C  -10.12600 44.23100 41.52500
C  -11.01800 43.09400 41.79700
C  -7.77000 44.36800 40.30300
C  -10.40300 45.68500 41.87600
O  -9.58500 46.55500 41.58500
C  -11.63600 46.22900 42.63500
N  -12.85100 40.65500 42.47000
C  -13.19000 41.94500 42.56400
C  -14.61500 42.23700 43.02800
C  -15.14300 40.74400 43.16800
C  -13.92200 39.92600 42.88800
C  -14.65200 43.00300 44.38000
C  -16.24000 40.40600 42.13700
C  -17.57800 39.88300 42.77900
N  -11.63500 38.10400 42.29600
C  -12.82000 37.64800 42.77300
C  -12.81400 36.16200 42.81700
C  -11.51900 35.83900 42.28100
C  -10.87700 37.05800 41.92700
C  -13.92600 35.14600 43.23200
C  -10.61700 34.78700 41.93300
O  -10.82200 33.55700 42.07500
C  -9.32000 35.34600 41.31800
C  -8.23800 34.86200 42.14900
O  -7.87100 35.30800 43.18100
O  -7.68400 33.76800 41.48000
C  -6.37100 33.36400 41.93700
H  -7.24300 41.86700 40.13300
H  -12.82900 43.99200 42.41200
H  -14.84800 38.16100 43.37800
H  -6.73200 37.19900 40.76000
H  -6.78300 39.37900 39.01100
H  -4.97800 38.62300 40.89400
H  -5.75000 39.84500 41.83300
H  -5.00300 40.23800 40.30100
H  -7.70400 37.77600 38.03900
H  -8.82200 36.68800 38.75900
H  -7.40400 35.04400 38.09600
H  -6.20900 35.56200 39.22100
H  -8.01900 44.88100 39.37400
H  -6.88300 43.75100 40.15800
H  -7.35900 45.01800 41.07600
H  -12.56300 46.27900 42.06400
H  -11.31800 47.22100 42.95800
H  -11.70000 45.58200 43.51000
H  -15.09400 42.87700 42.28800
H  -15.42400 40.48500 44.18900
H  -13.66900 43.29700 44.74900
H  -15.25300 42.44200 45.09500
H  -15.14600 43.97300 44.32400
H  -15.95100 39.69300 41.36600
H  -16.45300 41.29900 41.54900
H  -18.30300 39.67100 41.99300
H  -18.18500 40.60200 43.32800
H  -17.50700 38.92100 43.28500
H  -13.44200 34.39700 43.85800
H  -14.54500 34.91000 42.36700
H  -14.52700 35.68600 43.96400
H  -9.36700 34.81200 40.36900
H  -5.88400 32.61700 41.31000
H  -6.35200 33.09800 42.99400
H  -5.66700 34.19500 41.94500

