158

Mg 26.52200 49.59600 27.30900
C  24.47500 50.82100 29.97000
C  28.83400 48.64000 29.77300
C  28.67400 48.69100 24.86600
C  24.42000 51.02200 25.02800
N  26.55700 49.68500 29.65100
C  25.58600 50.15900 30.44400
C  25.98800 49.93700 31.93300
C  27.44500 49.35200 31.87700
C  27.64400 49.20400 30.32000
C  28.57200 50.26600 32.53600
C  24.93200 49.10500 32.77100
C  24.27100 49.77800 33.99400
H  24.26100 48.97000 35.32900
N  28.46300 48.88000 27.27700
C  29.20200 48.48200 28.42500
C  30.54000 48.06400 27.96400
C  30.51500 48.07900 26.57100
C  29.18800 48.51400 26.19600
C  31.53100 47.62400 29.02600
C  31.60900 47.69100 25.56000
O  31.54000 47.89000 24.35800
C  33.02000 47.23500 26.03800
N  26.57000 49.89800 25.26100
C  27.52300 49.36900 24.44000
C  27.09200 49.34900 22.96500
C  25.73400 50.03800 22.99200
C  25.57500 50.36000 24.51100
C  27.99700 49.94300 21.89100
C  24.52400 49.12700 22.50900
C  23.79500 49.72700 21.30000
N  24.72800 50.57700 27.46700
C  24.02200 51.22400 26.44200
C  22.82200 51.73700 26.89200
C  22.89700 51.57400 28.30400
C  24.13100 50.97400 28.57700
C  21.76800 52.39600 26.05000
C  22.28700 51.93400 29.52300
O  21.28000 52.48200 29.74300
C  23.21600 51.32800 30.63100
C  23.45900 52.35400 31.62200
O  24.31700 53.19300 31.60000
O  22.43700 52.34000 32.53400
C  22.48200 53.29800 33.59100
H  29.39800 48.41000 30.68000
H  29.25900 48.22200 24.07200
H  23.69200 51.37400 24.29400
H  26.02600 50.93700 32.36400
H  27.61400 48.34900 32.26700
H  28.17300 50.93000 33.30300
H  28.91100 50.84300 31.67500
H  29.47600 49.74500 32.85100
H  25.35800 48.20400 33.21300
H  24.24500 48.85000 31.96400
H  23.24500 50.00500 33.70500
H  24.69800 50.78100 34.02200
H  32.52400 48.01200 28.80000
H  31.59000 46.55300 28.83600
H  31.23800 47.84200 30.05300
H  33.70500 47.91400 26.54600
H  33.51200 46.65200 25.26000
H  32.87100 46.41100 26.73600
H  27.05700 48.28000 22.75500
H  25.78200 51.01800 22.51700
H  28.53500 49.12200 21.41600
H  28.82800 50.58600 22.17700
H  27.44500 50.43200 21.08800
H  23.80600 48.90900 23.30000
H  24.85600 48.11000 22.30300
H  22.81700 50.10800 21.59500
H  23.51400 48.92500 20.61700
H  24.39900 50.51400 20.84900
H  21.53400 51.91300 25.10100
H  22.13000 53.40500 25.85000
H  20.86900 52.62900 26.61900
H  22.72200 50.51700 31.16600
H  22.32700 54.34000 33.31000
H  23.36400 53.14900 34.21500
H  21.57300 53.06100 34.14300
Mg 9.98700 47.19400 27.21500
C  7.61400 47.38100 29.93700
C  12.38900 48.10100 29.35500
C  11.90700 47.40400 24.63500
C  7.12900 46.53200 25.17800
N  9.92300 47.70900 29.40900
C  8.90000 47.78500 30.36400
C  9.46500 48.09100 31.71400
C  10.87300 48.72300 31.27000
C  11.14200 48.01700 30.01300
C  11.00600 50.18600 31.19400
C  9.52400 46.90300 32.74000
C  9.12100 47.23000 34.17900
H  9.33300 46.23100 35.25600
N  11.92300 47.61800 27.06800
C  12.75800 47.88900 28.04700
C  14.08100 47.98900 27.46200
C  13.94100 47.77000 26.03700
C  12.51500 47.60400 25.84100
C  15.20100 48.27700 28.41700
C  15.01000 47.74000 24.96300
O  14.74700 47.65800 23.75800
C  16.49800 47.74100 25.37500
N  9.50800 47.37000 25.12700
C  10.55600 47.27700 24.25200
C  10.10100 46.85300 22.86400
C  8.62400 46.45900 23.07600
C  8.38200 46.86600 24.53600
C  10.17700 47.97000 21.78200
C  8.39800 44.94100 22.76500
C  9.13200 43.91000 23.66300
N  7.78400 47.01000 27.39500
C  6.82900 46.64300 26.51400
C  5.57700 46.50300 27.13500
C  5.84100 46.78800 28.48600
C  7.15800 47.20000 28.58700
C  4.22400 46.19800 26.47700
C  5.18700 46.96700 29.75000
O  4.02100 46.81800 30.06500
C  6.36700 47.19900 30.79300
C  6.53800 45.94600 31.52000
O  7.02000 44.95400 31.06800
O  6.01100 46.07800 32.77000
C  6.04900 44.81900 33.56200
H  13.16600 48.46800 30.02800
H  12.51500 47.08800 23.78600
H  6.32200 46.19000 24.52700
H  9.00500 48.90800 32.27000
H  11.69700 48.40600 31.90900
H  10.10100 50.70000 31.51800
H  11.12000 50.38300 30.12800
H  11.89100 50.54700 31.71800
H  10.58700 46.67900 32.81900
H  9.05100 46.01600 32.31800
H  8.04100 47.37300 34.13900
H  9.52200 48.21900 34.39900
H  14.98400 49.19500 28.96400
H  16.12700 48.41300 27.85800
H  15.30300 47.48700 29.16000
H  16.57600 46.87400 26.03100
H  16.81500 48.69500 25.79600
H  17.14600 47.60700 24.50900
H  10.66000 45.93600 22.67600
H  7.91300 47.11700 22.57700
H  10.76200 47.80100 20.87700
H  10.60200 48.87300 22.22000
H  9.16700 48.27100 21.50400
H  8.73800 44.71700 21.75400
H  7.34300 44.69200 22.88300
H  8.62100 42.96500 23.84500
H  9.12100 44.41900 24.62700
H  10.11600 43.72500 23.23100
H  4.08600 46.38400 25.41200
H  3.53100 46.86200 26.99400
H  3.87200 45.16600 26.47000
H  6.19000 48.06600 31.42900
H  5.83000 45.01600 34.61200
H  7.05700 44.40700 33.53200
H  5.18600 44.17800 33.37900

