158

Mg 2.70100 -3.13000 45.13200
C  5.61000 -1.42200 44.55300
C  0.95700 -0.82700 43.12900
C  -0.12800 -5.12800 45.19700
C  4.45200 -5.71100 46.57800
N  3.24200 -1.34500 44.09300
C  4.49500 -0.88500 43.91700
C  4.58700 0.30400 42.85600
C  3.03200 0.65800 42.72100
C  2.34800 -0.61100 43.30400
C  2.57400 1.91900 43.53900
C  5.22500 -0.23100 41.55200
C  6.10100 0.85700 40.91500
H  5.49700 1.55600 39.63600
N  0.71600 -2.93500 44.27500
C  0.18200 -1.87600 43.58900
C  -1.22200 -2.10400 43.31600
C  -1.55200 -3.30000 43.96600
C  -0.26400 -3.85700 44.47900
C  -2.11100 -1.10700 42.52300
C  -3.01700 -3.75900 44.21000
O  -3.96900 -3.18100 43.70900
C  -3.39400 -5.00200 44.99600
N  2.25200 -5.30900 45.51800
C  0.99900 -5.77100 45.66700
C  0.90500 -7.10400 46.49000
C  2.44800 -7.40600 46.67100
C  3.10600 -6.09600 46.17600
C  -0.04300 -7.13300 47.74700
C  3.01600 -8.60900 45.90200
C  4.15600 -9.43100 46.54000
N  4.60500 -3.56900 45.52400
C  5.23200 -4.61500 46.15400
C  6.67000 -4.29600 46.41500
C  6.84100 -3.04900 45.76700
C  5.57300 -2.61500 45.27900
C  7.72300 -5.17300 47.02300
C  7.78500 -2.08600 45.41800
O  8.97500 -2.05700 45.63900
C  7.06200 -1.04400 44.48300
C  7.24300 0.18600 45.13500
O  6.62600 0.63000 46.10100
O  8.19900 0.77800 44.31700
C  8.58300 2.12900 44.59000
H  0.69600 -0.06600 42.39100
H  -1.01300 -5.74400 45.37100
H  4.97600 -6.53100 47.07300
H  5.03100 1.20600 43.27600
H  2.62900 0.93000 41.74500
H  2.14500 1.65900 44.50700
H  1.81300 2.35600 42.89200
H  3.40000 2.60800 43.71300
H  4.44800 -0.37000 40.80100
H  5.76400 -1.13000 41.85300
H  7.07500 0.40500 40.72500
H  6.25500 1.66200 41.63400
H  -1.59400 -0.30000 42.00300
H  -2.81200 -0.65800 43.22700
H  -2.65900 -1.66300 41.76300
H  -2.89900 -5.90100 44.62700
H  -4.44700 -5.27100 44.91200
H  -3.07000 -4.83400 46.02300
H  0.45200 -7.82200 45.80600
H  2.61700 -7.43300 47.74800
H  -0.92700 -7.73600 47.54100
H  -0.33900 -6.14800 48.11000
H  0.49200 -7.65300 48.54100
H  3.32800 -8.33600 44.89400
H  2.21100 -9.33600 45.80200
H  4.51200 -9.07300 47.50600
H  5.06200 -9.51700 45.93900
H  3.72600 -10.40700 46.76300
H  8.35900 -4.73200 47.79100
H  8.40100 -5.55200 46.25800
H  7.21600 -6.07100 47.37600
H  7.47600 -1.00200 43.47500
H  7.77900 2.86200 44.65300
H  9.37300 2.48800 43.93000
H  9.03700 2.21000 45.57700
Mg 23.79700 -5.40300 45.48600
C  25.66100 -2.79900 44.05700
C  21.13000 -4.35800 43.42500
C  22.38000 -8.50500 45.90500
C  26.75100 -6.57700 46.92100
N  23.47800 -3.82000 43.88500
C  24.42800 -2.91000 43.51400
C  23.92000 -2.04300 42.33100
C  22.36800 -2.26800 42.42900
C  22.26300 -3.55700 43.25700
C  21.64900 -1.04000 43.16400
C  24.57400 -2.44200 40.99700
C  25.00700 -1.38100 40.00900
H  24.68800 -1.65800 38.47600
N  22.06800 -6.30200 44.87600
C  21.07500 -5.61800 44.06500
C  19.90300 -6.49900 44.09100
C  20.21100 -7.66300 44.80700
C  21.58700 -7.53600 45.29100
C  18.57600 -6.13100 43.40200
C  19.23500 -8.80800 45.10200
O  18.12200 -8.82300 44.58900
C  19.47800 -9.97100 45.96400
N  24.41700 -7.21800 46.43800
C  23.65400 -8.38000 46.46800
C  24.45800 -9.52500 47.17300
C  25.69700 -8.81900 47.74500
C  25.62900 -7.39700 47.00700
C  23.65600 -10.20300 48.31700
C  26.97700 -9.66300 47.63500
C  27.98200 -9.41500 48.83600
N  25.78800 -4.78300 45.62500
C  26.88900 -5.35100 46.25200
C  28.00300 -4.49200 46.24200
C  27.59500 -3.40300 45.37100
C  26.20200 -3.65100 45.06100
C  29.37300 -4.64300 46.95700
C  28.04400 -2.15400 44.69600
O  29.13300 -1.64800 44.54600
C  26.77000 -1.79400 43.77600
C  26.39600 -0.44100 44.16400
O  26.04800 -0.09100 45.26500
O  26.57600 0.43200 43.07200
C  26.79700 1.88200 43.38000
H  20.23900 -3.94400 42.94700
H  21.82100 -9.44200 45.93500
H  27.67100 -6.94600 47.38000
H  24.10700 -1.00500 42.60700
H  21.84900 -2.40300 41.48000
H  22.10400 -0.84800 44.13600
H  20.58800 -1.23700 43.31600
H  21.76400 -0.25600 42.41600
H  23.86700 -3.04800 40.43000
H  25.41500 -3.07100 41.29000
H  26.08500 -1.31200 40.15600
H  24.61700 -0.42400 40.35700
H  18.13700 -6.96800 42.85800
H  18.72700 -5.40100 42.60700
H  17.81800 -5.71300 44.06500
H  18.51800 -10.48600 45.97900
H  19.81300 -9.69200 46.96300
H  20.22800 -10.55500 45.43000
H  24.72400 -10.17100 46.33700
H  25.65300 -8.51900 48.79200
H  23.90100 -9.65300 49.22500
H  23.81500 -11.28200 48.33100
H  22.59500 -10.04100 48.12800
H  27.51800 -9.43400 46.71700
H  26.82200 -10.74200 47.66800
H  27.62700 -10.10800 49.59800
H  28.18500 -8.40400 49.19100
H  28.93400 -9.80300 48.47500
H  29.26700 -5.50900 47.61100
H  29.82100 -3.84400 47.54800
H  29.95000 -4.96600 46.09000
H  27.06000 -1.87200 42.72900
H  26.85500 2.27500 44.39600
H  25.98500 2.44300 42.91800
H  27.77900 2.19200 43.02200

