158

Mg 50.18100 46.39500 43.03800
C  46.75600 46.73700 42.31400
C  50.09100 43.44800 41.37900
C  53.60500 46.39900 43.29300
C  50.13700 49.80500 44.10500
N  48.64800 45.23900 41.93200
C  47.29400 45.55300 41.85600
C  46.54000 44.53000 41.07400
C  47.52100 43.32500 41.18900
C  48.85700 43.97100 41.52000
C  47.22900 42.17600 42.32100
C  46.08700 44.89100 39.62200
C  44.55900 44.81900 39.36900
H  44.01200 43.85400 38.28300
N  51.64400 44.90800 42.52400
C  51.37800 43.79300 41.83000
C  52.57300 43.08600 41.78600
C  53.60300 43.85800 42.43600
C  52.99900 45.16100 42.79600
C  52.61900 41.65400 41.26700
C  55.10900 43.47500 42.53500
O  55.41900 42.34300 42.24200
C  56.28800 44.41900 42.88900
N  51.65100 47.94700 43.51900
C  52.97000 47.60100 43.68100
C  53.73400 48.72300 44.33500
C  52.61500 49.84500 44.56000
C  51.35900 49.11400 44.06800
C  54.51400 48.35300 45.65700
C  52.88500 51.16400 43.74500
C  52.90700 52.55900 44.54400
N  48.70700 48.11400 43.17100
C  48.84400 49.39700 43.65600
C  47.49800 49.92300 43.77200
C  46.61800 48.93900 43.22400
C  47.43000 47.86600 42.87600
C  47.15100 51.24800 44.31500
C  45.17500 48.60200 42.92900
O  44.11000 49.21000 43.14300
C  45.27300 47.21400 42.17100
C  44.21200 46.25800 42.76400
O  43.14700 46.03000 42.25600
O  44.63600 45.78600 43.93700
C  43.80700 44.72200 44.48300
H  50.11500 42.46100 40.91400
H  54.66700 46.48400 43.53100
H  50.18100 50.80100 44.54900
H  45.63600 44.11100 41.51600
H  47.66100 42.78400 40.25300
H  46.32300 42.27600 42.91900
H  47.97300 42.09400 43.11300
H  47.13500 41.25700 41.74200
H  46.50000 44.07300 39.03300
H  46.56600 45.86200 39.49700
H  44.33800 45.84700 39.08200
H  43.98900 44.42400 40.20900
H  52.51100 41.65300 40.18300
H  51.76200 41.18600 41.75200
H  53.44400 40.99800 41.54700
H  56.24400 44.66500 43.95000
H  56.20100 45.29900 42.25200
H  57.20800 43.90100 42.61600
H  54.51400 49.14200 43.69900
H  52.38200 50.04100 45.60600
H  54.10600 47.36400 45.86800
H  54.35800 49.10500 46.43000
H  55.59100 48.23000 45.53700
H  52.24300 51.34600 42.88400
H  53.83100 50.97400 43.23800
H  53.91500 52.95100 44.40700
H  52.79700 52.41500 45.61900
H  52.22500 53.33000 44.18700
H  47.70200 51.99200 43.74100
H  47.50600 51.31000 45.34300
H  46.06400 51.33300 44.34300
H  45.02100 47.39300 41.12600
H  42.75100 44.98900 44.53300
H  44.14200 44.38300 45.46300
H  43.99500 43.84600 43.86200
Mg 30.05100 57.38600 41.13600
C  27.33200 55.76800 39.55900
C  31.98500 54.72100 40.06000
C  32.77300 59.36000 41.55900
C  28.01700 60.27600 41.56600
N  29.69700 55.53300 39.73600
C  28.51100 55.08000 39.33000
C  28.63900 53.63300 38.81000
C  30.18500 53.33700 38.98100
C  30.63500 54.55700 39.69600
C  30.53300 51.99500 39.73400
C  28.11700 53.42400 37.38400
C  28.31100 54.47600 36.30100
H  27.10800 54.52100 35.29100
N  32.10100 57.08900 40.97300
C  32.67500 55.89900 40.52200
C  34.16200 56.01900 40.51600
C  34.41300 57.36600 40.87100
C  33.10500 58.03700 41.23500
C  35.20500 54.94100 40.10200
C  35.74500 57.96400 41.12800
O  36.79300 57.39000 40.90100
C  35.87100 59.28500 41.84600
N  30.28300 59.38000 41.66700
C  31.53700 59.96000 41.74600
C  31.47100 61.49500 41.97800
C  30.00500 61.71600 42.15700
C  29.37000 60.38900 41.83300
C  32.33600 62.03000 43.15900
C  29.41200 63.00800 41.42700
C  30.32200 64.24000 41.39700
N  28.09900 57.87400 40.90100
C  27.40500 59.01200 41.20700
C  26.00300 58.80700 40.89700
C  25.93100 57.59300 40.20800
C  27.21500 57.00000 40.28900
C  24.89300 59.83200 40.99900
C  25.02400 56.68200 39.45000
O  23.88400 56.73500 39.15900
C  25.94100 55.43900 39.19400
C  25.31900 54.31100 39.94200
O  25.81800 53.67000 40.87800
O  24.16700 53.93700 39.25800
C  23.38700 52.76500 39.63600
H  32.55800 53.82400 39.81400
H  33.59600 60.06800 41.67800
H  27.25100 61.05400 41.59500
H  28.06200 53.07600 39.54800
H  30.60000 53.24100 37.97700
H  31.12100 52.15800 40.63700
H  31.06500 51.23400 39.16300
H  29.57600 51.50100 39.89800
H  27.05200 53.22600 37.50800
H  28.53700 52.53700 36.91100
H  29.12100 54.07800 35.68800
H  28.64200 55.36600 36.83600
H  35.86300 55.28200 39.30300
H  34.66700 54.03400 39.82600
H  35.80600 54.79500 41.00000
H  35.58400 60.03600 41.11000
H  36.87700 59.49000 42.21400
H  35.12100 59.19200 42.63100
H  31.90900 61.99800 41.11600
H  29.81500 61.70500 43.23100
H  33.01800 61.24600 43.48900
H  31.73200 62.42400 43.97600
H  32.91000 62.82300 42.68000
H  28.47700 63.24800 41.93400
H  29.08300 62.70200 40.43400
H  30.93800 64.29000 42.29500
H  29.68700 65.12500 41.43400
H  30.88700 64.29800 40.46700
H  25.21100 60.82700 40.68500
H  24.48900 59.80500 42.01100
H  24.08900 59.46800 40.36000
H  25.92400 55.16100 38.14000
H  22.41100 53.10900 39.98000
H  23.82300 52.29200 40.51600
H  23.27700 52.03100 38.83800

