158

Mg 29.51000 59.21600 40.79600
C  26.38100 57.87000 39.90600
C  31.04800 56.56700 39.37000
C  32.39500 60.74800 41.38300
C  27.80600 62.14600 41.86800
N  28.77700 57.51700 39.67800
C  27.48800 57.13200 39.51600
C  27.43000 55.83100 38.68400
C  28.87000 55.28400 38.82900
C  29.62200 56.54600 39.35300
C  29.04900 54.08700 39.75400
C  27.04000 56.20100 37.21800
C  25.93100 55.41100 36.45800
H  26.30700 55.00400 34.96400
N  31.51200 58.78700 40.38800
C  31.93800 57.60600 39.78500
C  33.37900 57.52100 39.81000
C  33.81000 58.77500 40.36100
C  32.57800 59.56500 40.70900
C  34.23300 56.43400 39.30600
C  35.27100 59.15100 40.60600
O  36.16100 58.32900 40.36600
C  35.72900 60.43900 41.23600
N  30.03900 61.17100 41.40600
C  31.27500 61.53500 41.69900
C  31.39800 63.02000 42.16800
C  29.88400 63.52800 42.20200
C  29.22400 62.20200 41.82800
C  32.10400 63.17300 43.58800
C  29.54300 64.59100 41.09200
C  28.38000 65.53600 41.48000
N  27.52100 59.92000 40.92800
C  26.99700 61.07400 41.45800
C  25.52800 60.97600 41.45600
C  25.28500 59.82000 40.76400
C  26.53400 59.12100 40.54600
C  24.55000 62.03600 41.93000
C  24.26000 58.91600 40.31100
O  23.09000 59.00100 40.44800
C  24.86700 57.67200 39.64700
C  24.46400 56.39200 40.28600
O  24.65500 56.10200 41.45700
O  23.80500 55.59600 39.43300
C  23.31000 54.25600 39.83300
H  31.50700 55.61400 39.09700
H  33.35000 61.23100 41.60100
H  27.27300 63.00900 42.27300
H  26.62500 55.20100 39.06400
H  29.29100 55.19500 37.82800
H  29.38900 54.19100 40.78400
H  29.68300 53.36100 39.24500
H  28.09300 53.56400 39.70300
H  27.93500 56.25800 36.60000
H  26.66700 57.22300 37.27900
H  25.11100 56.12400 36.37600
H  25.68000 54.55400 37.08300
H  34.53700 55.82100 40.15500
H  35.03700 56.87600 38.71900
H  33.63500 55.84100 38.61400
H  36.81500 60.45400 41.14800
H  35.40700 60.56300 42.27000
H  35.33100 61.26800 40.65100
H  31.92400 63.60300 41.41100
H  29.46900 63.86400 43.15200
H  33.18300 63.01500 43.59200
H  31.60100 62.43900 44.21700
H  32.02600 64.16900 44.02400
H  29.45500 63.99700 40.18200
H  30.37600 65.22400 40.78500
H  28.02400 65.28500 42.47900
H  27.47100 65.51300 40.87900
H  28.77000 66.55200 41.54100
H  24.68600 62.96900 41.38500
H  24.45800 62.23500 42.99800
H  23.57700 61.61200 41.68400
H  24.60300 57.61800 38.59000
H  22.60800 54.51400 40.62500
H  24.10000 53.56800 40.13300
H  22.72800 53.85900 39.00100
Mg 15.61100 52.09300 25.55600
C  17.36900 51.01000 28.49000
C  13.04700 53.06200 27.73700
C  13.88400 53.19700 22.91700
C  18.24100 50.93500 23.60600
N  15.19400 51.93900 27.87100
C  16.16400 51.67900 28.83500
C  15.71400 52.09300 30.24000
C  14.31400 52.66800 29.98200
C  14.11400 52.58600 28.43900
C  13.13800 51.84700 30.62300
C  16.73500 53.04200 30.88600
C  17.05500 52.80300 32.37400
H  15.98500 52.03000 33.36100
N  13.74400 53.03700 25.37200
C  12.84000 53.28700 26.39000
C  11.69900 53.83200 25.71300
C  11.94700 53.92500 24.32200
C  13.25900 53.41700 24.15700
C  10.34800 54.05000 26.42100
C  11.06500 54.43600 23.22900
O  11.31800 54.41100 21.99800
C  9.74600 55.19100 23.59200
N  15.93200 51.95400 23.53400
C  15.17900 52.67000 22.66600
C  15.71600 52.48500 21.21300
C  17.14400 51.89500 21.49600
C  17.11900 51.55300 22.98500
C  14.74000 51.55800 20.36800
C  18.29100 52.88100 21.10600
C  18.94000 52.64300 19.79200
N  17.36300 51.06900 25.90800
C  18.36800 50.71400 24.99100
C  19.52500 50.10700 25.66600
C  19.17500 50.20600 27.03300
C  17.87500 50.69200 27.13900
C  20.75000 49.62200 24.98800
C  19.58200 49.96900 28.39200
O  20.56900 49.41200 28.85400
C  18.47900 50.54000 29.39000
C  18.03300 49.40800 30.30400
O  17.28800 48.48800 30.02900
O  18.63700 49.63300 31.54700
C  18.36200 48.58500 32.50500
H  12.30700 53.34800 28.48700
H  13.44100 53.51700 21.97200
H  18.99300 50.60700 22.88500
H  15.61700 51.25800 30.93400
H  14.23700 53.72200 30.25000
H  13.59600 51.42700 31.51900
H  12.82300 50.99500 30.02200
H  12.29600 52.52800 30.74600
H  16.27400 54.02900 30.91700
H  17.61400 53.02500 30.24100
H  17.37500 53.63900 32.99600
H  17.84400 52.05000 32.38600
H  10.19500 53.70400 27.44400
H  9.54600 53.46400 25.97300
H  9.98500 55.07400 26.33400
H  9.26600 55.50700 22.66600
H  10.07700 56.04200 24.18700
H  9.22500 54.42700 24.16900
H  15.74600 53.47200 20.75200
H  17.14100 51.04800 20.80900
H  15.12600 50.70800 19.80500
H  14.12400 52.12800 19.67200
H  14.00700 51.23100 21.10500
H  19.02600 52.97600 21.90500
H  17.89100 53.88500 20.96100
H  18.24300 52.71300 18.95700
H  19.41600 51.66400 19.84500
H  19.66600 53.44900 19.68800
H  20.87900 50.26200 24.11500
H  20.69600 48.57200 24.70200
H  21.56900 49.74200 25.69800
H  19.02200 51.28600 29.97100
H  17.28500 48.43800 32.59000
H  18.79200 48.94600 33.43900
H  18.87000 47.65200 32.25900

