158

Mg 40.94600 7.81300 29.66200
C  42.60200 9.49500 32.35800
C  38.53700 6.75900 31.93800
C  39.70000 5.93400 27.29600
C  43.70800 8.68000 27.55700
N  40.66100 8.03700 31.87300
C  41.42000 8.82200 32.73200
C  40.82500 8.84500 34.15200
C  39.62600 7.88200 33.93500
C  39.62900 7.48900 32.51100
C  39.38800 6.68100 34.88600
C  40.53800 10.33500 34.54400
C  39.89000 10.68600 35.87900
H  40.67400 11.58200 36.94300
N  39.30400 6.58500 29.61500
C  38.40000 6.33900 30.58200
C  37.30800 5.55200 30.10100
C  37.59600 5.46900 28.72100
C  38.94000 5.98900 28.46700
C  36.10400 5.02800 30.93500
C  36.71200 4.88300 27.65200
O  37.00300 4.79800 26.47100
C  35.32000 4.65200 27.98400
N  41.69900 7.24800 27.70100
C  40.96000 6.39500 26.93300
C  41.51900 6.30400 25.42300
C  42.82500 7.25200 25.55200
C  42.75200 7.79000 27.00200
C  41.66900 4.80800 24.80500
C  42.92200 8.36300 24.48900
C  42.06100 9.59400 24.66500
N  42.80300 8.86300 29.88500
C  43.73100 9.14000 28.89600
C  44.74800 9.94500 29.49100
C  44.37700 10.08600 30.88600
C  43.11900 9.48700 31.01400
C  45.92100 10.40200 28.68300
C  44.71600 10.75300 32.13200
O  45.71200 11.33200 32.46600
C  43.61400 10.35900 33.14900
C  44.23800 9.51100 34.16900
O  45.22600 8.79600 34.01300
O  43.74800 9.89000 35.39900
C  44.34000 9.32900 36.61000
H  37.68700 6.43600 32.54300
H  39.26800 5.31000 26.51100
H  44.49400 9.07300 26.90800
H  41.54700 8.39600 34.83500
H  38.79600 8.55400 34.15500
H  40.21900 6.39400 35.53100
H  39.19100 5.75100 34.35400
H  38.45000 6.77000 35.43400
H  39.93800 10.69300 33.70800
H  41.43600 10.94600 34.46800
H  39.67900 9.72800 36.35600
H  39.01200 11.27900 35.62600
H  36.30400 4.91700 32.00100
H  35.96100 3.98200 30.66400
H  35.26800 5.69500 30.72400
H  34.78500 4.37300 27.07700
H  34.87900 5.45900 28.56900
H  35.45800 3.73200 28.55400
H  40.74400 6.77600 24.82000
H  43.76600 6.70900 25.45600
H  41.10800 4.71400 23.87500
H  41.23600 4.01800 25.41800
H  42.72500 4.54700 24.73000
H  42.72200 8.01300 23.47600
H  43.98000 8.62400 24.50000
H  42.78100 10.29900 25.08000
H  41.33600 9.47400 25.47000
H  41.66000 9.97300 23.72400
H  46.63000 9.58800 28.53300
H  46.45100 11.07900 29.35300
H  45.70900 10.85800 27.71600
H  43.36500 11.35800 33.50800
H  45.35300 9.61200 36.89300
H  44.33100 8.25200 36.44400
H  43.63500 9.52300 37.41900
Mg -9.54100 40.67700 42.73300
C  -8.59500 37.39400 41.63700
C  -6.76600 41.95400 41.02500
C  -10.81200 43.71900 43.07300
C  -12.54100 39.23500 43.78400
N  -7.98400 39.78300 41.39900
C  -7.79700 38.38600 41.12200
C  -6.41800 38.19700 40.43900
C  -5.78800 39.63500 40.50500
C  -6.93900 40.54800 40.98600
C  -4.43400 39.82900 41.30200
C  -6.46400 37.63300 39.03600
C  -5.51800 36.37800 38.74600
H  -4.38400 36.61100 37.70900
N  -8.92200 42.55100 42.16400
C  -7.74500 42.81900 41.51700
C  -7.59100 44.27500 41.38500
C  -8.71100 44.87800 42.04200
C  -9.56000 43.76800 42.48900
C  -6.38400 44.98300 40.72500
C  -9.01400 46.46400 42.17900
O  -8.27800 47.32000 41.73000
C  -10.26000 46.96400 42.89100
N  -11.49200 41.40700 43.40900
C  -11.65500 42.74700 43.47800
C  -13.20000 42.97700 43.73600
C  -13.77000 41.52400 44.00200
C  -12.52300 40.65700 43.81600
C  -13.40800 44.00500 44.87500
C  -15.05700 41.12400 43.16900
C  -15.78300 39.85900 43.62300
N  -10.45900 38.70800 42.69200
C  -11.59800 38.34400 43.23500
C  -11.69100 36.92600 43.24800
C  -10.50000 36.53300 42.66100
C  -9.78600 37.63700 42.34800
C  -12.87100 36.12600 43.60800
C  -9.78200 35.37200 42.23700
O  -10.01000 34.15200 42.33200
C  -8.53500 35.89200 41.55100
C  -7.32300 35.23400 42.18800
O  -7.06200 35.20500 43.34300
O  -6.71600 34.44800 41.25300
C  -5.63800 33.51300 41.77900
H  -5.86600 42.34400 40.54400
H  -11.26700 44.70800 43.16500
H  -13.44000 38.76100 44.18400
H  -5.88200 37.53800 41.12100
H  -5.57900 39.99100 39.49600
H  -3.89000 38.89000 41.41200
H  -4.75000 40.16000 42.29100
H  -3.83100 40.66100 40.93800
H  -6.14100 38.34400 38.27600
H  -7.47400 37.37700 38.71600
H  -6.11500 35.52600 38.41900
H  -5.06300 36.03500 39.67600
H  -6.67600 45.22600 39.70300
H  -5.54700 44.29300 40.83300
H  -6.10100 45.87200 41.28800
H  -10.08800 48.02200 43.08800
H  -10.30500 46.44900 43.85100
H  -11.15300 46.84100 42.27700
H  -13.70700 43.35100 42.84600
H  -13.92600 41.41900 45.07600
H  -12.47900 44.04300 45.44400
H  -14.26700 43.73200 45.48700
H  -13.46700 45.01900 44.47800
H  -14.79600 40.98400 42.12100
H  -15.82800 41.89000 43.24600
H  -15.40800 39.64800 44.62400
H  -15.73100 38.97400 42.98900
H  -16.82400 40.17100 43.71000
H  -13.50000 36.68200 44.30300
H  -12.65600 35.20100 44.14400
H  -13.34700 35.84800 42.66700
H  -8.54400 35.74400 40.47100
H  -5.92700 32.99300 42.69300
H  -4.67500 34.00200 41.92100
H  -5.36600 32.79000 41.01100

