158

Mg -0.35000 8.32800 25.92300
C  0.66900 10.12000 28.74200
C  -0.18700 5.53900 27.91300
C  -0.39000 6.47400 23.15100
C  0.21200 11.10700 24.07500
N  0.27700 7.92100 28.13600
C  0.47700 8.80200 29.08400
C  0.51800 8.12800 30.51900
C  0.48100 6.60200 30.17400
C  0.06000 6.65300 28.69800
C  1.75100 5.89500 30.51700
C  -0.70600 8.72400 31.40400
C  -0.26900 9.26800 32.77700
H  -0.83200 8.49100 33.96500
N  -0.42700 6.32200 25.61500
C  -0.46700 5.34900 26.57000
C  -0.59500 4.05100 25.92700
C  -0.53900 4.25000 24.55000
C  -0.40100 5.70000 24.36900
C  -0.81500 2.81000 26.73800
C  -0.76400 3.36500 23.42500
O  -0.83100 3.70700 22.28300
C  -0.84000 1.90400 23.67900
N  -0.19400 8.74500 23.91300
C  -0.26900 7.83100 22.96000
C  -0.45100 8.56500 21.52800
C  -0.39300 10.06300 21.80800
C  -0.10900 10.00700 23.32200
C  0.49700 8.14600 20.36200
C  -1.65600 10.82800 21.33400
C  -2.91200 10.99000 22.26400
N  0.17300 10.20200 26.27000
C  0.40600 11.23300 25.36600
C  0.67700 12.44400 26.08700
C  0.81900 12.03400 27.38400
C  0.52400 10.67900 27.47300
C  0.90500 13.74800 25.50500
C  1.14300 12.53600 28.71700
O  1.48600 13.64100 29.08700
C  0.90600 11.23300 29.63400
C  2.15100 11.14900 30.40500
O  3.28300 10.88200 30.03600
O  1.83100 11.58600 31.65600
C  2.96000 11.82600 32.56500
H  -0.12700 4.59500 28.45800
H  -0.33900 5.89000 22.23000
H  0.46400 11.90000 23.36700
H  1.45600 8.57000 30.85500
H  -0.35700 6.16200 30.71400
H  2.16500 6.36000 31.41200
H  2.47200 6.04200 29.71200
H  1.59100 4.83700 30.72100
H  -1.49300 7.99300 31.58500
H  -1.18000 9.54000 30.85900
H  -0.51000 10.32600 32.88100
H  0.79200 9.02400 32.81800
H  -1.78400 2.50200 26.34500
H  -1.03900 2.99200 27.78900
H  -0.01400 2.08400 26.59900
H  -1.64600 1.70900 24.38600
H  0.05900 1.49200 24.13800
H  -1.05600 1.32300 22.78200
H  -1.42000 8.21600 21.17000
H  0.50800 10.49600 21.37300
H  0.67900 8.87900 19.57600
H  0.09400 7.27100 19.85400
H  1.42000 7.89600 20.88500
H  -2.06800 10.27000 20.49300
H  -1.27800 11.82900 21.12400
H  -3.04100 12.05000 22.48300
H  -2.82300 10.46900 23.21700
H  -3.84900 10.68600 21.79600
H  1.33100 14.51600 26.14900
H  -0.06700 13.99500 25.07700
H  1.52400 13.58100 24.62400
H  -0.00300 11.32400 30.22900
H  3.48200 12.66400 32.10400
H  3.67100 11.00000 32.56600
H  2.75600 12.14000 33.58900
Mg 44.99700 4.76600 47.80200
C  43.03200 7.65300 46.96600
C  42.21300 2.85700 47.25100
C  46.93000 2.05000 47.82400
C  47.81100 6.91000 47.38800
N  42.94600 5.21500 47.12000
C  42.40000 6.42900 46.81300
C  40.90500 6.26700 46.52600
C  40.49100 4.82800 47.04800
C  41.96400 4.22500 47.23400
C  39.69400 4.84100 48.34600
C  40.53500 6.54400 45.00800
C  39.76000 7.79700 44.68200
H  39.98900 8.44600 43.37000
N  44.57800 2.72300 47.56400
C  43.40200 2.09100 47.38700
C  43.54600 0.62500 47.39300
C  44.93400 0.39800 47.59200
C  45.54100 1.72300 47.67100
C  42.35300 -0.26300 47.00200
C  45.60000 -0.92900 47.63700
O  44.97000 -1.91300 47.34100
C  47.10300 -1.09300 47.99300
N  47.03000 4.51100 47.40500
C  47.64100 3.33600 47.70500
C  49.18700 3.49200 47.86600
C  49.40200 4.93800 47.36600
C  47.98300 5.52200 47.39300
C  49.77100 3.20200 49.25500
C  50.04400 5.02700 45.93900
C  51.58800 5.44300 45.80400
N  45.34800 6.86000 47.52700
C  46.55100 7.56200 47.43900
C  46.18700 9.00600 47.49400
C  44.82800 9.10400 47.33600
C  44.37800 7.76200 47.28700
C  47.11300 10.08800 47.68200
C  43.75500 10.05400 47.22300
O  43.71800 11.30100 47.38600
C  42.49400 9.16800 46.89100
C  41.45800 9.36100 47.93400
O  41.30100 8.59200 48.89200
O  40.73500 10.50300 47.75000
C  39.80600 11.04500 48.77600
H  41.28600 2.29700 47.11100
H  47.67200 1.26300 47.97300
H  48.70700 7.53100 47.43900
H  40.43000 6.97200 47.20800
H  39.84400 4.37800 46.29500
H  39.38300 5.86700 48.54400
H  40.25900 4.34600 49.13600
H  38.75200 4.33400 48.14000
H  39.96700 5.66200 44.71100
H  41.46100 6.49300 44.43500
H  39.83200 8.44000 45.55900
H  38.71200 7.51500 44.78900
H  42.37200 -0.26900 45.91200
H  41.34300 0.12800 47.13100
H  42.42900 -1.28800 47.36500
H  47.65500 -0.81700 47.09500
H  47.30100 -2.16000 48.09200
H  47.24400 -0.59100 48.95000
H  49.63500 2.73600 47.22200
H  50.05300 5.56300 47.97700
H  50.12900 4.12700 49.70700
H  50.65300 2.56100 49.25400
H  48.96200 2.77000 49.84400
H  49.52100 5.81500 45.39600
H  50.18900 4.12400 45.34600
H  51.55100 6.38200 45.25300
H  52.20800 4.62200 45.44500
H  51.93000 5.60800 46.82600
H  46.51900 10.74200 48.32000
H  47.27700 10.65800 46.76700
H  48.09700 9.87500 48.10100
H  42.12000 9.50800 45.92500
H  38.81200 10.93300 48.34200
H  39.98100 12.09700 49.00100
H  39.87800 10.61900 49.77700

