158

Mg 35.85500 49.11200 25.40200
C  36.06600 46.87000 28.26100
C  35.05800 51.56800 27.47700
C  35.83000 50.92400 22.61700
C  36.93300 46.24300 23.43800
N  35.44100 49.12700 27.57200
C  35.68900 48.22400 28.55600
C  35.52700 48.85000 30.00400
C  34.87300 50.23400 29.61500
C  35.15400 50.35300 28.15300
C  33.42300 50.42000 29.92700
C  36.97900 49.00000 30.66000
C  37.14000 48.59000 32.09600
H  35.84200 48.42300 32.82700
N  35.53100 50.97900 25.06000
C  35.22500 51.87600 26.05400
C  35.13600 53.21600 25.47400
C  35.21000 52.98400 24.01800
C  35.58000 51.59900 23.88400
C  34.73700 54.44600 26.22400
C  34.93700 53.89500 22.87600
O  35.03600 53.64100 21.73700
C  34.37200 55.21700 23.18200
N  36.13600 48.63900 23.34300
C  36.08800 49.55700 22.39800
C  36.33000 48.98900 21.00500
C  36.99300 47.62200 21.34600
C  36.63600 47.42600 22.79600
C  35.08000 48.93000 20.18100
C  38.54300 47.58700 21.04500
C  39.19100 46.16600 20.96500
N  36.32700 46.98200 25.70400
C  36.79200 46.03200 24.81900
C  37.19700 44.85700 25.57800
C  36.93300 45.14500 26.93700
C  36.37900 46.44900 26.92900
C  37.83300 43.51100 25.11500
C  36.96400 44.57800 28.24600
O  37.19500 43.43800 28.65900
C  36.48300 45.76400 29.15600
C  35.35100 45.34600 30.06500
O  34.19000 45.13400 29.74900
O  35.82100 45.04600 31.35300
C  34.89800 44.44200 32.30600
H  34.82700 52.40600 28.13700
H  35.77300 51.50000 21.69100
H  37.25100 45.42900 22.78300
H  34.77700 48.27400 30.54600
H  35.35900 51.15400 29.94100
H  33.07800 49.60800 30.56700
H  32.74700 50.39600 29.07200
H  33.13000 51.37500 30.36200
H  37.12400 50.07500 30.56100
H  37.71500 48.37000 30.16100
H  37.63700 49.37900 32.66000
H  37.63900 47.62100 32.12100
H  33.65500 54.56000 26.28200
H  35.21800 55.35400 25.86000
H  34.96100 54.20600 27.26400
H  34.27600 55.85200 22.30100
H  35.02900 55.83200 23.79800
H  33.39400 55.02400 23.62300
H  37.07200 49.71400 20.67000
H  36.46300 46.82100 20.83000
H  34.22300 49.18500 20.80400
H  34.80600 47.89800 19.96200
H  35.04400 49.53800 19.27700
H  38.94400 48.16700 21.87600
H  38.92000 48.25500 20.27000
H  39.67700 45.83700 21.88400
H  39.87900 46.07200 20.12500
H  38.48200 45.34700 20.84000
H  38.02200 43.05300 26.08600
H  38.73200 43.65300 24.51500
H  37.16800 42.82000 24.59700
H  37.35500 46.06100 29.73800
H  34.32900 43.59000 31.93400
H  34.16500 45.13500 32.71800
H  35.42100 44.07700 33.18900
Mg -2.86300 34.87900 26.65300
C  -4.42800 32.87600 28.92900
C  -1.85400 37.02600 29.28400
C  -1.65500 37.04900 24.37400
C  -4.38800 32.99200 24.02600
N  -3.37200 35.06700 28.87900
C  -3.73700 33.94500 29.57100
C  -3.50700 34.16100 31.08600
C  -2.66900 35.46500 31.15100
C  -2.71700 35.95700 29.70900
C  -3.14700 36.54600 32.13700
C  -3.03400 32.97100 31.95100
C  -1.95400 33.12400 33.02100
H  -2.15900 32.28800 34.35200
N  -1.90000 36.71400 26.81800
C  -1.55600 37.39900 27.96300
C  -0.78200 38.57700 27.57400
C  -0.70500 38.55100 26.15500
C  -1.45700 37.40000 25.72000
C  -0.28300 39.59100 28.53600
C  -0.06700 39.55800 25.16100
O  -0.08300 39.52800 23.91600
C  0.94200 40.46800 25.69900
N  -3.25200 35.19100 24.40300
C  -2.46000 36.07900 23.74400
C  -2.68600 35.93600 22.20800
C  -3.33700 34.50400 22.11700
C  -3.73500 34.22000 23.60500
C  -3.68000 36.92700 21.65100
C  -2.37600 33.44600 21.47300
C  -0.85800 33.52500 21.76000
N  -4.26700 33.29800 26.51900
C  -4.72100 32.57500 25.37900
C  -5.40000 31.41500 25.87200
C  -5.41700 31.48100 27.25800
C  -4.61500 32.64400 27.56700
C  -6.12800 30.41000 25.03000
C  -5.81000 30.86900 28.53500
O  -6.44900 29.86600 28.79400
C  -5.29400 31.83700 29.66900
C  -6.41700 32.36400 30.45900
O  -7.30800 33.05300 30.02300
O  -6.30700 31.93400 31.79800
C  -7.28000 32.08800 32.87800
H  -1.29300 37.57400 30.04400
H  -1.34600 37.75200 23.59700
H  -4.62600 32.26900 23.24300
H  -4.48800 34.36900 31.51300
H  -1.61500 35.23600 31.30800
H  -2.56800 37.46900 32.11900
H  -3.04800 36.05800 33.10600
H  -4.18300 36.78100 31.89200
H  -2.58500 32.24900 31.26800
H  -3.92500 32.53500 32.40300
H  -1.98900 34.14200 33.40900
H  -0.98500 32.98600 32.54200
H  0.80200 39.69700 28.56400
H  -0.57600 39.42300 29.57200
H  -0.67700 40.54900 28.19500
H  0.35600 41.18300 26.27700
H  1.38900 40.95400 24.83200
H  1.59700 39.80000 26.25900
H  -1.75300 36.10100 21.66900
H  -4.26500 34.50400 21.54500
H  -4.50500 36.64200 20.99700
H  -3.06400 37.61900 21.07600
H  -4.12900 37.51300 22.45300
H  -2.43400 33.57000 20.39200
H  -2.76900 32.47200 21.76400
H  -0.76700 34.06600 22.70200
H  -0.40600 34.19500 21.02800
H  -0.35100 32.57000 21.62300
H  -6.35600 29.62500 25.75100
H  -5.42700 29.92300 24.35200
H  -6.96100 30.82400 24.46300
H  -4.64500 31.33200 30.38300
H  -6.80900 32.64500 33.68700
H  -7.70500 31.14000 33.20900
H  -7.99400 32.85100 32.56800

