158

Mg 41.06900 9.57600 29.31400
C  42.93500 10.84300 31.88400
C  38.91400 8.32900 31.62500
C  39.33100 8.36300 26.71000
C  43.50700 10.85100 27.04300
N  41.09600 9.37200 31.55600
C  41.81400 10.22900 32.40500
C  41.15700 10.21300 33.78200
C  40.04600 9.15000 33.69400
C  40.03900 8.84900 32.22900
C  40.40100 7.88400 34.60600
C  40.71500 11.61700 34.35400
C  40.07400 11.70500 35.65200
H  40.58200 12.68300 36.73300
N  39.43500 8.46100 29.17300
C  38.60900 8.03200 30.27500
C  37.42500 7.33800 29.69500
C  37.57100 7.35100 28.28100
C  38.79500 8.07900 27.98700
C  36.27500 6.74200 30.49400
C  36.60600 6.76600 27.19900
O  36.75000 6.81100 25.97700
C  35.40100 6.03100 27.64200
N  41.37100 9.60100 27.20000
C  40.44500 9.06300 26.34700
C  40.88600 9.29300 24.91400
C  42.15800 10.06200 25.01800
C  42.36500 10.25300 26.52300
C  41.05000 7.93300 24.18500
C  42.11600 11.45000 24.32500
C  41.31700 12.56600 24.98700
N  42.79900 10.65900 29.38100
C  43.71700 11.01500 28.46700
C  44.80600 11.77000 29.02600
C  44.47000 11.72300 30.33100
C  43.30500 11.02300 30.54500
C  45.85400 12.47100 28.35200
C  44.89700 12.17900 31.64000
O  45.87500 12.86000 31.90100
C  43.83200 11.76100 32.63700
C  44.32800 11.10500 33.93500
O  44.92900 10.05600 33.95900
O  44.07700 11.88100 35.07000
C  44.49600 11.44900 36.42200
H  38.15000 8.00800 32.33600
H  38.85700 7.98700 25.80100
H  44.15500 11.23300 26.25200
H  41.98000 9.99100 34.46000
H  39.06800 9.53600 33.98000
H  40.26300 7.01500 33.96400
H  39.71900 7.77100 35.44900
H  41.44600 7.87000 34.91600
H  39.98000 12.00800 33.65100
H  41.60900 12.23800 34.41100
H  40.12800 10.69400 36.05700
H  39.02200 11.84000 35.39900
H  35.26400 7.12900 30.36800
H  36.56900 6.91400 31.52900
H  36.18200 5.67100 30.31300
H  35.71300 5.11700 28.14600
H  34.85500 5.77200 26.73500
H  34.69600 6.62300 28.22700
H  40.20000 9.89900 24.32200
H  43.05400 9.59300 24.61200
H  40.62000 7.07700 24.70600
H  42.12200 7.73300 24.17400
H  40.62100 7.91500 23.18400
H  41.71700 11.43900 23.31100
H  43.18300 11.64800 24.22400
H  42.03600 13.24200 25.44900
H  40.55600 12.19500 25.67300
H  40.75200 13.11100 24.23200
H  45.54700 12.67300 27.32600
H  46.84600 12.05400 28.52700
H  45.97700 13.40000 28.90900
H  43.15000 12.59400 32.81100
H  44.27800 10.45000 36.80100
H  43.99400 12.16800 37.06900
H  45.57700 11.54600 36.51800
Mg -4.40900 25.29700 26.06800
C  -2.83500 26.51900 28.96900
C  -6.21600 23.23900 27.82000
C  -5.43700 23.75200 23.16000
C  -2.09200 27.14500 24.10700
N  -4.43700 24.91400 28.17500
C  -3.81000 25.59100 29.18500
C  -4.43700 25.16900 30.50500
C  -5.32900 23.96700 30.12100
C  -5.30100 24.07600 28.59400
C  -4.82400 22.62500 30.72000
C  -5.30900 26.36000 31.11600
C  -5.32500 26.51000 32.64300
H  -4.74000 25.32400 33.46100
N  -5.89700 23.93600 25.59200
C  -6.55100 23.15200 26.47400
C  -7.48900 22.21700 25.80400
C  -7.25200 22.48200 24.37900
C  -6.14000 23.41100 24.29400
C  -8.58100 21.38400 26.44200
C  -7.91200 21.88500 23.14000
O  -7.54800 22.17400 21.99400
C  -9.09600 20.92900 23.28700
N  -3.81100 25.38800 23.94900
C  -4.39100 24.67000 22.97300
C  -3.70200 24.90400 21.58600
C  -2.78800 26.12200 21.93000
C  -2.93200 26.28200 23.42400
C  -2.98800 23.70700 20.93500
C  -3.07000 27.50300 21.14200
C  -1.77300 27.91400 20.31900
N  -2.76300 26.62300 26.46100
C  -2.00300 27.31000 25.57600
C  -0.98200 28.07600 26.28800
C  -1.26800 27.84900 27.65500
C  -2.40400 26.92800 27.67400
C  0.08300 28.91000 25.65600
C  -0.91300 28.19400 28.99900
O  -0.08700 28.99200 29.42400
C  -1.95700 27.40100 29.92600
C  -1.12500 26.62600 30.85100
O  -0.80600 25.48200 30.66100
O  -0.84900 27.27600 32.02400
C  -0.16700 26.53200 33.13200
H  -6.76100 22.53900 28.45700
H  -5.45200 23.14000 22.25600
H  -1.33600 27.64800 23.50100
H  -3.63700 24.87300 31.18300
H  -6.37500 24.16300 30.35700
H  -3.78400 22.55100 31.03500
H  -4.90200 21.84900 29.95800
H  -5.43200 22.40900 31.59900
H  -6.32100 26.44000 30.72100
H  -4.82800 27.28500 30.79800
H  -6.38700 26.58400 32.87700
H  -4.70100 27.35200 32.94500
H  -8.59800 21.62800 27.50500
H  -8.25900 20.36900 26.21200
H  -9.60400 21.60900 26.14000
H  -8.91300 20.20100 24.07800
H  -9.18600 20.51200 22.28300
H  -9.99400 21.51500 23.48200
H  -4.56500 25.31100 21.05900
H  -1.79500 25.69800 21.78000
H  -3.05700 22.87100 21.63100
H  -1.98600 24.04300 20.67000
H  -3.47500 23.57200 19.96900
H  -3.44000 28.27700 21.81400
H  -3.78700 27.32200 20.34000
H  -2.24400 27.95100 19.33600
H  -1.08400 27.07000 20.28500
H  -1.28300 28.77800 20.76800
H  -0.23600 29.51900 24.81000
H  1.00000 28.32800 25.56500
H  0.29400 29.62200 26.45300
H  -2.66200 28.04800 30.44700
H  0.90900 26.69400 33.19700
H  -0.30400 25.45100 33.09800
H  -0.62800 26.86300 34.06200

