158

Mg 17.12700 -2.60700 27.30200
C  16.03100 -0.51500 29.91000
C  18.83400 -4.59000 29.48400
C  18.52200 -4.02100 24.62900
C  15.43000 -0.38400 25.07900
N  17.37700 -2.53800 29.52700
C  16.85500 -1.56800 30.34500
C  17.43500 -1.87300 31.76800
C  18.22900 -3.19800 31.65200
C  18.17600 -3.47200 30.10500
C  19.66300 -3.09800 32.23600
C  16.28200 -1.96100 32.79600
C  16.44100 -1.09600 34.06200
H  17.78500 -0.43200 34.45800
N  18.39200 -4.12000 27.03800
C  18.91400 -4.96500 28.03700
C  19.49600 -6.19500 27.48500
C  19.44300 -5.99800 26.08400
C  18.82300 -4.62900 25.86400
C  19.92900 -7.35300 28.37400
C  19.85700 -6.89400 24.96700
O  19.79700 -6.63500 23.76800
C  20.46000 -8.27000 25.32800
N  17.06600 -2.15800 25.16200
C  17.74000 -2.89200 24.25200
C  17.62500 -2.33500 22.80400
C  16.51800 -1.24900 22.98800
C  16.38500 -1.22100 24.46500
C  18.93600 -1.70600 22.31300
C  15.19700 -1.39800 22.15400
C  14.64000 -0.13400 21.34600
N  15.88500 -0.94100 27.36400
C  15.27300 -0.12800 26.43300
C  14.51300 0.93400 26.97500
C  14.83300 0.89400 28.30400
C  15.57400 -0.30300 28.53200
C  13.68500 1.97500 26.25700
C  14.68500 1.53800 29.54500
O  14.15700 2.59200 29.90900
C  15.49800 0.71000 30.62000
C  16.55400 1.57700 31.26800
O  17.75200 1.59300 30.95100
O  16.02600 2.28900 32.30400
C  16.87600 3.18600 33.14700
H  19.35600 -5.21400 30.21200
H  19.14600 -4.46800 23.85300
H  14.80600 0.31800 24.52200
H  18.09900 -1.03900 31.99500
H  17.82400 -3.98300 32.29100
H  19.76600 -2.43100 33.09200
H  20.40300 -2.78000 31.50100
H  19.92700 -4.07300 32.64700
H  16.11300 -2.96700 33.18000
H  15.37700 -1.67300 32.26100
H  16.20600 -1.77600 34.88100
H  15.68400 -0.32100 34.18700
H  19.83800 -8.34000 27.91900
H  19.33400 -7.31900 29.28600
H  20.96500 -7.16100 28.65300
H  21.39400 -8.09900 25.86300
H  20.75500 -8.80100 24.42300
H  19.71800 -8.90700 25.80800
H  17.27500 -3.19900 22.23900
H  16.87600 -0.28200 22.63500
H  19.02200 -2.15500 21.32300
H  19.71400 -1.94200 23.03900
H  19.01500 -0.64500 22.07600
H  14.40400 -1.85900 22.74200
H  15.45200 -2.13100 21.38800
H  13.59700 0.08100 21.57700
H  14.81000 -0.27500 20.27800
H  15.17700 0.75800 21.66900
H  13.06600 1.52700 25.48000
H  14.41100 2.59100 25.72600
H  13.12700 2.56200 26.98600
H  14.80100 0.36100 31.38200
H  16.78100 2.94800 34.20600
H  16.32000 4.12200 33.09700
H  17.94100 3.28400 32.93700
Mg 43.24600 3.94700 46.79500
C  41.54400 7.02400 46.47400
C  40.22100 2.32400 46.27200
C  44.84100 0.98500 46.74000
C  46.25900 5.72800 46.79700
N  41.16000 4.63700 46.26100
C  40.70400 5.89400 46.31600
C  39.21000 5.95600 46.35100
C  38.78200 4.43300 46.35000
C  40.11000 3.73200 46.32500
C  37.80800 3.86400 47.44300
C  38.57400 6.94700 45.30600
C  37.26500 6.59400 44.58000
H  37.25300 6.22100 43.05100
N  42.64700 1.86800 46.50400
C  41.36300 1.46100 46.36600
C  41.28100 -0.00600 46.37800
C  42.64200 -0.47300 46.46700
C  43.43600 0.77200 46.64500
C  39.98100 -0.84100 46.03900
C  43.16600 -1.81700 46.31900
O  42.38400 -2.74800 46.28400
C  44.69900 -2.07000 46.20000
N  45.21600 3.50300 46.63800
C  45.64200 2.21000 46.83100
C  47.12700 2.11500 46.75300
C  47.63400 3.56800 46.70900
C  46.28400 4.29900 46.71100
C  47.76500 1.26700 47.87500
C  48.39700 3.95600 45.39700
C  49.94000 4.20800 45.53700
N  43.84900 6.00700 46.68500
C  45.12100 6.56600 46.75700
C  44.98600 7.99500 46.76400
C  43.60500 8.24700 46.73800
C  42.94700 6.99900 46.60000
C  46.16700 8.94100 46.88400
C  42.56200 9.27000 46.74300
O  42.83300 10.47600 46.82200
C  41.16300 8.53900 46.58300
C  40.42500 8.73000 47.87500
O  40.40600 8.00400 48.85500
O  39.48400 9.67200 47.71400
C  38.43800 9.88900 48.74500
H  39.26300 1.81700 46.13700
H  45.46900 0.10900 46.91500
H  47.18300 6.30500 46.86600
H  39.06600 6.39900 47.33700
H  38.31000 4.23000 45.38800
H  37.20500 3.06200 47.01600
H  37.23700 4.70700 47.83200
H  38.30800 3.31900 48.24300
H  39.33000 7.13300 44.54400
H  38.49200 7.90800 45.81300
H  36.77000 7.56500 44.54700
H  36.60500 5.94000 45.15000
H  39.02800 -0.33200 46.18600
H  40.15500 -1.58600 46.81600
H  39.97500 -1.33900 45.07000
H  45.17700 -1.86600 47.15800
H  45.02700 -1.37000 45.43200
H  44.93500 -3.02800 45.73700
H  47.41200 1.63900 45.81500
H  48.27000 3.68900 47.58600
H  47.99500 0.29500 47.43900
H  47.02000 1.06200 48.64300
H  48.69900 1.65200 48.28600
H  48.00100 4.76400 44.78200
H  48.46000 3.08200 44.74800
H  50.08300 5.20600 45.12200
H  50.52600 3.56900 44.87700
H  50.32700 4.10900 46.55100
H  46.83600 8.83100 46.03100
H  46.78200 8.89000 47.78300
H  45.74000 9.93500 47.02000
H  40.66400 9.05300 45.76200
H  37.63700 9.15500 48.84100
H  37.96500 10.84900 48.53800
H  38.97200 10.10200 49.67100

