158

Mg 0.51500 43.35000 25.29500
C  2.55400 42.89200 28.25800
C  -2.25100 42.31800 27.20600
C  -1.25300 43.32200 22.51800
C  3.44700 43.91400 23.49100
N  0.23100 42.51200 27.52300
C  1.21600 42.57700 28.49200
C  0.47100 42.13700 29.75900
C  -0.96700 41.94800 29.45400
C  -1.01300 42.25000 28.03600
C  -1.47100 40.47600 29.71700
C  0.81300 43.14700 30.88600
C  1.32700 42.55100 32.26400
H  0.58000 41.30600 32.75600
N  -1.50400 43.01500 24.92200
C  -2.46500 42.57000 25.80800
C  -3.71500 42.44700 25.03500
C  -3.42200 42.79600 23.65100
C  -2.02300 43.01000 23.65900
C  -5.04400 42.12600 25.72000
C  -4.39800 42.90500 22.50800
O  -4.18100 43.29300 21.33600
C  -5.78200 42.47600 22.68800
N  1.05800 43.47700 23.27000
C  0.05000 43.59600 22.35500
C  0.55100 44.16000 21.00900
C  2.07400 44.51800 21.31400
C  2.21500 43.96000 22.77200
C  0.36500 43.09300 19.87800
C  2.55000 46.02500 21.41400
C  1.80100 47.05900 22.26700
N  2.56100 43.52600 25.71900
C  3.62400 43.69000 24.86300
C  4.86700 43.64100 25.61900
C  4.45800 43.35000 26.93700
C  3.09100 43.26100 26.94900
C  6.27500 43.64800 25.10900
C  5.01400 43.01400 28.20600
O  6.11600 42.86000 28.66000
C  3.75000 42.72800 29.19500
C  3.96000 41.46500 29.95700
O  3.49400 40.35000 29.63100
O  4.80700 41.58800 31.03100
C  4.82600 40.53800 31.97900
H  -3.17900 42.13100 27.75100
H  -1.81200 43.23900 21.58300
H  4.37100 44.27500 23.03600
H  0.80600 41.13200 30.01700
H  -1.53700 42.63600 30.07700
H  -0.83500 39.84400 30.33700
H  -1.49600 39.93100 28.77300
H  -2.46700 40.57100 30.14700
H  -0.06500 43.77600 31.03500
H  1.55100 43.88400 30.57000
H  1.31700 43.33000 33.02700
H  2.32600 42.16200 32.07200
H  -4.87600 41.68000 26.70000
H  -5.77700 41.48000 25.23700
H  -5.58500 43.07000 25.79100
H  -6.45200 42.65700 21.84800
H  -6.09000 43.18000 23.46100
H  -5.77500 41.46300 23.09100
H  -0.05200 45.02500 20.73100
H  2.73100 43.97600 20.63500
H  0.43900 42.05000 20.18600
H  1.13100 43.27300 19.12500
H  -0.62600 43.32900 19.48900
H  2.19100 46.32400 20.42900
H  3.63300 46.14500 21.46000
H  2.47200 47.35100 23.07500
H  0.81900 46.73300 22.60900
H  1.43000 47.91500 21.70400
H  6.97200 43.51000 25.93600
H  6.46400 44.56500 24.55100
H  6.38200 42.74000 24.51700
H  3.67600 43.50300 29.95800
H  5.38700 40.82200 32.86900
H  5.30500 39.63900 31.59100
H  3.91600 40.13100 32.42000
Mg -6.28800 24.81000 26.59600
C  -4.56600 26.40700 29.22600
C  -7.29700 22.51300 28.80000
C  -7.55800 22.96100 24.02500
C  -4.25300 26.69800 24.35300
N  -5.96800 24.53800 28.74200
C  -5.37800 25.35700 29.65500
C  -5.77100 25.03100 31.09700
C  -6.32300 23.60500 30.93600
C  -6.53200 23.50300 29.39000
C  -5.40800 22.43000 31.45900
C  -6.72800 26.11600 31.73300
C  -7.44000 25.87900 33.12500
H  -7.14000 24.57800 33.97100
N  -7.56000 23.12500 26.43000
C  -7.84200 22.29700 27.52000
C  -8.62900 21.21300 27.00300
C  -8.71600 21.35100 25.56900
C  -7.96600 22.57200 25.29600
C  -9.19700 20.21300 27.92300
C  -9.60100 20.58100 24.61500
O  -9.62800 20.81800 23.45400
C  -10.52200 19.40600 25.19600
N  -5.95400 24.89800 24.53200
C  -6.70200 24.06500 23.63300
C  -6.24900 24.29900 22.15700
C  -5.44700 25.63000 22.32600
C  -5.12800 25.71600 23.83600
C  -5.47700 23.13000 21.43800
C  -6.37000 26.91800 22.00200
C  -6.83700 27.09500 20.55000
N  -4.76600 26.28900 26.68900
C  -4.05300 26.97300 25.69500
C  -3.09000 27.91800 26.30000
C  -3.36300 27.79400 27.72400
C  -4.32700 26.77000 27.88500
C  -2.00000 28.82400 25.67800
C  -2.98100 28.29900 29.00700
O  -2.27300 29.22500 29.40500
C  -3.81200 27.41800 30.02600
C  -2.90700 26.78100 31.07200
O  -1.85700 26.17900 30.88300
O  -3.34200 27.10400 32.30800
C  -2.45500 26.81500 33.40900
H  -7.60900 21.79100 29.55700
H  -7.92000 22.40900 23.15500
H  -3.69500 27.39600 23.72500
H  -4.85200 24.93700 31.67600
H  -7.30400 23.45600 31.38800
H  -4.72900 22.73700 32.25400
H  -4.75200 22.26000 30.60500
H  -5.91700 21.50700 31.73900
H  -7.46100 26.26800 30.94100
H  -6.22900 27.08500 31.75900
H  -8.49900 25.87000 32.86500
H  -7.21500 26.72900 33.77000
H  -10.26600 20.39400 28.03400
H  -8.79500 20.24600 28.93600
H  -8.82300 19.27400 27.51600
H  -9.92200 18.62800 25.66900
H  -11.23300 19.22400 24.39100
H  -11.10900 20.02500 25.87300
H  -7.11700 24.46000 21.51800
H  -4.55400 25.58500 21.70400
H  -6.19500 22.84000 20.67100
H  -5.31400 22.38800 22.22000
H  -4.52700 23.49600 21.04900
H  -5.82700 27.82900 22.25500
H  -7.25500 26.98900 22.63500
H  -6.41400 28.02500 20.17000
H  -7.92400 27.11200 20.46600
H  -6.59000 26.20500 19.97100
H  -2.39200 29.39300 24.83500
H  -1.26800 28.06600 25.40000
H  -1.44400 29.48100 26.34700
H  -4.51200 27.98700 30.63700
H  -1.46800 27.26700 33.30500
H  -2.51600 25.74500 33.60700
H  -2.84300 27.34700 34.27700

