158

Mg 45.86700 3.98400 48.09700
C  44.57900 7.12300 47.24300
C  42.72200 2.65300 47.36000
C  47.12000 0.89700 48.45800
C  49.11900 5.30800 48.40200
N  43.93400 4.81500 47.35900
C  43.66200 6.15300 47.10600
C  42.21800 6.37000 46.62500
C  41.58100 5.01800 46.86800
C  42.83700 4.09600 47.15800
C  40.53600 4.97700 47.97000
C  42.12900 6.78700 45.12800
C  40.87800 7.77800 44.86800
H  40.05800 7.59700 43.61800
N  45.07500 2.10300 47.84600
C  43.77000 1.70700 47.58500
C  43.67500 0.29200 47.56200
C  44.95600 -0.20300 47.74100
C  45.79300 0.99300 48.05100
C  42.40700 -0.44600 47.13400
C  45.34500 -1.61200 47.58300
O  44.52200 -2.42100 47.22900
C  46.74700 -2.03500 47.60600
N  47.85100 3.24100 48.59500
C  48.08400 1.88900 48.73400
C  49.60900 1.68400 49.20300
C  50.24200 3.06600 48.91900
C  49.06700 3.95700 48.57700
C  49.76000 1.11100 50.64700
C  51.44000 3.12000 47.92400
C  52.81000 2.50900 48.41000
N  46.67200 5.81300 47.95800
C  48.05600 6.24300 48.11000
C  48.09100 7.68100 47.79700
C  46.75000 8.08600 47.55200
C  45.91000 6.90100 47.66900
C  49.41500 8.48600 47.81100
C  45.92000 9.27700 47.28700
O  46.17800 10.45400 47.22800
C  44.46800 8.65400 46.99100
C  43.48700 9.24700 47.91600
O  43.11600 8.78000 48.99600
O  42.90400 10.30000 47.30700
C  41.67500 10.76700 47.98500
H  41.70800 2.25600 47.28000
H  47.43600 -0.08100 48.82800
H  50.11200 5.73500 48.55700
H  41.74200 7.17200 47.18900
H  41.07700 4.55700 46.01900
H  40.27000 6.00100 48.23500
H  40.78800 4.38300 48.84900
H  39.70900 4.48900 47.45600
H  42.04300 5.88500 44.52300
H  43.05000 7.30800 44.86700
H  41.22300 8.81100 44.90300
H  40.22600 7.61700 45.72700
H  42.51000 -0.75300 46.09300
H  41.56000 0.24000 47.13400
H  42.09700 -1.23700 47.81600
H  46.76700 -3.08400 47.30900
H  47.03600 -2.13700 48.65200
H  47.43700 -1.46700 46.98200
H  50.00300 0.87700 48.58600
H  50.57400 3.36700 49.91300
H  50.00800 0.05500 50.54200
H  48.87900 1.13100 51.28900
H  50.61600 1.64800 51.05500
H  51.65200 4.17700 47.76200
H  51.21400 2.54000 47.02900
H  53.01100 1.68600 47.72500
H  52.67100 2.01200 49.37000
H  53.65600 3.18800 48.52300
H  49.72800 8.57300 48.85100
H  49.17800 9.46500 47.39500
H  50.20000 8.08900 47.16700
H  44.34200 8.90900 45.93900
H  41.20400 11.28200 47.14800
H  41.85000 11.46700 48.80200
H  40.96700 9.98700 48.26700
Mg 26.86600 49.31100 26.42800
C  24.80500 50.08600 29.03500
C  29.29400 48.45600 28.76500
C  29.24100 49.20100 23.91000
C  24.59300 50.36600 24.12400
N  27.00200 49.33700 28.71100
C  26.03700 49.61400 29.52700
C  26.27000 49.36700 30.95400
C  27.74400 48.73600 30.83800
C  28.04000 48.84000 29.33000
C  28.87900 49.47100 31.71600
C  25.18700 48.51600 31.76000
C  25.62500 47.92700 33.09700
H  25.77700 48.89100 34.27400
N  28.92900 48.84500 26.38300
C  29.72200 48.40400 27.40900
C  31.06700 48.03100 26.84800
C  31.03700 48.24000 25.42600
C  29.69400 48.82000 25.18100
C  32.22400 47.59200 27.70800
C  32.11600 47.95300 24.43700
O  31.96700 48.06800 23.23200
C  33.40800 47.30900 24.78200
N  26.86800 49.69200 24.32900
C  27.92200 49.50200 23.47300
C  27.52300 49.66500 21.98500
C  26.02700 49.70600 22.06100
C  25.76500 49.90000 23.56700
C  28.16700 50.89200 21.21200
C  25.23700 48.54300 21.58100
C  23.73600 48.55800 21.38600
N  25.08100 50.14000 26.50400
C  24.26400 50.61700 25.49200
C  23.11800 51.16900 26.07800
C  23.25700 50.91700 27.48600
C  24.50200 50.36200 27.66500
C  21.94200 51.82200 25.40800
C  22.61800 51.06300 28.74000
O  21.49100 51.56800 28.87500
C  23.54300 50.53300 29.84100
C  23.88900 51.54600 30.82900
O  24.83900 52.30600 30.80200
O  22.93700 51.60500 31.79700
C  23.29300 52.56600 32.94900
H  30.05700 47.98100 29.38500
H  29.94900 49.09200 23.08700
H  23.79400 50.60000 23.41800
H  26.17900 50.27300 31.55300
H  27.64000 47.67400 31.05800
H  29.58600 48.81100 32.21900
H  28.49700 50.07400 32.54000
H  29.47500 50.16000 31.11800
H  24.83900 47.66900 31.17000
H  24.31200 49.12000 32.00100
H  26.54900 47.34900 33.09000
H  24.88900 47.22000 33.47900
H  32.19400 46.50300 27.72200
H  32.18600 47.99900 28.71800
H  33.12700 47.98800 27.24400
H  34.00700 48.11700 25.20400
H  33.99000 46.94300 23.93600
H  33.28200 46.44700 25.43600
H  27.84100 48.72400 21.53600
H  25.58800 50.58300 21.58500
H  29.01800 51.26600 21.78100
H  27.41400 51.64500 20.97800
H  28.80000 50.52000 20.40600
H  25.52100 47.69000 22.19800
H  25.58500 48.23600 20.59500
H  23.29800 49.55000 21.49300
H  23.33300 47.95700 22.20200
H  23.47800 48.11700 20.42300
H  21.91400 52.81300 25.86100
H  20.99100 51.30300 25.28900
H  22.17000 52.01700 24.36000
H  23.08000 49.66800 30.31600
H  23.10200 53.58200 32.60200
H  24.31000 52.46500 33.32700
H  22.51400 52.52000 33.71000

