158

Mg 17.17800 -1.39900 27.99700
C  15.99200 0.25600 30.82300
C  19.61100 -2.97300 29.95900
C  18.62700 -2.66800 25.22600
C  14.99500 0.49300 26.03700
N  17.75400 -1.28700 30.11700
C  17.01900 -0.66600 31.11800
C  17.51100 -0.95600 32.56400
C  18.66500 -2.02000 32.24100
C  18.75800 -2.12300 30.66300
C  20.02600 -1.69500 32.88100
C  16.34900 -1.46700 33.51900
C  16.50500 -1.35200 35.05400
H  17.69300 -0.61200 35.61200
N  18.71400 -2.79000 27.67700
C  19.63200 -3.25100 28.59600
C  20.41000 -4.28800 27.90900
C  20.10700 -4.25900 26.53000
C  19.12900 -3.20500 26.39500
C  21.29100 -5.15100 28.67200
C  20.58100 -5.13600 25.39400
O  20.06800 -5.07100 24.33400
C  21.71400 -6.08700 25.57400
N  16.78800 -1.19000 25.89100
C  17.51600 -1.80300 24.98200
C  17.17000 -1.33600 23.65500
C  15.92100 -0.49700 23.88000
C  15.79100 -0.45600 25.36100
C  18.39600 -0.63900 22.93300
C  14.62900 -1.05300 23.15100
C  13.95300 -0.15800 22.13900
N  15.95200 0.18700 28.31000
C  15.03900 0.81200 27.40000
C  14.31500 1.82900 28.07400
C  14.65400 1.59900 29.38400
C  15.66600 0.63700 29.53100
C  13.41400 2.74300 27.47300
C  14.30000 2.10100 30.64600
O  13.52700 2.99300 30.96700
C  15.24400 1.26000 31.67900
C  16.12100 2.25000 32.38000
O  17.08600 2.83700 31.85700
O  15.67700 2.41500 33.73100
C  16.38400 3.45800 34.50500
H  20.20700 -3.59800 30.62800
H  19.08500 -3.07100 24.32000
H  14.25700 1.12800 25.54200
H  17.98200 -0.04500 32.93600
H  18.46800 -3.01800 32.63400
H  20.79500 -1.69100 32.10800
H  20.22900 -2.45300 33.63700
H  20.08000 -0.63900 33.14600
H  16.12800 -2.52600 33.38000
H  15.43700 -0.99200 33.15700
H  16.40400 -2.29700 35.58800
H  15.65200 -0.76100 35.38700
H  22.21700 -4.64200 28.93900
H  21.38000 -6.09800 28.14000
H  20.73300 -5.47200 29.55200
H  21.99100 -6.42700 24.57600
H  21.35000 -6.92800 26.16400
H  22.47600 -5.52200 26.11000
H  16.91600 -2.16000 22.98900
H  16.15500 0.50600 23.52300
H  18.19900 0.36900 22.56800
H  18.67700 -1.21400 22.05000
H  19.26200 -0.65400 23.59500
H  13.87600 -1.35300 23.87900
H  14.98500 -1.89500 22.55800
H  14.32400 0.86400 22.22500
H  12.86700 -0.21600 22.21200
H  14.20000 -0.46500 21.12300
H  12.67200 2.07400 27.03800
H  13.92800 3.20700 26.63100
H  12.85300 3.41000 28.12900
H  14.63100 0.71000 32.39300
H  17.36600 3.70200 34.09900
H  16.66500 3.03300 35.46900
H  15.76800 4.34100 34.67300
Mg 47.11300 16.55500 28.06900
C  45.08800 16.44400 30.90800
C  49.50900 18.30700 30.13700
C  48.89000 17.35900 25.28700
C  44.48300 15.36900 26.18700
N  47.27500 17.29000 30.29700
C  46.29700 17.04700 31.24100
C  46.78500 17.43300 32.64300
C  47.99100 18.38800 32.24700
C  48.27600 18.02600 30.77100
C  47.92100 19.93300 32.55600
C  47.15900 16.11400 33.39000
C  46.82500 16.26900 34.96800
H  46.82000 17.64700 35.63900
N  48.95900 17.46300 27.80600
C  49.85300 18.00000 28.80000
C  51.05200 18.41600 28.12500
C  50.93600 18.15900 26.74100
C  49.54100 17.67400 26.53600
C  52.25100 19.14100 28.85400
C  51.98100 18.28700 25.61600
O  51.67700 18.14400 24.41200
C  53.36500 18.60600 25.91700
N  46.85000 16.27200 26.04300
C  47.71300 16.66200 24.99300
C  47.07900 16.34900 23.64500
C  45.81000 15.48400 24.03000
C  45.63400 15.68400 25.52700
C  46.81400 17.62400 22.84400
C  45.96300 13.93100 23.78100
C  45.56600 13.59700 22.34700
N  45.22400 15.94200 28.42300
C  44.26000 15.39400 27.61800
C  43.11000 14.91800 28.36700
C  43.40300 15.34900 29.65800
C  44.65900 15.96800 29.65900
C  41.85900 14.18200 27.96600
C  42.83700 15.53100 30.94800
O  41.70800 15.25200 31.27600
C  44.03000 16.12600 31.91800
C  43.47900 17.22100 32.66300
O  43.43500 18.30900 32.15800
O  42.89200 16.86400 33.94100
C  42.36400 17.94800 34.73100
H  50.25800 18.82000 30.74500
H  49.26600 17.85200 24.38800
H  43.85400 14.66000 25.64500
H  46.00100 17.93600 33.21000
H  48.87200 17.97400 32.73700
H  47.87100 20.45300 31.60000
H  48.78100 20.33500 33.09100
H  47.08400 20.27300 33.16700
H  48.15800 15.71500 33.21700
H  46.47800 15.29400 33.16300
H  47.67300 15.72500 35.38600
H  45.92000 15.68900 35.14900
H  52.77300 18.49600 29.56100
H  51.82900 19.89100 29.52400
H  52.94200 19.56800 28.12800
H  53.57100 19.67500 25.88200
H  54.01300 18.03100 25.25500
H  53.69600 18.19200 26.86900
H  47.75900 15.64700 23.16100
H  44.93700 15.93200 23.55600
H  47.60900 17.93000 22.16400
H  46.85300 18.46000 23.54300
H  45.88500 17.62200 22.27500
H  45.41700 13.30000 24.48300
H  46.99100 13.63900 23.99400
H  46.43200 13.67000 21.69000
H  44.73600 14.25900 22.09700
H  45.19900 12.57700 22.45500
H  41.16500 14.05600 28.79700
H  42.14800 13.26200 27.45700
H  41.27800 14.84600 27.32800
H  44.32000 15.32200 32.59400
H  42.68000 18.90400 34.31300
H  42.61600 17.90100 35.79100
H  41.28200 18.01900 34.62300

