158

Mg 7.43300 52.16300 40.92300
C  6.99200 48.64900 40.81800
C  10.81300 51.58000 40.54100
C  7.83000 55.43700 40.39000
C  4.01900 52.45200 41.16300
N  8.74400 50.28600 40.51400
C  8.29300 49.00000 40.50400
C  9.49900 48.10200 40.26400
C  10.71600 49.07800 40.55600
C  10.05100 50.40300 40.47200
C  11.53300 48.85000 41.85000
C  9.56800 47.45400 38.92100
C  9.39100 48.37100 37.64600
H  8.24700 48.28000 36.62600
N  9.07800 53.35900 40.36900
C  10.38500 52.93900 40.38400
C  11.25100 54.13300 40.26600
C  10.44200 55.25900 40.16600
C  9.04000 54.73400 40.30400
C  12.67500 53.90000 40.14400
C  10.84400 56.71900 39.97000
O  12.02600 57.01000 39.92300
C  9.93600 57.86700 39.79500
N  6.08900 53.71400 40.61700
C  6.54200 55.00900 40.45500
C  5.32300 55.96000 40.72000
C  4.10400 55.00800 40.92200
C  4.72600 53.62900 40.81800
C  5.55300 56.94400 41.90300
C  3.00400 55.20800 39.86400
C  2.06400 56.40800 39.99700
N  5.73900 50.86100 41.07500
C  4.43800 51.17800 41.30300
C  3.72300 49.91300 41.56600
C  4.64800 48.92900 41.35200
C  5.91200 49.54000 41.04700
C  2.30000 49.63600 42.14900
C  4.86300 47.57600 41.38000
O  4.09400 46.65400 41.63500
C  6.35500 47.25800 40.99700
C  6.38200 46.40700 39.75400
O  6.22200 46.76700 38.60700
O  6.59700 45.07900 40.11400
C  6.48900 44.21500 38.97500
H  11.89500 51.58200 40.68900
H  7.88600 56.52400 40.30800
H  2.95200 52.56100 41.36800
H  9.45900 47.25700 40.95200
H  11.34000 49.04900 39.66200
H  11.27800 49.44600 42.72600
H  12.60700 48.84100 41.66300
H  11.32400 47.78500 41.94800
H  8.87700 46.61200 38.96800
H  10.56600 47.01600 38.90300
H  10.21700 48.04900 37.01300
H  9.57000 49.41500 37.90300
H  12.87800 53.28300 39.26900
H  13.25600 53.42000 40.93100
H  13.23600 54.81900 39.97500
H  9.65500 58.13100 40.81500
H  9.09400 57.73200 39.11700
H  10.53300 58.65400 39.33500
H  5.36600 56.47200 39.75900
H  3.70100 55.03400 41.93400
H  4.97300 56.53900 42.73100
H  5.20600 57.95200 41.67200
H  6.57800 57.05200 42.25800
H  2.29500 54.38100 39.90100
H  3.48900 55.13100 38.89100
H  0.99000 56.29800 40.14400
H  2.14600 57.00800 39.09100
H  2.57700 56.93500 40.80200
H  1.55800 49.62700 41.35000
H  1.99000 50.44600 42.80900
H  2.40600 48.70200 42.70200
H  6.98300 46.69100 41.68400
H  7.34600 44.28200 38.30600
H  5.54300 44.35800 38.45200
H  6.52900 43.26500 39.50800
Mg -12.06700 16.30600 41.34900
C  -9.18400 14.37300 40.93100
C  -10.17600 18.98100 40.04400
C  -14.83200 17.98700 40.86000
C  -13.87800 13.41200 42.46200
N  -9.96300 16.71100 40.63600
C  -8.94900 15.71300 40.54400
C  -7.71300 16.30300 40.00300
C  -7.88900 17.86400 40.00400
C  -9.41300 17.90600 40.21500
C  -7.15200 18.70400 41.15000
C  -7.42100 15.75300 38.52300
C  -6.16900 15.03400 38.17700
H  -5.43700 15.57800 36.85700
N  -12.48000 18.28800 40.66700
C  -11.59400 19.15200 40.15900
C  -12.25600 20.34900 39.77700
C  -13.63200 20.15600 40.05900
C  -13.71500 18.74500 40.55400
C  -11.49300 21.57100 39.15600
C  -14.76100 21.05000 39.63700
O  -14.65300 21.97700 38.86200
C  -16.20100 20.75000 39.99100
N  -14.13400 15.72900 41.44800
C  -15.08800 16.63400 41.22200
C  -16.48300 15.99400 41.46600
C  -16.17400 14.64400 42.24000
C  -14.62400 14.56300 42.04800
C  -17.60800 16.93900 42.07100
C  -16.97400 13.32200 41.83600
C  -17.44500 12.56300 43.06300
N  -11.56700 14.28400 41.76700
C  -12.44900 13.21600 42.16400
C  -11.60700 11.98800 42.23700
C  -10.32600 12.38200 41.71100
C  -10.35700 13.81200 41.52400
C  -12.05600 10.55700 42.70300
C  -8.97300 11.98300 41.31500
O  -8.47900 10.88300 41.22900
C  -8.15300 13.29200 41.00600
C  -7.14400 13.64200 41.98800
O  -7.31100 13.88400 43.14300
O  -5.95200 13.50800 41.35700
C  -4.79800 13.88500 42.21500
H  -9.61600 19.89200 39.82000
H  -15.69700 18.65300 40.88700
H  -14.43500 12.54000 42.81000
H  -6.95500 16.02200 40.73400
H  -7.80300 18.39000 39.05300
H  -6.29900 18.10900 41.47900
H  -7.80700 18.94700 41.98700
H  -6.74800 19.62800 40.73700
H  -7.42600 16.62900 37.87500
H  -8.26400 15.14300 38.19700
H  -6.43300 13.97700 38.13800
H  -5.48100 15.25500 38.99300
H  -12.23800 22.36700 39.17400
H  -11.21500 21.34300 38.12700
H  -10.64300 21.93700 39.73200
H  -16.83500 21.60400 39.75400
H  -16.21200 20.70000 41.08000
H  -16.59400 19.91000 39.41800
H  -16.85800 15.68600 40.49000
H  -16.54200 14.86000 43.24300
H  -18.12900 16.41700 42.87400
H  -18.41500 17.38000 41.48500
H  -17.19600 17.79900 42.59800
H  -16.34400 12.64000 41.26600
H  -17.78600 13.63600 41.18000
H  -18.24200 13.16700 43.49800
H  -16.62700 12.51900 43.78200
H  -17.75300 11.52300 42.95300
H  -12.30800 9.78400 41.97800
H  -12.90400 10.57500 43.38900
H  -11.23100 10.22700 43.33400
H  -7.66600 13.15200 40.04100
H  -4.36100 14.86600 42.03200
H  -4.14800 13.07700 41.87800
H  -4.92000 13.72600 43.28700

