158

Mg 41.17500 40.78500 26.19700
C  40.40700 43.02500 28.77500
C  42.46100 38.64800 28.48700
C  42.07800 38.67000 23.62000
C  40.32600 43.18300 23.91000
N  41.52300 40.89500 28.41000
C  41.00500 41.82200 29.28200
C  41.22900 41.33800 30.72000
C  41.87500 39.93000 30.56300
C  41.99600 39.79800 29.03500
C  43.24100 39.66200 31.19900
C  39.79500 41.27300 31.40600
C  39.91000 40.73200 32.91600
H  39.46100 41.63900 34.02400
N  42.06100 38.89900 26.06500
C  42.52900 38.19600 27.11200
C  43.07200 36.92400 26.69500
C  42.89600 36.88600 25.24000
C  42.31900 38.22900 24.88800
C  43.82500 35.96000 27.62500
C  43.17400 35.72900 24.27800
O  43.26300 35.89400 23.04000
C  43.54100 34.36500 24.74700
N  41.21700 40.84800 24.04600
C  41.47100 39.85200 23.20400
C  41.41500 40.30900 21.75900
C  40.65500 41.67100 21.89700
C  40.77100 41.94900 23.39000
C  42.80800 40.45100 21.05700
C  39.27000 41.59700 21.47800
C  38.38000 40.46600 22.13300
N  40.42500 42.62200 26.23600
C  40.28100 43.55800 25.27500
C  39.98900 44.85100 25.82900
C  39.98300 44.69900 27.21700
C  40.27700 43.33000 27.41100
C  39.72200 46.12200 25.02000
C  39.73700 45.30800 28.54100
O  39.47800 46.43900 28.81300
C  39.90200 44.22400 29.58900
C  40.86800 44.65900 30.69700
O  42.04300 44.42800 30.65600
O  40.19800 45.27600 31.80500
C  41.02900 45.67100 32.96500
H  42.74700 37.87300 29.20200
H  42.25200 38.04800 22.74000
H  40.04700 43.97300 23.20900
H  41.82000 42.06400 31.27900
H  41.17300 39.16600 30.89700
H  43.28500 40.24300 32.12000
H  44.10000 39.97100 30.60300
H  43.40400 38.62000 31.47100
H  38.99300 40.72700 30.90900
H  39.37500 42.27800 31.40100
H  40.97100 40.49200 32.97100
H  39.30500 39.82600 32.95900
H  44.76900 35.84900 27.09100
H  43.38400 34.97000 27.74500
H  43.98200 36.32200 28.64100
H  43.32900 33.78900 23.84700
H  43.00900 34.00400 25.62700
H  44.60200 34.29000 24.98600
H  40.72700 39.64100 21.24200
H  41.16200 42.54400 21.48700
H  43.54800 40.24200 21.83000
H  42.92300 41.43500 20.60200
H  42.91500 39.57900 20.41200
H  39.13500 41.50200 20.40100
H  38.81000 42.55700 21.71000
H  38.92700 39.69500 22.67500
H  37.75200 39.98800 21.38100
H  37.72300 40.92100 22.87400
H  38.64600 46.28400 25.08000
H  40.00700 46.06300 23.97000
H  40.26200 46.96000 25.46000
H  38.91800 44.08700 30.03600
H  42.06100 45.98700 32.81300
H  40.95700 44.83900 33.66600
H  40.60800 46.52500 33.49600
Mg -5.50100 25.77500 25.65600
C  -4.10100 27.38900 28.39200
C  -7.15800 23.70800 27.69200
C  -6.43500 24.02500 22.96700
C  -3.55800 27.82800 23.63800
N  -5.57900 25.58600 27.81200
C  -5.00700 26.36300 28.79300
C  -5.55900 26.08800 30.21400
C  -6.37800 24.81800 29.92700
C  -6.29800 24.68600 28.37600
C  -6.03100 23.61800 30.76700
C  -6.34200 27.32100 30.83700
C  -5.89600 27.72800 32.19800
H  -5.32800 26.64800 33.09400
N  -6.68400 24.12900 25.35100
C  -7.36900 23.41500 26.36000
C  -8.13100 22.31600 25.90500
C  -7.89700 22.40100 24.43500
C  -6.88100 23.53400 24.19300
C  -8.87400 21.25400 26.73900
C  -8.56800 21.53800 23.34100
O  -8.33500 21.70800 22.17600
C  -9.70600 20.74400 23.74000
N  -5.15600 26.06100 23.48100
C  -5.60900 25.09700 22.58300
C  -5.05100 25.42800 21.14200
C  -4.14800 26.68700 21.39200
C  -4.25300 26.86700 22.93000
C  -4.32300 24.14100 20.66400
C  -4.56500 27.94800 20.54700
C  -4.66900 27.73900 18.98600
N  -4.16600 27.39400 25.85300
C  -3.51500 28.15100 25.01100
C  -2.69500 29.13300 25.71900
C  -2.90600 28.90800 27.07200
C  -3.82300 27.84200 27.12000
C  -1.75500 30.13900 25.11500
C  -2.47700 29.31500 28.42300
O  -1.74600 30.17400 28.85900
C  -3.28000 28.28000 29.28000
C  -2.30400 27.42700 30.10400
O  -1.74200 26.39300 29.67500
O  -2.23500 27.85500 31.42300
C  -1.22900 27.08600 32.28200
H  -7.75900 23.18000 28.43500
H  -6.65000 23.40200 22.09600
H  -2.97000 28.38900 22.90800
H  -4.69400 25.77900 30.80000
H  -7.42800 24.98700 30.16500
H  -6.90200 23.44500 31.39900
H  -5.11700 23.67200 31.35800
H  -5.93600 22.82800 30.02200
H  -7.38700 27.10900 31.06200
H  -6.23700 28.22800 30.24100
H  -6.81400 28.08900 32.66000
H  -5.19700 28.55400 32.06700
H  -8.57800 21.38600 27.78000
H  -8.69600 20.23600 26.39200
H  -9.95200 21.41500 26.73100
H  -10.37400 21.28700 24.40900
H  -9.28200 19.82700 24.14900
H  -10.32000 20.54700 22.86100
H  -5.97600 25.63900 20.60600
H  -3.09700 26.55200 21.13700
H  -4.77300 23.25800 21.11900
H  -3.24400 24.06000 20.80000
H  -4.53000 24.12700 19.59400
H  -3.79100 28.69700 20.71300
H  -5.55500 28.25900 20.88100
H  -4.25300 26.75700 18.76000
H  -4.04800 28.44200 18.43000
H  -5.66500 27.87500 18.56400
H  -1.56200 30.05900 24.04500
H  -0.77900 30.11400 25.60000
H  -2.11400 31.16300 25.22100
H  -3.90200 28.81400 29.99900
H  -0.27700 27.27700 31.78700
H  -1.45700 26.02200 32.34400
H  -1.15600 27.45500 33.30500

