158

Mg 26.18600 -0.57900 28.97000
C  28.01800 -0.90900 31.85700
C  23.28900 -0.16800 30.83500
C  24.30700 -0.78900 26.08000
C  29.01000 -1.35100 27.12800
N  25.76800 -0.42200 31.12500
C  26.67600 -0.53700 32.14800
C  26.00100 -0.28100 33.53000
C  24.54500 -0.18800 33.14800
C  24.48400 -0.16900 31.59300
C  23.70100 -1.30000 33.83000
C  26.53700 1.03500 34.35300
C  27.13800 0.74500 35.74300
H  27.01000 1.82000 36.82800
N  24.11400 -0.38300 28.52900
C  23.10800 -0.16300 29.43200
C  21.85200 0.03000 28.74800
C  22.13300 -0.08800 27.37400
C  23.58900 -0.46900 27.29400
C  20.55900 0.27900 29.53600
C  21.19700 0.03300 26.18100
O  21.54900 0.05100 25.01700
C  19.84000 0.29600 26.51000
N  26.55000 -1.14100 26.94100
C  25.64300 -1.11200 25.93100
C  26.22200 -1.35400 24.57300
C  27.63900 -1.73300 25.06500
C  27.73000 -1.35500 26.47000
C  25.62000 -2.52000 23.73700
C  28.72400 -1.02700 24.04300
C  29.40800 0.30100 24.45800
N  28.21200 -0.88300 29.31000
C  29.28600 -1.10500 28.50300
C  30.48600 -1.27700 29.26400
C  30.09700 -1.20800 30.62500
C  28.65800 -0.99700 30.57900
C  31.83200 -1.59000 28.68000
C  30.60000 -1.28800 31.99500
O  31.75000 -1.42600 32.40500
C  29.24100 -1.10200 32.79700
C  29.04200 -2.29300 33.63700
O  28.68400 -3.42400 33.22300
O  29.37800 -1.94800 34.88400
C  29.06200 -2.95500 35.85100
H  22.31700 -0.26600 31.32300
H  23.78400 -0.87500 25.12600
H  29.91000 -1.69600 26.61600
H  26.15100 -1.19500 34.10500
H  24.05300 0.72700 33.47700
H  22.66400 -0.96900 33.89600
H  23.97900 -1.58600 34.84500
H  23.66500 -2.14100 33.13700
H  25.75000 1.76200 34.55600
H  27.24600 1.57400 33.72400
H  28.17800 0.49200 35.53800
H  26.59300 -0.11600 36.12900
H  19.99200 1.13000 29.15800
H  20.72100 0.41000 30.60600
H  19.91600 -0.59300 29.41400
H  19.49000 -0.44000 27.23300
H  19.22200 0.12300 25.62900
H  19.80100 1.31900 26.88600
H  26.28900 -0.40100 24.04900
H  27.83700 -2.78900 24.88100
H  25.58400 -2.13200 22.72000
H  24.61600 -2.75800 24.08800
H  26.32700 -3.34000 23.60600
H  28.23200 -0.92600 23.07600
H  29.55200 -1.73300 23.98600
H  30.48200 0.35500 24.63200
H  28.94200 0.75900 25.33000
H  29.15300 0.95100 23.62000
H  32.30000 -0.79400 28.10200
H  31.73200 -2.48900 28.07200
H  32.41700 -1.85300 29.56200
H  29.41700 -0.26800 33.47600
H  28.28800 -2.45600 36.43400
H  29.98200 -3.07200 36.42300
H  28.70200 -3.94800 35.58200
Mg -4.37100 25.48200 26.21800
C  -2.74500 26.97900 28.96000
C  -5.43000 22.94600 28.32400
C  -5.42900 23.79400 23.54200
C  -2.75100 27.81400 24.12100
N  -4.19700 25.09400 28.39100
C  -3.52900 25.88200 29.32800
C  -3.94400 25.43000 30.67400
C  -4.35100 23.94600 30.43400
C  -4.64800 23.97100 28.91500
C  -3.35100 22.84800 30.88500
C  -5.15600 26.24500 31.29000
C  -5.07700 26.53500 32.76700
H  -4.69600 25.28800 33.66700
N  -5.33000 23.70900 25.94400
C  -5.71200 22.78000 26.95400
C  -6.37800 21.63000 26.27200
C  -6.08600 21.75000 24.91600
C  -5.57200 23.13700 24.76200
C  -6.89100 20.43000 27.07400
C  -6.36700 20.81400 23.83400
O  -5.99000 21.00300 22.67000
C  -7.07200 19.49900 24.09800
N  -4.24100 25.80000 24.19200
C  -4.85100 25.02000 23.31200
C  -4.74600 25.56500 21.86600
C  -3.91200 26.86900 21.95800
C  -3.57200 26.88000 23.50500
C  -4.19600 24.57900 20.82100
C  -4.68100 28.12900 21.55800
C  -4.78700 28.44100 20.05000
N  -3.10100 27.17300 26.49600
C  -2.44500 27.93200 25.53100
C  -1.53400 28.84300 26.18200
C  -1.63100 28.52100 27.52800
C  -2.57900 27.49900 27.65900
C  -0.53700 29.69100 25.40400
C  -1.04000 28.74700 28.85700
O  -0.17300 29.55200 29.14300
C  -1.82000 27.81300 29.82200
C  -0.83100 27.15500 30.81100
O  -0.31700 26.08500 30.65100
O  -0.69900 27.98100 31.88400
C  -0.14100 27.30200 33.05600
H  -5.63200 22.09100 28.97200
H  -5.91600 23.24300 22.73500
H  -2.28900 28.51200 23.42000
H  -3.09200 25.49500 31.35000
H  -5.31000 23.78500 30.92600
H  -2.38000 23.30100 31.08600
H  -3.22200 21.99500 30.22000
H  -3.58300 22.25100 31.76600
H  -6.06600 25.75200 30.94800
H  -5.24200 27.16200 30.70700
H  -6.09400 26.83600 33.01800
H  -4.40900 27.38900 32.87600
H  -7.98000 20.45000 27.03500
H  -6.70300 20.50000 28.14600
H  -6.45200 19.48200 26.76300
H  -6.38800 18.80100 24.57900
H  -7.41100 18.97700 23.20300
H  -7.86700 19.59600 24.83700
H  -5.70800 25.83700 21.43200
H  -2.95000 26.82900 21.44800
H  -3.41400 25.05200 20.22700
H  -4.86200 24.27800 20.01100
H  -3.91200 23.71500 21.42200
H  -4.22700 29.04000 21.94900
H  -5.70300 28.08500 21.93700
H  -4.13600 27.78100 19.47500
H  -4.57500 29.48400 19.81700
H  -5.84600 28.28500 19.84500
H  -0.02600 30.53200 25.87200
H  -1.16000 30.17200 24.65000
H  0.17100 29.05700 24.86800
H  -2.46200 28.46500 30.41500
H  -0.81700 27.37700 33.90800
H  0.77300 27.82300 33.33800
H  0.03700 26.22700 33.09700

