158

Mg 24.53900 1.35900 29.87100
C  26.82900 0.98700 32.54700
C  22.07100 1.69700 32.18300
C  22.40900 1.19100 27.37800
C  27.13300 0.77700 27.65100
N  24.46700 1.34700 32.16500
C  25.53800 1.28200 33.03400
C  25.03400 1.61500 34.48500
C  23.47300 1.76200 34.31700
C  23.29400 1.56600 32.81000
C  22.56100 0.80200 35.24800
C  25.84300 2.90300 35.04200
C  26.53800 2.71600 36.36600
H  26.12200 3.57600 37.55000
N  22.56200 1.38700 29.77000
C  21.71800 1.58200 30.88300
C  20.30800 1.58600 30.38100
C  20.40900 1.26200 28.96400
C  21.85500 1.25400 28.63900
C  19.07600 1.85300 31.22500
C  19.25300 0.96200 28.00800
O  19.51000 0.49800 26.88100
C  17.74800 1.14700 28.37600
N  24.73700 0.93200 27.80400
C  23.71200 1.09600 26.99200
C  24.14500 1.28900 25.46600
C  25.74600 1.15000 25.60200
C  25.87800 1.00000 27.11500
C  23.43000 0.36700 24.41900
C  26.52200 2.39100 25.09000
C  26.49000 3.75000 26.00000
N  26.57000 0.83500 30.04200
C  27.51400 0.63900 29.04800
C  28.79500 0.44600 29.59800
C  28.60900 0.54500 30.95900
C  27.20200 0.80200 31.21700
C  30.10900 0.29400 28.80800
C  29.27000 0.59100 32.17900
O  30.46000 0.44700 32.29500
C  28.16500 0.84200 33.29100
C  28.17500 -0.22800 34.31200
O  27.94500 -1.42200 34.01800
O  28.46800 0.20900 35.58400
C  28.48700 -0.87100 36.61100
H  21.22900 1.91600 32.84300
H  21.75900 1.13300 26.50200
H  27.89700 0.70500 26.87300
H  25.36300 0.78200 35.10500
H  23.23700 2.77500 34.64100
H  22.61200 1.23000 36.24900
H  22.96100 -0.21200 35.25200
H  21.51500 0.72100 34.95400
H  24.99100 3.58100 35.10300
H  26.40600 3.29600 34.19600
H  27.60600 2.93800 36.37200
H  26.50000 1.65600 36.61700
H  18.60300 0.88100 31.36500
H  18.50800 2.60700 30.67800
H  19.32400 2.30600 32.18500
H  17.51900 0.62900 29.30800
H  17.09500 0.96500 27.52300
H  17.70800 2.22800 28.51400
H  23.78600 2.28000 25.18700
H  26.00800 0.23200 25.07500
H  22.77300 0.83900 23.68900
H  22.77700 -0.23700 25.04900
H  24.20900 -0.27400 24.00700
H  26.22100 2.58000 24.05900
H  27.55200 2.03500 25.06900
H  25.86000 3.53100 26.86200
H  26.01500 4.55300 25.43500
H  27.50100 4.10800 26.19800
H  29.73700 -0.39900 28.05400
H  30.75600 -0.35200 29.40100
H  30.70000 1.16500 28.52500
H  28.37400 1.81100 33.74400
H  28.64300 -0.35100 37.55600
H  29.37900 -1.47000 36.42900
H  27.60300 -1.50600 36.65000
Mg 44.92600 4.70900 45.98100
C  43.31400 7.76900 46.04500
C  41.85900 3.17800 45.32800
C  46.63900 1.91200 45.31000
C  48.02000 6.56300 45.82400
N  42.86200 5.43400 45.44800
C  42.36500 6.74900 45.77200
C  40.91200 6.87200 45.51400
C  40.50900 5.32600 45.54000
C  41.82700 4.53100 45.52800
C  39.44700 4.94700 46.64800
C  40.65600 7.60400 44.21100
C  41.49900 7.15200 42.99700
H  40.76700 6.71900 41.72100
N  44.30200 2.79100 45.43400
C  43.01600 2.34000 45.17100
C  43.00600 0.95600 44.79000
C  44.41600 0.54800 44.88200
C  45.18900 1.75600 45.37500
C  41.81100 0.18000 44.46200
C  44.84500 -0.85900 44.52200
O  44.10400 -1.72200 44.07800
C  46.25900 -1.28300 44.64500
N  47.13700 4.33400 45.60500
C  47.50500 2.99300 45.44300
C  49.02600 2.93200 45.23400
C  49.38100 4.43200 45.62800
C  48.09400 5.18000 45.69000
C  49.70700 1.85100 46.19600
C  50.52900 5.09100 44.84400
C  51.57900 5.73900 45.74000
N  45.55800 6.74400 45.90100
C  46.80000 7.34100 45.94900
C  46.71900 8.74000 46.07200
C  45.30000 8.94400 46.16400
C  44.66100 7.70100 46.05100
C  47.71500 9.78700 46.09400
C  44.34800 9.94400 46.47200
O  44.53500 11.15800 46.69600
C  42.97800 9.21100 46.31400
C  42.13200 9.39600 47.52000
O  41.97600 8.54000 48.38600
O  41.38800 10.60300 47.46600
C  40.44400 10.66100 48.59300
H  40.85400 2.78800 45.15600
H  47.12500 0.96600 45.06000
H  48.96600 7.09600 45.93400
H  40.40600 7.27500 46.39100
H  39.96900 5.00200 44.65100
H  38.68200 5.69400 46.86300
H  39.93500 4.58800 47.55400
H  38.97900 4.07700 46.18800
H  40.72400 8.68600 44.32000
H  39.63000 7.30000 44.00300
H  42.20700 6.33700 43.15100
H  42.07600 7.99500 42.61800
H  41.87100 -0.60400 43.70700
H  40.95200 0.77700 44.15400
H  41.64000 -0.28200 45.43400
H  46.22600 -2.29100 44.23300
H  46.54800 -1.34000 45.69500
H  46.81000 -0.56600 44.03600
H  49.33200 2.60500 44.24000
H  49.64400 4.33700 46.68100
H  49.96500 0.97600 45.59900
H  48.98200 1.52100 46.94000
H  50.58100 2.26800 46.69600
H  50.15900 5.87300 44.18000
H  51.07000 4.42600 44.17000
H  51.52300 5.35800 46.75900
H  51.40300 6.81500 45.72200
H  52.54900 5.50600 45.30100
H  48.59100 9.31400 45.65000
H  47.95500 10.08600 47.11500
H  47.31200 10.68200 45.61900
H  42.49500 9.59100 45.41400
H  41.02500 10.77600 49.50800
H  39.73100 9.83700 48.57300
H  39.90800 11.60900 48.53400

