158

Mg 26.01900 0.15100 29.48900
C  27.65500 -0.15500 32.54200
C  23.07100 0.48400 31.43200
C  24.08100 -0.04600 26.67300
C  28.85500 -0.58100 27.81100
N  25.47200 0.31400 31.71000
C  26.32400 0.12600 32.77800
C  25.64200 0.50700 34.14600
C  24.11600 0.59000 33.79000
C  24.18300 0.55000 32.22200
C  23.12500 -0.42000 34.39500
C  26.25200 1.78800 34.73200
C  27.03400 1.63500 36.14100
H  26.54600 2.60700 37.24800
N  23.83500 0.33400 29.09200
C  22.85400 0.51000 30.03300
C  21.54900 0.55000 29.29700
C  21.81600 0.47000 27.85200
C  23.25300 0.24300 27.79700
C  20.24100 0.68000 30.02200
C  20.89600 0.58900 26.64700
O  21.33000 0.38100 25.53700
C  19.50400 1.02300 26.84800
N  26.37300 -0.22000 27.56800
C  25.50600 -0.20100 26.53100
C  26.22900 -0.11100 25.20100
C  27.75900 -0.26800 25.66400
C  27.71100 -0.25200 27.13800
C  25.74600 -1.14300 24.11500
C  28.68600 0.77500 25.01200
C  29.50800 0.24400 23.96800
N  27.93600 -0.26000 30.01600
C  29.02600 -0.63100 29.22500
C  30.18100 -0.75400 30.09600
C  29.64900 -0.55100 31.39600
C  28.30200 -0.27200 31.28800
C  31.64500 -1.18300 29.67800
C  29.99600 -0.52400 32.84300
O  31.04800 -0.62300 33.46500
C  28.71900 -0.23500 33.64200
C  28.62400 -1.45200 34.62400
O  28.34100 -2.57600 34.29900
O  28.94400 -1.03900 35.88100
C  29.47400 -2.02700 36.86300
H  22.17700 0.70000 32.02000
H  23.62700 -0.13800 25.68500
H  29.80100 -0.77400 27.30100
H  25.83500 -0.24400 34.91100
H  23.71900 1.56800 34.06000
H  22.35000 0.01200 35.02800
H  23.75600 -1.13000 34.92900
H  22.67800 -1.12200 33.69100
H  25.43800 2.50100 34.86300
H  26.92700 2.27900 34.03100
H  28.11300 1.76400 36.06000
H  26.96200 0.58900 36.43800
H  20.32100 0.29000 31.03700
H  19.46000 0.12600 29.50100
H  19.98100 1.73300 30.13500
H  19.10500 1.45700 25.93200
H  19.46700 1.76100 27.64900
H  18.95600 0.11600 27.10200
H  26.14400 0.95100 24.96800
H  27.95500 -1.30500 25.39000
H  26.44600 -1.96600 23.97100
H  25.52900 -0.75800 23.11800
H  24.75700 -1.44400 24.46000
H  29.27500 1.28300 25.77500
H  28.03500 1.49600 24.51900
H  29.49300 0.72600 22.99100
H  29.29700 -0.77700 23.65100
H  30.54200 0.24300 24.31400
H  32.33200 -0.50600 30.18600
H  31.79800 -0.91300 28.63300
H  31.82500 -2.23800 29.88100
H  28.80200 0.74100 34.11800
H  29.05000 -1.83300 37.84800
H  30.54700 -1.93100 37.02900
H  29.21000 -3.03100 36.53300
Mg 16.83000 52.29200 26.56100
C  18.74400 50.95300 29.00800
C  14.40200 53.20200 28.83100
C  14.90900 53.54700 24.10800
C  19.24700 51.36100 24.13700
N  16.58700 52.04800 28.68300
C  17.54900 51.53800 29.49900
C  17.09500 51.72200 30.94100
C  15.63800 52.28600 30.83000
C  15.54400 52.55800 29.35200
C  14.46800 51.37700 31.37700
C  18.04900 52.73600 31.62000
C  17.90900 52.94400 33.16800
H  17.05300 51.98900 33.91100
N  14.88400 53.18600 26.46400
C  14.07200 53.51700 27.46400
C  12.94800 54.24500 27.00500
C  13.05000 54.40200 25.58200
C  14.31300 53.65900 25.31900
C  11.80100 54.59000 27.98100
C  12.13800 54.94300 24.60700
O  12.29500 54.87100 23.39200
C  10.84900 55.60500 25.10400
N  17.00200 52.22300 24.35300
C  16.06200 52.85800 23.62800
C  16.54800 52.95800 22.16800
C  18.05600 52.44800 22.24100
C  18.06200 51.88300 23.64500
C  15.66700 52.20300 21.15300
C  19.12900 53.46500 21.94100
C  20.00800 53.22300 20.76100
N  18.64300 51.27800 26.49800
C  19.48000 50.95600 25.49500
C  20.64400 50.29700 26.02600
C  20.43800 50.25200 27.42700
C  19.19900 50.92400 27.65000
C  21.82200 49.72700 25.29700
C  20.98700 49.78600 28.68500
O  21.93700 48.99300 28.97200
C  19.89400 50.31600 29.78100
C  19.54600 49.25500 30.77700
O  18.76600 48.36600 30.63200
O  20.33400 49.42500 31.94200
C  19.91500 48.54000 33.00400
H  13.64300 53.49800 29.55900
H  14.47500 53.98500 23.20600
H  20.06100 51.18300 23.43100
H  17.08700 50.73700 31.40900
H  15.47000 53.17700 31.43600
H  14.73300 50.73400 32.21600
H  13.94400 50.76100 30.64600
H  13.68300 51.96200 31.85700
H  17.85000 53.67700 31.10700
H  19.09900 52.60700 31.35600
H  17.45300 53.93400 33.17300
H  18.90900 53.14700 33.55100
H  10.86200 54.17300 27.61700
H  11.71600 55.63900 28.26400
H  11.84900 54.09700 28.95200
H  9.99900 55.46800 24.43600
H  11.13500 56.65700 25.10800
H  10.42400 55.26300 26.04700
H  16.47200 53.99400 21.83700
H  18.18800 51.56600 21.61400
H  16.04500 51.22200 20.86400
H  15.43400 52.81200 20.27900
H  14.72800 51.99300 21.66600
H  19.65300 53.65000 22.87900
H  18.61100 54.40600 21.76000
H  19.62400 53.79900 19.91900
H  20.03700 52.16000 20.52100
H  21.06800 53.45500 20.86400
H  22.59300 49.64300 26.06300
H  22.08000 50.48600 24.55900
H  21.62900 48.75600 24.84200
H  20.42100 51.12300 30.29000
H  20.39100 48.80500 33.94800
H  20.15900 47.50300 32.77300
H  18.83600 48.53000 33.15600

