158

Mg -1.92600 17.15900 25.52500
C  -2.23700 14.79200 28.05200
C  -3.23700 19.52100 27.55600
C  -1.89100 19.26700 22.90900
C  -1.33300 14.49300 23.30600
N  -2.56300 17.18400 27.58600
C  -2.63700 16.10200 28.47800
C  -3.07100 16.61200 29.92700
C  -3.70000 17.99400 29.56700
C  -3.09500 18.31000 28.16700
C  -5.28300 17.99200 29.34100
C  -1.86600 16.78800 30.90100
C  -2.24900 16.74000 32.34900
H  -1.19800 16.06600 33.27600
N  -2.32200 19.19000 25.35800
C  -2.83600 20.01900 26.28100
C  -2.85200 21.43300 25.76900
C  -2.30400 21.36000 24.41400
C  -2.18700 19.87300 24.16900
C  -3.08800 22.69000 26.63900
C  -1.88700 22.39400 23.41400
O  -1.52300 22.10800 22.32100
C  -1.95600 23.78000 23.76300
N  -1.85300 16.91200 23.36500
C  -1.78100 17.92600 22.52700
C  -1.39500 17.58000 21.08100
C  -1.21200 16.03500 21.22000
C  -1.38400 15.77500 22.70400
C  -2.43700 18.04700 19.96000
C  0.12300 15.50800 20.58800
C  1.39600 15.94000 21.26300
N  -1.88300 15.06000 25.54900
C  -1.56500 14.13000 24.58000
C  -1.65400 12.77500 25.13400
C  -1.86200 12.97200 26.52300
C  -1.94700 14.42000 26.74100
C  -1.58800 11.48600 24.48500
C  -2.01800 12.31800 27.90000
O  -1.90200 11.16000 28.27500
C  -2.21100 13.47300 28.89700
C  -1.17100 13.39900 29.93400
O  -0.06200 13.84900 29.76600
O  -1.58100 12.71500 31.06400
C  -0.55000 12.41300 31.99200
H  -3.69100 20.33800 28.12200
H  -1.76200 19.95700 22.07200
H  -1.05700 13.59700 22.74600
H  -3.80200 15.91500 30.33600
H  -3.59100 18.71600 30.37600
H  -5.64200 16.98800 29.56800
H  -5.44600 18.08900 28.26800
H  -5.77100 18.76400 29.93700
H  -1.43400 17.77500 30.73700
H  -1.06200 16.06800 30.74300
H  -3.17300 16.19300 32.53000
H  -2.28000 17.73100 32.80200
H  -3.57700 22.23500 27.50000
H  -3.74400 23.49800 26.31500
H  -2.14500 23.17800 26.88600
H  -1.86200 24.41200 22.88000
H  -1.18900 24.07000 24.48100
H  -2.92700 24.06700 24.16600
H  -0.45300 18.03000 20.76900
H  -2.06400 15.45600 20.86100
H  -2.44400 17.49400 19.02000
H  -2.30000 19.06100 19.58600
H  -3.46000 18.09800 20.33300
H  0.07300 15.96600 19.60000
H  0.17400 14.42100 20.53100
H  2.19400 16.22200 20.57600
H  1.80800 15.05600 21.75100
H  1.22400 16.70900 22.01600
H  -1.80200 10.79600 25.30100
H  -0.54500 11.35800 24.19600
H  -2.33200 11.49700 23.68800
H  -3.21000 13.30900 29.30000
H  -0.47600 11.32800 32.07200
H  -0.97500 12.63300 32.97200
H  0.45500 12.83200 31.94300
Mg 48.05600 44.67900 42.42800
C  44.53800 44.07300 42.28500
C  48.43800 41.20800 42.40600
C  51.32400 45.21100 42.04700
C  47.27500 48.16100 42.07700
N  46.67000 42.85600 42.35500
C  45.29300 42.90700 42.35500
C  44.65100 41.50900 42.22200
C  45.87900 40.52500 42.42400
C  47.05300 41.54000 42.41100
C  45.73000 39.64500 43.65400
C  43.83500 41.14300 40.88300
C  43.98200 42.06100 39.58000
H  43.58500 41.54700 38.18000
N  49.64900 43.43000 42.19800
C  49.55900 42.04600 42.27300
C  50.86900 41.57100 42.28200
C  51.78300 42.67000 42.26300
C  50.93000 43.86000 42.12600
C  51.19500 40.07500 42.19100
C  53.21900 42.50900 42.33500
O  53.65900 41.40000 42.59300
C  54.21100 43.60800 42.21700
N  49.10000 46.47600 41.93700
C  50.47800 46.40000 41.97400
C  51.03600 47.77400 41.62100
C  49.78900 48.70300 41.83000
C  48.61600 47.76400 41.98500
C  52.21400 48.25800 42.49500
C  49.64700 49.94100 40.78900
C  49.27600 51.24100 41.53100
N  46.30600 45.90100 42.24500
C  46.15900 47.25000 42.14400
C  44.71400 47.65200 42.15600
C  44.01000 46.45600 42.19400
C  45.03400 45.38900 42.20300
C  44.16900 48.97300 42.10500
C  42.69700 45.85700 42.25400
O  41.54500 46.29200 42.29300
C  43.04100 44.29200 42.43100
C  42.52100 43.84600 43.75600
O  41.57300 43.10300 43.88800
O  43.19500 44.36800 44.80600
C  42.61000 44.18200 46.12700
H  48.65100 40.13800 42.38500
H  52.39400 45.35200 41.88300
H  46.99800 49.21700 42.07900
H  43.86900 41.40900 42.97500
H  45.95700 39.88500 41.54500
H  46.34600 40.04700 44.45800
H  45.99400 38.63300 43.34800
H  44.70100 39.54000 43.99800
H  42.77000 41.23600 41.09200
H  43.95700 40.11000 40.55500
H  45.02300 42.38400 39.56400
H  43.48900 43.01500 39.76600
H  52.12300 39.90500 41.64500
H  50.44700 39.61500 41.54600
H  51.07200 39.62100 43.17400
H  54.12800 44.14700 41.27300
H  55.19500 43.30700 42.57600
H  53.91400 44.39700 42.90800
H  51.25900 47.83000 40.55500
H  49.95200 49.17700 42.79800
H  53.09800 47.94600 41.93900
H  52.18700 47.69900 43.43000
H  52.08800 49.33900 42.56500
H  48.85100 49.59000 40.13300
H  50.57800 50.11900 40.25000
H  50.15200 51.88100 41.42200
H  49.16400 51.18700 42.61400
H  48.33800 51.59300 41.10000
H  43.10900 48.79600 41.91900
H  44.53200 49.49500 41.21900
H  44.24800 49.65200 42.95400
H  42.48600 43.78300 41.64300
H  41.62300 44.58200 46.35900
H  43.44300 44.35600 46.80800
H  42.52500 43.10200 46.24200

