158

Mg 23.58400 -5.67400 46.02700
C  25.69900 -3.04500 44.85400
C  21.39600 -4.65500 43.70000
C  22.08000 -8.52000 46.56400
C  26.50500 -6.85800 47.79000
N  23.65000 -4.08600 44.35100
C  24.52100 -3.01200 44.20600
C  24.07900 -2.11900 43.14000
C  22.49400 -2.46700 43.00000
C  22.42700 -3.80800 43.75000
C  21.54500 -1.39700 43.31600
C  24.82100 -2.30300 41.80700
C  25.39000 -1.03900 41.06600
H  24.99900 -0.91300 39.52700
N  21.88600 -6.40800 45.35500
C  21.16400 -5.88800 44.38100
C  20.03300 -6.71800 44.19600
C  20.19100 -7.84300 44.96900
C  21.47600 -7.66800 45.64600
C  18.83000 -6.34900 43.24100
C  19.17100 -8.90200 45.25400
O  18.05100 -8.82900 44.81700
C  19.34700 -10.15400 46.13400
N  24.27700 -7.52600 46.85700
C  23.35500 -8.44000 47.16700
C  23.90600 -9.59400 48.02900
C  25.33600 -9.03500 48.40200
C  25.40800 -7.70400 47.57900
C  23.08300 -10.08400 49.27400
C  26.48800 -10.13300 48.23000
C  27.21100 -10.22400 46.81600
N  25.67500 -4.94800 46.50100
C  26.77600 -5.60500 47.11000
C  27.91000 -4.79300 46.94200
C  27.54400 -3.74600 46.10100
C  26.18100 -3.92400 45.80500
C  29.26000 -5.15500 47.46300
C  27.96700 -2.60300 45.32300
O  29.13400 -2.15300 45.19000
C  26.76300 -1.97300 44.55700
C  26.31000 -0.72800 45.18200
O  25.25300 -0.59800 45.82200
O  27.20300 0.29000 44.86900
C  26.97100 1.56000 45.55100
H  20.74400 -4.45700 42.84600
H  21.55700 -9.44000 46.83800
H  27.31800 -7.27300 48.39000
H  24.13500 -1.05100 43.35200
H  22.24800 -2.69500 41.96300
H  21.27200 -1.56300 44.35800
H  20.71200 -1.57400 42.63600
H  21.92300 -0.37500 43.31800
H  24.19000 -2.82500 41.08800
H  25.66900 -2.98700 41.81800
H  26.48000 -1.04300 41.05900
H  25.12700 -0.14900 41.63600
H  19.03300 -6.34700 42.17000
H  18.45200 -5.38100 43.56800
H  17.97200 -7.02000 43.26800
H  18.56400 -10.91300 46.11600
H  19.54700 -9.92400 47.18000
H  20.23800 -10.58600 45.68000
H  23.96500 -10.48500 47.40400
H  25.28500 -8.62600 49.41100
H  23.73200 -10.66100 49.93300
H  22.31300 -10.79100 48.96500
H  22.58600 -9.28000 49.81800
H  25.94700 -11.06600 48.39200
H  27.24900 -10.00500 48.99900
H  27.01300 -9.28400 46.30200
H  26.76400 -11.05500 46.27100
H  28.29600 -10.32600 46.79300
H  29.70600 -5.75800 46.67200
H  29.11700 -5.74900 48.36500
H  29.83900 -4.25500 47.67200
H  27.01900 -1.75800 43.51900
H  26.14800 1.58200 46.26500
H  26.82600 2.38500 44.85300
H  27.80500 1.89500 46.16800
Mg 10.03600 47.86700 25.78100
C  8.00800 48.27800 28.70200
C  12.58300 49.41800 27.55500
C  11.97700 47.77200 23.02100
C  7.28400 47.07500 23.92500
N  10.17000 48.87200 27.90600
C  9.31800 48.67300 28.93000
C  9.99400 49.15200 30.23800
C  11.37500 49.77900 29.79400
C  11.40400 49.29400 28.32700
C  11.55800 51.31600 29.81700
C  10.17900 48.03400 31.34700
C  9.62000 48.24800 32.76400
H  9.41700 46.93500 33.57500
N  12.02800 48.53900 25.36700
C  12.91900 49.11200 26.19800
C  14.21800 49.17400 25.55600
C  14.02600 48.85600 24.15800
C  12.67300 48.33700 24.15600
C  15.48900 49.55800 26.30800
C  14.95900 48.86000 22.90100
O  14.61200 48.60800 21.76900
C  16.41600 49.20200 23.14300
N  9.71300 47.48900 23.74400
C  10.65500 47.35600 22.85300
C  10.13500 46.86900 21.49200
C  8.56200 47.12200 21.68900
C  8.53800 47.13700 23.20300
C  10.62000 47.59700 20.20400
C  7.56400 46.04600 21.11600
C  6.33700 46.55000 20.46000
N  8.04900 47.58700 26.18000
C  6.98900 47.32300 25.29500
C  5.74200 47.46400 26.00100
C  6.10400 47.76200 27.34000
C  7.53300 47.87400 27.36500
C  4.34900 47.20500 25.51400
C  5.52900 47.95700 28.65300
O  4.40300 47.86700 29.02400
C  6.76100 48.13200 29.62600
C  6.86400 47.00800 30.59400
O  7.45200 45.95500 30.49600
O  5.89600 47.18000 31.55500
C  5.61100 46.09900 32.44600
H  13.46300 49.79600 28.08100
H  12.58900 47.66600 22.12200
H  6.38500 46.87300 23.33900
H  9.44300 49.95800 30.72200
H  12.26500 49.33400 30.23900
H  11.49400 51.57200 30.87400
H  10.80200 51.74100 29.15700
H  12.62100 51.46700 29.62600
H  11.22000 47.87900 31.63100
H  9.94400 47.08500 30.86600
H  8.66200 48.76200 32.68800
H  10.26600 49.00400 33.21000
H  15.32400 50.03600 27.27400
H  16.19400 50.20500 25.78700
H  15.89500 48.57300 26.54000
H  16.36700 50.11100 23.74200
H  16.96100 49.46000 22.23500
H  16.86000 48.35600 23.66800
H  10.25100 45.78700 21.42100
H  8.14900 48.09600 21.42500
H  11.07500 48.56300 20.42300
H  9.84800 47.86900 19.48400
H  11.36000 47.05000 19.62100
H  7.31300 45.39900 21.95600
H  8.19200 45.51000 20.40500
H  5.55700 45.96900 20.95200
H  6.44200 46.22600 19.42500
H  6.04900 47.59500 20.57800
H  4.22900 46.13300 25.35700
H  4.29400 47.79800 24.60200
H  3.60800 47.60000 26.20900
H  6.58100 49.08200 30.13000
H  5.45600 46.45500 33.46400
H  6.46200 45.45200 32.65900
H  4.68700 45.56100 32.23100

