158

Mg 35.74000 3.58200 30.15300
C  33.14300 4.09000 32.63700
C  37.97600 3.38100 32.70800
C  37.95800 2.81100 27.82700
C  33.30300 3.98600 27.59900
N  35.56400 3.94000 32.44900
C  34.44200 4.01500 33.19200
C  34.83500 3.95900 34.74800
C  36.39100 4.08600 34.69400
C  36.72300 3.69300 33.21300
C  37.08100 5.43400 35.14100
C  34.41900 2.65600 35.39900
C  33.74700 2.71000 36.76400
H  34.31600 3.72000 37.70000
N  37.75200 3.18500 30.31200
C  38.52800 3.21000 31.45300
C  39.88800 2.98600 30.98000
C  39.84600 2.61400 29.57500
C  38.45500 2.88700 29.17100
C  41.14100 3.12500 31.85300
C  40.91900 2.12500 28.62500
O  40.67100 2.02900 27.43100
C  42.38700 1.99500 29.06500
N  35.75500 3.71700 27.98600
C  36.79500 3.16400 27.22900
C  36.37100 2.90400 25.75200
C  34.85100 3.21100 25.79000
C  34.59000 3.65600 27.23400
C  37.13500 3.80700 24.81500
C  34.11100 1.87900 25.52600
C  33.09000 1.82700 24.37700
N  33.67600 4.07300 30.09400
C  32.80500 4.15700 28.96800
C  31.41900 4.33100 29.42400
C  31.50400 4.35800 30.83000
C  32.86600 4.15800 31.19100
C  30.16300 4.29000 28.52600
C  30.74500 4.39500 32.12100
O  29.55200 4.53900 32.24800
C  31.80500 4.23700 33.30400
C  31.71300 5.46500 34.13500
O  32.17700 6.54700 33.83200
O  31.24100 5.07000 35.33900
C  31.17600 6.08500 36.38700
H  38.74300 3.27600 33.47800
H  38.60300 2.57800 26.97700
H  32.48400 3.94300 26.87800
H  34.37000 4.81800 35.23200
H  36.82900 3.33400 35.35000
H  37.91200 5.71800 34.49600
H  37.50200 5.37500 36.14500
H  36.34400 6.23800 35.15700
H  35.28700 1.99800 35.44300
H  33.83200 2.17000 34.62000
H  33.87200 1.69900 37.15100
H  32.67600 2.84900 36.61500
H  41.49800 2.11800 32.06800
H  40.95500 3.66500 32.78100
H  41.94500 3.60200 31.29200
H  43.07600 1.58200 28.32800
H  42.28800 1.40300 29.97500
H  42.67700 3.01800 29.30600
H  36.63900 1.87800 25.50100
H  34.49100 3.99900 25.12900
H  36.45700 4.39500 24.19600
H  37.64200 3.12200 24.13600
H  37.81300 4.49100 25.32500
H  33.60500 1.50300 26.41500
H  34.72500 1.03100 25.22300
H  32.98100 2.75000 23.80700
H  32.16400 1.40700 24.77000
H  33.37200 1.15700 23.56500
H  30.09900 5.27400 28.06200
H  29.23200 4.20200 29.08700
H  30.26000 3.46400 27.82100
H  31.65900 3.40100 33.98800
H  30.47900 6.84700 36.03700
H  32.13600 6.57500 36.54900
H  30.69100 5.69000 37.28000
Mg 30.45200 57.92100 39.69200
C  27.95500 55.82800 38.62100
C  32.70500 55.31900 38.76600
C  32.88200 60.09800 40.09600
C  27.99600 60.39600 40.10700
N  30.38900 55.91500 38.42700
C  29.17600 55.30900 38.26600
C  29.33900 53.80700 37.89100
C  30.90300 53.59500 38.02400
C  31.36500 54.95700 38.44700
C  31.53900 52.44100 38.89100
C  28.78500 53.36700 36.47300
C  29.11800 54.24900 35.25000
H  27.83900 54.76900 34.53100
N  32.48900 57.73100 39.51200
C  33.21100 56.61100 39.11700
C  34.63200 56.94500 39.31200
C  34.69700 58.30900 39.65200
C  33.31900 58.73900 39.81800
C  35.73700 55.96100 39.10600
C  35.97300 59.02700 39.99900
O  37.05300 58.54000 39.65200
C  36.12000 60.32200 40.86400
N  30.46000 60.02000 39.87200
C  31.59500 60.69500 40.09200
C  31.34700 62.20100 40.31600
C  29.78400 62.25900 40.46500
C  29.36700 60.78000 40.25600
C  32.12700 62.87100 41.49800
C  29.21700 63.12100 39.38900
C  28.19700 64.27700 39.81500
N  28.39300 58.09500 39.48700
C  27.55400 59.19400 39.70400
C  26.19500 58.74600 39.48700
C  26.31700 57.43000 39.04800
C  27.65200 57.10100 39.12500
C  24.91500 59.47000 39.65100
C  25.54600 56.31500 38.71000
O  24.35800 56.13000 38.70900
C  26.61500 55.23400 38.33700
C  26.29900 54.02600 39.20100
O  26.74500 53.72400 40.32900
O  25.36400 53.29000 38.55400
C  24.62100 52.26100 39.38000
H  33.47500 54.55200 38.65800
H  33.59000 60.82400 40.49900
H  27.20500 61.10300 40.36600
H  29.02500 53.14100 38.69500
H  31.33500 53.54800 37.02500
H  30.77500 51.67500 39.02000
H  31.88300 52.82500 39.85200
H  32.34500 52.00200 38.30200
H  27.70100 53.25600 36.51400
H  29.06000 52.32200 36.33200
H  29.64200 53.63200 34.52100
H  29.70700 55.11500 35.55200
H  36.24200 56.08400 38.14800
H  35.43300 54.92000 39.21800
H  36.48500 56.14000 39.87900
H  35.49000 60.11400 41.72900
H  35.79400 61.09200 40.16500
H  37.13300 60.50300 41.22200
H  31.77300 62.66700 39.42700
H  29.47000 62.54300 41.46900
H  32.67500 62.16700 42.12400
H  31.34700 63.48500 41.94800
H  32.83900 63.61200 41.13600
H  28.63800 62.50800 38.69700
H  29.96600 63.59700 38.75600
H  27.13900 64.21200 39.56000
H  28.49300 65.14600 39.22700
H  28.19400 64.44600 40.89100
H  24.84100 60.55000 39.52300
H  24.51700 59.32200 40.65500
H  24.16200 59.07100 38.97000
H  26.48900 54.92700 37.29900
H  25.34000 51.44300 39.32300
H  23.84100 51.91400 38.70200
H  24.30200 52.61300 40.36100

