158

Mg 41.43300 8.94600 29.77900
C  43.40500 10.03800 32.42900
C  39.17000 7.68500 31.95200
C  39.80300 7.66900 27.12100
C  43.86900 10.09500 27.60500
N  41.36800 8.72300 32.01900
C  42.19300 9.38900 32.87800
C  41.64800 9.40100 34.38700
C  40.27900 8.64700 34.21100
C  40.26000 8.27400 32.65800
C  39.96300 7.38700 35.06700
C  41.45200 10.79300 34.99800
C  42.23600 11.01800 36.36000
H  41.66700 11.82400 37.51000
N  39.82200 7.75100 29.55700
C  38.96600 7.37400 30.56000
C  37.81300 6.60500 30.05500
C  38.00900 6.61200 28.64300
C  39.28600 7.43000 28.36700
C  36.69100 6.11600 30.88800
C  37.05700 6.05600 27.56300
O  37.24500 6.08700 26.34400
C  35.65900 5.42400 27.85900
N  41.69500 8.96300 27.60500
C  40.88800 8.40900 26.71100
C  41.40900 8.41600 25.27400
C  42.64700 9.32900 25.50700
C  42.76400 9.48000 26.97900
C  41.58400 7.11800 24.50400
C  42.49400 10.72100 24.80400
C  41.59000 11.72900 25.50000
N  43.32600 9.84900 29.92700
C  44.17700 10.26000 28.99700
C  45.36600 10.83000 29.59400
C  45.06900 10.89900 31.00300
C  43.86700 10.25900 31.10100
C  46.59100 11.34600 28.90300
C  45.53300 11.31600 32.30100
O  46.45000 12.07000 32.64800
C  44.46100 10.76200 33.30700
C  45.12200 9.89000 34.33000
O  45.32100 8.67400 34.12700
O  45.45200 10.58600 35.44300
C  45.79400 9.68400 36.52600
H  38.37800 7.30200 32.59800
H  39.21700 7.28000 26.28600
H  44.61000 10.54300 26.94100
H  42.26500 8.80400 35.05800
H  39.52200 9.43100 34.24600
H  40.59800 7.43400 35.95200
H  39.99700 6.46500 34.48600
H  38.94700 7.50000 35.44600
H  40.41300 11.08800 35.15100
H  41.93600 11.39400 34.22900
H  43.13500 11.62000 36.23000
H  42.54900 10.05100 36.75300
H  36.37900 5.09300 30.67500
H  35.91600 6.85200 30.67400
H  36.84300 6.08000 31.96600
H  35.86500 4.60900 28.55300
H  35.07700 5.24200 26.95600
H  35.02000 6.14000 28.37500
H  40.65000 8.98900 24.74200
H  43.59800 8.89100 25.20400
H  41.47900 7.19100 23.42100
H  40.85700 6.40200 24.88900
H  42.60800 6.77300 24.64400
H  42.02800 10.58300 23.82800
H  43.45000 11.21800 24.63800
H  41.74700 11.77600 26.57800
H  40.53100 11.60200 25.27500
H  41.89100 12.75400 25.28100
H  46.88000 10.55600 28.20900
H  47.36600 11.38900 29.66900
H  46.52000 12.35700 28.50100
H  44.11200 11.66700 33.80400
H  45.69700 10.18300 37.49000
H  46.73700 9.13900 36.48300
H  44.93500 9.02200 36.63800
Mg 30.22500 58.11200 41.22600
C  27.26400 56.39700 40.05300
C  31.96700 55.34500 39.94900
C  32.96100 59.90900 41.44300
C  28.17800 60.91200 41.80300
N  29.62000 56.09400 39.99600
C  28.34800 55.62800 39.73700
C  28.48900 54.25500 39.06200
C  29.98000 53.78100 39.44300
C  30.56000 55.16000 39.81100
C  30.01100 52.53800 40.37400
C  28.02400 54.14200 37.56100
C  28.89600 54.94100 36.56900
H  28.05800 56.00700 35.74400
N  32.17400 57.62000 40.86800
C  32.71500 56.49300 40.28700
C  34.20700 56.65000 40.11600
C  34.46900 57.92800 40.73100
C  33.17000 58.54100 41.07700
C  35.23700 55.60300 39.69200
C  35.85400 58.54200 40.78000
O  36.81800 58.03900 40.30300
C  36.11900 59.85100 41.50800
N  30.52500 60.18700 41.42600
C  31.79800 60.67200 41.63600
C  31.78900 62.07200 42.31900
C  30.21700 62.33600 42.30500
C  29.58900 61.01300 41.85100
C  32.45300 62.26200 43.70200
C  29.76500 63.45100 41.32200
C  28.46300 64.18800 41.82200
N  28.10500 58.56900 41.14000
C  27.49400 59.65200 41.50600
C  26.03100 59.39300 41.50900
C  25.90200 58.13400 40.99200
C  27.19000 57.72000 40.66000
C  24.83800 60.34400 41.88700
C  24.92600 57.18500 40.57800
O  23.67600 57.12100 40.67700
C  25.77100 56.08100 39.85100
C  25.39000 54.78800 40.50600
O  25.93700 54.25400 41.46400
O  24.16600 54.36000 39.94100
C  23.63900 53.08100 40.34500
H  32.69800 54.54200 39.83600
H  33.75500 60.60900 41.71000
H  27.33900 61.46200 42.23600
H  27.74400 53.63100 39.55600
H  30.58000 53.52100 38.57100
H  30.26800 52.83800 41.39000
H  30.83800 51.94300 39.98500
H  29.05600 52.01300 40.36700
H  26.98400 54.45900 37.49300
H  27.98800 53.13400 37.14600
H  29.24000 54.21900 35.82900
H  29.70500 55.50000 37.04000
H  35.80600 55.96700 38.83600
H  34.80900 54.63400 39.43300
H  36.00100 55.38200 40.43700
H  35.81400 60.73200 40.94300
H  37.20700 59.86800 41.58300
H  35.76800 59.83100 42.53900
H  32.28400 62.74600 41.61900
H  29.73200 62.47400 43.27200
H  31.79500 62.73500 44.43100
H  33.36100 62.83800 43.51800
H  32.84000 61.30000 44.03700
H  29.51900 63.10700 40.31700
H  30.54300 64.21000 41.23800
H  28.24300 63.81700 42.82300
H  27.62800 64.05200 41.13500
H  28.68200 65.23300 42.03900
H  25.17200 61.00000 42.69100
H  23.94400 59.79200 42.17800
H  24.65100 61.01700 41.05100
H  25.46500 56.12100 38.80600
H  23.98800 52.44800 39.52900
H  22.56200 53.00300 40.49800
H  24.12200 52.83000 41.28900

