158

Mg 40.88500 8.36500 29.78900
C  42.69500 9.64800 32.52900
C  38.64400 7.01700 32.06900
C  39.21100 7.26600 27.18500
C  43.52200 9.36100 27.60200
N  40.69100 8.36300 32.10500
C  41.55900 9.00700 32.94700
C  40.97400 8.97500 34.40800
C  39.80800 7.90800 34.34300
C  39.69600 7.71600 32.78800
C  39.96200 6.62000 35.12700
C  40.67900 10.39100 35.01100
C  41.48900 10.81100 36.24600
H  40.98200 11.94000 37.18500
N  39.17400 7.26600 29.58400
C  38.35800 6.78700 30.66100
C  37.15700 6.19200 30.06100
C  37.25100 6.54600 28.62800
C  38.60200 7.03500 28.41100
C  36.11100 5.40200 30.82700
C  36.17900 6.47700 27.65000
O  36.33500 6.76100 26.45000
C  34.83800 6.13100 28.09900
N  41.33600 8.20100 27.73400
C  40.39600 7.78100 26.84000
C  40.88000 7.83900 25.38800
C  42.21200 8.76600 25.51500
C  42.38400 8.78300 27.03400
C  41.05500 6.42100 24.70100
C  42.15000 10.20200 24.82800
C  41.23300 11.25800 25.56200
N  42.78900 9.22200 29.95400
C  43.68600 9.60600 29.00300
C  44.80200 10.22200 29.63900
C  44.42000 10.29000 31.02500
C  43.18600 9.65800 31.15700
C  46.08900 10.71000 28.96100
C  44.92000 10.68400 32.31100
O  46.01700 11.13000 32.60600
C  43.76900 10.37600 33.39100
C  44.31000 9.42600 34.37000
O  44.28600 8.20700 34.27000
O  44.87400 10.15100 35.37800
C  45.46000 9.29900 36.42500
H  37.93500 6.65000 32.81400
H  38.58600 7.04300 26.31800
H  44.32100 9.57300 26.88800
H  41.74200 8.44400 34.97100
H  38.81200 8.22000 34.65700
H  40.93900 6.51400 35.59800
H  39.91000 5.74400 34.48200
H  39.19100 6.51700 35.89200
H  39.66600 10.40500 35.41500
H  40.84700 11.16400 34.26200
H  42.48600 11.14600 35.95800
H  41.70600 9.93300 36.85400
H  36.59800 5.25800 31.79200
H  35.94000 4.42200 30.38300
H  35.24600 6.06500 30.83600
H  34.84900 5.17100 28.61600
H  34.28400 6.00700 27.16800
H  34.39900 6.89800 28.73700
H  40.15600 8.43600 24.83300
H  43.09700 8.21700 25.19300
H  40.52800 5.65000 25.26300
H  42.08400 6.08100 24.58300
H  40.52800 6.47100 23.74800
H  41.94800 10.21200 23.75700
H  43.14000 10.65200 24.90400
H  40.40500 10.75600 26.06200
H  40.83500 12.04300 24.91800
H  41.85700 11.72900 26.32100
H  46.14300 11.69400 28.49400
H  46.42100 9.96900 28.23400
H  46.92900 10.62400 29.65000
H  43.47000 11.30300 33.88100
H  46.52700 9.51900 36.39900
H  45.31200 8.22300 36.32700
H  45.12900 9.64700 37.40300
Mg 9.24700 48.47900 25.65200
C  6.82800 49.06500 28.15900
C  11.65800 49.45900 27.95300
C  11.36900 48.15400 23.23200
C  6.52000 47.81700 23.48200
N  9.24100 49.32200 27.69300
C  8.17400 49.34500 28.53500
C  8.61300 49.55400 30.01500
C  9.95800 50.20500 29.73800
C  10.32900 49.60900 28.40700
C  9.91000 51.70900 29.73700
C  8.83000 48.21100 30.79700
C  9.49500 48.23100 32.23600
H  8.85100 47.23600 33.20600
N  11.19100 48.75700 25.61000
C  12.01000 49.04900 26.63300
C  13.43100 49.01000 26.17200
C  13.32700 48.67400 24.78900
C  11.94100 48.58400 24.48600
C  14.56600 49.28000 27.03500
C  14.54600 48.47200 23.79300
O  14.53000 48.25200 22.61300
C  15.89300 48.45200 24.45800
N  8.94100 47.90000 23.68000
C  10.04900 47.89100 22.86500
C  9.63200 47.38500 21.46200
C  8.05600 47.54500 21.45200
C  7.83500 47.72200 22.96000
C  10.23100 48.05700 20.22000
C  7.24900 46.34100 20.81900
C  6.05300 46.57800 19.86800
N  7.04900 48.34200 25.73500
C  6.11500 48.08000 24.77700
C  4.75400 48.16700 25.40300
C  5.01400 48.43700 26.73000
C  6.41500 48.65200 26.85900
C  3.44600 47.89800 24.71700
C  4.36100 48.51400 27.96000
O  3.19100 48.29100 28.30900
C  5.49000 49.02600 28.91000
C  5.38900 48.07400 30.06300
O  5.49000 46.86800 30.01200
O  4.88800 48.68600 31.19000
C  4.36800 47.68900 32.16400
H  12.44100 49.91600 28.56100
H  12.14800 48.06400 22.47200
H  5.77700 47.61600 22.70800
H  7.88300 50.11700 30.59600
H  10.81500 49.91500 30.34600
H  8.88200 52.06600 29.80600
H  10.37600 52.09700 28.83100
H  10.44400 52.09300 30.60600
H  9.61600 47.67300 30.26700
H  7.97600 47.53500 30.78000
H  9.36000 49.22200 32.66900
H  10.54300 48.00100 32.04500
H  15.12800 48.34900 27.10700
H  14.30200 49.54100 28.06000
H  15.16200 50.05500 26.55400
H  16.18600 49.42900 24.84300
H  16.64800 48.07100 23.77100
H  15.98100 47.63500 25.17400
H  10.00100 46.36100 21.39200
H  7.63200 48.50600 21.16200
H  11.29400 48.21700 20.40400
H  9.67200 48.95900 19.97100
H  10.29900 47.31200 19.42800
H  6.90400 45.72600 21.65000
H  7.89100 45.71300 20.20200
H  6.03200 47.56200 19.39800
H  5.10300 46.30500 20.32800
H  6.14300 45.86300 19.05000
H  3.09900 48.76100 24.14900
H  2.71300 47.46100 25.39500
H  3.63100 47.06900 24.03400
H  5.06600 49.98800 29.19800
H  3.81000 46.86600 31.71600
H  3.81600 48.04000 33.03500
H  5.19000 47.11800 32.59600

