158

Mg 17.14900 -2.60800 28.34000
C  16.07900 -0.16400 30.87700
C  18.51800 -4.34200 30.76000
C  18.35800 -4.37300 25.89200
C  15.61000 -0.26800 25.90800
N  17.15100 -2.34300 30.64000
C  16.67400 -1.33000 31.40000
C  17.08200 -1.58900 32.84700
C  18.08100 -2.78600 32.76800
C  17.90300 -3.22800 31.31000
C  19.57400 -2.30900 33.19000
C  15.83800 -1.91200 33.73700
C  15.87100 -1.66900 35.31000
H  17.09300 -0.99500 36.00600
N  18.17800 -4.21800 28.28700
C  18.66600 -4.84200 29.40100
C  19.43900 -5.95700 29.04200
C  19.40700 -5.99600 27.61900
C  18.66500 -4.79600 27.19900
C  20.06400 -6.95500 30.05600
C  20.04400 -7.05300 26.70900
O  19.96800 -6.98000 25.48800
C  20.78400 -8.26000 27.19500
N  16.95400 -2.39600 26.20000
C  17.60000 -3.32100 25.46400
C  17.21000 -3.15100 24.01700
C  16.37400 -1.82400 23.96200
C  16.30800 -1.45300 25.41900
C  18.35100 -3.08900 22.98200
C  15.00900 -1.91100 23.26100
C  14.93100 -1.13900 21.98500
N  16.17000 -0.63600 28.32600
C  15.53600 0.06900 27.25200
C  14.69500 1.18200 27.81900
C  15.07500 1.20500 29.20800
C  15.90200 0.04900 29.49800
C  13.82600 2.10100 27.09600
C  14.75400 1.83300 30.44700
O  13.97200 2.79500 30.67500
C  15.48700 1.00800 31.64900
C  16.61500 1.78300 32.30200
O  17.73700 2.01700 31.90700
O  16.12500 2.39400 33.39200
C  17.03800 3.16800 34.18700
H  18.95400 -4.87700 31.60700
H  18.63300 -5.06900 25.09700
H  14.98400 0.29600 25.21400
H  17.48000 -0.67900 33.29800
H  17.88000 -3.60400 33.46100
H  19.71100 -1.29600 32.81100
H  20.31600 -2.98200 32.76200
H  19.46700 -2.24900 34.27300
H  15.56600 -2.96000 33.61600
H  15.01100 -1.33900 33.31800
H  15.74400 -2.63500 35.79700
H  15.04600 -1.00800 35.57600
H  19.64000 -7.92800 29.80700
H  19.85800 -6.78000 31.11200
H  21.15000 -7.00900 29.97900
H  20.23800 -9.09100 27.64200
H  21.58200 -7.94500 27.86600
H  21.20800 -8.73900 26.31200
H  16.64300 -4.04200 23.74500
H  16.95900 -1.01400 23.52700
H  18.37100 -4.15700 22.76200
H  19.32800 -2.93000 23.43800
H  18.15700 -2.47400 22.10300
H  14.20500 -1.51700 23.88300
H  14.83600 -2.95900 23.02000
H  15.77800 -0.52600 21.67600
H  14.04500 -0.50900 22.06200
H  14.73800 -1.89100 21.21900
H  13.16100 2.55600 27.83100
H  13.20000 1.55900 26.38800
H  14.41700 2.83000 26.54300
H  14.83300 0.68600 32.46000
H  17.22800 4.13100 33.71400
H  17.99900 2.65700 34.23300
H  16.53800 3.46500 35.10800
Mg 53.25700 23.62700 44.90100
C  50.46000 25.72300 44.02100
C  51.25900 20.97600 43.98000
C  56.01200 21.88300 45.02200
C  55.13300 26.63000 45.49000
N  51.17200 23.36100 43.79800
C  50.19900 24.40400 43.68600
C  48.93100 23.82300 43.11200
C  49.01000 22.37800 43.63600
C  50.61100 22.18900 43.81300
C  48.24300 22.02900 44.88700
C  48.97900 23.90900 41.58800
C  47.65900 24.53200 40.93200
H  46.91200 23.53100 39.99300
N  53.63400 21.67900 44.49400
C  52.66500 20.69600 44.16400
C  53.34000 19.42000 43.95200
C  54.71000 19.68900 44.26300
C  54.85200 21.08700 44.68600
C  52.69700 18.08500 43.68900
C  55.82900 18.66800 44.20800
O  55.49400 17.48900 43.93500
C  57.16500 18.92300 44.45800
N  55.24800 24.24300 45.16800
C  56.16200 23.22800 45.32900
C  57.56400 23.83200 45.36500
C  57.30800 25.36400 45.50200
C  55.82200 25.39700 45.37000
C  58.61000 23.35600 46.40300
C  57.88200 26.28100 44.42600
C  58.58000 27.48200 44.93100
N  52.81800 25.69500 44.98400
C  53.71500 26.74100 45.36500
C  52.98900 27.95100 45.34000
C  51.66200 27.58200 44.86400
C  51.67100 26.19900 44.62600
C  53.46200 29.31600 45.70500
C  50.40400 28.17400 44.47800
O  50.00800 29.38000 44.50600
C  49.56400 26.96000 43.95800
C  49.05000 27.21500 42.58900
O  49.68600 27.21300 41.57100
O  47.83900 27.81100 42.74100
C  47.18400 28.18600 41.52500
H  50.55600 20.17600 43.73700
H  56.96700 21.35500 45.01900
H  55.77200 27.47600 45.75000
H  48.09800 24.35600 43.57200
H  48.71700 21.64800 42.88200
H  47.86600 22.84900 45.49700
H  48.82800 21.32600 45.48000
H  47.30600 21.51700 44.66900
H  49.21300 22.99700 41.03800
H  49.81300 24.56100 41.32700
H  47.96500 25.46700 40.46100
H  46.95100 24.78100 41.72300
H  53.01400 17.76100 42.69700
H  51.63200 18.31600 43.71200
H  52.86700 17.35200 44.47700
H  57.79900 18.04500 44.33100
H  57.23400 19.33700 45.46400
H  57.40000 19.69100 43.72200
H  58.00100 23.58100 44.39900
H  57.54400 25.63300 46.53100
H  59.05500 24.18700 46.95100
H  59.52100 22.90100 46.01300
H  58.25800 22.51600 47.00200
H  57.20700 26.56500 43.61900
H  58.61500 25.61600 43.96800
H  58.19300 28.37300 44.43700
H  59.63400 27.51200 44.65500
H  58.39100 27.57600 46.00100
H  53.09200 29.69900 46.65500
H  53.15500 29.98400 44.90100
H  54.54900 29.35200 45.63200
H  48.68500 26.80500 44.58400
H  46.25500 27.62100 41.45400
H  47.66900 27.85900 40.60600
H  46.94600 29.24900 41.50700

