158

Mg 55.16400 23.56400 44.51900
C  52.48900 25.59100 43.41300
C  53.37000 20.81900 43.37100
C  57.95700 21.77300 44.75800
C  56.82300 26.40400 45.71600
N  53.25100 23.28700 43.36200
C  52.26400 24.26100 43.11200
C  50.98700 23.59400 42.71600
C  51.16100 22.03200 42.89500
C  52.64000 21.99300 43.27400
C  50.18100 21.34900 43.95800
C  50.58400 23.90900 41.24200
C  49.06500 23.90200 41.09500
H  48.41000 23.63400 39.72700
N  55.62300 21.57900 44.07100
C  54.76300 20.58200 43.64200
C  55.49500 19.37000 43.50400
C  56.89000 19.62700 43.70600
C  56.90200 21.00300 44.25600
C  54.90500 18.05000 43.00600
C  57.98900 18.68800 43.47700
O  57.70100 17.53300 43.23000
C  59.38200 19.01100 43.62600
N  57.14600 24.09200 45.25100
C  58.11200 23.12400 45.19300
C  59.45300 23.73800 45.63700
C  59.16200 25.22800 46.03600
C  57.65200 25.26000 45.70900
C  60.30000 22.97900 46.65100
C  60.02200 26.25600 45.25400
C  60.72000 27.36300 45.86800
N  54.78400 25.55700 44.53700
C  55.53400 26.59100 45.12700
C  54.80500 27.79100 44.95600
C  53.61700 27.39300 44.35400
C  53.66200 26.05700 44.05800
C  55.21500 29.13600 45.36500
C  52.40400 27.98400 43.89900
O  52.06600 29.16700 43.99200
C  51.61400 26.84500 43.19500
C  51.44900 27.26200 41.76000
O  52.38300 27.45600 41.00600
O  50.05300 27.20300 41.39400
C  49.77700 27.30300 39.96700
H  52.73800 19.93100 43.30400
H  58.88300 21.19500 44.76200
H  57.25900 27.37200 45.96800
H  50.10300 23.87800 43.28600
H  50.98400 21.44900 41.99100
H  50.67200 21.00500 44.86900
H  49.77700 20.44400 43.50600
H  49.51900 22.13800 44.31700
H  51.04700 23.18400 40.57300
H  50.90900 24.89500 40.90900
H  48.80900 24.92300 41.37900
H  48.58800 23.29000 41.86000
H  55.34200 17.86400 42.02500
H  53.87100 18.08300 42.66300
H  55.07100 17.21700 43.69000
H  59.75100 19.80600 42.97800
H  60.04300 18.16000 43.46200
H  59.50300 19.26400 44.67900
H  60.16100 23.60500 44.81900
H  59.28200 25.45800 47.09400
H  60.66600 23.51700 47.52500
H  61.22500 22.62500 46.19700
H  59.64900 22.21000 47.06900
H  59.34200 26.59300 44.47100
H  60.77700 25.77700 44.63200
H  61.78400 27.15700 45.75300
H  60.50400 27.40500 46.93500
H  60.48200 28.31600 45.39600
H  56.12500 29.37600 44.81600
H  55.31700 29.20800 46.44800
H  54.49700 29.93600 45.18400
H  50.61700 26.68200 43.60500
H  48.75200 26.97100 39.79800
H  50.57000 26.77900 39.43400
H  49.74300 28.36000 39.70300
Mg 48.25800 15.67100 28.55900
C  46.06200 15.47900 31.21400
C  50.62400 16.93300 30.78100
C  50.30300 16.04500 25.90700
C  45.75000 14.49500 26.49800
N  48.29400 16.31000 30.79000
C  47.29600 16.00800 31.63900
C  47.73100 16.36000 33.05700
C  49.08700 17.13100 32.85800
C  49.37000 16.86000 31.37400
C  49.03700 18.65700 33.18100
C  47.94100 15.08600 33.94700
C  47.48300 15.12400 35.40400
H  47.33700 16.45300 36.14600
N  50.18900 16.39600 28.37900
C  50.97100 16.86900 29.35800
C  52.27200 17.22900 28.78500
C  52.35400 16.80500 27.40600
C  50.90100 16.35300 27.16400
C  53.43500 17.78200 29.72500
C  53.46100 16.87200 26.42800
O  53.32000 16.46800 25.27100
C  54.82400 17.46300 26.81700
N  48.02900 15.37400 26.50300
C  48.99000 15.66300 25.59200
C  48.46400 15.43400 24.17800
C  47.14100 14.68100 24.38500
C  46.95000 14.79800 25.89000
C  48.33800 16.71500 23.37300
C  47.16200 13.23400 23.68300
C  47.53300 11.99500 24.57100
N  46.32000 14.95600 28.75000
C  45.40500 14.49300 27.84700
C  44.21800 14.09400 28.55700
C  44.46000 14.36100 29.90200
C  45.78100 14.91300 29.93500
C  43.06300 13.48100 27.95400
C  43.90500 14.33200 31.26400
O  42.86400 13.83400 31.66700
C  45.02700 15.00100 32.13700
C  44.51600 16.08100 33.12600
O  44.47800 17.31600 32.90400
O  44.09100 15.39500 34.28100
C  43.49200 16.24500 35.30100
H  51.43500 17.38300 31.35800
H  50.99200 16.15900 25.06700
H  45.00200 14.17900 25.76700
H  47.08100 17.07900 33.55600
H  49.82200 16.69600 33.53500
H  49.23400 19.18400 32.24700
H  49.78700 18.91900 33.92800
H  48.01000 18.91400 33.44100
H  48.97200 14.73500 33.91300
H  47.55800 14.19100 33.45800
H  48.28300 14.67000 35.98900
H  46.52800 14.62800 35.57500
H  53.47900 17.40300 30.74600
H  53.37500 18.87000 29.69100
H  54.45800 17.54300 29.43600
H  54.78300 18.45400 27.26800
H  55.27600 17.74600 25.86600
H  55.50000 16.84100 27.40400
H  49.15800 14.78100 23.64900
H  46.31300 15.18800 23.89100
H  47.42300 16.83500 22.79300
H  49.17200 16.80300 22.67800
H  48.41900 17.54700 24.07200
H  47.82600 13.14900 22.82300
H  46.17300 13.05400 23.26100
H  48.12900 11.29300 23.98800
H  46.68000 11.44600 24.97100
H  48.05300 12.36500 25.45500
H  43.35700 12.55800 27.45400
H  42.68600 14.28300 27.31900
H  42.36300 13.23700 28.75300
H  45.51000 14.30400 32.82100
H  44.11000 17.12200 35.49500
H  43.28200 15.70700 36.22500
H  42.57300 16.71900 34.95500

