158

Mg 16.51500 -2.31200 27.46600
C  15.11900 -0.32300 30.11000
C  18.78100 -3.51700 29.78900
C  17.79000 -3.85700 24.95400
C  14.46400 -0.46200 25.26600
N  16.98100 -1.86300 29.75800
C  16.21600 -1.11200 30.62800
C  16.79000 -1.19200 32.13200
C  18.06500 -2.15200 31.89200
C  17.96500 -2.52800 30.40000
C  19.42300 -1.49100 32.40700
C  15.74600 -1.66400 33.17400
C  15.75600 -0.92500 34.46900
H  16.98200 -0.18500 34.84500
N  18.04900 -3.54700 27.40100
C  18.73900 -4.08200 28.44200
C  19.46100 -5.17600 27.99700
C  19.23000 -5.34800 26.58400
C  18.32600 -4.27300 26.27600
C  20.29200 -5.92900 29.02500
C  19.77600 -6.44300 25.64600
O  19.41200 -6.51700 24.49300
C  20.68300 -7.57600 26.21200
N  16.43200 -1.95600 25.41300
C  16.98800 -2.85500 24.54000
C  16.66700 -2.52700 23.07300
C  15.38700 -1.70600 23.19900
C  15.36200 -1.39300 24.76200
C  17.81300 -1.82300 22.28300
C  14.06900 -2.45900 22.91900
C  13.36900 -2.18300 21.55100
N  15.00100 -0.80000 27.60500
C  14.31900 -0.18000 26.60300
C  13.43200 0.81900 27.17000
C  13.66800 0.77900 28.54000
C  14.66300 -0.24800 28.77100
C  12.63200 1.79800 26.48500
C  13.36300 1.41600 29.76700
O  12.55600 2.30600 29.97600
C  14.29100 0.68500 30.88500
C  15.06100 1.64300 31.71900
O  16.21800 1.86300 31.57900
O  14.25700 2.28500 32.67600
C  14.89200 3.42500 33.39200
H  19.45200 -3.94300 30.53700
H  18.18200 -4.42600 24.10900
H  13.80900 -0.04400 24.49900
H  17.15200 -0.19300 32.37200
H  18.02300 -3.08600 32.45200
H  19.68800 -2.06900 33.29300
H  19.28200 -0.45100 32.70200
H  20.18300 -1.49700 31.62700
H  15.83800 -2.72800 33.39100
H  14.79500 -1.62300 32.64300
H  15.64400 -1.63600 35.28700
H  14.95900 -0.21300 34.25200
H  21.08000 -5.35700 29.51500
H  20.66300 -6.88300 28.65100
H  19.73900 -6.31600 29.88100
H  21.02600 -8.21500 25.39700
H  20.03900 -8.20800 26.82300
H  21.53300 -7.16700 26.75800
H  16.52900 -3.43300 22.48300
H  15.41800 -0.81700 22.57000
H  17.67800 -0.90500 21.71100
H  18.13700 -2.43200 21.43900
H  18.63900 -1.62200 22.96500
H  13.32700 -2.28400 23.69800
H  14.22200 -3.53500 23.01000
H  12.40800 -1.70800 21.74800
H  13.22900 -3.08200 20.95000
H  13.97400 -1.52500 20.92700
H  11.70400 2.11500 26.95900
H  12.28500 1.36700 25.54600
H  13.22300 2.70000 26.32500
H  13.59200 0.31000 31.63300
H  15.70300 3.93300 32.87000
H  15.44200 3.07700 34.26600
H  14.20600 4.18900 33.75900
Mg 47.08500 16.83700 28.88000
C  45.13300 16.85400 31.86100
C  49.39700 18.53300 30.41900
C  48.58200 17.21600 25.82400
C  44.49600 15.19700 27.18300
N  47.28700 17.45700 30.98700
C  46.38200 17.39100 32.01000
C  46.94100 18.07700 33.30300
C  48.32500 18.64300 32.83400
C  48.34000 18.21900 31.33800
C  48.38600 20.15100 32.98100
C  47.00700 17.07600 34.51100
C  47.46600 17.66700 35.85800
H  47.28700 19.19900 36.21700
N  48.82000 17.56100 28.25500
C  49.68600 18.24100 29.03300
C  50.88200 18.53400 28.32100
C  50.66900 18.12900 26.97900
C  49.29000 17.60200 26.98400
C  52.12500 19.14600 28.95300
C  51.65100 18.28000 25.74100
O  51.33100 17.94400 24.57100
C  53.02600 18.95100 25.90900
N  46.53400 16.28100 26.82800
C  47.31300 16.54200 25.75400
C  46.83500 16.02400 24.41600
C  45.59000 15.25600 24.87300
C  45.47300 15.62800 26.38600
C  46.56900 17.08600 23.33700
C  45.59400 13.76000 24.50200
C  44.99200 13.41300 23.14500
N  45.22400 16.11600 29.43800
C  44.26600 15.48700 28.58600
C  43.07400 15.20700 29.35000
C  43.36300 15.70200 30.64100
C  44.70800 16.26800 30.61100
C  41.84000 14.57900 28.79800
C  42.78600 15.87600 32.01500
O  41.66800 15.52500 32.43900
C  43.91200 16.60600 32.84900
C  43.39900 17.83500 33.59100
O  42.94300 18.81900 33.01200
O  43.39200 17.71700 34.92900
C  42.44600 18.51300 35.66300
H  50.14800 19.13700 30.93300
H  49.17500 17.34600 24.91600
H  43.75300 14.61800 26.63100
H  46.20800 18.84600 33.54900
H  49.15800 18.10300 33.28200
H  47.53600 20.52900 33.55100
H  48.24200 20.61700 32.00700
H  49.26600 20.66400 33.36900
H  47.65600 16.22500 34.30500
H  46.07100 16.55000 34.69700
H  48.50000 17.32300 35.80800
H  46.98300 17.17700 36.70300
H  52.89900 18.37900 28.92900
H  51.83000 19.46200 29.95300
H  52.41200 20.00600 28.34700
H  53.54700 18.46800 26.73500
H  52.82900 19.98100 26.20400
H  53.68400 18.90700 25.04200
H  47.58900 15.29000 24.13100
H  44.64600 15.61100 24.45800
H  46.46500 18.06700 23.80100
H  45.75300 16.81200 22.66900
H  47.54200 17.13900 22.84900
H  45.15400 13.16100 25.30000
H  46.65000 13.49500 24.46800
H  43.97300 13.07000 23.32100
H  45.53000 12.58200 22.68900
H  44.93900 14.17400 22.36600
H  41.69000 14.88400 27.76300
H  40.99500 14.88900 29.41200
H  41.92100 13.50500 28.96700
H  44.34700 16.05400 33.68200
H  42.66600 19.57200 35.53300
H  42.57400 18.25100 36.71400
H  41.42900 18.19300 35.43700

