158

Mg 35.54100 1.88600 29.73600
C  33.31400 2.71000 32.23800
C  38.06300 1.80700 32.18500
C  37.87500 1.52900 27.34200
C  32.99700 1.83500 27.41300
N  35.69400 2.16400 31.98900
C  34.60900 2.45900 32.80800
C  34.99300 2.35200 34.30700
C  36.62700 2.36700 34.24300
C  36.84400 2.06900 32.71700
C  37.33100 3.74800 34.52800
C  34.26300 1.21100 35.03700
C  33.84000 1.57000 36.48500
H  34.19700 2.94900 37.07300
N  37.65500 1.69000 29.71200
C  38.50200 1.57500 30.84000
C  39.86400 1.49000 30.38600
C  39.89600 1.49700 28.96900
C  38.43200 1.60400 28.62300
C  41.05400 1.48900 31.38900
C  41.06600 1.40900 27.95200
O  40.90700 1.56000 26.77700
C  42.46000 1.05500 28.43800
N  35.45300 1.80300 27.69600
C  36.56500 1.75500 26.90700
C  36.15100 1.63300 25.40400
C  34.60000 1.48200 25.44900
C  34.29400 1.63700 26.94300
C  36.76500 2.70800 24.44000
C  34.13700 0.13300 24.80700
C  32.70200 0.10800 24.15800
N  33.57300 2.37400 29.74300
C  32.61400 2.22700 28.71700
C  31.33600 2.58200 29.17800
C  31.54500 2.76800 30.58400
C  32.92500 2.65900 30.87600
C  30.07000 2.72800 28.44400
C  30.93400 3.01100 31.83000
O  29.73400 3.17600 32.16300
C  32.01700 3.12500 32.95300
C  32.10700 4.46700 33.52200
O  32.97600 5.29600 33.20300
O  31.21000 4.64200 34.56200
C  31.31400 5.89200 35.32300
H  38.86800 1.87500 32.92000
H  38.49200 1.30500 26.46900
H  32.15700 1.67100 26.73500
H  34.49900 3.24400 34.69300
H  36.98100 1.54700 34.86800
H  36.61200 4.26600 35.16200
H  37.35900 4.26100 33.56700
H  38.28300 3.83500 35.05200
H  35.00300 0.41500 35.10800
H  33.50400 0.84100 34.34800
H  34.29400 0.81100 37.12200
H  32.77200 1.38700 36.60300
H  41.74700 0.75900 30.97000
H  40.77000 1.16800 32.39100
H  41.43300 2.51000 31.43300
H  43.12200 0.99200 27.57300
H  42.33400 0.07100 28.88900
H  42.82200 1.82900 29.11400
H  36.55200 0.66900 25.09400
H  34.09800 2.28600 24.91100
H  37.39500 3.39400 25.00700
H  36.17600 3.19900 23.66500
H  37.40700 2.05200 23.85200
H  34.39000 -0.62600 25.54700
H  34.75900 -0.12500 23.95000
H  31.99100 -0.38500 24.82100
H  32.79600 -0.32400 23.16200
H  32.35400 1.10900 23.90200
H  29.66900 3.71900 28.22800
H  29.20100 2.40400 29.01700
H  30.11600 2.21100 27.48600
H  31.76500 2.43900 33.76200
H  31.18800 6.71800 34.62300
H  32.33800 5.87500 35.69800
H  30.57700 5.77900 36.11700
Mg 39.49300 9.38400 29.32800
C  41.31200 10.59100 31.90300
C  37.62100 7.50600 31.60600
C  37.94400 7.94100 26.74000
C  41.97800 10.51800 27.03300
N  39.34800 9.16200 31.43900
C  40.21700 9.86400 32.31100
C  39.79300 9.73000 33.71900
C  38.75400 8.50400 33.70400
C  38.54500 8.34100 32.17200
C  39.28700 7.16200 34.31900
C  39.19300 11.07600 34.22900
C  39.15000 11.10800 35.70900
H  39.60100 12.41100 36.35700
N  37.88400 8.04000 29.21000
C  37.18000 7.37400 30.22400
C  36.10000 6.59100 29.61500
C  36.15900 6.78200 28.19900
C  37.37100 7.61700 28.00000
C  35.16000 5.86900 30.61800
C  35.27000 6.13200 27.07300
O  35.49700 6.41400 25.87500
C  34.22000 5.16000 27.46200
N  39.98400 9.22600 27.18900
C  39.09400 8.61700 26.38700
C  39.44600 8.85400 24.94400
C  40.74900 9.71400 25.00800
C  41.00100 9.81200 26.49300
C  39.67900 7.63300 24.05300
C  40.61300 11.09600 24.27900
C  39.63300 12.11700 24.80900
N  41.29100 10.31500 29.44200
C  42.15600 10.68900 28.42200
C  43.26000 11.33200 29.10000
C  43.01300 11.30200 30.45900
C  41.75800 10.66900 30.60400
C  44.48000 11.91200 28.35400
C  43.46500 11.75500 31.75300
O  44.52000 12.33000 31.99100
C  42.40700 11.40200 32.78000
C  43.07800 10.45500 33.77500
O  43.82300 9.53800 33.56500
O  42.79100 10.85400 35.03300
C  43.09100 10.04500 36.23200
H  37.04900 6.92100 32.33000
H  37.46800 7.50100 25.86100
H  42.68300 10.99500 26.34800
H  40.67100 9.60500 34.35200
H  37.78600 8.75100 34.14000
H  40.27100 7.37100 34.73900
H  39.42500 6.43200 33.52200
H  38.64500 6.77700 35.11100
H  38.21300 11.07600 33.75200
H  39.57500 11.98200 33.75600
H  39.67100 10.25900 36.15200
H  38.09900 11.11400 36.00000
H  35.38700 5.92500 31.68200
H  35.07900 4.81900 30.33400
H  34.16800 6.30700 30.51000
H  33.67500 5.55500 28.31900
H  34.77400 4.25200 27.70400
H  33.60400 5.04000 26.57100
H  38.58200 9.37900 24.53500
H  41.54500 9.20800 24.46100
H  38.88700 7.44600 23.32800
H  39.71200 6.72900 24.66100
H  40.59500 7.60300 23.46300
H  40.28400 10.93100 23.25300
H  41.53700 11.67000 24.20700
H  39.24200 11.92800 25.80900
H  38.75000 12.02000 24.17700
H  40.03200 13.12900 24.88600
H  44.21100 12.15200 27.32600
H  45.33800 11.25700 28.50100
H  44.74800 12.78500 28.95000
H  41.98200 12.30700 33.21400
H  42.94300 9.00300 35.95000
H  42.51400 10.26600 37.13000
H  44.16900 10.12600 36.36800

