158

Mg 9.02500 4.82000 27.90400
C  10.21700 3.00300 30.60300
C  7.01900 6.61200 30.08000
C  7.46500 6.26500 25.17400
C  10.68200 2.64000 25.71600
N  8.55400 4.70400 30.10800
C  9.30900 4.02300 31.02500
C  8.83600 4.33300 32.50700
C  7.89200 5.44500 32.21300
C  7.85000 5.59000 30.69000
C  6.50600 5.46200 32.90600
C  10.10500 4.47500 33.44800
C  9.75500 5.37800 34.59100
H  10.61200 5.28000 35.89800
N  7.64200 6.35700 27.68000
C  6.94500 6.99600 28.66400
C  6.16300 8.06200 28.04800
C  6.26900 7.96800 26.63100
C  7.15500 6.80600 26.44200
C  5.31400 8.95300 28.82800
C  5.80600 8.83300 25.51100
O  6.05800 8.55900 24.36500
C  5.18900 10.15800 25.82900
N  9.13100 4.59500 25.75600
C  8.39600 5.22800 24.88600
C  8.57500 4.66000 23.49300
C  9.63700 3.46600 23.59800
C  9.84800 3.59600 25.12700
C  7.29700 4.30600 22.64000
C  10.95200 3.55200 22.80200
C  11.17800 2.19800 21.94400
N  10.20800 3.26200 28.02700
C  10.84700 2.45400 27.08800
C  11.57000 1.45200 27.75600
C  11.42100 1.64200 29.11900
C  10.56400 2.75100 29.23100
C  12.28800 0.33200 27.07700
C  11.74100 1.16300 30.44000
O  12.50300 0.30300 30.84000
C  11.07200 2.13700 31.45600
C  10.42100 1.31400 32.47200
O  9.35300 0.69400 32.34800
O  11.21400 1.32000 33.68900
C  10.36300 0.93900 34.81600
H  6.45800 7.23200 30.78200
H  6.93300 6.60500 24.28200
H  11.18100 1.93400 25.04800
H  8.27200 3.48600 32.89700
H  8.47900 6.29400 32.56500
H  6.42500 4.61700 33.59000
H  5.69500 5.33900 32.18900
H  6.27900 6.36600 33.47100
H  10.92500 4.97700 32.93500
H  10.45000 3.49900 33.78800
H  8.68500 5.37100 34.80000
H  9.90500 6.39900 34.24000
H  5.23300 8.76400 29.89800
H  4.34900 8.79800 28.34600
H  5.72200 9.94400 28.63200
H  5.92300 10.92500 26.07400
H  4.50400 10.03700 26.66900
H  4.57900 10.48100 24.98500
H  9.03400 5.44000 22.88500
H  9.02900 2.58200 23.40300
H  6.35400 4.76400 22.93700
H  6.99400 3.27200 22.80900
H  7.44100 4.57700 21.59400
H  11.81400 3.74100 23.44100
H  10.85700 4.41800 22.14700
H  10.23600 1.65700 21.85400
H  11.98600 1.53900 22.26200
H  11.53300 2.52500 20.96700
H  13.05100 0.79700 26.45200
H  11.71700 -0.29800 26.39600
H  12.83200 -0.29600 27.78200
H  11.84800 2.77200 31.88300
H  10.52600 -0.13600 34.89200
H  9.30700 1.20700 34.79400
H  10.73800 1.55000 35.63800
Mg 17.51900 -0.42800 28.31100
C  16.70600 1.35700 31.16200
C  19.55400 -2.55700 30.27500
C  18.88200 -1.81700 25.38900
C  15.78800 1.87600 26.32600
N  18.19600 -0.43500 30.37200
C  17.66500 0.30200 31.37400
C  18.04900 -0.25600 32.79900
C  19.27800 -1.13500 32.48000
C  19.05600 -1.38600 30.92300
C  20.68300 -0.65500 32.71600
C  16.81100 -0.88100 33.51000
C  16.76900 -0.93200 35.07000
H  17.83200 -0.25600 35.85100
N  18.80100 -2.04500 27.90700
C  19.43900 -2.83700 28.86700
C  20.03100 -4.01700 28.19800
C  19.94300 -3.73600 26.81700
C  19.14600 -2.48300 26.63200
C  20.49000 -5.17000 29.06200
C  20.27500 -4.62100 25.75700
O  20.02800 -4.44800 24.57800
C  21.10700 -5.79500 26.02900
N  17.32800 0.04000 26.18800
C  18.01600 -0.68200 25.16700
C  17.59300 -0.15900 23.76900
C  16.54500 0.97600 24.06100
C  16.47000 0.88400 25.63600
C  18.89000 0.31000 22.88200
C  15.20900 0.91400 23.28700
C  14.79400 2.12700 22.45400
N  16.41700 1.26600 28.62400
C  15.72900 2.05100 27.74400
C  15.01800 3.03900 28.52600
C  15.36500 2.74300 29.83600
C  16.25500 1.68500 29.81500
C  14.20400 4.18300 28.09600
C  15.15100 3.22200 31.23300
O  14.46900 4.11500 31.69300
C  16.05400 2.33300 32.10200
C  16.94900 3.13600 33.03800
O  18.09000 3.51400 32.82600
O  16.23000 3.44500 34.13300
C  16.87600 4.32400 35.10400
H  20.16700 -3.31300 30.77100
H  19.20700 -2.24500 24.43800
H  15.19500 2.63000 25.80500
H  18.40000 0.59000 33.39000
H  19.10200 -2.07800 32.99700
H  21.23900 -0.73300 31.78200
H  21.19400 -1.25500 33.46900
H  20.58100 0.39700 32.98100
H  16.72000 -1.90700 33.15300
H  15.88900 -0.44700 33.12200
H  16.70600 -1.94600 35.46600
H  15.88300 -0.30900 35.19300
H  20.17600 -6.12600 28.64300
H  20.05000 -5.01300 30.04700
H  21.56700 -5.05600 29.18700
H  21.84200 -5.42500 26.74400
H  21.58200 -6.26700 25.16900
H  20.34600 -6.47600 26.41000
H  17.16100 -1.04200 23.30000
H  16.96900 1.97000 23.91500
H  19.21400 -0.42200 22.14200
H  19.72600 0.67700 23.47700
H  18.60200 1.17500 22.28500
H  14.43300 0.65500 24.00800
H  15.28600 0.04200 22.63700
H  14.87600 1.83000 21.40800
H  15.38100 3.02500 22.64200
H  13.76200 2.34800 22.72600
H  13.68300 3.98700 27.15800
H  14.79100 5.10100 28.07500
H  13.38700 4.31500 28.80600
H  15.34300 1.82700 32.75400
H  16.45700 4.02700 36.06500
H  16.74000 5.40000 34.98800
H  17.95900 4.23300 35.18400

