158

Mg 45.83600 3.94600 48.61400
C  43.99100 6.90000 47.86400
C  43.15600 2.13600 47.52700
C  47.78400 1.13700 48.71300
C  48.67500 5.88900 49.06600
N  43.73800 4.53500 47.81300
C  43.21800 5.74200 47.69900
C  41.74700 5.64800 47.29300
C  41.52400 4.11300 47.23800
C  42.84900 3.50400 47.68100
C  40.33200 3.52300 48.02400
C  41.33800 6.46100 46.00900
C  42.14600 6.49400 44.74600
H  41.29700 6.32400 43.46800
N  45.50600 1.92300 48.20500
C  44.39500 1.41300 47.66400
C  44.59200 -0.09300 47.40700
C  45.97100 -0.38400 47.67300
C  46.50600 0.91700 48.21000
C  43.52300 -0.93100 46.77300
C  46.64200 -1.72900 47.38300
O  46.05600 -2.71800 46.97700
C  48.09400 -1.96400 47.48100
N  47.99600 3.59700 48.73800
C  48.44600 2.37300 48.96100
C  49.96300 2.47600 49.26500
C  50.24100 4.02300 49.36500
C  48.88400 4.52900 48.98400
C  50.43500 1.69000 50.52500
C  51.34200 4.62800 48.47800
C  51.04500 4.85800 47.03200
N  46.31400 5.94600 48.57700
C  47.47600 6.58800 48.73500
C  47.25600 8.03100 48.57600
C  45.92000 8.15700 48.29800
C  45.37200 6.86400 48.26400
C  48.32600 9.10300 48.70600
C  44.84900 9.16700 48.00700
O  44.88100 10.38100 47.85600
C  43.56600 8.37100 47.60200
C  42.50200 8.87500 48.45100
O  42.10400 8.45900 49.49200
O  41.76200 9.84200 47.83600
C  40.35300 9.96000 48.37000
H  42.30900 1.56600 47.14000
H  48.33000 0.22500 48.96100
H  49.52200 6.53200 49.31600
H  41.21000 6.09800 48.12800
H  41.35000 3.87600 46.18800
H  39.54100 4.27300 48.03100
H  40.75400 3.33900 49.01200
H  39.91700 2.72200 47.41300
H  41.30000 7.46500 46.43200
H  40.31800 6.14700 45.79100
H  43.02400 5.84900 44.72600
H  42.67600 7.44100 44.84100
H  43.85900 -1.27000 45.79300
H  42.54500 -0.45000 46.80300
H  43.44200 -1.84100 47.36600
H  48.65600 -1.12000 47.08200
H  48.43000 -2.82700 46.90600
H  48.35300 -2.15400 48.52300
H  50.54200 1.96400 48.49600
H  50.34600 4.38000 50.38900
H  50.79000 0.68600 50.28900
H  49.61000 1.49900 51.21200
H  51.21600 2.25800 51.03100
H  52.19200 3.94700 48.43200
H  51.77100 5.53900 48.89500
H  50.72900 5.90000 46.98700
H  50.29700 4.15300 46.66900
H  51.93600 4.68100 46.42900
H  48.92200 9.17900 47.79600
H  48.86500 9.07100 49.65300
H  47.74800 10.02600 48.75700
H  43.35600 8.73000 46.59400
H  39.83300 10.23300 47.45200
H  40.23400 10.70900 49.15300
H  40.05800 8.98000 48.74500
Mg 48.01000 24.59000 27.88200
C  48.79000 26.72200 30.46800
C  47.43400 22.06800 30.11900
C  47.24300 22.57100 25.38300
C  49.41100 26.90400 25.59600
N  47.97700 24.44000 30.04600
C  48.39000 25.43400 30.92200
C  48.21600 25.02500 32.41500
C  47.76700 23.51900 32.21200
C  47.81900 23.28500 30.70200
C  48.64500 22.49700 33.04500
C  47.27900 26.02800 33.14300
C  46.91300 25.61100 34.61100
H  46.99500 26.68300 35.72500
N  47.41700 22.57500 27.82400
C  47.15100 21.71100 28.81400
C  46.74200 20.40500 28.39200
C  46.59700 20.51800 26.96200
C  47.06300 21.94800 26.65400
C  46.41100 19.20300 29.32500
C  46.24800 19.46200 25.94900
O  46.13200 19.67700 24.70200
C  45.96700 18.05600 26.43600
N  48.13200 24.75400 25.78400
C  47.75300 23.71800 24.96900
C  47.91200 24.15200 23.52900
C  48.67500 25.45900 23.56100
C  48.78300 25.72400 25.02900
C  48.69900 23.12000 22.72100
C  47.91600 26.71000 22.89900
C  48.69100 27.46700 21.86200
N  48.87900 26.52000 27.94900
C  49.44400 27.23700 26.99200
C  49.80100 28.49300 27.56100
C  49.71800 28.31200 28.97500
C  48.97000 27.12900 29.10600
C  50.49600 29.61000 26.87100
C  50.04700 28.93900 30.25300
O  50.65400 29.99000 30.49800
C  49.32600 27.92500 31.23600
C  50.27900 27.51400 32.34600
O  51.15500 26.64100 32.26100
O  49.93500 28.09100 33.57800
C  50.80900 27.64100 34.63600
H  47.10300 21.33600 30.85900
H  46.84600 21.93500 24.58900
H  49.84200 27.60500 24.87800
H  49.18300 25.00600 32.91800
H  46.71200 23.50900 32.48500
H  47.98500 22.08800 33.81000
H  49.50400 23.01100 33.47500
H  49.01800 21.67800 32.43100
H  46.41100 26.07800 32.48600
H  47.75600 26.99100 33.32800
H  47.45800 24.73700 34.96900
H  45.90200 25.20300 34.62400
H  46.30900 19.50500 30.36800
H  47.20500 18.45600 29.34300
H  45.52100 18.67100 28.98900
H  46.73000 17.65100 27.10000
H  45.71100 17.40500 25.60000
H  45.04400 18.09400 27.01500
H  46.86100 24.20300 23.24600
H  49.68000 25.30100 23.16900
H  49.54900 22.66900 23.23300
H  48.95400 23.31900 21.68000
H  47.94900 22.33000 22.74900
H  47.58600 27.46800 23.61000
H  47.03400 26.34300 22.37300
H  48.74900 28.52800 22.10800
H  48.26800 27.27800 20.87500
H  49.71300 27.09000 21.88700
H  49.73900 30.33000 26.55900
H  51.09900 29.26300 26.03200
H  51.24500 30.08500 27.50600
H  48.43200 28.38900 31.65300
H  50.49900 26.69900 35.08900
H  50.76700 28.40500 35.41200
H  51.85700 27.65400 34.33500

