158

Mg 47.58300 16.38900 28.39600
C  45.90300 16.17800 31.55100
C  50.00800 18.15800 30.03800
C  48.93200 16.97300 25.40900
C  44.93400 14.68900 26.99100
N  47.73400 17.33200 30.52700
C  47.01200 17.02300 31.63000
C  47.58700 17.70300 32.90500
C  48.88500 18.44100 32.34600
C  48.89000 17.97500 30.86200
C  48.79100 20.03800 32.30500
C  47.92900 16.68300 33.98600
C  47.63900 17.00100 35.51100
H  47.53800 18.45900 35.89400
N  49.32900 17.33200 27.87800
C  50.24500 17.85200 28.70300
C  51.41600 18.19900 27.93500
C  51.19900 17.86900 26.56500
C  49.76100 17.40800 26.54600
C  52.63000 18.85100 28.63800
C  52.01600 18.05800 25.30600
O  51.57700 17.74900 24.20300
C  53.49800 18.53900 25.46900
N  46.94900 15.94200 26.47500
C  47.65000 16.34400 25.38900
C  46.97700 15.79900 24.12400
C  45.83100 14.83800 24.56100
C  45.90200 15.17700 26.13000
C  46.54600 16.98600 23.24000
C  46.11600 13.34800 24.19200
C  45.50900 12.78000 22.91400
N  45.69800 15.61200 29.09900
C  44.80600 14.93000 28.33100
C  43.83400 14.44700 29.21500
C  44.11900 14.97200 30.48600
C  45.35900 15.57200 30.38500
C  42.72300 13.66400 28.91500
C  43.63400 15.13900 31.80000
O  42.65600 14.77700 32.43600
C  44.87700 15.81900 32.58900
C  44.17000 17.01700 33.31200
O  43.88600 18.12200 32.79900
O  43.86900 16.65200 34.56200
C  43.02300 17.59600 35.21700
H  50.82300 18.68600 30.53900
H  49.40100 17.00500 24.42400
H  44.15200 14.14800 26.45400
H  46.88900 18.38900 33.38400
H  49.82400 18.08000 32.76600
H  49.59500 20.53300 32.85000
H  47.92100 20.40600 32.84900
H  48.70900 20.29600 31.24900
H  48.99500 16.45400 33.96100
H  47.54600 15.68000 33.79800
H  48.33000 16.46200 36.15900
H  46.67900 16.51400 35.68600
H  53.55000 18.46800 28.19500
H  52.74200 18.70300 29.71200
H  52.61900 19.89200 28.31500
H  53.52000 19.55500 25.86500
H  54.10000 18.56600 24.56100
H  54.00900 17.76900 26.04700
H  47.62700 15.18100 23.50400
H  44.85700 15.09400 24.14400
H  47.00400 16.87200 22.25700
H  46.77200 17.98700 23.60600
H  45.46200 17.01200 23.13300
H  45.79600 12.82100 25.09000
H  47.19300 13.28400 24.03300
H  46.27100 12.59500 22.15700
H  44.77700 13.45200 22.46500
H  45.03500 11.82000 23.11700
H  42.89800 12.75100 28.34600
H  41.96900 14.26700 28.41000
H  42.34900 13.29400 29.86900
H  45.35300 15.15700 33.31200
H  43.55400 18.45300 35.63200
H  42.57900 17.00800 36.02100
H  42.25100 17.85900 34.49400
Mg 27.03800 49.76600 26.63600
C  25.09100 50.66300 29.42400
C  29.66700 49.21600 28.81800
C  28.89300 49.04200 23.99300
C  24.37100 50.58400 24.57700
N  27.31400 50.00600 28.84700
C  26.33000 50.27200 29.82700
C  26.78300 49.97400 31.21600
C  28.33200 49.73000 30.95500
C  28.45500 49.57200 29.45900
C  29.35700 50.73600 31.55800
C  25.96500 48.80900 31.94300
C  25.40300 49.24400 33.31600
H  26.34700 49.98600 34.31400
N  29.02200 49.19600 26.48200
C  29.95000 49.03200 27.48600
C  31.25300 48.68100 26.93300
C  31.03000 48.58100 25.52500
C  29.58400 48.97800 25.26500
C  32.46300 48.23500 27.74800
C  32.05200 48.33100 24.37500
O  31.84200 48.58600 23.17600
C  33.35100 47.77200 24.81400
N  26.77600 49.74500 24.65000
C  27.63400 49.39800 23.69900
C  27.04100 49.27700 22.29400
C  25.56400 49.63600 22.53700
C  25.56600 50.08400 24.04600
C  27.64100 50.13500 21.18500
C  24.61600 48.43900 22.17700
C  23.28500 48.81100 21.39200
N  25.21600 50.59500 26.89200
C  24.24500 50.93100 25.90600
C  23.10500 51.50100 26.61900
C  23.41300 51.39600 27.98400
C  24.64200 50.80800 28.09100
C  21.87300 51.98200 25.93900
C  22.75000 51.51200 29.34700
O  21.64400 51.83600 29.64900
C  23.93200 51.14400 30.34300
C  24.34600 52.32900 31.07600
O  25.22000 53.20000 30.76000
O  23.71700 52.24000 32.26900
C  23.80900 53.39200 33.25600
H  30.47400 48.89500 29.47900
H  29.48400 48.82700 23.10000
H  23.56600 50.75100 23.85900
H  26.75300 50.92300 31.75100
H  28.53200 48.78700 31.46400
H  30.11100 51.11300 30.86700
H  29.97600 50.26100 32.31900
H  28.92500 51.57900 32.09900
H  26.54100 47.88900 32.04300
H  25.18300 48.54100 31.23300
H  25.03800 48.36300 33.84400
H  24.54000 49.87000 33.09300
H  32.70800 47.17400 27.80700
H  32.30000 48.45200 28.80400
H  33.31200 48.86100 27.47500
H  33.94700 48.54000 25.30700
H  33.78000 47.34900 23.90600
H  33.12100 46.90800 25.43800
H  27.11900 48.22000 22.03800
H  25.28400 50.60600 22.12700
H  28.34600 49.58000 20.56700
H  28.29900 50.77900 21.76700
H  26.97500 50.72200 20.55300
H  24.36500 47.85300 23.06200
H  25.15300 47.78900 21.48600
H  23.37300 49.84300 21.05300
H  22.37000 48.76000 21.98300
H  23.10700 48.23100 20.48700
H  21.75500 51.85400 24.86300
H  21.91600 53.05300 26.13600
H  20.93000 51.63900 26.36500
H  23.56400 50.34300 30.98300
H  24.56200 53.17700 34.01400
H  22.85500 53.43400 33.78200
H  23.99600 54.34000 32.75300

