158

Mg 8.09600 4.18200 27.60800
C  9.40800 2.50400 30.37700
C  6.37500 6.20300 29.77600
C  6.87300 5.66400 24.95000
C  9.57800 1.61100 25.57600
N  7.72000 4.16600 29.76300
C  8.51500 3.55600 30.71600
C  8.30300 4.07400 32.14800
C  7.24900 5.22100 31.94800
C  7.03300 5.16000 30.42600
C  6.01400 5.26000 32.82900
C  9.65400 4.57600 32.88000
C  9.45500 5.36800 34.21500
H  10.32800 4.92200 35.41400
N  6.80500 5.72400 27.40000
C  6.20300 6.45900 28.41000
C  5.39000 7.46800 27.75500
C  5.61100 7.35400 26.33700
C  6.41100 6.19300 26.16500
C  4.47200 8.42200 28.51000
C  5.06300 8.25800 25.21800
O  5.32700 7.99200 24.04600
C  4.38000 9.61000 25.47200
N  8.02400 3.61200 25.51900
C  7.58100 4.51600 24.58000
C  7.99400 4.10500 23.20200
C  8.82400 2.83000 23.46700
C  8.89000 2.69300 24.99500
C  6.70100 3.78400 22.39500
C  10.24100 2.95000 22.76200
C  10.96100 1.56100 22.56700
N  9.19300 2.44500 27.84100
C  9.74700 1.54200 26.98300
C  10.49300 0.50600 27.67400
C  10.41500 0.92500 29.06200
C  9.63400 2.01800 29.10800
C  11.27900 -0.66100 27.08400
C  10.89800 0.58600 30.42400
O  11.79000 -0.20400 30.76000
C  10.25900 1.73900 31.36100
C  9.52800 1.04600 32.52100
O  8.43100 0.40100 32.64800
O  10.49500 1.09400 33.53700
C  10.18000 0.23500 34.71800
H  5.84800 6.92400 30.40400
H  6.69000 6.20300 24.01700
H  10.13400 0.93800 24.91800
H  7.82700 3.26700 32.70500
H  7.83900 6.13500 32.02200
H  5.77300 6.10000 33.48200
H  6.06600 4.49700 33.60600
H  5.07000 5.28200 32.28400
H  10.27800 5.22300 32.26500
H  10.34400 3.73600 32.96700
H  8.42700 5.40500 34.57800
H  9.69200 6.41700 34.04200
H  4.80800 9.45200 28.38400
H  4.36300 8.13500 29.55600
H  3.46600 8.40100 28.09100
H  3.80900 9.91300 24.59500
H  5.16200 10.26400 25.85800
H  3.62600 9.44700 26.24200
H  8.66200 4.82100 22.72400
H  8.33000 1.92000 23.12800
H  6.57100 4.47000 21.55800
H  5.86500 4.00500 23.05900
H  6.79400 2.76900 22.01100
H  10.88700 3.61800 23.33200
H  10.12700 3.49500 21.82500
H  11.43600 1.52000 21.58600
H  10.25100 0.74800 22.71300
H  11.71400 1.34600 23.32600
H  11.87800 -0.35000 26.22800
H  10.60800 -1.44500 26.73200
H  11.78800 -1.20400 27.88000
H  11.15200 2.30600 31.62300
H  9.21500 -0.26900 34.77700
H  10.19600 0.95900 35.53200
H  11.10400 -0.27500 34.99200
Mg 48.03700 16.41100 28.68200
C  46.09400 16.16900 31.64100
C  50.33500 18.17300 30.39600
C  49.54800 16.70600 25.74200
C  45.18400 14.83700 27.06500
N  48.14300 17.11300 30.73500
C  47.31900 16.83700 31.78800
C  47.82400 17.32500 33.16300
C  49.04100 18.22000 32.70000
C  49.20900 17.82900 31.16300
C  48.98600 19.73000 33.03600
C  48.11000 16.03400 34.06800
C  47.94200 16.14700 35.61600
H  47.49400 17.50000 36.22900
N  49.76700 17.20900 28.13200
C  50.62200 17.90800 29.00200
C  51.90100 18.15300 28.32900
C  51.72900 17.70500 26.95700
C  50.37200 17.19600 26.91400
C  53.18400 18.74000 29.06300
C  52.69200 17.72700 25.87800
O  52.38100 17.26400 24.78400
C  54.06700 18.19600 26.07400
N  47.45000 15.75900 26.75600
C  48.30000 16.12200 25.69100
C  47.64200 15.71600 24.33900
C  46.34500 14.96800 24.75400
C  46.31400 15.19000 26.26600
C  47.52200 16.82600 23.35800
C  46.25700 13.41600 24.50500
C  46.04600 12.95600 23.06400
N  46.14900 15.53300 29.29100
C  45.12000 14.98200 28.45000
C  43.94600 14.78300 29.25800
C  44.30100 15.18000 30.53000
C  45.59500 15.67300 30.47500
C  42.57700 14.25700 28.69000
C  43.75600 15.28900 31.83000
O  42.66500 14.99800 32.38400
C  45.01900 15.77800 32.64600
C  44.57700 16.96100 33.36900
O  44.13800 18.00700 32.87600
O  44.45100 16.60700 34.70700
C  43.50300 17.24100 35.66300
H  51.07600 18.75000 30.95400
H  50.03200 16.71100 24.76300
H  44.34000 14.51200 26.45300
H  46.96800 17.86600 33.56700
H  49.94000 17.78200 33.13400
H  48.86700 20.44100 32.21800
H  49.86200 19.96600 33.64000
H  48.08400 19.89000 33.62600
H  49.13100 15.73500 33.83100
H  47.48500 15.23200 33.67500
H  48.91400 15.91600 36.05300
H  47.17400 15.38000 35.71100
H  53.93800 17.95900 29.15300
H  53.05400 19.05700 30.09700
H  53.47100 19.61900 28.48700
H  54.61500 18.04400 25.14400
H  54.38500 17.56100 26.90200
H  54.01700 19.25700 26.32000
H  48.33700 15.04000 23.84100
H  45.49100 15.51700 24.35800
H  48.21200 16.62800 22.53800
H  47.89800 17.71900 23.85800
H  46.48900 17.00200 23.06000
H  45.77000 12.85400 25.30200
H  47.26700 13.07200 24.72700
H  46.49000 11.96900 22.93000
H  46.47100 13.66400 22.35300
H  44.96200 12.93300 22.95200
H  42.20000 14.77100 27.80600
H  41.87000 14.45100 29.49800
H  42.68400 13.19100 28.48900
H  45.25500 14.99700 33.36700
H  42.80500 16.43800 35.89800
H  42.88800 17.98100 35.15000
H  43.90800 17.60100 36.60900

