158

Mg 46.10200 24.83200 28.87500
C  46.83500 26.99100 31.48600
C  44.91000 22.62100 31.35900
C  45.71200 22.49000 26.52100
C  47.88200 26.90500 26.70800
N  45.80900 24.87000 31.11000
C  46.14800 25.85800 31.89900
C  45.72100 25.59300 33.41900
C  45.32100 24.11600 33.42900
C  45.38700 23.86300 31.86600
C  46.02400 23.06500 34.35900
C  44.68800 26.55400 33.98200
C  45.03300 27.20700 35.25000
H  45.51200 26.34800 36.45900
N  45.35100 22.80200 28.93300
C  44.88400 22.11000 30.07900
C  44.47100 20.71400 29.62800
C  44.69600 20.67400 28.23700
C  45.27500 22.02900 27.82300
C  43.99100 19.64300 30.62800
C  44.57600 19.44700 27.33700
O  44.81400 19.58800 26.15000
C  43.94500 18.21300 27.83800
N  46.80900 24.63100 26.84400
C  46.49500 23.60400 26.07300
C  46.95800 23.83800 24.69800
C  47.59500 25.28700 24.71600
C  47.41600 25.62000 26.17600
C  47.85400 22.69500 24.15300
C  46.90700 26.28900 23.72700
C  45.74900 27.17900 24.15800
N  47.15200 26.60100 28.95900
C  47.81200 27.31400 28.00700
C  48.31500 28.48600 28.62700
C  48.02100 28.42000 29.96700
C  47.24100 27.26700 30.14100
C  49.11800 29.54200 28.10400
C  48.08800 29.09100 31.17500
O  48.58700 30.20100 31.49500
C  47.25200 28.22800 32.27500
C  48.21300 27.96100 33.42800
O  48.87000 26.98600 33.58500
O  48.19600 28.96800 34.35600
C  48.64600 28.65100 35.72000
H  44.51900 22.06300 32.21300
H  45.51300 21.80200 25.69700
H  48.51900 27.49800 26.04800
H  46.64200 25.85000 33.94100
H  44.27200 24.06900 33.72300
H  45.29600 22.42300 34.85400
H  46.69100 23.52600 35.08800
H  46.69800 22.34200 33.90000
H  43.71700 26.09600 34.16700
H  44.59200 27.28900 33.18200
H  44.07700 27.60600 35.58800
H  45.69600 28.06700 35.15600
H  44.41000 18.64300 30.52000
H  42.91300 19.78100 30.71700
H  44.29700 20.01500 31.60600
H  42.96200 18.45200 28.24500
H  44.54100 17.78700 28.64500
H  43.78300 17.63000 26.93100
H  46.09000 23.87000 24.04000
H  48.66600 25.27500 24.51400
H  47.38800 22.15000 23.33200
H  47.97600 21.88100 24.86800
H  48.87100 23.02600 23.94300
H  46.47700 25.76700 22.87200
H  47.57100 27.01100 23.25200
H  45.50900 26.98100 25.20300
H  44.81000 26.84700 23.71600
H  45.86700 28.26100 24.09000
H  49.94500 29.10800 27.54200
H  49.48600 30.16900 28.91600
H  48.55500 30.13200 27.38100
H  46.41300 28.79600 32.67600
H  47.80300 28.45500 36.38300
H  49.16300 29.55800 36.03600
H  49.36900 27.83500 35.72900
Mg 16.63500 51.96100 26.31100
C  18.80700 50.62200 28.70100
C  14.56400 52.89700 28.84600
C  14.52100 53.14800 23.90600
C  18.72900 50.87000 23.84400
N  16.68000 51.69100 28.49600
C  17.66900 51.08900 29.27300
C  17.36500 51.17000 30.82000
C  15.86400 51.72100 30.74000
C  15.63600 52.08500 29.26300
C  14.77900 50.74100 31.25200
C  18.32200 52.14000 31.65500
C  18.85100 51.74600 33.05300
H  17.96000 52.20900 34.25900
N  14.76600 52.80000 26.33800
C  14.06900 53.11100 27.52000
C  12.94000 53.96000 27.10300
C  12.85300 53.93100 25.69400
C  14.10500 53.28700 25.22800
C  11.96400 54.70500 28.20600
C  11.79000 54.53800 24.86300
O  11.73000 54.23900 23.66800
C  10.56400 55.26400 25.45100
N  16.63600 52.06500 24.21600
C  15.69500 52.58300 23.39500
C  15.95900 52.49100 21.89400
C  17.40000 51.90900 21.99500
C  17.63000 51.63700 23.46300
C  14.91700 51.52800 21.19900
C  18.50400 52.84900 21.33900
C  18.87800 54.19100 22.11700
N  18.39500 50.87800 26.23400
C  19.15100 50.50300 25.14300
C  20.29700 49.84000 25.58400
C  20.15600 49.74500 26.97800
C  19.03200 50.48200 27.37800
C  21.37500 49.21800 24.83300
C  20.83600 49.29200 28.21400
O  21.81000 48.72900 28.52300
C  19.91400 49.84200 29.39800
C  19.40600 48.59500 30.07800
O  18.56700 47.83400 29.59700
O  19.78600 48.61600 31.35600
C  19.15500 47.65100 32.20100
H  13.92800 53.21200 29.67600
H  13.92900 53.66400 23.14700
H  19.30800 50.56900 22.96900
H  17.27400 50.17900 31.26500
H  15.74400 52.64600 31.30400
H  13.81400 51.24700 31.28000
H  15.10800 50.45700 32.25200
H  14.60500 49.88000 30.60600
H  17.78300 53.07900 31.78000
H  19.19600 52.45300 31.08400
H  19.90000 52.04000 33.06700
H  18.68700 50.67000 33.00100
H  12.27900 55.74800 28.18700
H  12.31600 54.45100 29.20500
H  10.89500 54.50100 28.14300
H  10.95500 56.17500 25.90400
H  9.93200 54.63800 26.08100
H  9.89400 55.62700 24.67100
H  15.86300 53.49000 21.46700
H  17.42100 50.90900 21.56100
H  15.47600 50.62700 20.94500
H  14.54300 51.93600 20.26000
H  14.17900 51.38100 21.98700
H  18.03100 53.13100 20.39800
H  19.43800 52.29200 21.26500
H  18.37000 54.27000 23.07800
H  18.66400 55.02300 21.44700
H  19.93600 53.97700 22.26600
H  21.89500 50.00400 24.28600
H  20.89000 48.55000 24.12100
H  22.09200 48.67600 25.45000
H  20.44200 50.49400 30.09400
H  19.31800 46.63200 31.85000
H  18.11100 47.95700 32.26200
H  19.38100 47.83600 33.25100

