158

Mg 7.26600 2.33700 27.86000
C  8.70700 1.19300 30.79500
C  5.02700 4.24900 29.78200
C  5.83400 3.35600 25.01000
C  9.24500 0.10900 25.92600
N  6.96000 2.73500 30.03100
C  7.75900 2.16800 31.07800
C  7.27600 2.65600 32.48200
C  6.14200 3.76500 32.04500
C  5.94800 3.53100 30.54800
C  4.84200 3.91800 32.86400
C  8.41800 3.29000 33.37700
C  7.99500 4.10000 34.58200
H  8.59300 3.70600 35.90400
N  5.70800 3.71600 27.39600
C  4.85800 4.34500 28.39100
C  3.95000 5.13500 27.64900
C  4.23400 5.01900 26.23000
C  5.28100 3.94700 26.13800
C  3.08200 6.18700 28.35000
C  3.61700 5.87200 25.10900
O  4.08100 5.81900 23.98900
C  2.54500 6.81200 25.32200
N  7.28200 1.60100 25.78700
C  6.73100 2.29500 24.83000
C  7.14300 1.74500 23.44400
C  8.46000 1.02600 23.77800
C  8.38500 0.91500 25.25400
C  6.07100 0.80200 22.81700
C  9.82700 1.58200 23.21600
C  10.61000 2.64400 23.98900
N  8.59500 0.88300 28.21800
C  9.35400 0.02000 27.33700
C  10.27800 -0.64200 28.14300
C  10.09300 -0.22500 29.49000
C  8.99200 0.64500 29.52300
C  11.24200 -1.72900 27.64900
C  10.51700 -0.47900 30.87400
O  11.36700 -1.28900 31.20700
C  9.62000 0.48000 31.81400
C  8.78600 -0.33100 32.81200
O  7.74600 -0.89900 32.46400
O  9.22000 -0.29600 34.10400
C  8.26100 -0.67300 35.19000
H  4.43900 4.83800 30.48800
H  5.50000 3.71500 24.03400
H  9.99300 -0.35300 25.27900
H  6.83400 1.79000 32.97400
H  6.62400 4.73600 32.15300
H  4.86900 4.84000 33.44500
H  4.79900 3.04800 33.52100
H  3.92500 3.76800 32.29400
H  8.90200 4.07700 32.79900
H  9.12700 2.56700 33.78000
H  6.93100 4.01500 34.80500
H  8.08200 5.16500 34.36700
H  3.51200 7.18700 28.30400
H  3.06100 6.03800 29.43000
H  2.06300 6.16500 27.96500
H  1.73200 6.44100 25.94600
H  2.08900 6.91900 24.33700
H  2.97900 7.72300 25.73200
H  7.44200 2.56600 22.79300
H  8.47800 0.03000 23.33600
H  5.27800 0.65200 23.55000
H  6.59300 -0.11900 22.55900
H  5.77200 1.29100 21.89000
H  9.70400 1.94500 22.19500
H  10.48800 0.71500 23.21200
H  10.07400 2.99900 24.87000
H  10.82600 3.42300 23.25800
H  11.51700 2.24800 24.44700
H  11.57200 -1.64500 26.61300
H  10.89900 -2.75400 27.78700
H  12.14000 -1.58700 28.25100
H  10.27400 1.17000 32.34900
H  7.91700 -1.70600 35.13600
H  7.39800 -0.07200 34.90200
H  8.58800 -0.24800 36.13900
Mg 15.91600 -2.53700 28.25500
C  15.05600 -0.43700 30.99000
C  17.88400 -4.30500 30.27500
C  17.42500 -3.96200 25.52800
C  14.34400 -0.26500 26.17300
N  16.39800 -2.31000 30.42500
C  15.93500 -1.46300 31.33700
C  16.38500 -1.83100 32.76400
C  17.34900 -3.06800 32.53400
C  17.17400 -3.23500 31.00200
C  18.90400 -2.86000 32.82200
C  15.32000 -2.11000 33.86700
C  15.29700 -1.38700 35.19900
H  16.64800 -0.75500 35.69200
N  17.40300 -4.01100 27.96200
C  18.04500 -4.56000 28.93500
C  18.87300 -5.59300 28.43200
C  18.77300 -5.55900 26.99400
C  17.84700 -4.51000 26.73500
C  19.65300 -6.57700 29.32700
C  19.47100 -6.37700 25.83800
O  19.17600 -6.25100 24.62800
C  20.45000 -7.48200 26.14400
N  15.98600 -2.11000 26.04500
C  16.56500 -2.92100 25.16700
C  16.22200 -2.49500 23.73600
C  15.03100 -1.46900 23.92600
C  15.16600 -1.19300 25.46300
C  17.53000 -1.97400 23.00800
C  13.58400 -1.98100 23.71700
C  12.55000 -0.93800 23.18000
N  14.80500 -0.77900 28.45600
C  14.12700 -0.06000 27.50200
C  13.37200 1.06200 28.20800
C  13.71500 0.96200 29.56000
C  14.62200 -0.16100 29.67500
C  12.59100 2.15100 27.44300
C  13.62900 1.60500 30.81700
O  13.18800 2.69900 31.07400
C  14.34000 0.63700 31.92500
C  15.17700 1.43400 32.90600
O  16.36500 1.74100 32.77500
O  14.30900 1.94500 33.88900
C  14.86600 3.04800 34.68100
H  18.39700 -5.04700 30.89100
H  17.89400 -4.41400 24.65100
H  13.74900 0.42800 25.57500
H  16.88600 -0.93500 33.12900
H  16.97100 -3.96200 33.03000
H  19.47700 -2.71500 31.90600
H  19.24500 -3.75600 33.34100
H  19.31900 -2.04500 33.41500
H  15.24400 -3.16700 34.12200
H  14.37200 -1.77900 33.44300
H  14.90000 -1.97400 36.02700
H  14.63400 -0.52600 35.10700
H  19.68100 -7.44800 28.67300
H  19.13700 -6.87600 30.23900
H  20.67700 -6.20800 29.39100
H  19.91100 -8.34000 26.54600
H  21.14900 -7.07400 26.87500
H  20.84300 -7.85300 25.19800
H  15.92200 -3.35500 23.13700
H  15.20800 -0.66200 23.21500
H  17.49400 -0.88500 22.98600
H  17.63500 -2.43800 22.02700
H  18.45300 -2.21600 23.53600
H  13.16400 -2.37100 24.64400
H  13.68800 -2.82500 23.03600
H  12.01300 -0.67100 24.09000
H  11.88900 -1.42400 22.46200
H  13.15000 -0.11100 22.80100
H  11.62500 2.22900 27.94100
H  12.50700 1.85800 26.39700
H  13.07900 3.11600 27.58200
H  13.55700 0.15000 32.50700
H  15.77100 2.71200 35.18700
H  14.17400 3.25500 35.49700
H  14.95500 3.85000 33.94800

