158

Mg 9.47900 48.31400 25.78000
C  6.91400 49.04300 28.14600
C  11.79800 49.54200 27.95200
C  11.70100 48.07100 23.41300
C  6.95200 47.72200 23.44800
N  9.39700 49.14700 27.75900
C  8.26500 49.04100 28.60000
C  8.69900 48.99000 30.03700
C  10.22700 49.61900 29.98400
C  10.54200 49.46300 28.49100
C  10.36100 51.07800 30.51900
C  8.45400 47.54600 30.64000
C  8.11400 47.58700 32.17300
H  8.63800 46.62400 33.19600
N  11.48300 48.50100 25.77300
C  12.29800 48.98500 26.76500
C  13.69000 48.92200 26.37500
C  13.63100 48.34200 25.04100
C  12.23100 48.28300 24.73400
C  14.90500 49.24700 27.28900
C  14.77900 47.96600 24.06200
O  14.57300 47.48200 22.93600
C  16.17800 48.17900 24.49100
N  9.28300 48.15900 23.58600
C  10.39300 47.98400 22.92400
C  10.11000 47.64200 21.45200
C  8.53600 47.69900 21.38700
C  8.25600 47.77000 22.87100
C  10.77600 48.53600 20.44200
C  7.89300 46.50100 20.59300
C  7.17500 46.77600 19.29900
N  7.35200 48.27900 25.77800
C  6.49700 48.05700 24.70700
C  5.12900 48.26300 25.15100
C  5.28000 48.64400 26.47700
C  6.59700 48.66700 26.83800
C  3.90700 48.04300 24.31300
C  4.55400 49.02500 27.69900
O  3.33100 49.02600 27.83000
C  5.59100 49.28000 28.89800
C  5.09000 48.32800 30.01400
O  4.87700 47.12000 29.93500
O  4.87500 49.10200 31.12200
C  4.08400 48.53000 32.14200
H  12.57300 49.83800 28.66200
H  12.36300 47.75500 22.60400
H  6.20200 47.57700 22.66700
H  8.14800 49.72500 30.62400
H  10.85800 48.97900 30.60100
H  10.74600 51.75800 29.75900
H  11.06100 51.07300 31.35500
H  9.43400 51.54500 30.85400
H  9.36600 46.95100 30.59100
H  7.74700 46.98500 30.02900
H  7.02800 47.65900 32.23700
H  8.31200 48.59900 32.52900
H  14.60100 49.49600 28.30500
H  15.52700 50.05200 26.89700
H  15.57100 48.38500 27.25800
H  16.45900 47.43000 25.23100
H  16.29200 49.19000 24.88100
H  16.89100 48.03600 23.67900
H  10.38800 46.58800 21.44500
H  8.24900 48.65400 20.94600
H  11.34400 49.23300 21.05800
H  10.08600 49.05700 19.77900
H  11.45900 47.93000 19.84600
H  7.24500 45.97800 21.29600
H  8.66400 45.75600 20.39400
H  7.19100 47.79700 18.91800
H  6.12000 46.60200 19.50900
H  7.50800 46.10900 18.50300
H  4.19100 48.16200 23.26700
H  3.17200 48.83000 24.48000
H  3.42300 47.07000 24.39800
H  5.46600 50.33500 29.14400
H  3.61900 47.55700 31.98400
H  3.31100 49.24600 32.42100
H  4.72400 48.53100 33.02500
Mg -10.17600 17.20400 40.66300
C  -6.60100 16.93900 40.48400
C  -9.93800 20.55200 39.91400
C  -13.45200 17.20700 40.25300
C  -10.22000 13.54000 40.30700
N  -8.47100 18.55100 40.09500
C  -7.07100 18.23100 40.23500
C  -6.35700 19.57800 39.91500
C  -7.39600 20.64300 40.24700
C  -8.73000 19.89800 40.13100
C  -7.21200 21.28400 41.67200
C  -5.93200 19.57000 38.42200
C  -4.43700 19.41200 38.26700
H  -3.89200 18.33200 37.26700
N  -11.59300 18.68300 40.08600
C  -11.26100 19.97900 39.81200
C  -12.53500 20.68400 39.38300
C  -13.63000 19.79800 39.57200
C  -12.97700 18.50600 40.01800
C  -12.56600 22.07800 38.94500
C  -15.16300 20.01800 39.36900
O  -15.57000 21.18300 39.12500
C  -16.18300 18.97300 39.58400
N  -11.58600 15.66400 40.46400
C  -12.86000 15.93200 40.41400
C  -13.72100 14.68600 40.45800
C  -12.71200 13.51800 40.16400
C  -11.40900 14.27800 40.26900
C  -14.49400 14.58300 41.77400
C  -12.94900 12.94400 38.69000
C  -12.82900 11.37300 38.58400
N  -8.69800 15.55000 40.62100
C  -8.92100 14.18600 40.42400
C  -7.64700 13.54400 40.43000
C  -6.64800 14.58300 40.48800
C  -7.38400 15.77100 40.58200
C  -7.46000 12.04600 40.15100
C  -5.24900 14.95000 40.55000
O  -4.21000 14.29700 40.72400
C  -5.19700 16.50500 40.68600
C  -4.52900 16.80000 41.96100
O  -4.78000 16.34400 43.05900
O  -3.75800 17.87600 41.72400
C  -3.45600 18.66700 42.87000
H  -9.74300 21.62600 39.88300
H  -14.53800 17.32000 40.22400
H  -10.37200 12.50300 39.99900
H  -5.51000 19.77000 40.57300
H  -7.29600 21.43100 39.50100
H  -7.47400 22.33300 41.53000
H  -6.31800 20.97100 42.21100
H  -8.03300 20.93300 42.29700
H  -6.25900 20.56000 38.10600
H  -6.52800 18.83600 37.88000
H  -4.04700 18.99200 39.19500
H  -3.90700 20.29600 37.91300
H  -11.64900 22.46300 38.49800
H  -12.81800 22.75300 39.76300
H  -13.20400 21.95300 38.07000
H  -17.14100 19.27200 39.15800
H  -16.32200 19.00800 40.66500
H  -15.90700 18.07100 39.03800
H  -14.47000 14.85800 39.68500
H  -12.77500 12.67900 40.85600
H  -14.77000 13.54900 41.98200
H  -15.45900 15.07600 41.89700
H  -13.77500 14.82000 42.55800
H  -12.32400 13.50400 37.99400
H  -13.95600 13.19700 38.35800
H  -13.75600 10.81800 38.44100
H  -12.35500 10.98000 39.48300
H  -12.07500 11.22000 37.81200
H  -6.47600 11.71000 40.47800
H  -7.53000 12.03100 39.06300
H  -8.30000 11.52200 40.60700
H  -4.49500 16.75500 39.89100
H  -2.81200 19.48100 42.53700
H  -2.91400 18.02400 43.56300
H  -4.40700 18.96100 43.31500

