158

Mg 49.31700 34.55100 26.30900
C  47.30800 33.49500 28.83900
C  49.41200 37.76400 27.54600
C  51.24100 35.35300 23.69000
C  48.89100 31.23900 24.81700
N  48.43400 35.48700 27.94900
C  47.68800 34.85900 28.91500
C  47.37200 35.91700 29.98500
C  47.92800 37.23400 29.52500
C  48.58300 36.78200 28.21300
C  46.82500 38.33600 29.38300
C  47.91700 35.52900 31.44000
C  46.81200 35.43400 32.58400
H  47.04500 36.15300 33.91900
N  50.24900 36.34900 25.69000
C  50.22000 37.53500 26.41200
C  50.99500 38.46800 25.61700
C  51.50400 37.77700 24.44900
C  51.01600 36.42700 24.55900
C  51.24700 39.89400 26.02400
C  52.50200 38.29500 23.38400
O  53.07400 37.56900 22.60300
C  52.84700 39.77700 23.23500
N  49.80400 33.50600 24.39100
C  50.79800 34.06900 23.59600
C  51.06600 33.26700 22.34800
C  50.37800 31.89600 22.78400
C  49.55500 32.22700 24.06800
C  50.61700 33.90700 21.00000
C  51.29000 30.74300 22.98900
C  51.18700 29.62200 21.99300
N  48.26900 32.75900 26.66900
C  48.20800 31.50000 26.03000
C  47.30100 30.65700 26.74900
C  46.90300 31.36100 27.88900
C  47.54800 32.55900 27.83100
C  46.95900 29.19500 26.43100
C  46.08800 31.33400 29.08900
O  45.26300 30.39700 29.46800
C  46.42000 32.69000 29.86300
C  47.00100 32.16400 31.14600
O  48.15000 31.72900 31.35000
O  46.00900 32.18400 32.07300
C  46.20900 31.68700 33.44300
H  49.60300 38.74000 27.99600
H  51.77500 35.65700 22.78700
H  48.75400 30.28600 24.30400
H  46.29100 36.01700 30.08500
H  48.69500 37.52200 30.24400
H  46.29800 38.34200 30.33700
H  46.08800 38.05700 28.63000
H  47.22800 39.34100 29.25200
H  48.66200 36.21100 31.84800
H  48.37500 34.55500 31.26800
H  46.56900 34.37700 32.68800
H  45.89000 35.87900 32.21100
H  50.99300 40.10400 27.06300
H  50.83700 40.68600 25.39700
H  52.32300 40.01900 25.89900
H  53.40100 39.93800 22.31000
H  53.45000 39.97000 24.12300
H  51.95800 40.40600 23.18200
H  52.15000 33.20400 22.44200
H  49.63000 31.61100 22.04400
H  51.48600 34.43900 20.61300
H  49.83600 34.64700 21.16800
H  50.11300 33.20400 20.33700
H  51.23300 30.34000 24.00000
H  52.27500 31.20800 22.93700
H  52.14500 29.31900 21.56900
H  50.59300 29.88300 21.11800
H  50.81200 28.73500 22.50300
H  46.28500 29.14500 25.57600
H  46.38900 28.74600 27.24400
H  47.87400 28.65900 26.18300
H  45.57300 33.36800 29.96900
H  46.43000 32.47900 34.15900
H  47.05700 31.00500 33.49800
H  45.30100 31.20500 33.80700
Mg 35.66100 48.22100 25.29500
C  36.22400 46.44900 28.33900
C  34.43500 50.86300 27.26100
C  35.08400 49.96400 22.48100
C  36.70900 45.36600 23.55800
N  35.22800 48.49200 27.47800
C  35.60600 47.69500 28.58000
C  35.26300 48.36900 29.89100
C  34.44300 49.63400 29.44600
C  34.71800 49.67600 27.95000
C  32.92500 49.61200 29.86700
C  36.55100 48.71400 30.72400
C  36.53500 48.24600 32.18000
H  35.15600 48.14700 32.92500
N  34.92700 50.10200 24.95100
C  34.59700 51.07700 25.87100
C  34.29700 52.29800 25.18800
C  34.45100 52.10000 23.77800
C  34.86500 50.64500 23.68600
C  34.03200 53.52000 25.98800
C  34.37000 53.06500 22.71600
O  34.70200 52.85300 21.56400
C  33.78700 54.51100 22.90000
N  35.89600 47.73100 23.38300
C  35.53100 48.62800 22.39000
C  35.44200 47.87100 21.01100
C  35.93200 46.42300 21.33000
C  36.21300 46.53600 22.79800
C  33.95000 47.93500 20.34400
C  37.12700 45.82600 20.47600
C  36.66600 44.96600 19.29200
N  36.46500 46.39400 25.80100
C  36.83000 45.34300 24.96000
C  37.22400 44.17400 25.80900
C  36.95500 44.61500 27.11400
C  36.56700 45.93400 27.05700
C  37.81500 42.88200 25.33200
C  36.84100 44.12600 28.47300
O  37.10500 43.05400 29.03500
C  36.42000 45.35500 29.27500
C  35.26200 44.96500 30.09500
O  34.08200 44.97800 29.77400
O  35.71300 44.43300 31.30400
C  34.76700 43.77500 32.22500
H  34.04900 51.61400 27.95400
H  34.67900 50.44600 21.58900
H  36.99000 44.46700 23.00500
H  34.59500 47.64200 30.35300
H  34.95200 50.49200 29.88400
H  32.24800 49.68000 29.01500
H  32.82300 50.38400 30.62900
H  32.68500 48.66700 30.35500
H  36.70600 49.79000 30.64800
H  37.44500 48.28600 30.27100
H  37.25100 48.92300 32.64600
H  37.02700 47.27400 32.21600
H  34.95500 53.95400 26.37300
H  33.41500 53.18500 26.82200
H  33.46300 54.27600 25.44600
H  33.66900 55.15400 22.02800
H  34.48500 54.99800 23.58200
H  32.90200 54.52100 23.53600
H  36.19400 48.27900 20.33500
H  35.10700 45.71700 21.24600
H  33.71500 46.87900 20.21000
H  33.95400 48.59600 19.47800
H  33.41400 48.41200 21.16500
H  37.72300 45.21600 21.15500
H  37.75800 46.57600 19.99800
H  35.58700 45.01500 19.14300
H  36.88500 43.90800 19.43600
H  37.05000 45.44000 18.38900
H  37.91700 42.99200 24.25300
H  37.13000 42.09300 25.64300
H  38.66500 42.70800 25.99100
H  37.29500 45.65800 29.85000
H  33.93700 44.42000 32.51300
H  35.28600 43.38600 33.10100
H  34.42900 42.88800 31.69000

