158

Mg 26.90700 50.66000 26.98400
C  24.78800 51.76200 29.59700
C  29.33500 49.82800 29.28300
C  28.87000 50.06100 24.42500
C  24.43900 51.99100 24.76100
N  27.03200 50.82600 29.10200
C  26.05800 51.21100 30.01100
C  26.44200 50.94300 31.45000
C  28.00600 50.68800 31.27800
C  28.11900 50.37000 29.82400
C  28.91900 51.85100 31.66900
C  25.66400 49.78600 32.16600
C  25.08100 50.26200 33.51800
H  26.08600 50.56800 34.59300
N  28.86600 49.99200 26.89300
C  29.70600 49.56500 27.89800
C  30.95100 49.00000 27.37100
C  30.87300 49.28900 25.89200
C  29.52300 49.83200 25.68000
C  31.91200 48.28600 28.24900
C  31.84000 48.90200 24.79200
O  31.62600 49.16700 23.61700
C  33.15100 48.16400 25.08600
N  26.71200 51.02900 24.95700
C  27.70400 50.72800 24.07300
C  27.28200 50.90400 22.54900
C  25.76300 51.27600 22.73300
C  25.65800 51.46300 24.29300
C  28.08700 51.77200 21.60700
C  24.79300 50.18500 22.04000
C  24.30000 49.08600 22.92200
N  25.00800 51.71100 27.11300
C  24.16800 52.08500 26.11100
C  23.05100 52.71100 26.70900
C  23.22500 52.63500 28.05800
C  24.44000 51.98000 28.30400
C  21.84800 53.32100 25.95400
C  22.72600 53.08800 29.26300
O  21.75500 53.84700 29.50500
C  23.69100 52.54100 30.40200
C  24.26200 53.69600 31.22500
O  25.23700 54.33500 30.90600
O  23.47400 53.78400 32.39600
C  23.73500 54.80100 33.40200
H  30.14100 49.55700 29.96800
H  29.54200 49.86700 23.58700
H  23.69300 52.42400 24.09100
H  26.16500 51.84400 31.99800
H  28.17800 49.80500 31.89400
H  29.06500 51.83100 32.74900
H  28.34500 52.72800 31.36800
H  29.86700 51.78800 31.13500
H  26.30700 48.92600 32.35200
H  24.87000 49.46500 31.49200
H  24.45300 49.43100 33.84000
H  24.38300 51.09400 33.41800
H  31.57500 47.25000 28.20700
H  31.98800 48.73000 29.24200
H  32.93100 48.34100 27.86600
H  33.04800 47.10000 25.30000
H  33.72100 48.62400 25.89300
H  33.74100 48.27200 24.17600
H  27.51700 49.90300 22.18700
H  25.60900 52.27500 22.32500
H  28.22800 51.29200 20.63800
H  29.08600 51.96100 21.99800
H  27.64900 52.73100 21.33100
H  25.17800 49.77800 21.10500
H  23.96500 50.82800 21.74200
H  24.92600 48.93700 23.80300
H  24.34800 48.14000 22.38200
H  23.24000 49.31000 23.03900
H  21.64200 52.87300 24.98200
H  21.91300 54.39800 25.80500
H  20.88900 53.09500 26.42000
H  23.12800 51.89100 31.07200
H  24.26600 55.53100 32.79100
H  24.36500 54.28500 34.12700
H  22.77000 55.06000 33.83700
Mg -5.45600 25.27300 26.02600
C  -4.02200 26.48500 28.99900
C  -7.25600 22.92200 27.96300
C  -6.42000 23.77400 23.13200
C  -3.69300 27.60100 24.20700
N  -5.72500 24.83900 28.29200
C  -4.97900 25.47700 29.26400
C  -5.38600 24.91300 30.63000
C  -6.36500 23.71700 30.24100
C  -6.50600 23.78200 28.70800
C  -5.88800 22.34000 30.78800
C  -5.83000 26.05900 31.70900
C  -6.75600 25.50800 32.80200
H  -6.19800 24.78500 33.96700
N  -6.70300 23.63200 25.64100
C  -7.34900 22.77500 26.53500
C  -8.16100 21.83500 25.76800
C  -7.91600 22.15200 24.42000
C  -6.98700 23.22400 24.33100
C  -9.01500 20.71200 26.37800
C  -8.55000 21.44300 23.16400
O  -8.32700 21.79500 22.04500
C  -9.41500 20.29600 23.32800
N  -4.90600 25.55300 23.89400
C  -5.55100 24.83400 22.89800
C  -5.20400 25.38200 21.50900
C  -4.51100 26.73400 21.86000
C  -4.35800 26.70000 23.38600
C  -4.37300 24.33900 20.71100
C  -5.39300 27.94000 21.31200
C  -4.82000 28.64500 20.00400
N  -4.10900 26.71700 26.44400
C  -3.44500 27.61800 25.59900
C  -2.51300 28.46600 26.31700
C  -2.74400 28.02800 27.64600
C  -3.73500 27.01500 27.67500
C  -1.56700 29.49500 25.84800
C  -2.26800 28.24600 29.01500
O  -1.38800 28.98100 29.52200
C  -3.18400 27.38500 29.92100
C  -2.36100 26.50900 30.80800
O  -1.66500 25.51100 30.52700
O  -2.46200 26.94400 32.01700
C  -1.70100 26.27400 33.06000
H  -7.83600 22.23400 28.58200
H  -6.76000 23.38600 22.17000
H  -3.17000 28.33800 23.59300
H  -4.44600 24.46100 30.94900
H  -7.39000 23.84900 30.58900
H  -4.89200 22.28600 31.22700
H  -5.66900 21.51600 30.10900
H  -6.50400 22.02700 31.63100
H  -6.25800 26.96600 31.28100
H  -4.91100 26.44300 32.15000
H  -7.46500 24.80100 32.37100
H  -7.32800 26.32400 33.24300
H  -10.01800 20.88500 25.98700
H  -9.05500 20.68900 27.46700
H  -8.68800 19.69900 26.14800
H  -8.82200 19.52800 23.82400
H  -9.83300 19.88400 22.40900
H  -10.27700 20.60500 23.91900
H  -6.11400 25.51300 20.92500
H  -3.55600 26.70700 21.33500
H  -5.01300 23.56300 20.29100
H  -3.62500 23.85000 21.33500
H  -3.94600 24.94300 19.91100
H  -5.44200 28.70800 22.08300
H  -6.38300 27.65000 20.95900
H  -4.99400 27.93700 19.19300
H  -3.73400 28.74500 19.97800
H  -5.18700 29.65100 19.79700
H  -1.04400 29.98000 26.67200
H  -2.15700 30.33100 25.47100
H  -0.78600 29.25500 25.12700
H  -3.80300 28.03000 30.54500
H  -1.07200 27.11700 33.34800
H  -1.02400 25.43500 32.90000
H  -2.30000 26.04700 33.94100

