158

Mg 48.18900 34.91000 27.81900
C  46.29700 33.28500 30.22900
C  48.34800 37.66800 30.07400
C  49.37100 36.99900 25.39700
C  47.62700 32.44800 25.60800
N  47.39800 35.35200 29.92100
C  46.79400 34.45500 30.74600
C  46.86300 35.02800 32.20600
C  47.06000 36.50600 31.93300
C  47.68100 36.50600 30.55300
C  45.80600 37.41500 32.22300
C  48.14700 34.34800 32.87600
C  48.44700 34.51700 34.36700
H  47.54100 35.48600 35.20300
N  48.84800 36.98100 27.74900
C  48.90000 37.88900 28.81400
C  49.66300 39.02000 28.43500
C  49.91000 38.93600 27.02700
C  49.28500 37.61400 26.63200
C  49.95600 40.16800 29.39200
C  50.65100 39.92300 26.02900
O  50.80500 39.62700 24.86200
C  51.12300 41.29000 26.50800
N  48.22200 34.89100 25.73700
C  48.88300 35.74900 24.94400
C  48.99300 35.21900 23.51400
C  48.63900 33.69600 23.69900
C  48.16500 33.66900 25.12900
C  48.07500 36.07100 22.54600
C  49.83900 32.82700 23.33600
C  49.39400 31.58200 22.52900
N  47.23800 33.09500 27.87700
C  47.04300 32.17500 26.94100
C  46.41100 30.96700 27.43800
C  46.08600 31.36800 28.72900
C  46.58700 32.71900 28.95900
C  45.93600 29.69800 26.76000
C  45.31600 31.07100 29.99100
O  44.61800 30.08700 30.24500
C  45.38500 32.29200 30.93200
C  45.76200 31.74800 32.33100
O  46.66700 31.00500 32.59300
O  44.82400 32.12300 33.21900
C  45.11100 31.79400 34.62700
H  48.48500 38.39600 30.87600
H  49.75300 37.54700 24.53300
H  47.49000 31.71300 24.81100
H  45.98400 34.69200 32.75600
H  47.71000 36.95500 32.68400
H  44.92100 36.87200 32.55400
H  45.40600 38.05900 31.44100
H  45.91900 38.04400 33.10600
H  49.07500 34.66700 32.40100
H  48.18100 33.26400 32.77200
H  49.44700 34.89800 34.57300
H  48.43500 33.58200 34.92800
H  50.97000 40.54500 29.25400
H  49.92700 39.87900 30.44200
H  49.27100 41.00400 29.25300
H  50.43200 41.71800 27.23400
H  51.13300 41.91000 25.61100
H  52.13900 41.23400 26.89900
H  50.04000 35.34900 23.24000
H  47.75000 33.39600 23.14400
H  47.18400 35.44600 22.50300
H  48.47400 36.42300 21.59500
H  47.98200 37.00300 23.10400
H  50.34500 32.48400 24.23800
H  50.62300 33.38200 22.82000
H  48.82100 31.83200 21.63600
H  48.71800 31.02600 23.17800
H  50.18800 30.91400 22.19600
H  44.98200 29.56600 26.25000
H  45.73300 28.92700 27.50300
H  46.71400 29.35600 26.07700
H  44.44100 32.82700 31.03800
H  46.05300 31.28400 34.82800
H  44.25700 31.14100 34.80700
H  45.14400 32.74800 35.15400
Mg 9.54600 48.52000 25.37900
C  7.65100 48.69200 28.45600
C  12.13300 49.64900 27.12100
C  11.45700 48.19000 22.52800
C  6.62700 48.13700 23.61700
N  9.86800 48.95700 27.60400
C  8.97100 48.94000 28.66900
C  9.70000 49.33100 29.99200
C  10.99700 50.04300 29.47100
C  11.01900 49.59800 27.97400
C  11.03800 51.57400 29.50400
C  10.07700 48.04600 30.75600
C  9.99300 48.13400 32.30000
H  9.92600 46.78900 33.02400
N  11.54800 48.79300 24.88500
C  12.49900 49.13400 25.78400
C  13.83700 49.17500 25.17700
C  13.63400 48.65700 23.83900
C  12.15300 48.60300 23.68100
C  15.17700 49.41400 25.96200
C  14.65200 48.25200 22.79400
O  14.41300 47.83000 21.68500
C  16.05000 48.42500 23.04900
N  9.12700 48.54700 23.34300
C  10.04400 48.18700 22.38400
C  9.37100 47.83000 21.04400
C  7.84200 47.63700 21.44500
C  7.86200 48.22400 22.92000
C  9.73900 48.68400 19.84400
C  7.25400 46.23900 21.35500
C  7.51100 45.24600 22.49000
N  7.50900 48.48100 25.90600
C  6.46300 48.31700 25.02600
C  5.19400 48.24500 25.85200
C  5.66000 48.35800 27.18900
C  7.05100 48.47700 27.14800
C  3.86200 47.95200 25.30700
C  5.17300 48.35400 28.51700
O  4.04000 48.30100 28.91800
C  6.47800 48.59200 29.44900
C  6.70600 47.34300 30.24100
O  7.06100 46.25800 29.80400
O  6.39700 47.64000 31.57400
C  6.67700 46.64200 32.57900
H  12.95800 50.09000 27.68400
H  12.13500 47.89700 21.72400
H  5.74700 47.82100 23.05300
H  9.17600 50.04200 30.63000
H  11.96100 49.74800 29.88500
H  10.62200 52.02000 28.60000
H  12.01300 52.03000 29.68000
H  10.34800 51.95800 30.25500
H  11.13400 47.86600 30.55700
H  9.47400 47.20400 30.41700
H  9.15100 48.75700 32.60100
H  10.83900 48.68600 32.71000
H  15.04300 49.67700 27.01200
H  15.78900 50.18300 25.49100
H  15.78300 48.50900 25.98800
H  16.36900 49.45600 23.20000
H  16.64100 47.99100 22.24200
H  16.21200 47.87600 23.97600
H  9.82100 46.83800 21.02000
H  7.06600 48.18600 20.91100
H  10.48400 49.40500 20.18200
H  8.94700 49.31200 19.43800
H  10.09100 48.06200 19.02200
H  7.65000 45.81800 20.43100
H  6.18800 46.25300 21.12600
H  8.05900 45.56800 23.37600
H  7.94600 44.30200 22.15900
H  6.49000 45.02700 22.80100
H  3.58100 48.57600 24.45800
H  3.09200 48.13200 26.05800
H  3.84800 46.90200 25.01500
H  6.46200 49.46000 30.10800
H  7.15300 47.15900 33.41200
H  7.21100 45.76000 32.22400
H  5.68000 46.34700 32.90500

