158

Mg 35.46700 2.15300 30.60500
C  32.86300 2.94000 32.72300
C  37.60500 2.17900 33.31900
C  37.83500 1.35900 28.41200
C  33.09900 1.97000 27.99500
N  35.22100 2.55600 32.77700
C  34.05400 2.75400 33.43700
C  34.22200 2.86200 34.91100
C  35.82800 3.00400 34.98400
C  36.28700 2.54800 33.61700
C  36.32000 4.48100 35.40600
C  33.58800 1.60100 35.62200
C  33.23500 1.70200 37.14700
H  33.83400 2.84400 37.98500
N  37.40100 1.78600 30.81100
C  38.11100 1.76000 32.04600
C  39.40900 1.32300 31.76700
C  39.50400 0.94100 30.39300
C  38.22800 1.44800 29.81400
C  40.40600 0.98000 32.93000
C  40.70400 0.28800 29.67300
O  40.62300 -0.01000 28.49900
C  41.95600 -0.14100 30.34800
N  35.51300 1.79100 28.49000
C  36.60200 1.53700 27.78100
C  36.35800 1.26500 26.28000
C  34.80500 1.31400 26.26100
C  34.41900 1.62900 27.69300
C  37.14000 2.31500 25.36100
C  34.07000 -0.06200 25.96500
C  33.56300 -0.49700 24.55200
N  33.39600 2.66000 30.32700
C  32.61600 2.47000 29.22700
C  31.25200 2.96500 29.53700
C  31.31800 3.17700 30.95100
C  32.66500 2.88100 31.36700
C  30.07800 2.96800 28.64800
C  30.50100 3.37600 32.15100
O  29.34400 3.76200 32.23900
C  31.49900 3.34300 33.29300
C  31.42700 4.62900 34.02600
O  31.76100 5.73000 33.59000
O  30.78900 4.45500 35.24100
C  30.18800 5.58700 35.89500
H  38.15700 2.22100 34.26000
H  38.57300 1.17300 27.62900
H  32.32900 1.94900 27.22200
H  33.75000 3.77400 35.27700
H  36.20500 2.30000 35.72600
H  35.61100 4.98500 36.06300
H  36.49300 5.07800 34.51100
H  37.24700 4.31500 35.95600
H  34.25600 0.75300 35.46500
H  32.64700 1.42700 35.09900
H  33.43400 0.73300 37.60600
H  32.14500 1.73600 37.14400
H  41.40000 1.26600 32.58600
H  40.43400 -0.09300 33.12300
H  40.22000 1.57800 33.82200
H  42.61200 -0.68100 29.66500
H  41.66200 -0.88200 31.09200
H  42.54100 0.72800 30.64800
H  36.80000 0.30300 26.02100
H  34.38900 1.97900 25.50300
H  37.91700 1.86000 24.74600
H  37.70300 2.95700 26.04000
H  36.37400 2.85300 24.80100
H  33.30300 -0.36300 26.67900
H  34.81800 -0.82200 26.19200
H  33.72200 0.27500 23.79800
H  32.51800 -0.79300 24.64400
H  34.16600 -1.29800 24.12500
H  30.31200 3.38000 27.66700
H  29.37200 3.63600 29.14100
H  29.66000 1.96300 28.58300
H  31.02800 2.63500 33.97600
H  29.69200 6.09900 35.07000
H  30.85800 6.18800 36.51000
H  29.34200 5.20200 36.46500
Mg 7.42200 54.57800 41.45700
C  6.69400 51.22700 41.18400
C  10.59900 53.98200 40.35600
C  7.78000 57.99000 41.05600
C  4.04300 55.21800 42.00600
N  8.53800 52.75200 40.97100
C  8.01400 51.46100 40.81500
C  9.06200 50.45900 40.29400
C  10.35100 51.32200 40.38900
C  9.78200 52.76200 40.61600
C  11.45000 50.78100 41.33500
C  8.79200 49.89200 38.88400
C  8.35400 50.87600 37.75200
H  9.04600 50.76400 36.41200
N  8.97000 55.76200 40.69300
C  10.22000 55.31000 40.41900
C  11.07600 56.47300 40.28700
C  10.21200 57.61700 40.36000
C  8.95100 57.16900 40.78200
C  12.54800 56.38800 39.91900
C  10.67900 59.01800 40.12500
O  11.85400 59.21000 39.93100
C  9.71800 60.13300 40.07100
N  6.07100 56.27500 41.31000
C  6.47200 57.57200 41.32800
C  5.38100 58.62200 41.47300
C  4.15500 57.69300 41.70500
C  4.79300 56.30500 41.68500
C  5.74100 59.67800 42.57600
C  2.99600 57.95600 40.66500
C  3.26100 57.62900 39.14400
N  5.75900 53.52900 41.77900
C  4.44400 53.87200 42.05700
C  3.65000 52.71200 42.40000
C  4.56800 51.65800 42.07800
C  5.75200 52.21500 41.62400
C  2.16900 52.46200 42.77300
C  4.66200 50.19700 42.07400
O  3.88600 49.37600 42.53500
C  6.07900 49.88300 41.41200
C  5.84800 49.01600 40.20800
O  5.62200 49.46200 39.11600
O  5.72700 47.66300 40.52400
C  5.17400 46.86400 39.41300
H  11.62800 53.67800 40.15600
H  7.81000 59.07100 41.21000
H  2.97100 55.38100 42.13900
H  9.17400 49.67800 41.04700
H  10.83100 51.36900 39.41100
H  11.24300 49.73200 41.55000
H  11.42500 51.29600 42.29500
H  12.39400 50.95700 40.81900
H  8.00900 49.13500 38.92600
H  9.70700 49.32900 38.69800
H  8.34100 51.89500 38.13800
H  7.32700 50.55900 37.57500
H  12.85500 55.55900 39.28200
H  13.23600 56.43500 40.76300
H  12.86000 57.29100 39.39500
H  10.09000 60.97200 39.48300
H  9.30600 60.41600 41.03900
H  8.79600 59.84100 39.56800
H  5.26200 59.06900 40.48600
H  3.78200 57.78500 42.72500
H  6.68900 59.57200 43.10500
H  4.98200 59.57800 43.35200
H  5.68000 60.63000 42.04900
H  2.74300 59.01500 40.71400
H  2.14600 57.35600 40.99100
H  3.87000 56.79900 38.78800
H  3.27300 58.51600 38.51000
H  2.26400 57.28100 38.87700
H  1.58700 52.40200 41.85300
H  1.69400 53.26700 43.33400
H  1.92500 51.52400 43.27300
H  6.73800 49.43600 42.15500
H  5.63100 47.05600 38.44200
H  4.10800 47.04600 39.27200
H  5.26600 45.78200 39.51300

