158

Mg 17.30500 -1.67200 27.27100
C  16.05400 0.24400 29.89700
C  19.08600 -3.50800 29.47700
C  19.02900 -2.90600 24.63800
C  15.59600 0.57800 25.02300
N  17.77400 -1.41700 29.35300
C  17.01600 -0.69200 30.25600
C  17.38700 -1.02100 31.69500
C  18.66400 -1.91300 31.52300
C  18.48100 -2.34500 30.03900
C  20.02700 -1.20100 31.84600
C  16.14700 -1.72900 32.39500
C  15.77600 -1.29200 33.84500
H  16.91700 -0.70200 34.66200
N  18.64500 -3.21800 27.03800
C  19.19500 -3.93200 28.10000
C  19.91900 -5.04700 27.56000
C  19.82500 -4.91300 26.11800
C  19.18200 -3.61000 25.86100
C  20.60300 -6.11300 28.33300
C  20.43100 -5.73600 25.01600
O  20.40700 -5.35200 23.82900
C  21.04800 -7.09100 25.35000
N  17.42500 -1.09200 25.19800
C  18.28100 -1.75500 24.42000
C  18.02000 -1.43700 22.97100
C  16.81700 -0.45000 22.98200
C  16.55600 -0.31600 24.46000
C  19.27700 -0.97200 22.23800
C  15.62900 -0.99800 22.16800
C  15.05800 -0.04700 21.00300
N  16.00400 0.02700 27.41600
C  15.33700 0.72600 26.44300
C  14.44600 1.67000 27.04100
C  14.75900 1.61500 28.39500
C  15.66200 0.57900 28.58900
C  13.61900 2.64100 26.29600
C  14.36600 2.13100 29.66300
O  13.53700 2.90200 30.06000
C  15.26400 1.30400 30.75200
C  16.13400 2.31300 31.49100
O  17.26000 2.68800 31.18500
O  15.50300 2.48900 32.73000
C  16.28400 3.39900 33.63100
H  19.65800 -4.08700 30.20600
H  19.51400 -3.31000 23.74600
H  14.99700 1.23600 24.38900
H  17.62600 -0.04800 32.12500
H  18.61600 -2.83500 32.10400
H  19.93500 -0.17300 32.19800
H  20.52900 -1.17600 30.87900
H  20.65700 -1.82400 32.48100
H  16.31900 -2.80400 32.44700
H  15.26400 -1.69300 31.75700
H  15.35200 -2.18800 34.29800
H  15.07200 -0.46200 33.78500
H  20.25800 -6.05600 29.36500
H  21.69100 -6.15900 28.38800
H  20.26400 -7.09800 28.01100
H  21.83700 -6.98400 26.09500
H  21.55200 -7.45000 24.45200
H  20.32700 -7.85000 25.65300
H  17.54600 -2.32900 22.56100
H  17.09000 0.52900 22.58800
H  19.95300 -0.41900 22.89100
H  18.94400 -0.35600 21.40300
H  19.87700 -1.81000 21.88400
H  14.82800 -1.20300 22.87900
H  15.80000 -1.93600 21.63900
H  14.02700 0.28700 21.11600
H  15.03000 -0.58900 20.05700
H  15.73300 0.74200 20.67100
H  13.06800 2.12000 25.51300
H  14.23500 3.30900 25.69400
H  12.95900 3.15800 26.99400
H  14.64600 0.83700 31.51800
H  17.35400 3.28900 33.45200
H  16.11800 3.07900 34.66000
H  15.99300 4.41400 33.35900
Mg 30.37100 58.20700 38.95700
C  27.82000 56.05400 38.22000
C  32.63600 55.59400 38.02800
C  32.99800 60.47700 38.83200
C  28.10400 60.81100 39.14900
N  30.25700 56.09900 38.12300
C  29.05300 55.40800 38.01100
C  29.30400 53.92200 37.60200
C  30.88800 53.79400 37.99500
C  31.33200 55.26500 38.03000
C  31.12700 53.00000 39.29300
C  29.08000 53.61300 36.11900
C  29.34900 54.69400 35.03800
H  28.14700 55.13900 34.09300
N  32.49000 58.05400 38.54300
C  33.19200 56.86500 38.23900
C  34.59400 57.23400 38.24200
C  34.73500 58.63200 38.50400
C  33.36600 59.10900 38.62600
C  35.63500 56.20200 38.11500
C  36.09100 59.35200 38.66400
O  37.22000 58.80800 38.63800
C  36.17900 60.92000 38.88700
N  30.58100 60.38000 38.85500
C  31.76600 61.03000 39.00900
C  31.53800 62.50800 39.14400
C  29.97600 62.61900 39.06500
C  29.46200 61.18100 39.05000
C  32.21100 63.30200 40.27300
C  29.40600 63.40300 37.86300
C  29.30900 64.92500 38.12500
N  28.38400 58.36600 38.91600
C  27.60600 59.47500 38.99700
C  26.19900 59.03500 38.99000
C  26.19800 57.69600 38.70900
C  27.56200 57.36100 38.61400
C  25.04900 59.90700 39.14600
C  25.40300 56.53500 38.42200
O  24.19900 56.37000 38.26000
C  26.51800 55.35000 38.19500
C  26.33100 54.44100 39.33700
O  26.86500 54.51200 40.41300
O  25.47900 53.42800 38.95100
C  24.98800 52.56100 40.01400
H  33.36400 54.79600 37.86100
H  33.78600 61.22400 38.94200
H  27.41700 61.64500 39.30600
H  28.74000 53.18500 38.17300
H  31.41300 53.20500 37.24300
H  30.26700 52.74600 39.91100
H  31.88400 53.36200 39.98900
H  31.66900 52.09900 39.00600
H  28.02800 53.33500 36.05100
H  29.69900 52.75900 35.84500
H  30.14200 54.21200 34.46600
H  29.84800 55.60400 35.37200
H  35.38600 55.55000 37.27800
H  35.54000 55.65400 39.05200
H  36.66500 56.54200 38.00500
H  35.65200 61.10900 39.82200
H  35.76600 61.49600 38.05900
H  37.18700 61.33100 38.94800
H  31.84700 62.96000 38.20200
H  29.66100 63.01500 40.03000
H  32.91600 64.05400 39.91800
H  32.86000 62.69100 40.90000
H  31.46800 63.76400 40.92300
H  28.41100 63.02300 37.63100
H  30.01100 63.18300 36.98300
H  29.86800 65.09200 39.04600
H  28.24500 65.16300 38.14000
H  29.82800 65.48300 37.34600
H  24.17900 59.37600 38.76000
H  25.19700 60.82700 38.58100
H  24.98100 60.13000 40.21100
H  26.37400 54.80000 37.26400
H  25.82400 52.34500 40.67900
H  24.75400 51.54700 39.68900
H  24.10000 52.86000 40.57200

