158

Mg 49.88300 46.31600 43.48700
C  46.68500 47.03700 42.15200
C  49.69600 43.27500 42.06300
C  53.08300 45.97300 44.04800
C  50.12800 49.85200 44.19600
N  48.32700 45.32800 42.23800
C  47.10900 45.77000 41.87200
C  46.35100 44.68300 41.04400
C  47.21500 43.42900 41.31200
C  48.46300 44.02500 41.97600
C  46.62500 42.25500 42.16700
C  46.29200 45.13900 39.57000
C  45.09000 44.80100 38.66200
H  45.32400 43.71900 37.59500
N  51.17300 44.80200 43.14200
C  50.95100 43.60300 42.59400
C  52.09100 42.78400 42.57700
C  53.10800 43.55200 43.27000
C  52.44800 44.86100 43.47900
C  52.03600 41.43600 41.93800
C  54.53300 42.99100 43.53200
O  54.84000 41.78600 43.31600
C  55.60300 43.84900 44.18800
N  51.40200 47.72700 43.96600
C  52.69100 47.31400 44.19000
C  53.63400 48.45000 44.51000
C  52.59600 49.58900 44.83800
C  51.26700 49.07300 44.26400
C  54.58100 48.20000 45.69700
C  53.03100 50.94100 44.26800
C  52.81500 52.22100 45.13900
N  48.66300 48.11500 43.31600
C  48.87400 49.41900 43.70700
C  47.75400 50.25300 43.33300
C  46.85400 49.35200 42.81200
C  47.52500 48.04200 42.70800
C  47.55500 51.74600 43.43700
C  45.55400 49.23900 42.28700
O  44.75300 50.15700 42.07000
C  45.49000 47.76000 41.76600
C  44.32000 47.13600 42.48500
O  44.06200 47.24200 43.70500
O  43.70800 46.20700 41.71000
C  42.55100 45.51100 42.25700
H  49.57800 42.28100 41.62800
H  54.13500 45.76400 44.25000
H  50.32000 50.91000 44.38500
H  45.35300 44.44500 41.41400
H  47.39500 43.06800 40.29900
H  46.47200 41.32200 41.62500
H  45.72400 42.62500 42.65700
H  47.35600 41.97600 42.92600
H  47.16800 44.76700 39.03800
H  46.41700 46.22200 39.55000
H  44.79200 45.81400 38.38800
H  44.24400 44.47000 39.26400
H  51.26400 40.81900 42.39800
H  52.88200 40.80800 42.21700
H  51.93200 41.46800 40.85300
H  55.91600 44.70800 43.59400
H  56.47000 43.21500 44.37400
H  55.27800 44.20300 45.16700
H  54.18900 48.69400 43.60500
H  52.37900 49.56400 45.90600
H  54.55200 47.12100 45.84900
H  54.23000 48.56300 46.66300
H  55.60800 48.50300 45.49100
H  52.36500 51.19200 43.44200
H  54.05500 50.88800 43.89600
H  52.86400 51.98800 46.20300
H  51.86500 52.72900 44.97700
H  53.58300 52.94300 44.85800
H  46.61400 52.06300 43.88600
H  47.62600 52.14300 42.42400
H  48.28300 52.25200 44.07100
H  45.26900 47.74900 40.69800
H  42.25900 45.93000 43.22000
H  42.85200 44.46600 42.33500
H  41.70800 45.61700 41.57500
Mg 1.42600 42.53700 26.04500
C  2.62100 42.58500 29.17400
C  -1.36600 40.84500 27.26800
C  0.30600 42.16900 22.86800
C  4.32900 43.92900 24.72900
N  0.59800 41.98000 28.06400
C  1.29000 42.13400 29.17800
C  0.40600 41.86700 30.46300
C  -0.87300 41.28100 29.79000
C  -0.55200 41.33300 28.27000
C  -1.32100 39.85100 30.21900
C  0.21200 43.11600 31.39500
C  0.84700 43.17700 32.80400
H  0.72500 41.93800 33.74100
N  -0.30400 41.61400 25.22300
C  -1.26000 40.92700 25.87700
C  -2.26400 40.47500 25.01400
C  -1.85700 40.87100 23.71300
C  -0.57900 41.68000 23.88300
C  -3.57500 39.63500 25.40000
C  -2.49800 40.70600 22.34500
O  -2.09600 41.13700 21.25500
C  -3.81300 39.89000 22.18800
N  2.21500 42.95800 24.08000
C  1.50400 42.75400 22.98300
C  2.35400 42.95900 21.74200
C  3.39800 43.93200 22.31100
C  3.34400 43.66800 23.80400
C  2.84700 41.52400 21.11800
C  3.46700 45.41400 21.86100
C  2.21400 46.28700 21.88800
N  3.15600 43.00800 26.77300
C  4.22200 43.64200 26.10800
C  5.32000 43.86600 27.10200
C  4.73700 43.43500 28.34800
C  3.44600 42.91000 28.09900
C  6.64000 44.47500 26.97700
C  4.96300 43.30200 29.75100
O  6.00300 43.41400 30.39900
C  3.56900 42.75000 30.35100
C  3.84800 41.45700 31.13000
O  3.78500 40.28300 30.83600
O  4.33400 41.90100 32.36100
C  5.07700 40.86500 33.09500
H  -2.32000 40.46600 27.64100
H  0.09300 41.90600 21.83000
H  5.29000 44.26100 24.33100
H  0.94400 41.09900 31.02000
H  -1.73700 41.91800 29.97700
H  -0.60500 39.56100 30.98900
H  -1.32100 39.08800 29.44100
H  -2.29000 40.01600 30.68800
H  -0.87200 43.19800 31.48000
H  0.54400 43.99600 30.84400
H  0.40100 43.96000 33.41700
H  1.89700 43.45700 32.71200
H  -3.82400 38.95900 24.58300
H  -4.40900 40.31900 25.55400
H  -3.28000 39.17000 26.34000
H  -3.74300 38.81100 22.32500
H  -4.22100 40.13100 21.20700
H  -4.51900 40.40200 22.84200
H  1.83900 43.48100 20.93500
H  4.38500 43.60100 21.99000
H  2.10100 40.74900 21.29500
H  3.80200 41.29900 21.59300
H  2.86400 41.66000 20.03700
H  3.92000 45.38200 20.87000
H  4.16600 45.98800 22.46900
H  2.12800 46.97200 22.73100
H  1.28800 45.72200 21.77900
H  2.33800 46.88100 20.98200
H  6.47100 45.24700 26.22600
H  7.33000 43.70300 26.63600
H  6.98700 44.86500 27.93300
H  3.23400 43.41300 31.14900
H  5.74800 40.35600 32.40300
H  4.50800 40.02800 33.50000
H  5.60000 41.42700 33.86900

