158

Mg 2.51900 -1.96500 44.54900
C  5.62100 -1.04100 43.35800
C  1.04300 0.27700 42.32700
C  -0.37000 -3.34800 45.20000
C  4.18000 -4.59400 46.38500
N  3.24500 -0.66200 42.84300
C  4.57300 -0.32800 42.71400
C  4.76400 0.78700 41.70900
C  3.29200 1.34300 41.56800
C  2.44100 0.31100 42.28400
C  3.04100 2.72300 42.12700
C  5.43200 0.28200 40.42600
C  6.76700 0.90900 40.01000
H  6.75000 1.80600 38.74800
N  0.54700 -1.50100 43.91000
C  0.18100 -0.58300 43.05000
C  -1.27500 -0.54000 43.02200
C  -1.71500 -1.58100 43.85800
C  -0.48000 -2.21100 44.39600
C  -2.05100 0.37300 42.19800
C  -3.09600 -1.89100 44.24900
O  -4.04800 -1.27300 43.77300
C  -3.50200 -2.94500 45.24800
N  2.02900 -3.74300 45.67900
C  0.70700 -4.05700 45.74200
C  0.49200 -5.37200 46.50800
C  1.98900 -5.85300 46.84400
C  2.80700 -4.67700 46.28700
C  -0.41600 -5.22100 47.79500
C  2.31700 -7.27400 46.23000
C  2.05600 -8.54500 47.01600
N  4.47900 -2.62500 44.93200
C  4.97100 -3.70200 45.65900
C  6.45900 -3.63000 45.60100
C  6.74700 -2.57200 44.76400
C  5.48700 -2.06500 44.32200
C  7.37700 -4.68300 46.23300
C  7.77000 -1.76800 44.15900
O  9.02900 -1.80800 44.27900
C  7.00100 -0.68000 43.34500
C  7.40700 0.64700 43.91500
O  6.72900 1.32000 44.66200
O  8.60500 1.03700 43.36100
C  9.10700 2.22300 44.04000
H  0.54300 1.09700 41.80600
H  -1.31400 -3.88100 45.33100
H  4.67900 -5.30500 47.04700
H  5.39600 1.59100 42.08700
H  2.87100 1.46900 40.57000
H  3.89300 3.32500 41.81200
H  3.02800 2.66500 43.21500
H  2.11100 3.05700 41.66600
H  4.82400 0.80200 39.68600
H  5.26800 -0.79500 40.39600
H  7.42400 0.04000 39.97200
H  7.11100 1.59700 40.78300
H  -1.59400 1.35600 42.08400
H  -3.00800 0.61700 42.65900
H  -2.34300 -0.07300 41.24800
H  -2.92900 -2.65000 46.12700
H  -3.35400 -3.98500 44.96100
H  -4.56000 -2.86200 45.49900
H  -0.02400 -5.96600 45.75400
H  2.08400 -6.04000 47.91300
H  -0.72300 -4.18700 47.95600
H  0.10700 -5.44400 48.72600
H  -1.23500 -5.93400 47.88600
H  3.32000 -7.29000 45.80300
H  1.56600 -7.30800 45.44100
H  1.50300 -8.15000 47.86800
H  2.96200 -9.07700 47.30700
H  1.46400 -9.24300 46.42500
H  6.98600 -4.90000 47.22700
H  8.36100 -4.22300 46.14100
H  7.29500 -5.61400 45.67200
H  7.40600 -0.75300 42.33600
H  9.22600 2.08000 45.11400
H  8.58100 3.13500 43.76100
H  10.11600 2.27800 43.63000
Mg 46.45700 24.82900 28.42900
C  47.51700 27.23400 30.93000
C  45.17900 22.94600 30.92800
C  45.76600 22.45600 26.04400
C  48.33200 26.73100 26.13800
N  46.21200 25.19000 30.64600
C  46.76000 26.18000 31.47600
C  46.11900 26.03900 32.84100
C  45.58100 24.53500 32.92100
C  45.66900 24.17600 31.42200
C  46.28900 23.54500 34.01700
C  44.96200 27.07100 33.13800
C  44.99700 27.80800 34.56200
H  45.74800 27.11300 35.68000
N  45.59600 22.97800 28.48700
C  45.11200 22.39000 29.64100
C  44.57400 21.13900 29.35800
C  44.57800 20.98400 27.92400
C  45.28700 22.15600 27.40300
C  43.83400 20.23300 30.39900
C  44.04400 19.93600 26.96800
O  44.00800 20.09800 25.76200
C  43.42400 18.64300 27.43400
N  47.05000 24.58700 26.45700
C  46.48100 23.61200 25.69900
C  46.94000 23.84300 24.24500
C  47.66800 25.25800 24.16900
C  47.66600 25.54900 25.68800
C  47.71400 22.65000 23.60500
C  46.77800 26.36000 23.45000
C  47.49300 26.92500 22.22000
N  47.61200 26.68900 28.46400
C  48.33700 27.29500 27.40900
C  48.87600 28.54400 27.88400
C  48.58800 28.57100 29.26300
C  47.85700 27.37300 29.59600
C  49.64700 29.48900 26.95400
C  48.87500 29.25900 30.50700
O  49.66200 30.19600 30.72800
C  48.17100 28.40200 31.58900
C  49.21900 28.12600 32.61100
O  50.05300 27.22500 32.54400
O  48.99900 28.85100 33.76500
C  49.83600 28.57500 34.97500
H  44.81000 22.27200 31.70400
H  45.51500 21.82500 25.18900
H  48.78600 27.24800 25.29000
H  46.96900 26.12300 33.51800
H  44.51800 24.50500 33.15800
H  45.56100 23.23100 34.76500
H  47.17800 24.09500 34.32600
H  46.68400 22.71500 33.43200
H  43.97100 26.65900 32.94800
H  45.14200 27.83800 32.38500
H  43.98700 27.81800 34.97200
H  45.25600 28.85200 34.38700
H  42.79800 20.06100 30.10700
H  44.01400 20.55700 31.42500
H  44.17500 19.21700 30.20500
H  44.11600 18.08100 28.06200
H  43.18400 18.08000 26.53200
H  42.50800 18.85800 27.98400
H  45.99500 23.86000 23.70300
H  48.69600 25.23800 23.80700
H  48.29400 22.19300 24.40700
H  48.33500 23.07700 22.81700
H  47.00600 21.96300 23.14300
H  46.55900 27.20400 24.10400
H  45.80500 25.95300 23.17700
H  47.31000 26.30200 21.34500
H  48.56200 26.87500 22.42600
H  47.25700 27.98200 22.10600
H  48.95800 29.86700 26.19900
H  50.33200 28.78800 26.47600
H  50.13000 30.31400 27.47600
H  47.36300 28.97100 32.04900
H  50.24300 29.53500 35.29100
H  50.63600 27.83700 34.90600
H  49.17800 28.31300 35.80400

