158

Mg 35.45900 2.83300 30.43900
C  33.04500 3.96900 32.81400
C  37.57800 2.47700 33.09400
C  37.60300 1.71300 28.25300
C  32.93800 3.25600 27.95900
N  35.33300 3.28800 32.69700
C  34.25600 3.72300 33.44600
C  34.57400 3.80500 34.94600
C  36.12100 3.62500 34.94700
C  36.40000 3.05900 33.47900
C  37.02700 4.85700 35.10000
C  33.72800 2.56000 35.46700
C  33.27000 2.49900 36.95700
H  33.83600 3.71000 37.82300
N  37.46700 2.20900 30.68600
C  38.21900 2.24500 31.87600
C  39.54800 1.79400 31.41900
C  39.53200 1.47400 29.98700
C  38.20800 1.76000 29.60200
C  40.65500 1.70500 32.43100
C  40.51000 0.76400 29.05900
O  40.23900 0.20900 28.00100
C  41.97000 0.58100 29.56600
N  35.27600 2.52400 28.42500
C  36.30600 2.02100 27.70900
C  36.03200 1.91700 26.21900
C  34.48000 1.93600 26.29700
C  34.16800 2.63300 27.61700
C  36.76900 3.08700 25.38500
C  33.74200 0.56900 26.19200
C  32.57900 0.20200 27.22900
N  33.40400 3.57700 30.32500
C  32.53600 3.65800 29.22100
C  31.19500 4.10000 29.73100
C  31.43600 4.30100 31.13300
C  32.76300 3.90800 31.45000
C  29.83900 4.25200 28.99900
C  30.73300 4.65600 32.41200
O  29.50700 4.91500 32.65700
C  31.77200 4.54300 33.49100
C  31.96600 5.85600 34.09900
O  32.34400 6.91000 33.64000
O  31.41100 5.82000 35.35900
C  31.46600 6.84800 36.43300
H  38.26600 2.33900 33.93000
H  38.34500 1.46900 27.49000
H  32.15400 3.36600 27.20800
H  34.18700 4.71400 35.40600
H  36.38000 2.79100 35.59900
H  37.78400 4.64700 35.85600
H  36.59500 5.85400 35.18300
H  37.59600 4.90000 34.17200
H  34.36300 1.67800 35.39100
H  32.98600 2.27700 34.72100
H  33.64600 1.63000 37.49700
H  32.18300 2.44700 37.00700
H  40.26500 2.09200 33.37200
H  41.45300 2.31800 32.01200
H  40.90700 0.64700 32.50900
H  42.22500 1.40300 30.23500
H  42.64000 0.52900 28.70800
H  42.00300 -0.40200 30.03600
H  36.41700 0.91100 26.05400
H  34.23600 2.66100 25.52000
H  37.35100 3.71700 26.05800
H  36.06000 3.71500 24.84600
H  37.48700 2.70400 24.66000
H  34.49500 -0.21900 26.20800
H  33.38000 0.40700 25.17600
H  33.02300 0.08300 28.21700
H  32.07500 -0.75000 27.05900
H  31.84600 1.00900 27.22800
H  29.87700 4.98700 28.19500
H  29.08300 4.36400 29.77600
H  29.49900 3.30500 28.58100
H  31.38400 3.85400 34.24200
H  30.49900 7.28700 36.67800
H  32.21000 7.58800 36.13600
H  31.75500 6.29900 37.32900
Mg -6.46000 25.06500 25.93300
C  -4.66400 26.37300 28.62800
C  -8.09400 22.85300 28.09000
C  -7.60000 23.33800 23.28800
C  -4.12600 26.73100 23.77900
N  -6.43800 24.75600 28.03700
C  -5.61600 25.40200 28.96100
C  -6.06500 25.00400 30.37900
C  -7.05100 23.81600 30.22300
C  -7.29200 23.87800 28.67200
C  -6.52400 22.40300 30.81000
C  -6.78600 26.21300 31.09000
C  -6.51900 26.44400 32.56800
H  -6.11500 25.17800 33.50200
N  -7.82700 23.50900 25.72800
C  -8.41000 22.76900 26.73000
C  -9.37500 21.83400 26.16800
C  -9.23000 22.02900 24.74800
C  -8.16100 22.99300 24.54200
C  -10.36100 20.95200 26.96300
C  -9.98500 21.32700 23.68500
O  -9.87800 21.64600 22.49200
C  -11.03500 20.25700 23.97500
N  -6.00200 25.11500 23.84400
C  -6.63200 24.30500 22.92900
C  -6.03300 24.52000 21.44200
C  -5.16200 25.77200 21.67700
C  -5.07700 25.90400 23.18400
C  -5.25700 23.31300 20.92900
C  -5.53200 27.10400 20.93000
C  -4.51600 27.57100 19.92900
N  -4.87200 26.46300 26.11900
C  -4.00500 27.01200 25.17300
C  -2.95600 27.71900 25.83400
C  -3.25200 27.63400 27.22600
C  -4.43700 26.80900 27.32600
C  -1.79400 28.50300 25.33100
C  -2.82500 27.91600 28.61200
O  -1.78800 28.38500 29.02600
C  -3.82700 27.25800 29.55000
C  -3.11100 26.53200 30.51100
O  -2.70500 25.42600 30.33600
O  -2.80200 27.30200 31.60300
C  -2.08100 26.58100 32.66600
H  -8.52500 22.23200 28.87800
H  -7.94500 22.79300 22.40700
H  -3.26900 27.05500 23.18600
H  -5.23700 24.67600 31.00800
H  -7.98900 24.05400 30.72400
H  -5.52800 22.60600 31.20400
H  -6.40100 21.63500 30.04700
H  -7.26700 21.92900 31.45200
H  -7.86900 26.12500 31.00200
H  -6.46100 27.08700 30.52500
H  -7.42000 26.80900 33.06000
H  -5.67200 27.12700 32.64800
H  -10.27800 19.88900 26.73700
H  -11.27300 21.43700 26.61400
H  -10.13000 21.13200 28.01300
H  -10.46600 19.50900 24.52600
H  -11.37700 19.76200 23.06600
H  -11.77000 20.78100 24.58600
H  -6.82200 24.76000 20.73000
H  -4.12200 25.52000 21.46800
H  -4.54200 23.27600 21.75100
H  -4.74200 23.45600 19.97900
H  -5.81300 22.37600 20.91700
H  -5.76400 27.91100 21.62600
H  -6.50100 26.87600 20.48500
H  -4.91500 27.52800 18.91500
H  -3.49400 27.19500 19.89100
H  -4.37700 28.62500 20.17300
H  -1.10400 27.90600 24.73500
H  -1.22400 28.86200 26.18900
H  -2.23700 29.27200 24.69800
H  -4.27000 28.06600 30.13300
H  -1.95900 27.30600 33.47000
H  -1.10400 26.27200 32.29600
H  -2.61400 25.73700 33.10300

