158

Mg 8.73000 3.57900 27.34700
C  9.85200 2.07600 30.31700
C  7.25500 5.89800 29.23800
C  7.35500 4.70700 24.56700
C  10.23500 0.86000 25.57500
N  8.51200 3.83700 29.52100
C  9.15100 3.22100 30.65300
C  8.83900 3.86900 32.02800
C  7.82800 4.98400 31.58500
C  7.78900 4.87700 30.02800
C  6.38100 4.70900 32.14200
C  10.12100 4.48600 32.66100
C  9.96300 5.10100 34.06600
H  10.34100 4.27100 35.24400
N  7.63200 5.19100 26.91400
C  7.10200 6.11200 27.84800
C  6.31900 7.11900 27.16200
C  6.28700 6.70300 25.77200
C  7.17300 5.48500 25.70400
C  5.75800 8.32300 27.84700
C  5.57800 7.37500 24.57800
O  5.64500 6.95000 23.44400
C  4.68300 8.52300 24.86200
N  8.82700 2.93600 25.38200
C  8.14700 3.59700 24.35400
C  8.36800 2.85500 22.97300
C  9.38600 1.64200 23.31700
C  9.60400 1.88300 24.80500
C  6.99500 2.31000 22.30500
C  10.63800 1.64400 22.48300
C  11.04300 0.41100 21.65100
N  9.87400 1.80700 27.83000
C  10.35400 0.79000 27.02400
C  10.98000 -0.23600 27.75900
C  10.87700 0.28200 29.06000
C  10.17100 1.50200 29.07500
C  11.43100 -1.54900 27.30700
C  11.24200 0.04800 30.42300
O  11.72100 -0.96700 30.92900
C  10.65800 1.18200 31.22400
C  9.81500 0.61400 32.30300
O  8.85300 -0.14300 32.09500
O  10.31500 0.94700 33.57300
C  9.29400 0.53700 34.60800
H  6.71200 6.53200 29.94200
H  6.85100 4.93500 23.62500
H  10.76900 0.10500 24.99400
H  8.54600 3.04300 32.67600
H  8.15200 5.98200 31.88300
H  6.07300 5.66300 32.57100
H  6.41700 3.98000 32.95100
H  5.66500 4.33400 31.41100
H  10.47500 5.20800 31.92400
H  10.88400 3.71000 32.71900
H  8.93600 5.35800 34.32500
H  10.53300 6.02700 34.15000
H  6.15900 8.36900 28.85900
H  4.68800 8.32400 28.05300
H  6.16600 9.22600 27.39300
H  5.32000 9.40700 24.85100
H  4.03900 8.37100 25.72800
H  3.90100 8.58900 24.10500
H  8.87200 3.58200 22.33700
H  8.87500 0.69700 23.12800
H  7.19300 1.35200 21.82500
H  6.44200 2.90500 21.57800
H  6.21500 2.14200 23.04800
H  11.51400 1.86400 23.09400
H  10.50700 2.49100 21.81100
H  12.10200 0.19500 21.79100
H  10.78500 0.65400 20.62000
H  10.44200 -0.42500 22.00800
H  12.47900 -1.46000 27.02100
H  10.78900 -1.78500 26.45900
H  11.25400 -2.40800 27.95400
H  11.50900 1.75700 31.58900
H  9.52200 1.02800 35.55400
H  9.56600 -0.50600 34.76900
H  8.24600 0.58300 34.31200
Mg 48.20900 14.37100 28.12100
C  45.77300 14.39300 30.69900
C  50.27100 16.43300 29.94400
C  50.12200 14.86700 25.25300
C  46.12300 12.29400 26.29300
N  47.93700 15.48300 30.07800
C  46.96600 15.18400 31.03500
C  47.47500 15.57400 32.42900
C  48.72800 16.45700 32.13600
C  49.06200 16.10500 30.62500
C  48.60200 17.96200 32.25300
C  47.76900 14.40200 33.46300
C  47.14700 14.62600 34.87400
H  48.16700 14.99000 35.93600
N  49.94100 15.53700 27.62700
C  50.67500 16.26100 28.56400
C  51.76300 16.92600 27.88200
C  51.74200 16.51200 26.49800
C  50.54500 15.61100 26.38900
C  52.68900 17.97000 28.53100
C  52.65500 16.84100 25.39500
O  52.56300 16.32000 24.27200
C  53.78100 17.77400 25.54700
N  48.12200 13.62500 26.08700
C  48.94000 13.98700 25.10200
C  48.70200 13.17300 23.81200
C  47.41000 12.30200 24.14400
C  47.21600 12.77000 25.60100
C  48.61100 14.11000 22.54900
C  47.65500 10.71500 24.00600
C  48.06700 9.92800 25.23200
N  46.29600 13.57400 28.37800
C  45.56900 12.72900 27.51000
C  44.36500 12.31100 28.04600
C  44.40700 13.01800 29.29000
C  45.55300 13.74100 29.46500
C  43.27600 11.54500 27.42300
C  43.61500 13.26500 30.47000
O  42.49200 12.95400 30.79100
C  44.58500 13.92100 31.53400
C  43.87800 14.94600 32.34300
O  43.52800 16.01700 32.03400
O  43.66100 14.48000 33.61200
C  42.89700 15.38900 34.46400
H  50.87000 17.18200 30.46500
H  50.74900 15.03500 24.37500
H  45.43400 11.64200 25.75200
H  46.70000 16.21800 32.84300
H  49.57400 16.11000 32.72800
H  49.04300 18.33400 33.17700
H  47.57200 18.27800 32.08900
H  48.98700 18.42600 31.34500
H  48.83000 14.38600 33.71200
H  47.33500 13.46100 33.12400
H  46.71700 13.66800 35.16700
H  46.28400 15.27200 34.71000
H  52.61100 17.79800 29.60400
H  52.47100 19.01600 28.31700
H  53.65400 17.54400 28.25500
H  53.40200 18.75900 25.82100
H  54.20700 17.91200 24.55300
H  54.59700 17.47300 26.20500
H  49.61900 12.60200 23.67200
H  46.52100 12.49800 23.54400
H  47.85700 13.78300 21.83300
H  49.44900 13.91000 21.88200
H  48.60400 15.17700 22.77100
H  48.46300 10.60900 23.28200
H  46.71600 10.31400 23.62600
H  47.26700 9.29900 25.62000
H  48.26000 10.61100 26.05900
H  48.85800 9.24000 24.93400
H  43.03700 10.63500 27.97300
H  43.56200 11.33400 26.39200
H  42.40800 12.20400 27.43500
H  44.85300 13.14600 32.25300
H  41.95300 15.67500 33.99900
H  43.36400 16.32100 34.78400
H  42.68700 14.71500 35.29400

