158

Mg -1.49400 16.99200 26.04600
C  -1.79600 15.02400 28.92600
C  -1.86400 19.82500 28.10500
C  -1.67300 18.90600 23.33100
C  -1.55900 14.18800 24.11300
N  -1.78900 17.33900 28.27800
C  -1.92400 16.32500 29.23400
C  -2.32800 16.93000 30.59800
C  -2.35100 18.48800 30.29600
C  -2.00000 18.57400 28.79300
C  -3.78900 19.24000 30.47800
C  -1.41500 16.50300 31.71200
C  -1.83000 17.04800 33.04700
H  -1.63400 16.28100 34.33200
N  -1.49900 19.10000 25.81100
C  -1.68300 20.12000 26.77600
C  -1.63600 21.36400 26.05500
C  -1.34600 21.14100 24.70000
C  -1.57300 19.65100 24.55700
C  -1.71500 22.68300 26.77800
C  -0.95700 22.11000 23.65900
O  -0.97200 21.86000 22.46900
C  -0.58200 23.47600 23.98000
N  -1.76000 16.62000 24.03500
C  -1.65300 17.59300 23.09700
C  -1.81100 17.01000 21.70800
C  -1.30800 15.51100 21.97300
C  -1.59600 15.39900 23.45300
C  -3.27500 17.04800 21.10400
C  0.18500 15.25800 21.57000
C  0.44200 15.12300 20.09500
N  -1.57800 15.03500 26.40200
C  -1.68200 14.01500 25.49000
C  -1.92000 12.79200 26.17100
C  -1.88100 13.13400 27.50600
C  -1.68600 14.54400 27.62800
C  -2.22700 11.53800 25.50300
C  -2.06500 12.51000 28.78000
O  -2.14300 11.32100 29.15300
C  -2.04500 13.77300 29.75700
C  -0.90900 13.33700 30.60800
O  0.18600 13.77300 30.46200
O  -1.39400 12.59900 31.68300
C  -0.47400 12.32100 32.79600
H  -2.05700 20.72900 28.68800
H  -1.57000 19.59600 22.49100
H  -1.53400 13.35100 23.41200
H  -3.30500 16.62200 30.97000
H  -1.62400 19.08900 30.84300
H  -3.52100 20.21600 30.88100
H  -4.61200 18.79800 31.04000
H  -4.25800 19.28900 29.49600
H  -0.41100 16.67000 31.32000
H  -1.49000 15.42900 31.88300
H  -2.87100 17.33600 32.90400
H  -1.23400 17.96000 33.07300
H  -2.12500 22.55300 27.77900
H  -2.36800 23.37800 26.25100
H  -0.72300 23.11100 26.92500
H  -1.15900 24.07000 24.69000
H  -0.29000 24.04500 23.09700
H  0.35900 23.17800 24.44100
H  -1.16600 17.58300 21.04200
H  -1.90900 14.82900 21.37200
H  -3.75800 16.07300 21.04700
H  -3.14400 17.53900 20.13900
H  -3.92300 17.72600 21.66000
H  0.56700 14.44000 22.18200
H  0.74200 16.13500 21.90000
H  1.41800 15.58400 19.94500
H  -0.32100 15.59600 19.47700
H  0.40000 14.05700 19.87100
H  -1.35000 10.89200 25.45700
H  -2.52400 11.73700 24.47300
H  -2.92000 10.91400 26.06700
H  -2.95300 13.79000 30.36000
H  0.57200 12.23000 32.50500
H  -0.86900 11.46000 33.33600
H  -0.53500 13.21200 33.42200
Mg -4.17000 24.71700 26.84600
C  -2.83000 26.66300 29.28100
C  -5.72400 22.75300 29.23600
C  -5.43600 22.76100 24.37800
C  -2.40200 26.61200 24.37500
N  -4.27600 24.72200 28.99500
C  -3.74300 25.70300 29.74900
C  -4.39000 25.68900 31.11300
C  -5.05300 24.22500 31.15700
C  -5.00800 23.82000 29.72400
C  -4.30100 23.21000 32.13300
C  -5.31900 26.85500 31.50800
C  -5.15300 27.40000 32.85600
H  -4.96900 26.30000 33.93300
N  -5.42600 23.07300 26.81800
C  -6.00300 22.42600 27.92500
C  -6.72100 21.23200 27.45500
C  -6.67900 21.28100 26.02000
C  -5.83600 22.41000 25.68700
C  -7.26100 20.18200 28.44100
C  -7.31700 20.33000 24.98200
O  -7.18000 20.41600 23.75000
C  -8.20200 19.12000 25.41200
N  -4.07100 24.70600 24.60900
C  -4.65300 23.81500 23.78800
C  -4.49000 24.17100 22.31600
C  -3.63200 25.53900 22.44500
C  -3.33400 25.67100 23.94100
C  -3.86100 23.02000 21.53200
C  -4.42100 26.77700 21.87900
C  -3.54400 27.53600 20.77800
N  -2.90400 26.23500 26.74900
C  -2.27300 27.00700 25.72400
C  -1.43600 28.08200 26.26600
C  -1.71500 28.02600 27.61800
C  -2.50500 26.86100 27.87900
C  -0.56900 29.00300 25.50500
C  -1.48800 28.72500 28.87900
O  -0.85700 29.74900 29.14400
C  -2.20400 27.82300 29.99100
C  -1.33100 27.35800 31.14000
O  -0.27500 26.85700 30.99500
O  -1.78500 27.65900 32.41200
C  -0.99100 27.27600 33.53200
H  -6.17500 22.11500 29.99800
H  -5.61200 22.00700 23.60900
H  -1.97000 27.31600 23.66200
H  -3.63300 25.64000 31.89600
H  -6.10000 24.21400 31.46100
H  -3.61400 23.68200 32.83500
H  -3.83300 22.37400 31.61300
H  -5.13900 22.79500 32.69300
H  -6.37000 26.64400 31.31000
H  -5.16900 27.63900 30.76600
H  -6.04700 27.97800 33.09200
H  -4.25600 28.01600 32.78600
H  -7.16800 19.15800 28.07900
H  -8.32700 20.28100 28.64700
H  -6.65000 20.08400 29.33800
H  -9.11100 19.60100 25.77200
H  -7.77400 18.49600 26.19700
H  -8.46300 18.45700 24.58700
H  -5.49100 24.39000 21.94500
H  -2.61900 25.47200 22.04800
H  -3.86400 22.07100 22.06800
H  -2.86100 23.23000 21.15200
H  -4.52000 22.98200 20.66500
H  -4.54700 27.52000 22.66700
H  -5.38800 26.56900 21.42100
H  -2.73600 26.92000 20.38500
H  -3.26400 28.53000 21.12700
H  -4.08000 27.78100 19.86100
H  0.15500 29.36300 26.23700
H  -1.23500 29.77500 25.11800
H  -0.12500 28.37900 24.73000
H  -2.95900 28.39500 30.52900
H  -1.39500 27.97700 34.26300
H  0.09000 27.26600 33.39500
H  -1.33600 26.29000 33.84000

