158

Mg 3.22600 -0.91100 44.03200
C  5.61000 1.57900 43.72700
C  0.93100 1.07000 42.53500
C  1.09000 -3.56600 43.95600
C  5.92900 -3.24100 44.78600
N  3.27800 1.13400 43.08300
C  4.27600 2.00900 43.29000
C  3.90200 3.41700 42.90900
C  2.37300 3.22300 42.67700
C  2.15600 1.66700 42.74700
C  1.38900 3.97900 43.61600
C  4.74600 3.98300 41.71700
C  4.62700 3.24900 40.33600
H  5.78400 2.37900 39.80400
N  1.25100 -1.19400 43.42200
C  0.45500 -0.22700 42.86600
C  -0.86900 -0.80300 42.54900
C  -0.84700 -2.14900 43.01900
C  0.56000 -2.33300 43.55300
C  -1.96200 -0.08000 41.95500
C  -1.95700 -3.17000 42.87100
O  -2.99300 -2.83700 42.33200
C  -1.92000 -4.62900 43.45200
N  3.45500 -3.10800 44.28800
C  2.38600 -3.93100 44.37400
C  2.77300 -5.35300 44.69300
C  4.29300 -5.19900 45.03200
C  4.62500 -3.77500 44.60700
C  1.93900 -5.98200 45.77200
C  5.16600 -6.36000 44.40600
C  6.23800 -7.05500 45.28000
N  5.30500 -0.92200 44.35400
C  6.31800 -1.83900 44.61900
C  7.61000 -1.28800 44.67000
C  7.33000 0.10600 44.36500
C  5.98800 0.23700 44.10900
C  8.92500 -2.03700 44.79900
C  7.99000 1.41900 44.26900
O  9.13500 1.80600 44.46000
C  6.87900 2.36300 43.83000
C  6.72400 3.40700 44.89400
O  7.11000 4.56900 44.76800
O  6.19900 2.89300 46.06600
C  6.55800 3.59100 47.31200
H  0.15300 1.80700 42.32600
H  0.46300 -4.45900 43.94100
H  6.68500 -3.99600 45.01000
H  3.99800 4.18400 43.67700
H  2.19900 3.55400 41.65300
H  1.91900 4.39100 44.47500
H  0.67300 3.28300 44.05400
H  0.78600 4.68800 43.05000
H  5.77400 4.26000 41.95100
H  4.35100 4.99400 41.61600
H  4.54200 4.01600 39.56700
H  3.66400 2.74400 40.39900
H  -2.13400 -0.16500 40.88200
H  -1.74300 0.98600 41.90600
H  -2.84800 -0.12500 42.58800
H  -1.34900 -5.25000 42.76200
H  -2.95300 -4.96300 43.54200
H  -1.50200 -4.51600 44.45300
H  2.68700 -6.00400 43.82400
H  4.41700 -5.32500 46.10700
H  1.20900 -6.68300 45.36800
H  1.31200 -5.24500 46.27300
H  2.54900 -6.60000 46.43200
H  5.70300 -5.89600 43.57800
H  4.54600 -7.03900 43.81900
H  6.13100 -8.13300 45.40500
H  6.10100 -6.68900 46.29700
H  7.22500 -6.76100 44.92300
H  9.69900 -1.54100 44.21400
H  8.88600 -3.02400 44.33900
H  9.21800 -2.14900 45.84300
H  7.32300 2.79300 42.93200
H  5.65500 4.03000 47.73600
H  7.21500 4.45900 47.25600
H  6.92100 2.96400 48.12600
Mg 6.91600 56.55600 41.62700
C  5.95400 53.11700 41.49400
C  10.02600 55.66200 40.46000
C  7.37700 59.67200 41.10400
C  3.46600 57.31700 42.65800
N  7.85700 54.54800 41.09900
C  7.23000 53.30300 41.01000
C  8.28700 52.30100 40.42300
C  9.66400 53.06400 40.64900
C  9.17100 54.54400 40.77600
C  10.57300 52.68900 41.93600
C  7.84200 51.86700 38.98800
C  8.57900 50.71700 38.38100
H  8.59400 50.65400 36.87300
N  8.55800 57.56900 41.00800
C  9.72900 57.04200 40.50700
C  10.55700 58.15500 40.21700
C  9.81500 59.38100 40.34100
C  8.51200 58.90100 40.83200
C  11.95700 57.91500 39.78700
C  10.30000 60.73300 39.98800
O  11.42800 60.85700 39.44500
C  9.49800 62.00600 40.10600
N  5.48300 58.22500 41.68000
C  6.09900 59.44800 41.52600
C  5.20100 60.56100 42.10100
C  3.87400 59.83300 42.44900
C  4.31700 58.35900 42.26300
C  5.78600 61.35200 43.25000
C  2.71300 60.27900 41.57500
C  1.48200 60.95600 42.32800
N  5.07600 55.54300 41.92100
C  3.81800 55.96000 42.39000
C  3.04100 54.78100 42.76400
C  3.84500 53.70400 42.41500
C  5.01500 54.20900 41.85000
C  1.75700 54.71000 43.43700
C  3.92100 52.25000 42.52900
O  3.18500 51.42500 43.02400
C  5.29200 51.83800 41.89200
C  5.05700 50.85600 40.79500
O  4.35900 51.11000 39.81500
O  5.66100 49.66900 41.05300
C  5.50300 48.81700 39.87300
H  11.06800 55.40700 40.25900
H  7.55600 60.71000 40.81600
H  2.50300 57.71800 42.98000
H  8.35700 51.42200 41.06400
H  10.22600 52.92500 39.72500
H  10.01800 51.86000 42.37400
H  10.54700 53.48800 42.67600
H  11.59500 52.61600 41.56500
H  7.88400 52.71700 38.30600
H  6.83900 51.44700 39.06400
H  8.25300 49.78600 38.84400
H  9.58500 50.98500 38.70400
H  12.39700 57.22500 40.50800
H  12.64700 58.75600 39.85900
H  11.85800 57.52600 38.77400
H  9.14700 62.14200 41.12900
H  8.65500 62.08100 39.41900
H  10.19100 62.78300 39.78200
H  5.01800 61.28100 41.30300
H  3.56400 59.99000 43.48300
H  6.71400 60.82600 43.47500
H  5.29500 61.20900 44.21300
H  5.84500 62.42000 43.03900
H  2.31200 59.47700 40.95400
H  3.02400 61.12300 40.96000
H  0.49700 60.91500 41.86400
H  1.88200 61.96500 42.43200
H  1.38700 60.56400 43.34100
H  0.94100 55.09500 42.82500
H  1.86100 55.34500 44.31700
H  1.58500 53.70800 43.83100
H  5.77200 51.30400 42.71100
H  4.45500 48.55500 39.73000
H  6.06300 47.93600 40.18800
H  5.89400 49.28700 38.97000

