158

Mg 9.04800 3.83800 27.58800
C  10.60400 2.29600 30.39100
C  7.10900 5.66100 29.88500
C  7.27900 4.98700 25.03100
C  10.61900 1.50200 25.59600
N  8.70900 3.79200 29.88600
C  9.68100 3.30100 30.80900
C  9.31000 3.69300 32.28600
C  8.06100 4.67600 31.98700
C  7.91400 4.71100 30.44400
C  6.77800 4.29900 32.75800
C  10.64400 4.27400 32.94900
C  11.14300 3.59300 34.25400
H  11.28000 4.37700 35.56900
N  7.53500 5.21300 27.43200
C  6.86700 5.85700 28.45300
C  5.98200 6.80500 27.85300
C  6.11000 6.70300 26.46000
C  7.02100 5.61000 26.23900
C  5.24200 7.72400 28.83400
C  5.54100 7.52400 25.29100
O  5.69900 7.44300 24.10100
C  4.62100 8.56700 25.76600
N  8.94300 3.26500 25.58300
C  8.16000 3.95400 24.68500
C  8.42600 3.36200 23.28400
C  9.51300 2.25600 23.44000
C  9.73200 2.33700 24.92500
C  7.07400 2.79700 22.67400
C  10.77500 2.57700 22.63300
C  11.64800 1.41300 22.09100
N  10.42900 2.23300 27.89500
C  10.96300 1.38500 26.95300
C  11.91300 0.51100 27.60300
C  11.86500 0.87400 28.90400
C  10.92700 1.87800 29.08900
C  12.68600 -0.56600 26.99100
C  12.34700 0.51900 30.20900
O  13.00500 -0.45000 30.54300
C  11.56800 1.50700 31.25000
C  10.85400 0.76000 32.27600
O  9.65500 0.40500 32.21800
O  11.66600 0.48700 33.33800
C  11.14600 -0.01600 34.61700
H  6.54600 6.37700 30.48700
H  6.67200 5.23900 24.15900
H  11.24200 0.76800 25.08100
H  8.96800 2.78300 32.77900
H  8.34200 5.68700 32.28100
H  5.98000 4.09300 32.04500
H  6.40400 5.11000 33.38200
H  6.82900 3.36600 33.31900
H  10.30000 5.29300 33.12400
H  11.42100 4.21400 32.18600
H  12.15700 3.28100 34.00400
H  10.58700 2.67900 34.46400
H  4.88600 7.12000 29.66900
H  4.41200 8.23500 28.34500
H  5.95400 8.46600 29.19600
H  5.18600 9.16800 26.47900
H  3.70400 8.12000 26.14900
H  4.26800 9.11200 24.89100
H  8.79600 4.17500 22.66000
H  9.13100 1.31900 23.03400
H  6.57300 3.42100 21.93400
H  6.43700 2.69000 23.55200
H  7.31500 1.83400 22.22300
H  11.38500 3.25100 23.23400
H  10.58400 3.38700 21.92900
H  11.60400 1.39400 21.00200
H  11.22500 0.53700 22.58300
H  12.66300 1.66500 22.39700
H  13.32400 -0.22900 26.17300
H  12.06700 -1.45600 26.87500
H  13.40500 -0.86400 27.75400
H  12.35300 2.15700 31.63600
H  11.19700 0.76400 35.37600
H  11.82000 -0.78800 34.99000
H  10.18800 -0.52800 34.52400
Mg 9.03200 48.64100 26.16100
C  7.06300 48.72500 29.11200
C  11.58300 49.65500 28.15800
C  10.93900 48.74300 23.42600
C  6.17300 48.32200 24.27000
N  9.21500 49.24300 28.38200
C  8.35100 49.13800 29.45600
C  8.98900 49.39500 30.82100
C  10.41500 49.93300 30.34800
C  10.35500 49.66700 28.83200
C  10.76900 51.41000 30.74500
C  9.12700 48.15800 31.75800
C  8.40100 48.30300 33.07800
H  8.45100 47.02500 34.01600
N  11.07400 48.98500 25.90200
C  12.00400 49.38700 26.80000
C  13.33400 49.39100 26.18200
C  13.10800 49.02700 24.81800
C  11.64100 48.92100 24.66600
C  14.61200 49.63700 26.98100
C  14.13900 48.68700 23.67400
O  13.89100 48.19700 22.55800
C  15.58200 48.96500 23.92100
N  8.60100 48.76700 24.16900
C  9.57300 48.60600 23.17500
C  8.99800 48.22200 21.74200
C  7.46600 48.14300 22.07800
C  7.41500 48.37000 23.57700
C  9.39600 49.09300 20.52900
C  6.78800 46.78500 21.74600
C  7.01900 46.31600 20.37200
N  7.00500 48.61500 26.49000
C  5.96200 48.43100 25.64900
C  4.73900 48.49700 26.38000
C  5.10100 48.47300 27.73100
C  6.54000 48.55800 27.75800
C  3.41600 48.47900 25.79000
C  4.64100 48.43400 29.07000
O  3.45200 48.45900 29.46300
C  5.92100 48.37600 30.05100
C  5.93100 46.96500 30.58100
O  6.21500 45.95400 29.91500
O  5.39000 46.90000 31.80700
C  5.50100 45.62300 32.54100
H  12.45200 49.89600 28.77500
H  11.50900 48.55900 22.51300
H  5.28200 48.43300 23.64800
H  8.45900 50.20200 31.32600
H  11.24400 49.32600 30.71100
H  11.73200 51.42900 31.25400
H  9.95500 51.81200 31.34800
H  10.76100 51.98700 29.82000
H  10.18900 47.99300 31.94100
H  8.68600 47.31200 31.23100
H  7.32300 48.45600 33.01900
H  8.78100 49.10900 33.70500
H  14.35500 49.48500 28.03000
H  14.99700 50.60800 26.67100
H  15.34700 48.86200 26.76600
H  15.67500 49.84600 24.55600
H  16.12500 49.11300 22.98700
H  15.88800 48.02300 24.37400
H  9.45200 47.25300 21.53400
H  6.82700 48.86800 21.57500
H  9.53700 48.31900 19.77400
H  10.33400 49.61200 20.73000
H  8.57200 49.79000 20.37700
H  5.72100 46.86900 21.95200
H  7.22900 46.03100 22.39600
H  6.22800 45.78800 19.83900
H  7.82200 45.58000 20.32700
H  7.24400 47.20400 19.78200
H  3.00000 47.52200 25.47800
H  3.28900 49.24900 25.02900
H  2.79500 48.73500 26.64800
H  5.71300 48.94200 30.96000
H  5.56400 45.90900 33.59100
H  6.35200 45.00000 32.26800
H  4.55800 45.08700 32.43100

