158

Mg 24.14600 -4.64300 45.99700
C  26.10700 -2.18400 44.64500
C  21.58500 -3.78200 43.95700
C  22.58500 -7.48600 46.85300
C  27.19600 -5.94500 47.57200
N  23.92700 -3.17700 44.62400
C  24.85300 -2.33300 44.12600
C  24.18400 -1.36200 43.11400
C  22.63800 -1.60700 43.20300
C  22.72800 -2.96000 43.91500
C  21.79200 -0.49100 43.88600
C  24.78600 -1.67600 41.70600
C  25.32100 -0.55400 40.82100
H  25.08700 -0.76200 39.32900
N  22.26200 -5.47300 45.53300
C  21.33100 -4.91900 44.66600
C  20.23800 -5.79200 44.50900
C  20.38800 -6.89900 45.41700
C  21.80800 -6.73100 45.95100
C  19.07800 -5.48500 43.64200
C  19.38600 -8.04600 45.74400
O  18.37000 -8.18900 45.10300
C  19.67700 -9.04800 46.76600
N  24.89500 -6.52200 46.94500
C  23.92500 -7.34200 47.41000
C  24.51900 -8.52100 48.21700
C  26.01800 -8.07500 48.38000
C  26.08400 -6.71500 47.62900
C  23.77000 -8.81500 49.54300
C  27.14100 -9.08000 47.81900
C  28.49100 -9.18300 48.64400
N  26.25900 -4.16200 46.20400
C  27.28900 -4.72400 46.88600
C  28.42400 -3.87600 46.73300
C  28.03800 -2.91700 45.83600
C  26.70000 -3.06800 45.55500
C  29.73400 -4.24700 47.31800
C  28.55500 -1.86600 44.92800
O  29.63700 -1.39900 44.79600
C  27.25500 -1.34300 44.16300
C  27.17000 0.17500 44.55600
O  26.47100 0.71400 45.43800
O  28.16600 0.82700 43.87200
C  28.39200 2.22700 44.15600
H  20.79400 -3.43700 43.28800
H  22.24200 -8.51800 46.95500
H  28.10600 -6.19700 48.12000
H  24.26000 -0.30000 43.34900
H  22.16400 -1.77700 42.23600
H  20.88700 -0.22000 43.34200
H  22.35100 0.43200 44.04000
H  21.62100 -0.88700 44.88600
H  23.96000 -2.21200 41.24100
H  25.57800 -2.42400 41.74000
H  26.36500 -0.52200 41.13300
H  24.68200 0.28200 41.10600
H  18.71200 -6.43200 43.24600
H  19.46700 -4.98200 42.75700
H  18.38400 -4.75700 44.06100
H  20.27900 -9.81800 46.28300
H  18.72100 -9.51900 46.99400
H  20.07000 -8.60100 47.67900
H  24.45100 -9.44900 47.64900
H  26.33500 -7.66900 49.34000
H  24.01700 -9.72400 50.09200
H  22.72400 -8.61300 49.31300
H  24.21100 -8.04400 50.17500
H  27.24600 -8.73100 46.79200
H  26.72700 -10.06700 47.61300
H  28.56700 -10.25100 48.84900
H  28.51200 -8.55800 49.53600
H  29.36900 -8.88400 48.07200
H  29.71500 -4.06700 48.39200
H  30.43800 -3.65400 46.73400
H  30.05200 -5.28000 47.17300
H  27.48900 -1.32000 43.09900
H  29.46000 2.28100 44.36700
H  27.79800 2.62900 44.97600
H  28.26000 2.68500 43.17500
Mg 25.55500 1.29800 30.02500
C  27.35500 1.46200 33.21700
C  22.65600 1.85400 31.92800
C  23.79400 0.66400 27.29600
C  28.53400 0.61000 28.44900
N  25.09100 1.65800 32.35400
C  25.98500 1.65900 33.40500
C  25.32300 2.00500 34.76700
C  23.82600 1.88000 34.27900
C  23.85200 1.83900 32.74400
C  23.14100 0.57500 34.78200
C  25.71300 3.35200 35.41100
C  26.42500 3.25500 36.82900
H  26.05100 4.31100 37.86500
N  23.44200 1.28700 29.68700
C  22.41300 1.62800 30.53500
C  21.15600 1.64300 29.81600
C  21.52500 1.23700 28.48300
C  22.97700 0.98900 28.40700
C  19.80600 2.05000 30.41900
C  20.57700 1.13900 27.37900
O  20.91100 0.57800 26.34000
C  19.15900 1.68400 27.48600
N  26.11300 0.66300 28.17300
C  25.22200 0.59200 27.15600
C  25.87900 0.26800 25.78700
C  27.40300 0.49000 26.14000
C  27.33100 0.63900 27.66400
C  25.52800 -1.20700 25.37100
C  28.10800 1.73800 25.46600
C  27.19700 2.96200 25.35600
N  27.55500 1.01600 30.63600
C  28.69200 0.82000 29.84500
C  29.78400 0.82100 30.70700
C  29.35100 1.13000 31.99600
C  27.99600 1.23900 31.93500
C  31.21100 0.52000 30.36900
C  29.79800 1.37700 33.33300
O  30.92600 1.46100 33.77600
C  28.49100 1.52900 34.22700
C  28.34900 0.45000 35.22400
O  27.86400 -0.65100 35.00500
O  28.70500 0.85600 36.55100
C  28.78600 -0.14200 37.52600
H  21.84300 2.18900 32.57600
H  23.26900 0.43300 26.36700
H  29.47500 0.46800 27.91400
H  25.49700 1.30900 35.58800
H  23.35500 2.77700 34.68200
H  22.57100 -0.00400 34.05500
H  22.43300 0.92900 35.53100
H  23.92000 -0.03500 35.24000
H  24.84600 3.98700 35.59500
H  26.40500 3.68100 34.63600
H  27.45900 3.53000 36.62000
H  26.44300 2.25800 37.27000
H  19.09500 1.26900 30.15000
H  19.51300 2.97400 29.92000
H  19.80800 2.08800 31.50800
H  18.41300 1.05000 27.96600
H  18.75600 1.56300 26.48100
H  19.11600 2.72200 27.81600
H  25.49600 0.91400 24.99700
H  28.07500 -0.31600 25.84600
H  24.68300 -1.59100 25.94300
H  26.32300 -1.95200 25.38800
H  25.13200 -1.14400 24.35800
H  28.38600 1.35200 24.48500
H  28.94000 1.96200 26.13400
H  26.28000 2.86300 25.93700
H  26.94600 3.05200 24.29900
H  27.70200 3.89500 25.60700
H  31.44100 0.98600 29.41000
H  31.35400 -0.56000 30.38200
H  31.84600 0.68600 31.23900
H  28.45300 2.52500 34.66700
H  27.79400 -0.31000 37.94600
H  29.60300 -0.01300 38.23600
H  29.00300 -1.13500 37.13100

