158

Mg 10.21500 47.82400 25.81800
C  8.23700 48.10000 28.70100
C  12.95400 48.95300 27.62100
C  12.13300 47.23300 23.10800
C  7.30200 47.49900 23.92800
N  10.59100 48.34500 27.99300
C  9.61400 48.33300 28.98100
C  10.16800 48.86200 30.31500
C  11.50200 49.58800 29.78000
C  11.76500 48.93500 28.37300
C  11.46500 51.16400 29.71800
C  10.45800 47.72100 31.36900
C  9.69000 47.95100 32.66700
H  9.57100 46.77600 33.66700
N  12.29600 48.02800 25.43800
C  13.25400 48.49000 26.32200
C  14.54300 48.41400 25.64500
C  14.33600 47.80000 24.35000
C  12.85500 47.65600 24.25000
C  15.83300 48.93200 26.20000
C  15.29400 47.28300 23.28200
O  14.92000 46.51200 22.40900
C  16.74600 47.56700 23.43500
N  9.75400 47.54300 23.79400
C  10.74900 47.14200 22.91200
C  10.24000 46.55800 21.58600
C  8.69100 46.83500 21.78700
C  8.50800 47.28000 23.26100
C  10.63200 47.34200 20.29300
C  7.90200 45.53900 21.43200
C  7.79400 44.41500 22.50000
N  8.16100 47.72600 26.20500
C  7.10000 47.61800 25.31700
C  5.84900 47.63000 26.06000
C  6.23700 47.80600 27.40700
C  7.62100 47.88100 27.46000
C  4.52000 47.32400 25.43600
C  5.81300 47.94200 28.71800
O  4.68400 47.70700 29.14900
C  7.03800 48.12200 29.63800
C  7.03800 46.95500 30.66100
O  7.83000 46.01200 30.57500
O  6.16400 47.18700 31.73700
C  5.93200 46.03700 32.65900
H  13.78200 49.46200 28.11900
H  12.71800 46.82600 22.28100
H  6.48700 47.35000 23.21700
H  9.54900 49.64600 30.75100
H  12.33300 49.37900 30.45400
H  10.46100 51.49300 29.98800
H  11.49600 51.45300 28.66800
H  12.28100 51.54100 30.33600
H  11.51400 47.72700 31.63900
H  10.28600 46.73000 30.94800
H  8.68700 48.34600 32.50600
H  10.24800 48.73400 33.18100
H  15.72400 49.35700 27.19800
H  16.37900 49.70700 25.66200
H  16.56000 48.12900 26.32300
H  16.90100 48.63700 23.57700
H  17.28100 47.27500 22.53100
H  16.93000 46.98400 24.33700
H  10.55000 45.51300 21.57200
H  8.34300 47.72600 21.26400
H  9.76700 47.63500 19.69800
H  11.24700 46.65300 19.71500
H  11.18600 48.23700 20.57800
H  8.21500 45.11400 20.47900
H  6.86100 45.79400 21.23200
H  7.99200 43.48800 21.96200
H  6.78000 44.45500 22.89900
H  8.63600 44.46000 23.19000
H  4.15000 46.45000 25.97200
H  4.53900 47.26000 24.34800
H  3.82600 48.13700 25.65000
H  7.05500 49.03700 30.23000
H  6.18500 46.28600 33.69000
H  6.39300 45.09300 32.36700
H  4.86500 45.83900 32.75200
Mg -2.39100 34.22900 26.62500
C  -3.94300 32.78500 29.45800
C  -1.37200 36.80600 28.69300
C  -1.37500 35.82600 23.85100
C  -3.96400 31.80600 24.63900
N  -2.73800 34.76900 28.80700
C  -3.27100 33.94200 29.77700
C  -3.05900 34.48000 31.23700
C  -2.38200 35.90900 30.95600
C  -2.16600 35.85700 29.41300
C  -3.25500 37.05700 31.44700
C  -2.21900 33.56200 32.15600
C  -2.88400 32.98800 33.39500
H  -1.97300 32.55100 34.54300
N  -1.39500 36.03000 26.28700
C  -1.06300 36.90800 27.25900
C  -0.25200 37.92700 26.61900
C  -0.20100 37.65000 25.26900
C  -0.99100 36.42300 25.08100
C  0.38700 39.03000 27.40700
C  0.51700 38.34200 24.13200
O  0.57900 37.99300 22.96600
C  1.41400 39.49800 24.50600
N  -2.79600 33.94900 24.54700
C  -2.22600 34.71600 23.55800
C  -2.87600 34.49500 22.18700
C  -3.47800 33.02600 22.45100
C  -3.43400 32.87000 23.97900
C  -3.98600 35.48700 21.63600
C  -2.92700 31.86000 21.69900
C  -1.44200 31.58000 21.60100
N  -3.63500 32.55300 26.95600
C  -4.05900 31.66700 26.02700
C  -4.88800 30.70600 26.73800
C  -4.86700 31.09400 28.05800
C  -4.07800 32.26900 28.20700
C  -5.74200 29.56800 26.22000
C  -5.27700 30.71100 29.39300
O  -5.96000 29.71400 29.62000
C  -4.79100 31.84700 30.37800
C  -5.93500 32.39600 31.15000
O  -6.56600 33.43600 30.89500
O  -6.17300 31.55100 32.26000
C  -7.01000 32.00100 33.28600
H  -0.96600 37.57700 29.35100
H  -1.21100 36.49200 23.00200
H  -4.42400 31.00100 24.06200
H  -4.05100 34.63200 31.66300
H  -1.41800 35.98500 31.45900
H  -4.33200 36.90400 31.51300
H  -3.12200 37.91300 30.78600
H  -2.89200 37.46400 32.39100
H  -1.36600 34.17200 32.45300
H  -1.78300 32.78100 31.53300
H  -3.40300 32.08700 33.06800
H  -3.68000 33.65300 33.72900
H  1.44800 38.87300 27.21400
H  0.12500 39.02800 28.46500
H  0.10000 39.99700 26.99400
H  2.17700 39.40000 25.27800
H  0.69900 40.24900 24.84100
H  1.78500 40.02100 23.62400
H  -2.03900 34.45000 21.49000
H  -4.49700 33.04700 22.06600
H  -3.45400 35.90600 20.78100
H  -4.30600 36.37000 22.18900
H  -4.86300 34.96100 21.26000
H  -3.25500 31.95000 20.66300
H  -3.43500 30.94300 21.99500
H  -1.17700 31.71000 20.55200
H  -1.06600 30.59000 21.86000
H  -0.84800 32.31000 22.15100
H  -5.33000 29.27600 25.25400
H  -6.78900 29.76500 25.98600
H  -5.83200 28.73000 26.91100
H  -4.19000 31.36600 31.15000
H  -7.45200 31.07000 33.64100
H  -7.89300 32.53900 32.94100
H  -6.34600 32.44300 34.02800

