158

Mg -2.77500 17.25200 25.95300
C  -2.87500 15.10200 28.71700
C  -3.67600 19.86400 28.02400
C  -2.96700 19.26600 23.31300
C  -2.60800 14.51500 23.89500
N  -3.21600 17.46100 28.13600
C  -3.16400 16.45200 29.05500
C  -3.65400 16.94100 30.38600
C  -4.19200 18.38200 30.07100
C  -3.79700 18.60300 28.59000
C  -5.72200 18.52300 30.16500
C  -2.55500 16.93400 31.51400
C  -3.16900 16.78100 32.90400
H  -2.79000 15.64500 33.92200
N  -2.97600 19.34000 25.75600
C  -3.33700 20.24000 26.71400
C  -3.37800 21.54100 26.15900
C  -3.02100 21.40700 24.72700
C  -3.02000 19.95900 24.51100
C  -3.61800 22.83500 26.92400
C  -2.80100 22.52600 23.66300
O  -2.56800 22.40200 22.49900
C  -2.67300 23.89700 24.10600
N  -2.93100 16.95700 23.82900
C  -2.86800 17.94100 22.91000
C  -2.99600 17.37400 21.48900
C  -2.69200 15.83300 21.75300
C  -2.70600 15.77300 23.24800
C  -4.33000 17.77900 20.80400
C  -1.37500 15.36000 21.13900
C  -0.13100 15.48400 21.95500
N  -2.82500 15.20100 26.14000
C  -2.69800 14.18600 25.26800
C  -2.62000 12.87000 25.96000
C  -2.70800 13.19300 27.35800
C  -2.86400 14.62300 27.40700
C  -2.60400 11.55400 25.25300
C  -2.72800 12.61300 28.67200
O  -2.53600 11.53100 29.18300
C  -2.77400 13.84300 29.64900
C  -1.42700 13.70900 30.31600
O  -0.32900 13.92800 29.83600
O  -1.57300 13.29200 31.63500
C  -0.34900 13.09800 32.41400
H  -3.83800 20.63900 28.77600
H  -3.05600 19.82300 22.37800
H  -2.50700 13.71800 23.15500
H  -4.46700 16.23200 30.54400
H  -3.68200 19.22300 30.54100
H  -6.29800 18.49300 29.24000
H  -5.94500 19.51800 30.55000
H  -6.05400 17.78700 30.89700
H  -1.98700 17.86400 31.50200
H  -1.85700 16.14700 31.23000
H  -4.25600 16.81000 32.82400
H  -2.87400 17.69100 33.42700
H  -4.20800 22.59800 27.80900
H  -4.32000 23.46700 26.38000
H  -2.66800 23.36600 26.98400
H  -2.02600 24.00800 24.97600
H  -3.65300 24.08900 24.54100
H  -2.43000 24.57700 23.28900
H  -2.09400 17.86100 21.11800
H  -3.44600 15.09500 21.47800
H  -5.06500 18.05200 21.56100
H  -4.81000 16.97400 20.24600
H  -4.10000 18.69200 20.25500
H  -1.27800 15.98300 20.25000
H  -1.47300 14.38000 20.67200
H  -0.17800 15.35200 23.03600
H  0.44800 16.40000 21.83500
H  0.49000 14.63400 21.67300
H  -3.08700 11.75700 24.29600
H  -3.24400 10.80000 25.71000
H  -1.63900 11.04800 25.22200
H  -3.55600 13.85700 30.40800
H  -0.10500 12.03700 32.35100
H  -0.51900 13.51500 33.40600
H  0.57000 13.47600 31.96700
Mg 53.46400 24.39600 44.33300
C  50.58800 26.44200 43.84000
C  51.70300 21.64800 43.14200
C  56.24100 22.74200 44.35900
C  55.10600 27.37900 45.52900
N  51.44600 24.11900 43.33200
C  50.40400 25.10800 43.30600
C  49.08400 24.43200 43.03000
C  49.49000 22.92300 42.72100
C  50.98300 22.88300 43.09700
C  48.63900 21.96800 43.62000
C  48.19600 25.01200 41.85600
C  48.98600 25.46700 40.54300
H  48.62300 24.83800 39.23400
N  53.97200 22.42200 43.84000
C  53.08700 21.43400 43.53400
C  53.71800 20.17100 43.60000
C  55.11700 20.42400 43.95400
C  55.16400 21.88300 44.08600
C  52.99100 18.84600 43.31900
C  56.21900 19.38700 44.31100
O  55.98400 18.16900 44.08300
C  57.62000 19.81000 44.85300
N  55.44000 25.00000 44.80900
C  56.42700 24.07600 44.64400
C  57.78400 24.71100 44.92700
C  57.36500 26.16100 45.28700
C  55.84500 26.23200 45.26900
C  58.65900 24.04800 46.02100
C  57.98300 27.22700 44.28200
C  58.81400 28.30900 44.94800
N  52.94800 26.46700 44.67100
C  53.72100 27.52100 45.23100
C  52.79900 28.64700 45.47100
C  51.52700 28.23500 44.95000
C  51.72300 26.92200 44.44000
C  53.21100 29.99000 45.92800
C  50.15700 28.74400 44.58900
O  49.57200 29.81200 44.77700
C  49.44800 27.51700 44.01300
C  48.76900 28.08600 42.75600
O  49.40100 28.48800 41.76200
O  47.42700 28.13800 42.87000
C  46.65300 28.52700 41.66100
H  51.11500 20.76200 42.89200
H  57.23000 22.28200 44.40200
H  55.57900 28.24100 46.00500
H  48.52200 24.51900 43.96000
H  49.39200 22.55300 41.70000
H  47.78600 22.41200 44.13300
H  49.14600 21.43700 44.42600
H  48.24500 21.27300 42.87800
H  47.65800 25.90100 42.18400
H  47.47500 24.24700 41.56600
H  50.07200 25.39800 40.60000
H  48.62700 26.48700 40.40700
H  53.14600 18.51500 42.29200
H  51.93600 18.92400 43.58400
H  53.34100 18.07500 44.00500
H  58.02700 18.92100 45.33500
H  57.38000 20.56100 45.60600
H  58.24600 20.21200 44.05700
H  58.31100 24.64300 43.97500
H  57.62600 26.39800 46.31900
H  58.00900 23.67600 46.81300
H  59.29000 24.76600 46.54500
H  59.33900 23.30900 45.59800
H  57.17300 27.73500 43.75800
H  58.65500 26.71800 43.59000
H  58.34200 29.29000 44.88900
H  59.78900 28.47400 44.48900
H  58.86400 28.12200 46.02100
H  52.75900 30.79300 45.34600
H  54.27900 30.10900 45.74200
H  53.03400 29.97800 47.00300
H  48.68500 27.14500 44.69800
H  47.00000 27.90800 40.83400
H  46.85100 29.57700 41.44500
H  45.59800 28.31300 41.83400

