158

Mg 41.46900 9.32600 29.83500
C  43.39200 10.55300 32.47500
C  39.34600 7.94600 32.18600
C  39.58100 8.24700 27.25200
C  43.90700 10.28100 27.59700
N  41.48400 9.09200 32.14100
C  42.27200 9.86500 32.94100
C  41.82400 9.81900 34.36200
C  40.65000 8.77400 34.28000
C  40.43200 8.57900 32.81300
C  41.04600 7.40100 34.86500
C  41.50500 11.21200 34.92400
C  40.39100 11.36800 36.03000
H  40.92000 11.89000 37.34300
N  39.73800 8.18100 29.74600
C  39.00700 7.74600 30.85100
C  37.83000 6.98100 30.34700
C  37.90100 7.11800 28.91900
C  39.11600 7.82100 28.60200
C  36.84600 6.27400 31.29500
C  36.83200 6.72500 27.89800
O  36.90100 6.90200 26.65000
C  35.66000 6.08900 28.49100
N  41.65000 9.25600 27.75900
C  40.66500 9.04000 26.92600
C  41.15300 9.11700 25.44900
C  42.40600 10.01400 25.52500
C  42.71700 9.78800 27.02900
C  41.50300 7.77200 24.85200
C  42.14100 11.45800 25.10900
C  41.19600 12.34400 25.89200
N  43.34000 10.10600 29.93800
C  44.21600 10.52400 28.96200
C  45.40200 11.04900 29.51600
C  45.09200 11.12300 30.89400
C  43.80100 10.58000 31.08800
C  46.51800 11.73400 28.83400
C  45.53000 11.59100 32.15200
O  46.55200 12.15100 32.54600
C  44.46900 11.21900 33.21200
C  45.16700 10.31200 34.19100
O  45.40000 9.10800 34.05700
O  45.58500 11.11600 35.26600
C  46.32300 10.41100 36.27300
H  38.62900 7.62300 32.94500
H  39.05600 7.79900 26.40600
H  44.71600 10.65900 26.96900
H  42.63600 9.47700 35.00300
H  39.64000 9.10500 34.52100
H  40.20300 6.80000 35.20600
H  41.77900 7.52500 35.66200
H  41.45900 6.79500 34.05800
H  41.16000 11.85900 34.11800
H  42.45200 11.63200 35.26600
H  39.91000 10.42200 36.27800
H  39.63200 12.07800 35.70300
H  35.83800 6.68900 31.26000
H  37.18800 6.37900 32.32400
H  36.86500 5.24400 30.94100
H  35.97500 5.17800 29.00100
H  34.91600 5.85800 27.72800
H  35.11600 6.76700 29.14900
H  40.43200 9.62300 24.80700
H  43.26800 9.60800 24.99600
H  42.47600 7.81100 24.36100
H  40.77700 7.52700 24.07700
H  41.54700 6.96100 25.57900
H  41.74500 11.31800 24.10300
H  43.08200 11.99500 24.99200
H  40.75100 11.85700 26.75900
H  40.38900 12.64500 25.22400
H  41.59500 13.31000 26.20100
H  46.89800 12.50300 29.50700
H  46.52600 12.04900 27.79100
H  47.21800 10.89900 28.82400
H  44.13700 12.11300 33.74000
H  47.31600 10.11200 35.93600
H  45.79800 9.54100 36.66900
H  46.52200 11.06600 37.12100
Mg 47.48100 35.75000 26.31500
C  45.68000 34.22500 29.04000
C  48.46200 38.30500 28.37600
C  48.88800 37.01000 23.57100
C  46.23500 32.97100 24.25100
N  47.02200 36.21600 28.34700
C  46.36600 35.39800 29.37700
C  46.60500 35.94500 30.76900
C  47.23900 37.34900 30.46500
C  47.65400 37.32300 28.97200
C  46.31100 38.55000 30.63200
C  47.62700 35.02100 31.54500
C  47.50500 34.78000 33.03300
H  46.69500 35.83800 33.80400
N  48.59500 37.41500 26.02000
C  48.90200 38.30900 27.00600
C  49.70800 39.34200 26.34800
C  49.85700 38.97600 24.95200
C  49.04300 37.78500 24.77000
C  50.27800 40.45800 27.16000
C  50.58100 39.67900 23.76300
O  50.70800 39.21900 22.60100
C  51.11800 41.15500 24.00100
N  47.39700 35.07600 24.14000
C  48.18800 35.77500 23.34100
C  48.35500 35.04200 21.95600
C  47.53000 33.72900 22.22300
C  47.07500 33.87000 23.66400
C  47.90700 35.88300 20.79000
C  48.35700 32.40600 22.05500
C  47.88700 31.51500 20.93200
N  46.03000 34.01000 26.53400
C  45.77400 33.00300 25.58300
C  45.07800 32.00600 26.30400
C  44.95000 32.42100 27.66100
C  45.59600 33.67700 27.71400
C  44.50800 30.71900 25.80000
C  44.41900 32.07600 28.96200
O  43.72900 31.13300 29.32300
C  44.77100 33.30000 29.83400
C  45.16000 32.76000 31.19500
O  45.94800 31.85200 31.39400
O  44.38700 33.43500 32.14700
C  44.36100 32.75800 33.47900
H  48.84300 39.09600 29.02500
H  49.53300 37.28900 22.73400
H  46.01700 32.10600 23.62000
H  45.64800 35.89300 31.28800
H  48.17000 37.61200 30.96700
H  46.00700 39.05600 29.71600
H  46.84500 39.24500 31.28000
H  45.38300 38.28000 31.13600
H  48.63900 35.41500 31.45000
H  47.85200 34.11100 30.98900
H  48.55100 34.75300 33.33700
H  47.21600 33.74200 33.19500
H  49.85800 41.41700 26.85700
H  51.35700 40.47700 27.00500
H  50.16700 40.45400 28.24500
H  51.61500 41.36900 23.05500
H  51.83300 41.16600 24.82400
H  50.23400 41.78100 24.11700
H  49.42200 34.82200 21.97300
H  46.67300 33.76800 21.55000
H  47.46200 35.26300 20.01200
H  48.75900 36.52100 20.55600
H  47.16800 36.58500 21.17900
H  48.32000 31.70700 22.88900
H  49.40800 32.59300 21.83400
H  47.22600 30.69000 21.19700
H  48.80100 31.05700 20.55200
H  47.44000 32.12000 20.14400
H  43.45700 30.76300 25.51300
H  44.70800 30.08100 26.66100
H  45.18100 30.29400 25.05500
H  43.80100 33.78200 29.95800
H  43.67800 31.90800 33.48900
H  44.09200 33.49500 34.23500
H  45.36400 32.38300 33.68300

