158

Mg 30.57400 58.09500 40.44200
C  27.69800 56.30100 39.56700
C  32.55600 55.70500 39.17300
C  33.24200 60.23800 40.53700
C  28.43300 60.84100 41.24600
N  30.11700 56.29400 39.37400
C  28.89300 55.66200 39.21800
C  29.02400 54.19400 38.71300
C  30.57800 54.08600 38.75300
C  31.17300 55.46300 39.16400
C  31.02800 52.98700 39.71000
C  28.27400 53.80300 37.39800
C  29.05900 53.90500 36.06700
H  28.21800 54.11600 34.84900
N  32.66200 58.00000 40.07200
C  33.23900 56.88100 39.50500
C  34.68800 57.04800 39.51800
C  34.92500 58.35200 40.01100
C  33.54900 58.94700 40.21200
C  35.69600 55.97800 39.13900
C  36.30500 59.02600 40.33900
O  37.39100 58.38600 40.21300
C  36.49800 60.49400 40.70600
N  30.82100 60.18900 40.87400
C  32.04000 60.80900 40.94400
C  31.86800 62.29600 41.11500
C  30.35300 62.44800 41.51200
C  29.81600 61.07600 41.18700
C  32.81800 63.09300 42.08700
C  29.49600 63.73600 40.92600
C  28.75700 64.58000 42.01700
N  28.47400 58.52100 40.52000
C  27.70600 59.68100 40.85000
C  26.26800 59.34400 40.56600
C  26.27700 57.99100 40.29600
C  27.57400 57.59600 40.13300
C  25.08600 60.20900 40.72600
C  25.35600 56.86400 40.09500
O  24.14700 56.85100 40.21600
C  26.30400 55.76800 39.48400
C  26.11200 54.60800 40.36100
O  26.64000 54.42300 41.43500
O  25.23800 53.64500 39.79800
C  24.89700 52.41200 40.69200
H  33.27500 54.93300 38.89300
H  33.89700 61.10100 40.40100
H  27.82600 61.68000 41.59400
H  28.61200 53.50300 39.44900
H  30.99300 53.84700 37.77400
H  31.47700 53.33600 40.64000
H  31.76800 52.40500 39.16100
H  30.23500 52.25700 39.86700
H  27.36600 54.40000 37.32000
H  27.99100 52.77500 37.62100
H  29.65100 52.99800 35.94400
H  29.88600 54.59900 36.21700
H  36.48600 56.44200 38.54900
H  35.20600 55.34800 38.39700
H  36.02000 55.36000 39.97700
H  35.87200 60.69500 41.57500
H  36.21100 61.08100 39.83400
H  37.55800 60.69100 40.86600
H  31.94600 62.83400 40.17100
H  30.36000 62.32100 42.59400
H  32.30600 63.54400 42.93600
H  33.28000 63.79100 41.38800
H  33.59800 62.50200 42.56600
H  28.82900 63.38900 40.13600
H  30.21000 64.43000 40.48200
H  29.40100 65.45500 42.09900
H  28.68600 64.04700 42.96600
H  27.74700 64.85600 41.71300
H  25.13700 60.95400 41.52000
H  24.10900 59.73900 40.83500
H  25.11600 60.76500 39.78900
H  26.03500 55.70900 38.43000
H  25.54300 51.56800 40.45000
H  23.85000 52.11400 40.64900
H  24.98200 52.53700 41.77200
Mg -12.83400 16.12200 41.58200
C  -9.96600 14.23700 40.98100
C  -11.53100 18.64200 39.50100
C  -15.78800 17.79200 41.66900
C  -14.43800 13.16700 42.47900
N  -11.07100 16.33100 40.31000
C  -9.98300 15.48800 40.26200
C  -8.80800 15.98900 39.40100
C  -9.32900 17.41600 39.07800
C  -10.76900 17.50500 39.60500
C  -8.32200 18.55800 39.77400
C  -8.40400 15.05500 38.12100
C  -6.93600 14.72600 37.96300
H  -6.25800 15.65900 36.95500
N  -13.48200 18.08000 40.89100
C  -12.80500 18.94000 40.06200
C  -13.54700 20.15500 39.86500
C  -14.81400 19.96000 40.61200
C  -14.74300 18.56200 41.12400
C  -13.11100 21.31100 38.89300
C  -15.95900 20.97400 40.66300
O  -15.79600 22.04500 40.06200
C  -17.10800 20.79300 41.52700
N  -14.94600 15.54200 41.95600
C  -15.90900 16.41300 42.11500
C  -17.24900 15.68500 42.22700
C  -16.80400 14.18300 42.47900
C  -15.29500 14.27700 42.22500
C  -18.01200 16.35800 43.38900
C  -17.50100 13.23900 41.43200
C  -18.05000 11.91900 42.07300
N  -12.30300 14.15100 41.85000
C  -13.04800 13.03700 42.23700
C  -12.19100 11.94400 42.57900
C  -10.90400 12.38900 42.18000
C  -11.05800 13.70600 41.60400
C  -12.58400 10.68100 43.20600
C  -9.42800 12.10500 42.13600
O  -8.84000 11.18500 42.66400
C  -8.80800 13.23800 41.10900
C  -7.52700 13.81600 41.63500
O  -7.46100 14.65600 42.53700
O  -6.38900 13.19700 41.04200
C  -5.11600 13.88600 41.28200
H  -11.09600 19.49700 38.97900
H  -16.73300 18.28000 41.42200
H  -14.87400 12.25900 42.90200
H  -8.08500 15.99000 40.21700
H  -9.45000 17.67200 38.02600
H  -8.86100 19.01900 40.60100
H  -7.96400 19.29800 39.05700
H  -7.37500 18.08100 40.02600
H  -9.00400 15.41100 37.28400
H  -8.83400 14.09000 38.38800
H  -6.85200 13.64900 37.81600
H  -6.56400 15.00800 38.94800
H  -13.48200 21.14200 37.88200
H  -12.02500 21.37600 38.82500
H  -13.41500 22.28600 39.27300
H  -17.37000 21.79900 41.85700
H  -16.89700 20.24600 42.44600
H  -18.00700 20.40900 41.04400
H  -17.90300 15.82400 41.36600
H  -17.04500 13.90900 43.50600
H  -17.86500 15.79300 44.31000
H  -19.05800 16.41900 43.09000
H  -17.81500 17.41100 43.59200
H  -16.69000 12.92400 40.77500
H  -18.18400 13.87100 40.86500
H  -19.09100 11.93400 41.75100
H  -18.03200 11.94400 43.16200
H  -17.61000 10.97900 41.74100
H  -12.92100 10.90000 44.21800
H  -11.77800 9.94800 43.23800
H  -13.38400 10.22200 42.62500
H  -8.67200 12.59800 40.23700
H  -4.73900 13.61800 42.26900
H  -5.25400 14.95900 41.14300
H  -4.41200 13.61800 40.49500

