158

Mg 36.16100 2.82700 30.93700
C  33.27100 3.19100 32.86400
C  37.97500 3.19900 33.76800
C  38.81200 2.01200 29.18900
C  34.30800 3.00400 28.04200
N  35.57900 3.09800 33.03900
C  34.40900 3.13600 33.65200
C  34.54100 3.10200 35.17200
C  36.06900 3.44700 35.36100
C  36.61100 3.25100 33.95200
C  36.26500 4.96600 35.82100
C  34.17700 1.71100 35.67400
C  33.89900 1.67700 37.21400
H  34.40500 2.77900 38.19100
N  38.15200 2.60500 31.40100
C  38.72300 2.87000 32.61600
C  40.17400 2.49900 32.54400
C  40.38500 1.97600 31.24800
C  39.08700 2.17700 30.53000
C  41.24500 2.62400 33.74400
C  41.55200 1.14600 30.72500
O  41.55500 0.61900 29.60900
C  42.67700 0.90500 31.69700
N  36.59600 2.88800 28.82400
C  37.80200 2.42500 28.32700
C  37.79800 2.03900 26.87800
C  36.25200 2.29900 26.51400
C  35.70600 2.82200 27.86400
C  38.82000 2.76900 26.07900
C  35.45700 1.12600 25.84900
C  35.10600 1.35100 24.33700
N  34.18800 2.97000 30.50500
C  33.59200 3.15000 29.28400
C  32.13600 3.48300 29.50100
C  31.91100 3.41500 30.88500
C  33.23900 3.18100 31.43000
C  31.08500 3.78600 28.35600
C  30.99300 3.52500 32.04500
O  29.79100 3.67500 32.07200
C  31.86700 3.42700 33.33600
C  31.66700 4.71200 34.00900
O  32.27000 5.75100 33.70200
O  30.89700 4.57200 35.15600
C  31.19900 5.48700 36.26300
H  38.71000 3.27500 34.57200
H  39.59400 1.39100 28.74800
H  33.65600 2.98300 27.16700
H  33.92600 3.93700 35.50600
H  36.56300 2.80400 36.08900
H  36.83800 5.49700 35.06100
H  36.79400 4.99400 36.77300
H  35.34300 5.54100 35.91300
H  34.95500 0.95100 35.60500
H  33.35100 1.28300 35.10600
H  34.22800 0.69100 37.54500
H  32.81000 1.67000 37.26700
H  40.81400 3.17500 34.58000
H  42.14800 3.08000 33.33700
H  41.43600 1.59700 34.05700
H  43.08200 1.86100 32.02900
H  43.40700 0.40200 31.06300
H  42.32600 0.22900 32.47700
H  38.03300 0.98500 26.73200
H  36.25200 3.22000 25.93000
H  38.33700 3.51500 25.44800
H  39.53600 2.10300 25.59800
H  39.35800 3.38400 26.80000
H  34.53500 0.92400 26.39300
H  36.00000 0.18100 25.81600
H  35.74800 0.75300 23.69000
H  35.04800 2.39500 24.02800
H  34.08600 1.06200 24.08500
H  31.44900 4.34200 27.49200
H  30.30100 4.42100 28.76700
H  30.66700 2.79800 28.16500
H  31.38800 2.70700 34.00000
H  32.25600 5.74400 36.20800
H  31.01000 4.84200 37.12100
H  30.50500 6.32800 36.27100
Mg -5.03600 25.97400 25.95000
C  -3.99000 27.26500 28.91200
C  -6.87800 23.54900 27.69500
C  -5.80500 24.42100 23.11000
C  -2.94900 28.03000 24.27800
N  -5.28500 25.36400 28.04800
C  -4.87100 26.17400 29.10900
C  -5.46600 25.61300 30.43700
C  -6.09200 24.20600 30.06100
C  -6.11000 24.37500 28.47700
C  -5.33000 22.89100 30.45900
C  -6.38500 26.52500 31.19400
C  -6.38500 26.51400 32.80200
H  -5.64900 25.39400 33.53000
N  -6.32700 24.35900 25.48900
C  -6.97800 23.49700 26.30800
C  -7.87800 22.72300 25.54700
C  -7.47000 22.80700 24.17500
C  -6.55400 23.95000 24.21700
C  -8.77100 21.66700 26.14100
C  -7.87900 21.96700 22.91500
O  -7.20900 22.04400 21.91300
C  -9.01100 20.97100 23.00300
N  -4.55300 26.29300 23.98400
C  -4.90600 25.43600 23.00500
C  -4.24700 25.73700 21.61400
C  -3.51000 27.06900 21.96800
C  -3.74500 27.23000 23.48500
C  -3.33700 24.53900 21.10900
C  -3.94900 28.29300 21.12800
C  -3.12500 28.69500 19.91900
N  -3.61200 27.27600 26.46900
C  -2.86400 28.11800 25.71500
C  -2.09300 29.05800 26.46400
C  -2.54300 28.72500 27.76700
C  -3.47300 27.68700 27.70400
C  -1.21500 30.15600 25.97300
C  -2.52900 29.16500 29.14100
O  -2.04100 30.19000 29.62500
C  -3.42100 28.20900 29.95200
C  -2.54400 27.46700 30.89700
O  -1.80600 26.52800 30.57600
O  -2.70800 27.93200 32.16800
C  -1.84500 27.36500 33.21100
H  -7.38900 22.76500 28.25700
H  -5.82000 23.94100 22.12900
H  -2.41400 28.76500 23.67300
H  -4.66300 25.45600 31.15800
H  -7.12000 24.12000 30.41400
H  -5.30600 22.18300 29.63100
H  -5.91000 22.36300 31.21600
H  -4.27600 23.02300 30.70300
H  -7.44300 26.32900 31.02000
H  -6.20900 27.56300 30.91400
H  -7.43000 26.54500 33.11400
H  -5.97000 27.48900 33.05700
H  -8.23500 20.72100 26.06100
H  -9.63300 21.59900 25.47800
H  -9.06000 21.90800 27.16400
H  -9.19800 20.31900 22.14900
H  -9.95500 21.49400 23.16100
H  -8.68200 20.29400 23.79000
H  -5.10600 25.85000 20.95300
H  -2.44700 26.84900 21.87300
H  -3.66500 23.63500 21.62100
H  -2.27500 24.58300 21.34900
H  -3.61100 24.43400 20.05900
H  -3.97400 29.14300 21.81000
H  -5.02700 28.22000 20.98800
H  -3.92200 29.00700 19.24400
H  -2.51000 27.88600 19.52600
H  -2.48900 29.55400 20.13300
H  -1.91300 30.78200 25.41700
H  -0.39000 29.82000 25.34500
H  -0.88600 30.78900 26.79700
H  -4.22100 28.64500 30.55100
H  -0.80500 27.68200 33.14600
H  -1.98700 26.28600 33.15200
H  -2.17600 27.75400 34.17400

