158

Mg 42.96100 3.35300 47.19900
C  41.06200 6.20600 47.19000
C  40.05600 1.50900 47.08400
C  44.77200 0.55300 46.11700
C  45.85500 5.30200 46.43500
N  40.83000 3.84900 47.14300
C  40.22200 5.12100 47.21200
C  38.66900 4.96400 47.37400
C  38.44300 3.40200 47.63700
C  39.88600 2.87600 47.21200
C  37.97500 3.03400 49.05500
C  37.73900 5.58800 46.26500
C  38.16700 5.41400 44.78900
H  38.02500 6.63600 43.84300
N  42.48900 1.29000 46.76400
C  41.19800 0.76200 46.77700
C  41.25100 -0.61600 46.52600
C  42.62500 -0.98400 46.11800
C  43.36900 0.28600 46.43300
C  39.97700 -1.43200 46.62600
C  43.16400 -2.30100 45.55000
O  42.35000 -3.22600 45.37400
C  44.65700 -2.59100 45.15700
N  44.95400 3.02000 46.26300
C  45.45800 1.77500 46.11100
C  46.94500 1.78200 45.97100
C  47.32000 3.32900 45.88000
C  45.97300 3.96500 46.10700
C  47.54600 0.97200 47.15000
C  48.05600 3.71700 44.52200
C  49.58900 3.93000 44.60600
N  43.49000 5.32200 47.12400
C  44.66800 6.05000 46.85500
C  44.46900 7.44800 47.08900
C  43.04800 7.53600 47.27000
C  42.49600 6.22800 47.14400
C  45.33200 8.64700 46.80200
C  41.93800 8.51400 47.42200
O  41.98400 9.75800 47.36200
C  40.63500 7.65200 47.42300
C  39.95200 7.96300 48.74900
O  40.17000 7.41200 49.79100
O  38.83600 8.66300 48.43700
C  37.86600 8.81100 49.49600
H  39.11400 0.95700 47.07700
H  45.36300 -0.34300 45.91700
H  46.70800 5.95800 46.25100
H  38.49000 5.54800 48.27700
H  37.73100 2.97000 46.93400
H  37.13500 2.35400 48.91600
H  37.57400 3.91300 49.56100
H  38.75600 2.55100 49.64200
H  37.55100 6.65900 46.32800
H  36.78200 5.09800 46.44200
H  37.55100 4.59700 44.41300
H  39.20300 5.07600 44.77300
H  39.39800 -1.11400 45.75900
H  39.39600 -1.29700 47.53800
H  40.14500 -2.49700 46.46800
H  45.39100 -2.49600 45.95700
H  44.91200 -1.82700 44.42300
H  44.64500 -3.59000 44.72000
H  47.27400 1.10000 45.18700
H  47.99700 3.55200 46.70500
H  47.88400 0.04600 46.68500
H  46.93700 0.76200 48.02900
H  48.46000 1.47000 47.47500
H  47.68000 4.60900 44.02100
H  47.91500 2.86200 43.86000
H  49.91700 4.89900 44.22900
H  50.08600 3.25300 43.91200
H  49.88000 3.78400 45.64600
H  46.26600 8.36100 46.31900
H  45.52900 9.16400 47.74100
H  44.78400 9.25500 46.08100
H  40.07200 7.93700 46.53500
H  38.21100 9.63600 50.12000
H  37.71500 7.91600 50.09900
H  36.89200 9.08500 49.08900
Mg 42.55300 41.69000 25.41800
C  42.08400 44.34100 27.67800
C  43.94900 39.89500 28.07800
C  43.58900 39.41100 23.32400
C  41.97800 43.96000 22.79800
N  42.92700 42.10200 27.65300
C  42.67500 43.29700 28.32800
C  42.91400 43.06800 29.86300
C  43.56500 41.62800 29.95100
C  43.56200 41.21900 28.48800
C  44.91800 41.63800 30.67900
C  41.63600 43.27400 30.74500
C  41.55900 42.64600 32.22200
H  41.42300 43.57300 33.44400
N  43.39400 39.76800 25.63200
C  43.88600 39.22400 26.78900
C  44.13900 37.85600 26.52300
C  44.06500 37.55400 25.12200
C  43.64500 38.91200 24.62100
C  44.62300 36.84300 27.59000
C  44.37300 36.36900 24.28700
O  44.33700 36.27200 23.09100
C  44.95900 35.20800 24.90500
N  42.64600 41.64100 23.34900
C  43.15500 40.54600 22.73200
C  43.18100 40.71500 21.22500
C  42.58300 42.16400 21.03000
C  42.37200 42.65900 22.46100
C  44.60800 40.49900 20.59600
C  41.29800 42.10100 20.29800
C  39.97000 42.05500 21.03400
N  42.07900 43.75900 25.22700
C  41.83900 44.51200 24.10000
C  41.40000 45.78000 24.51600
C  41.47000 45.82600 25.95800
C  41.87900 44.49600 26.31400
C  40.90000 46.81600 23.65400
C  41.29900 46.54900 27.17400
O  41.01600 47.71000 27.32800
C  41.55500 45.57900 28.28800
C  42.66200 46.15200 29.25800
O  43.83800 46.17000 28.97000
O  42.11700 46.74600 30.36900
C  43.03400 47.31000 31.36400
H  44.44800 39.42500 28.92800
H  44.11200 38.88300 22.52400
H  41.63400 44.63000 22.00700
H  43.56400 43.86900 30.21600
H  42.84200 40.97100 30.43500
H  45.05900 42.44500 31.39900
H  45.74000 41.75400 29.97300
H  44.98000 40.62000 31.06300
H  40.83400 42.99200 30.06200
H  41.47600 44.33900 30.91100
H  42.28200 41.85700 32.42700
H  40.62000 42.10900 32.08700
H  45.68700 36.74900 27.37400
H  44.14000 35.86700 27.54200
H  44.48500 37.08200 28.64500
H  45.03700 34.44200 24.13300
H  44.32700 34.80800 25.69800
H  45.97300 35.43300 25.23600
H  42.44600 39.98000 20.89800
H  43.35500 42.76700 20.55300
H  44.83200 41.26800 19.85700
H  44.54600 39.52200 20.11600
H  45.44200 40.52200 21.29800
H  41.26100 41.28700 19.57400
H  41.32400 42.97100 19.64300
H  39.94700 42.18800 22.11600
H  39.50300 41.07200 20.98400
H  39.19100 42.73600 20.69200
H  39.84500 46.54600 23.60200
H  41.26300 46.74500 22.62900
H  40.93000 47.84300 24.01900
H  40.65500 45.47500 28.89400
H  43.76800 46.55000 31.63100
H  42.54500 47.67800 32.26500
H  43.67000 48.07100 30.91200

