158

Mg 26.08200 -0.75500 29.13800
C  27.81900 -0.92400 32.26500
C  23.17000 -0.56000 30.76900
C  24.56500 -0.68700 26.14000
C  29.12900 -1.57000 27.56200
N  25.57700 -0.78500 31.29600
C  26.45100 -0.61500 32.34400
C  25.69500 -0.25200 33.65900
C  24.20000 -0.22200 33.13900
C  24.28300 -0.51800 31.61200
C  23.27400 -1.23500 33.84200
C  26.29800 1.06600 34.37700
C  27.26200 0.81700 35.56200
H  27.19000 1.74000 36.84400
N  24.14400 -0.67300 28.54800
C  23.06300 -0.58900 29.33900
C  21.81700 -0.59200 28.55800
C  22.24600 -0.63200 27.23600
C  23.71800 -0.61400 27.24600
C  20.41100 -0.54200 29.22900
C  21.32000 -0.47800 26.04200
O  21.62900 -0.42700 24.85400
C  19.85600 -0.43600 26.25100
N  26.75800 -1.08400 27.16600
C  25.90700 -0.91800 26.08900
C  26.69300 -0.90700 24.77500
C  28.15700 -1.01500 25.25700
C  28.02200 -1.26400 26.75600
C  26.22500 -1.95200 23.74800
C  29.10300 0.08900 24.81800
C  28.85700 1.56300 25.08900
N  28.06100 -1.18600 29.73900
C  29.14200 -1.54400 28.97500
C  30.27600 -1.65500 29.79000
C  29.81300 -1.53000 31.07900
C  28.42800 -1.19400 31.04500
C  31.69300 -1.87000 29.23600
C  30.26900 -1.48500 32.40500
O  31.38200 -1.57300 32.91600
C  29.01800 -1.01900 33.29800
C  28.82600 -2.14600 34.28700
O  28.11200 -3.14200 34.11700
O  29.40200 -1.81300 35.50100
C  28.87200 -2.58500 36.58400
H  22.24400 -0.29600 31.28400
H  23.97600 -0.69600 25.22000
H  30.03500 -1.87200 27.03100
H  25.82000 -1.10600 34.32500
H  23.83300 0.80200 33.21100
H  22.39500 -1.38000 33.21400
H  23.00000 -0.77700 34.79200
H  23.82500 -2.17400 33.79500
H  25.61000 1.90000 34.51200
H  26.84400 1.59100 33.59200
H  28.25500 1.17000 35.28100
H  27.20500 -0.22600 35.87200
H  19.76500 0.28300 28.92800
H  20.35300 -0.56300 30.31800
H  19.91400 -1.48900 29.02200
H  19.50800 -1.20300 26.94200
H  19.39100 -0.70200 25.30100
H  19.61700 0.59400 26.51600
H  26.43500 0.11700 24.50300
H  28.64600 -1.85000 24.75500
H  25.51800 -2.68300 24.14000
H  27.08500 -2.50900 23.37500
H  25.77000 -1.41700 22.91400
H  29.17200 -0.02600 23.73600
H  30.03800 -0.22700 25.28200
H  28.14900 1.81600 25.87800
H  28.63100 2.15400 24.20100
H  29.82700 1.94300 25.40700
H  31.55300 -1.49500 28.22300
H  31.82600 -2.94500 29.11200
H  32.43100 -1.35100 29.84700
H  29.15100 -0.01400 33.69900
H  27.84500 -2.92700 36.46000
H  29.07900 -1.99000 37.47400
H  29.50900 -3.46900 36.61000
Mg 25.80400 51.76600 26.16400
C  23.67200 52.75900 28.66100
C  28.21000 50.96900 28.70000
C  28.15200 51.28200 23.82100
C  23.61000 52.88500 23.82300
N  25.95900 51.90700 28.37600
C  24.87300 52.27100 29.16500
C  25.22000 52.03300 30.61300
C  26.64200 51.51500 30.67100
C  26.96800 51.46000 29.17000
C  27.69800 52.35600 31.50200
C  24.12400 51.12200 31.35800
C  23.39300 51.69800 32.65000
H  23.17900 50.80100 33.85900
N  27.87100 51.14800 26.21700
C  28.71000 50.91600 27.38100
C  29.98600 50.44700 26.87700
C  29.97600 50.43100 25.46200
C  28.66900 51.01600 25.10600
C  31.16300 49.98800 27.78400
C  31.10700 50.05400 24.47400
O  30.94100 50.24500 23.29300
C  32.40000 49.57000 24.87200
N  25.83700 52.01000 24.08800
C  26.88000 51.72300 23.31100
C  26.59800 51.86600 21.82200
C  25.05500 52.23700 21.90300
C  24.80100 52.36900 23.36300
C  27.58200 52.84800 21.16900
C  24.16800 51.39400 21.04100
C  23.28600 52.11400 19.95800
N  24.01400 52.64500 26.16700
C  23.23000 53.09200 25.15100
C  22.08000 53.80500 25.60300
C  22.13100 53.63300 27.03900
C  23.37800 52.96700 27.30800
C  21.03400 54.31100 24.76100
C  21.41800 53.83700 28.30700
O  20.31800 54.33100 28.56600
C  22.36700 53.13000 29.39200
C  22.64900 54.16600 30.38100
O  23.62100 54.94400 30.33300
O  21.80500 54.01900 31.47100
C  22.20900 54.98600 32.53500
H  28.97200 50.68600 29.42900
H  28.86600 51.13900 23.00700
H  22.80200 53.09900 23.12000
H  25.27000 53.02500 31.06100
H  26.55300 50.49400 31.04100
H  27.07400 53.12700 31.95400
H  28.38400 52.78400 30.77200
H  28.16300 51.72500 32.26000
H  24.60100 50.17100 31.59500
H  23.38400 50.94200 30.57800
H  22.38200 51.94600 32.32500
H  23.76700 52.68400 32.92700
H  31.51300 48.96300 27.66500
H  30.91100 50.15600 28.83100
H  31.99000 50.62400 27.46800
H  32.12500 48.84300 25.63600
H  32.88300 50.41200 25.36800
H  32.83600 49.12800 23.97600
H  26.76900 50.92500 21.29900
H  24.98100 53.24800 21.50200
H  28.37000 53.20300 21.83400
H  27.07600 53.74200 20.80500
H  27.90600 52.40000 20.22900
H  23.50700 50.86200 21.72500
H  24.82100 50.68800 20.52700
H  22.45700 52.71100 20.33800
H  22.87800 51.37400 19.26900
H  23.84900 52.88900 19.43800
H  20.60900 55.23500 25.15100
H  20.32300 53.48800 24.68600
H  21.42300 54.48100 23.75700
H  21.86900 52.30400 29.90000
H  22.96300 54.51300 33.16300
H  21.35400 55.16000 33.18800
H  22.47400 55.96700 32.14000

