158

Mg -2.31000 17.79000 27.68000
C  -2.94300 15.65300 30.24900
C  -2.91900 20.51500 29.91000
C  -2.61100 19.89000 25.05700
C  -2.36200 15.05500 25.50300
N  -2.88400 18.07600 29.85700
C  -2.94800 16.96300 30.71800
C  -2.99200 17.45900 32.23600
C  -3.28300 19.00900 32.00800
C  -2.92900 19.24900 30.49200
C  -4.71200 19.37700 32.44600
C  -1.66700 17.17000 32.92800
C  -1.43900 17.87500 34.26800
H  -1.06200 17.10700 35.55200
N  -2.49200 19.89300 27.50500
C  -2.71400 20.83800 28.49800
C  -2.69000 22.12700 27.91200
C  -2.65600 21.96300 26.52300
C  -2.53700 20.54300 26.31700
C  -2.94400 23.40300 28.61300
C  -2.60300 23.03300 25.46000
O  -2.41200 22.80900 24.24500
C  -2.62100 24.51300 25.83300
N  -2.61000 17.51600 25.59900
C  -2.54000 18.51100 24.70400
C  -2.63800 18.05900 23.20700
C  -2.21800 16.60200 23.41900
C  -2.27800 16.35800 24.94800
C  -4.05800 18.22900 22.68200
C  -0.82800 16.32900 22.82700
C  0.41600 16.99200 23.49700
N  -2.45600 15.78600 27.80400
C  -2.54100 14.78600 26.80200
C  -2.92400 13.46800 27.42300
C  -2.95100 13.78400 28.78300
C  -2.76100 15.16200 28.94700
C  -3.15400 12.07700 26.82100
C  -3.26900 13.21400 30.05700
O  -3.58500 12.13200 30.34400
C  -2.98900 14.41100 31.09700
C  -1.73000 14.03800 31.65400
O  -0.70100 14.03800 31.09400
O  -1.97100 13.77500 32.98100
C  -0.84500 13.56400 33.83100
H  -3.18400 21.41500 30.46800
H  -2.83900 20.50500 24.18400
H  -2.39700 14.18800 24.84100
H  -3.77200 16.91600 32.77000
H  -2.67800 19.73600 32.55100
H  -5.29000 19.90300 31.68600
H  -4.63000 20.05400 33.29700
H  -5.31400 18.50100 32.68700
H  -0.89600 17.61100 32.29600
H  -1.40100 16.12000 33.04500
H  -2.41900 18.27400 34.52900
H  -0.76300 18.70100 34.04800
H  -2.23100 24.17600 28.32600
H  -3.12600 23.29700 29.68300
H  -3.89600 23.76100 28.22000
H  -1.81100 24.83400 26.48800
H  -3.61900 24.63700 26.25200
H  -2.55000 25.08600 24.90900
H  -1.87700 18.56000 22.60800
H  -2.91700 15.95800 22.88600
H  -4.26100 19.22000 22.27500
H  -4.75600 18.14500 23.51500
H  -4.40200 17.53000 21.91900
H  -0.84000 16.78300 21.83600
H  -0.63500 15.25900 22.90600
H  1.03300 17.44500 22.72200
H  1.00800 16.15500 23.86700
H  0.15000 17.59400 24.36600
H  -2.25400 11.46400 26.78100
H  -3.41800 12.12100 25.76400
H  -3.84500 11.57200 27.49600
H  -3.76200 14.37300 31.86500
H  -0.94200 14.07600 34.78800
H  0.06700 13.88500 33.32800
H  -0.73100 12.52800 34.15100
Mg -10.40400 39.57500 39.70800
C  -9.82500 36.20000 39.05500
C  -6.99900 40.21000 38.82100
C  -11.15900 42.70500 39.12700
C  -13.76600 38.75200 40.36100
N  -8.69700 38.34600 38.72600
C  -8.71900 36.94400 38.66300
C  -7.33100 36.45700 38.24700
C  -6.45600 37.70600 38.59600
C  -7.41700 38.84300 38.67400
C  -5.76300 37.56600 39.95900
C  -7.29300 35.99300 36.76500
C  -7.70100 36.97300 35.59800
H  -8.91000 36.69400 34.83300
N  -9.30800 41.24800 39.17000
C  -7.91800 41.32900 38.87800
C  -7.54000 42.68600 38.65700
C  -8.68300 43.44100 38.78000
C  -9.78300 42.45900 39.04100
C  -6.22900 43.13100 38.28700
C  -8.67400 44.94900 38.60900
O  -7.71800 45.60200 38.14400
C  -9.76300 45.70800 39.07200
N  -12.22700 40.59700 39.72000
C  -12.26300 41.91700 39.50300
C  -13.71200 42.34800 39.50300
C  -14.47300 41.10700 40.01300
C  -13.45700 40.05500 40.07000
C  -14.05500 43.65400 40.26700
C  -15.69500 40.77800 39.08200
C  -16.98700 41.47200 39.47500
N  -11.59400 37.83800 39.76800
C  -12.94500 37.64600 40.08600
C  -13.19900 36.22300 40.09000
C  -11.97400 35.61200 39.72300
C  -11.07500 36.66700 39.58000
C  -14.57800 35.54500 40.40900
C  -11.38800 34.36400 39.44300
O  -11.87100 33.24600 39.35500
C  -9.97400 34.71800 38.94000
C  -8.97900 33.94200 39.78800
O  -8.95600 33.93900 40.99800
O  -8.12500 33.27500 38.97700
C  -7.21000 32.32000 39.73200
H  -5.93800 40.43000 38.68400
H  -11.54600 43.70100 38.90000
H  -14.79900 38.48900 40.59900
H  -7.01700 35.62700 38.88000
H  -5.70800 38.03400 37.87500
H  -6.06400 36.66000 40.48500
H  -5.96900 38.45000 40.56200
H  -4.70100 37.52300 39.71700
H  -7.95300 35.12600 36.73800
H  -6.23300 35.77300 36.63600
H  -6.85200 37.15800 34.94000
H  -7.88200 37.95100 36.04400
H  -6.01100 44.09800 38.74100
H  -6.12200 43.17700 37.20300
H  -5.44700 42.44200 38.60500
H  -10.21000 45.18500 39.91800
H  -10.51800 45.86800 38.30200
H  -9.40200 46.65100 39.48100
H  -14.01600 42.57200 38.48100
H  -14.85200 41.34200 41.00700
H  -13.10100 44.10400 40.54000
H  -14.63900 43.39800 41.15200
H  -14.62900 44.24900 39.55600
H  -15.88800 39.71400 38.94100
H  -15.37600 41.08700 38.08700
H  -17.54500 40.72200 40.03500
H  -17.62000 41.77700 38.64100
H  -16.85700 42.40400 40.02600
H  -15.10200 36.19900 41.10500
H  -14.49700 34.58500 40.92000
H  -15.16400 35.41900 39.49800
H  -9.92400 34.40200 37.89900
H  -7.48500 31.31100 39.42500
H  -7.18100 32.40500 40.81800
H  -6.15000 32.45300 39.51600

