158

Mg -11.93600 39.47400 41.29700
C  -9.94600 36.49300 40.73100
C  -9.44000 41.14000 39.68100
C  -13.91500 42.00800 41.14800
C  -14.42600 37.40800 42.63800
N  -9.99200 38.75700 40.17400
C  -9.36400 37.54800 40.12200
C  -8.17500 37.60400 39.13600
C  -7.95400 39.17900 39.09100
C  -9.23400 39.77000 39.64300
C  -6.60600 39.65700 39.79600
C  -8.50600 36.87000 37.79300
C  -7.59500 35.68900 37.34700
H  -6.41500 35.96300 36.29500
N  -11.63400 41.34100 40.48300
C  -10.60800 41.89100 39.90900
C  -10.81200 43.23400 39.64000
C  -12.12800 43.53900 40.09100
C  -12.62300 42.27300 40.60400
C  -9.72600 44.08900 38.93200
C  -12.85100 44.88300 39.92200
O  -12.27800 45.79100 39.36600
C  -14.23000 45.17600 40.36000
N  -13.82800 39.59700 41.70600
C  -14.49500 40.81900 41.61100
C  -15.91200 40.81400 42.18900
C  -16.08700 39.34400 42.51600
C  -14.72700 38.69500 42.22400
C  -16.21800 41.82400 43.35500
C  -17.33700 38.70200 41.86600
C  -17.36600 38.56300 40.33000
N  -12.16700 37.41800 41.68500
C  -13.16400 36.74800 42.39900
C  -12.79200 35.31900 42.47900
C  -11.49900 35.24500 41.92900
C  -11.18800 36.51800 41.39500
C  -13.54300 34.28800 43.30200
C  -10.39100 34.31700 41.71000
O  -10.19100 33.15800 42.02000
C  -9.37900 35.10700 40.82100
C  -8.13100 34.89600 41.50100
O  -7.36500 33.94200 41.33900
O  -7.81900 35.91500 42.41100
C  -6.91100 35.53900 43.51000
H  -8.58500 41.72200 39.32900
H  -14.48800 42.90500 41.39400
H  -15.18900 36.85900 43.19200
H  -7.34100 37.06500 39.58700
H  -7.87300 39.41700 38.03000
H  -6.01200 38.83900 40.20200
H  -6.82500 40.40300 40.56000
H  -6.13900 40.17200 38.95600
H  -8.47500 37.60500 36.98800
H  -9.53800 36.51900 37.81600
H  -8.22400 34.90700 36.92200
H  -7.13700 35.28700 38.25100
H  -10.07700 44.24100 37.91200
H  -8.67600 43.84500 39.09300
H  -9.71000 45.11000 39.31300
H  -14.13800 45.34900 41.43200
H  -14.94500 44.38700 40.12500
H  -14.49100 46.07500 39.80300
H  -16.52800 41.15100 41.35600
H  -16.20300 39.26800 43.59800
H  -15.23800 42.19900 43.65300
H  -16.77700 41.42000 44.19800
H  -16.79800 42.64200 42.92800
H  -18.12900 39.42000 42.07800
H  -17.57800 37.77400 42.38500
H  -16.48800 39.05500 39.91200
H  -18.14600 39.04000 39.73700
H  -17.42600 37.48600 40.17700
H  -13.11200 34.41700 44.29500
H  -13.24100 33.26900 43.05900
H  -14.60300 34.48200 43.46300
H  -9.40500 34.62700 39.84300
H  -7.04100 34.47400 43.70300
H  -6.97200 36.16000 44.40400
H  -5.86600 35.65800 43.22400
Mg -1.93600 34.53600 27.05300
C  -3.50300 32.56900 29.67800
C  -0.58000 36.42500 29.51100
C  -0.23100 36.03600 24.76600
C  -3.67200 32.49100 24.83400
N  -2.37700 34.66900 29.30200
C  -2.86100 33.69400 30.15200
C  -2.67700 34.09900 31.63000
C  -1.75800 35.34000 31.46500
C  -1.55300 35.57000 29.96700
C  -2.16100 36.56200 32.23500
C  -1.90700 32.89700 32.34900
C  -1.23800 33.16100 33.73700
H  -1.74700 32.31000 34.90600
N  -0.49500 36.02200 27.13500
C  -0.09300 36.73000 28.18800
C  1.03600 37.59300 27.86200
C  1.14600 37.54300 26.47900
C  0.08900 36.57900 26.05600
C  1.83000 38.41000 28.83400
C  1.98900 38.37100 25.49800
O  1.94600 38.18100 24.25300
C  3.00300 39.42600 25.95000
N  -2.09500 34.44700 25.06800
C  -1.13500 35.07400 24.33700
C  -1.32400 34.77700 22.88400
C  -2.57400 33.80600 22.79500
C  -2.85000 33.52500 24.29300
C  -1.51300 35.98300 21.85000
C  -2.46400 32.51000 21.89800
C  -1.22000 31.64400 22.24000
N  -3.34400 32.87800 27.19600
C  -3.88000 32.10700 26.15700
C  -4.69600 31.03900 26.72400
C  -4.52300 31.14500 28.09500
C  -3.67400 32.25800 28.32900
C  -5.56900 30.03600 26.01400
C  -4.90400 30.54400 29.38400
O  -5.54300 29.54700 29.62100
C  -4.30700 31.50100 30.48400
C  -5.41800 32.08600 31.31800
O  -5.98900 33.15800 31.08300
O  -5.49600 31.35100 32.43200
C  -6.20800 31.95000 33.59800
H  -0.08300 36.88500 30.36800
H  0.42900 36.50700 24.03500
H  -4.16400 31.87900 24.07500
H  -3.62700 34.34800 32.10200
H  -0.82700 35.07700 31.96600
H  -2.81600 37.04200 31.50800
H  -1.28000 37.15200 32.48800
H  -2.72300 36.37200 33.14900
H  -1.14100 32.48300 31.69200
H  -2.64000 32.15800 32.67100
H  -1.34300 34.23200 33.90800
H  -0.20600 32.83700 33.60200
H  2.83900 38.02000 28.70100
H  1.39500 38.15800 29.80100
H  1.75200 39.48800 28.69800
H  3.56300 39.67700 25.04900
H  3.61400 38.89300 26.67800
H  2.49800 40.17500 26.55900
H  -0.49900 34.14100 22.56200
H  -3.47400 34.29900 22.42700
H  -0.71500 35.95800 21.10900
H  -1.38900 36.93900 22.35800
H  -2.46800 35.87500 21.33400
H  -2.38900 32.82000 20.85600
H  -3.42900 32.00400 21.93300
H  -1.00600 31.71700 23.30600
H  -0.32300 32.03000 21.75500
H  -1.32500 30.56800 22.09700
H  -5.46500 30.15800 24.93500
H  -6.55400 30.43800 26.25100
H  -5.52600 28.98400 26.29700
H  -3.63400 30.93000 31.12400
H  -6.78500 32.83700 33.33300
H  -5.43500 32.31700 34.27400
H  -6.91700 31.28400 34.09000

