158

Mg 35.28200 2.85200 29.45600
C  32.89500 3.77200 31.96300
C  37.72300 2.74700 32.02500
C  37.35400 1.93100 27.20100
C  32.69700 3.37000 27.16000
N  35.27300 3.27500 31.68700
C  34.16100 3.54300 32.50300
C  34.55400 3.61500 33.95300
C  36.12600 3.69700 33.85200
C  36.40900 3.18700 32.41700
C  36.57100 5.12600 34.14900
C  34.04700 2.29800 34.68900
C  33.96000 2.20200 36.20000
H  34.38100 3.39200 37.08800
N  37.30300 2.46100 29.55700
C  38.12100 2.35800 30.68800
C  39.46000 1.99000 30.26800
C  39.40600 1.71800 28.88100
C  37.97800 2.02800 28.48400
C  40.68500 1.97600 31.19500
C  40.47300 1.34400 27.83000
O  40.25200 1.23700 26.60900
C  41.88700 1.06100 28.13400
N  35.07600 2.84200 27.30400
C  36.06900 2.27500 26.65300
C  35.66700 2.15400 25.22200
C  34.08300 2.42400 25.24000
C  33.89900 2.90600 26.61800
C  36.29400 3.20800 24.29500
C  33.26000 1.17200 24.91700
C  33.55600 -0.13700 25.72500
N  33.29200 3.67800 29.46200
C  32.41700 3.75400 28.47500
C  31.11200 4.09100 28.98900
C  31.23100 4.14500 30.35700
C  32.53500 3.80400 30.61600
C  29.79900 4.29200 28.21500
C  30.50600 4.46300 31.56700
O  29.42300 4.95900 31.75400
C  31.59900 4.11800 32.74400
C  31.79100 5.30300 33.57900
O  32.26300 6.33900 33.25900
O  31.17900 5.01200 34.75300
C  31.30200 6.01300 35.88100
H  38.42800 2.67600 32.85600
H  37.81500 1.30700 26.43200
H  31.87100 3.46100 26.45200
H  34.13500 4.42700 34.54700
H  36.62400 3.13600 34.64300
H  37.17500 5.54200 33.34200
H  37.29800 5.05400 34.95900
H  35.78200 5.76200 34.55000
H  34.61600 1.41100 34.41100
H  33.01500 2.15600 34.36600
H  34.56900 1.33300 36.45000
H  32.93700 1.96600 36.49700
H  41.31700 1.11100 30.99400
H  40.41200 1.91000 32.24800
H  41.31100 2.85400 31.03300
H  42.47400 0.79200 27.25600
H  42.00100 0.36000 28.96000
H  42.38300 1.92300 28.58000
H  35.87300 1.16300 24.81900
H  33.85100 3.20100 24.51100
H  37.34300 3.39500 24.52600
H  35.78200 4.16700 24.37600
H  36.35000 2.86600 23.26200
H  33.46300 0.89100 23.88300
H  32.21900 1.47300 25.03100
H  33.71500 -0.84900 24.91500
H  32.63800 -0.38000 26.25900
H  34.46700 -0.10800 26.32200
H  29.90000 3.86600 27.21700
H  29.47000 5.32900 28.14000
H  28.98800 3.81300 28.76300
H  31.29500 3.26500 33.35200
H  30.29900 6.42700 35.98100
H  32.00900 6.81700 35.67500
H  31.62400 5.50900 36.79200
Mg -6.14100 25.52300 25.65900
C  -4.55800 26.62500 28.46300
C  -7.91700 23.34700 27.63300
C  -7.59400 24.15100 22.81600
C  -4.51000 27.90800 23.72200
N  -6.27200 25.01400 27.82900
C  -5.50000 25.59100 28.80300
C  -5.95100 25.21000 30.19000
C  -6.63400 23.86000 29.83700
C  -6.97500 24.04900 28.36600
C  -5.82000 22.54200 30.07000
C  -6.83100 26.34600 30.76300
C  -6.90100 26.54200 32.20200
H  -6.09500 25.61100 33.06600
N  -7.53200 23.89700 25.30900
C  -8.17000 23.20300 26.27200
C  -9.10800 22.31400 25.66000
C  -8.83000 22.40400 24.26400
C  -7.97500 23.52600 24.04600
C  -10.00400 21.44200 26.50900
C  -9.30400 21.45400 23.16000
O  -9.06700 21.71800 21.97900
C  -10.17200 20.21700 23.49800
N  -5.99600 25.82900 23.57700
C  -6.69500 25.15800 22.61500
C  -6.40500 25.70500 21.18000
C  -5.66200 27.11000 21.49800
C  -5.35100 26.96300 23.03000
C  -5.51400 24.74500 20.32000
C  -6.38300 28.47300 20.99100
C  -5.63500 29.37100 19.94400
N  -4.68900 26.98700 25.96800
C  -4.13800 27.86200 25.12900
C  -3.20200 28.75400 25.86400
C  -3.36900 28.19200 27.18300
C  -4.31100 27.21100 27.20600
C  -2.19000 29.66800 25.20000
C  -2.82700 28.35100 28.53400
O  -2.00900 29.13000 29.00300
C  -3.62300 27.38500 29.37800
C  -2.66400 26.54400 30.13500
O  -2.14600 25.56400 29.69600
O  -2.45800 27.06800 31.42100
C  -1.49800 26.28900 32.25200
H  -8.46100 22.70600 28.33000
H  -8.12900 23.92300 21.89200
H  -4.19100 28.75200 23.10800
H  -5.11900 24.99600 30.86100
H  -7.49200 23.76400 30.50300
H  -5.54100 22.00600 29.16400
H  -6.40500 21.77200 30.57200
H  -4.85900 22.59700 30.58200
H  -7.87400 26.24000 30.46400
H  -6.59400 27.31000 30.31100
H  -7.91200 26.43900 32.59700
H  -6.68900 27.56900 32.50000
H  -9.89900 20.36000 26.43600
H  -11.02900 21.66500 26.21000
H  -10.11300 21.67900 27.56700
H  -10.31100 19.49000 22.69800
H  -11.09700 20.46600 24.01900
H  -9.59700 19.64600 24.22700
H  -7.36200 25.92200 20.70600
H  -4.67500 26.93700 21.07000
H  -4.84400 24.17200 20.96100
H  -4.89000 25.29000 19.61100
H  -6.21400 24.09800 19.79200
H  -6.42900 29.04400 21.91800
H  -7.33100 28.19800 20.53100
H  -6.11600 30.34400 19.84300
H  -5.63600 28.79700 19.01700
H  -4.65000 29.44900 20.40200
H  -1.75900 29.21600 24.30700
H  -1.34200 29.78900 25.87400
H  -2.53900 30.67400 24.96800
H  -4.26000 27.93800 30.06800
H  -2.09000 26.06200 33.13900
H  -0.64400 26.85700 32.62100
H  -1.03800 25.39300 31.83500

