158

Mg 35.80700 0.88500 29.44000
C  33.38500 2.09900 31.80900
C  38.11300 0.92700 31.86400
C  37.95400 0.28500 27.03900
C  33.28800 1.46500 26.97600
N  35.75900 1.50000 31.57600
C  34.67800 1.91200 32.34200
C  35.15000 2.01100 33.84000
C  36.67900 1.86200 33.74900
C  36.90600 1.40900 32.33400
C  37.45100 3.13500 34.06600
C  34.46500 0.93300 34.65300
C  34.14400 1.12900 36.12300
H  34.35300 2.50600 36.67000
N  37.78200 0.64000 29.44500
C  38.52200 0.57200 30.57400
C  39.76200 0.02300 30.18200
C  39.81900 -0.20600 28.78000
C  38.47500 0.20200 28.34700
C  40.84200 -0.20600 31.22400
C  40.89200 -0.69600 27.88700
O  40.90200 -0.71600 26.67100
C  42.20200 -1.05800 28.54400
N  35.70800 0.96500 27.30700
C  36.76400 0.60900 26.56700
C  36.28900 0.54900 25.10800
C  34.72000 0.76300 25.11200
C  34.58300 1.11400 26.54200
C  37.01700 1.60200 24.24800
C  33.93900 -0.43400 24.59300
C  32.90400 -0.08100 23.52800
N  33.75900 1.47700 29.35100
C  32.88800 1.76500 28.27700
C  31.60500 2.12500 28.72500
C  31.79100 2.35400 30.10800
C  33.06400 1.95600 30.44500
C  30.38100 2.49700 27.90200
C  31.07900 2.80200 31.22400
O  29.96600 3.26900 31.39500
C  32.09600 2.66800 32.49000
C  32.29300 4.00100 33.16200
O  33.11400 4.87500 32.85100
O  31.45400 4.14100 34.22900
C  31.46900 5.46600 34.91400
H  38.86500 0.92500 32.65700
H  38.64500 -0.14600 26.31100
H  32.46700 1.51000 26.25800
H  34.93400 3.00800 34.22200
H  36.94000 0.99200 34.35200
H  36.83400 4.02000 34.22200
H  38.12800 3.42200 33.26100
H  38.02400 2.88600 34.95900
H  35.11500 0.05900 34.62100
H  33.49400 0.72000 34.20700
H  34.74400 0.44900 36.72800
H  33.09000 0.86800 36.21700
H  41.84500 -0.05800 30.82600
H  40.74200 -1.24700 31.53100
H  40.73700 0.34900 32.15700
H  42.20100 -1.62100 29.47700
H  42.93300 -0.26800 28.71200
H  42.57500 -1.78600 27.82300
H  36.54900 -0.41200 24.66500
H  34.51900 1.69900 24.59200
H  37.00600 1.29400 23.20300
H  38.04100 1.62400 24.62100
H  36.68200 2.60900 24.49800
H  33.41100 -0.83000 25.46000
H  34.57300 -1.21900 24.18100
H  32.18600 0.64000 23.92000
H  32.27200 -0.89600 23.17500
H  33.36600 0.26600 22.60400
H  30.11900 1.56300 27.40500
H  30.63500 3.18000 27.09200
H  29.52000 2.77300 28.51100
H  31.69700 1.92300 33.17800
H  30.41000 5.71200 34.83700
H  32.18800 6.16600 34.48900
H  31.68900 5.32900 35.97300
Mg 53.36700 23.48300 44.78500
C  50.61100 25.40400 43.84900
C  51.71600 20.59300 43.86300
C  56.33000 22.00900 44.93400
C  54.88500 26.52000 45.79000
N  51.40500 23.06500 43.86800
C  50.42200 23.99500 43.59900
C  49.21300 23.32200 42.98700
C  49.43000 21.82100 43.47500
C  50.92200 21.78600 43.77600
C  48.37500 21.47700 44.53500
C  49.27200 23.49400 41.47400
C  47.88000 23.43500 40.73900
H  47.70700 23.44300 39.23200
N  53.98100 21.56300 44.36100
C  53.16500 20.52400 44.03800
C  53.97500 19.35500 44.10500
C  55.36100 19.71000 44.32500
C  55.32000 21.18600 44.51700
C  53.51100 17.90000 43.76300
C  56.53500 18.75500 44.38600
O  56.50000 17.63300 43.89400
C  57.86100 19.19900 45.06700
N  55.34300 24.13000 45.39900
C  56.43500 23.38000 45.32600
C  57.72700 24.06100 45.73100
C  57.15100 25.41700 46.26700
C  55.73100 25.35100 45.78500
C  58.56000 23.34600 46.81100
C  58.04200 26.56100 45.70500
C  59.52300 26.79500 46.21300
N  52.92500 25.55400 44.76600
C  53.60500 26.61700 45.25000
C  52.83100 27.83200 45.28500
C  51.64300 27.44900 44.68900
C  51.78100 26.08100 44.31100
C  53.31100 29.19000 45.74100
C  50.30700 27.84900 44.34400
O  49.63000 28.85600 44.55800
C  49.66800 26.60100 43.70300
C  49.41000 27.08300 42.32900
O  50.26300 27.62100 41.61100
O  48.13000 26.80400 41.97300
C  47.71700 27.28900 40.68200
H  51.14400 19.67600 43.70800
H  57.32200 21.57200 44.80400
H  55.28100 27.46500 46.16800
H  48.30700 23.80000 43.35900
H  49.19700 21.14600 42.65100
H  47.75000 20.69000 44.11500
H  47.70500 22.26000 44.89100
H  48.84300 21.13200 45.45700
H  49.79400 22.61000 41.10600
H  49.77500 24.42400 41.21000
H  47.34900 24.30000 41.13800
H  47.47600 22.52200 41.17700
H  53.62700 17.68500 42.70100
H  52.44800 17.73100 43.93200
H  54.06400 17.12600 44.29600
H  58.42800 19.79100 44.35000
H  58.42400 18.27700 45.21600
H  57.62100 19.65200 46.02900
H  58.34400 24.12600 44.83500
H  57.17000 25.52700 47.35200
H  58.67500 23.98200 47.68900
H  59.59100 23.14600 46.51800
H  57.94100 22.51700 47.15100
H  57.70000 27.58400 45.86800
H  58.21900 26.40400 44.64100
H  59.60700 26.29800 47.18000
H  59.85100 27.82800 46.33200
H  60.24400 26.31400 45.55300
H  52.51900 29.91400 45.55000
H  54.07600 29.49700 45.02700
H  53.63300 29.05700 46.77400
H  48.73000 26.37700 44.21000
H  47.84500 26.52000 39.92100
H  48.21600 28.21300 40.39000
H  46.64100 27.46200 40.70500

