158

Mg 25.73600 0.11700 28.43600
C  27.45800 -0.32300 31.56600
C  22.74400 0.23500 30.25700
C  24.14500 0.21700 25.55500
C  28.58500 -0.92500 26.81900
N  25.15400 -0.08900 30.67400
C  26.08800 -0.12000 31.75900
C  25.31300 0.15800 33.05100
C  23.78900 0.29000 32.64600
C  23.85000 0.16900 31.10900
C  22.65900 -0.66500 33.35400
C  25.80800 1.41000 33.91100
C  26.37600 1.05000 35.29000
H  25.70300 1.77400 36.49500
N  23.75600 0.25100 28.00000
C  22.68300 0.33700 28.82700
C  21.52900 0.46800 28.05100
C  21.88400 0.52200 26.71300
C  23.28700 0.31500 26.71500
C  20.13600 0.58400 28.67900
C  20.99300 0.70700 25.56900
O  21.27100 0.38300 24.43600
C  19.54000 1.01400 25.78000
N  26.32500 -0.39500 26.45200
C  25.47900 -0.06100 25.44200
C  26.16400 -0.09500 24.03600
C  27.66000 -0.28400 24.50100
C  27.55400 -0.53600 25.99500
C  25.63300 -1.24300 23.16500
C  28.73100 0.79000 24.13800
C  29.44800 0.83300 22.72500
N  27.55000 -0.52100 29.02700
C  28.67700 -0.82800 28.24200
C  29.83100 -1.02100 29.01800
C  29.36800 -0.87500 30.34600
C  28.01700 -0.58400 30.30800
C  31.27200 -1.11900 28.57800
C  29.79900 -0.87600 31.71400
O  30.93600 -1.08000 32.08400
C  28.61400 -0.43000 32.58000
C  28.46700 -1.37000 33.67300
O  27.93800 -2.45700 33.68800
O  28.83900 -0.76100 34.79400
C  28.73900 -1.54600 36.01000
H  21.81200 0.32400 30.81800
H  23.65700 0.47000 24.61200
H  29.44800 -1.19400 26.20600
H  25.31900 -0.76000 33.63900
H  23.40100 1.25900 32.96100
H  23.14200 -1.42000 33.97400
H  22.30400 -1.30000 32.54300
H  21.82000 -0.16700 33.84000
H  24.92600 2.03600 34.05300
H  26.52200 2.00100 33.33800
H  27.45700 1.15100 35.38900
H  26.23000 0.00100 35.54700
H  19.61300 1.54100 28.69400
H  20.14400 0.19800 29.69800
H  19.57000 -0.12500 28.07500
H  19.06700 0.12900 26.20500
H  19.03200 1.26400 24.84800
H  19.58200 1.82500 26.50800
H  25.94700 0.84000 23.51900
H  28.07600 -1.18400 24.04800
H  24.89300 -1.72500 23.80400
H  26.36400 -2.04000 23.02400
H  25.13700 -0.99600 22.22600
H  29.44800 0.98100 24.93600
H  28.14400 1.70400 24.05400
H  30.47100 1.16300 22.91000
H  28.91500 1.50200 22.05000
H  29.38300 -0.13900 22.23600
H  31.26700 -0.78300 27.54100
H  31.66100 -2.13700 28.58500
H  31.90000 -0.47200 29.19200
H  28.74600 0.57600 32.97700
H  29.24500 -2.50600 35.91000
H  27.74800 -1.86200 36.33600
H  29.19900 -0.98500 36.82300
Mg 26.63600 50.22300 26.36300
C  24.54400 51.58400 28.83700
C  28.80400 49.35100 28.84900
C  28.80900 49.06400 23.99400
C  24.53400 51.50600 23.94100
N  26.68200 50.54400 28.60800
C  25.73600 51.07800 29.40400
C  26.06400 50.91600 30.83300
C  27.59300 50.51300 30.84000
C  27.70600 50.06400 29.32600
C  28.60300 51.54500 31.36000
C  25.16700 49.86400 31.61300
C  24.46800 50.40500 32.96100
H  25.41700 51.09500 33.97800
N  28.44300 49.23300 26.42600
C  29.18400 48.96500 27.54100
C  30.45400 48.26900 27.16900
C  30.48600 48.24600 25.75000
C  29.21600 48.78900 25.35200
C  31.44800 47.75400 28.20200
C  31.53400 47.70000 24.81000
O  31.47900 47.81800 23.64300
C  32.66200 46.89100 25.30600
N  26.69300 50.31900 24.28200
C  27.68000 49.77500 23.49900
C  27.36700 49.80300 21.99600
C  25.95300 50.52300 21.95300
C  25.66000 50.79000 23.53600
C  28.44400 50.61100 21.13200
C  24.85000 49.65000 21.30700
C  23.56200 50.39800 20.89600
N  24.80900 51.37100 26.32000
C  24.09800 51.79700 25.26400
C  22.96800 52.54300 25.74900
C  23.04200 52.44300 27.18300
C  24.22400 51.73500 27.45800
C  21.80400 53.04600 25.05100
C  22.49100 52.83700 28.40200
O  21.56300 53.59000 28.65400
C  23.35300 52.27300 29.54600
C  23.90300 53.38300 30.33500
O  24.96800 53.96900 30.08900
O  23.07200 53.73200 31.38700
C  23.58300 54.80000 32.20200
H  29.43900 49.05900 29.68800
H  29.46700 48.72600 23.19100
H  23.92700 51.79200 23.07900
H  25.90000 51.90300 31.26400
H  27.70800 49.73400 31.59400
H  28.09100 52.43700 31.72300
H  29.35600 51.73700 30.59700
H  29.16500 51.09300 32.17700
H  25.84200 49.03100 31.81000
H  24.42000 49.40400 30.96500
H  23.90300 49.64000 33.49400
H  23.73400 51.16300 32.69000
H  31.47200 46.68100 28.39100
H  31.38600 48.24300 29.17400
H  32.42600 48.01000 27.79500
H  33.53300 47.44400 25.65700
H  32.91200 46.24900 24.46100
H  32.41800 46.12900 26.04600
H  27.32500 48.77000 21.64900
H  26.17900 51.46200 21.44900
H  28.64400 49.99000 20.25900
H  29.30100 50.81700 21.77400
H  28.21200 51.60500 20.75000
H  24.57200 48.71500 21.79400
H  25.30100 49.24500 20.40100
H  22.85100 50.15400 21.68500
H  23.15600 50.00900 19.96200
H  23.56100 51.48700 20.84500
H  21.83600 54.13400 25.00000
H  20.91400 52.89400 25.66200
H  21.71000 52.71500 24.01600
H  22.71900 51.63500 30.16200
H  23.77500 55.70200 31.62100
H  24.48700 54.49000 32.72600
H  22.87000 54.98400 33.00600

