158

Mg 43.18200 41.97600 26.07700
C  42.32800 44.32900 28.42300
C  44.62700 40.01700 28.64600
C  44.29700 39.75800 23.77800
C  42.41100 44.20400 23.51400
N  43.43800 42.23900 28.30900
C  42.92000 43.20000 29.08300
C  43.20000 42.98100 30.61500
C  44.15600 41.71600 30.57300
C  44.05700 41.27900 29.09000
C  45.60600 42.10700 30.90900
C  41.96800 42.73100 31.54700
C  41.83700 43.57900 32.82100
H  40.75300 43.29800 33.86400
N  44.04600 40.11000 26.22700
C  44.57200 39.46900 27.37300
C  45.17900 38.21900 26.94800
C  45.00600 38.07500 25.52600
C  44.42200 39.35700 25.09900
C  45.72500 37.23400 27.97900
C  45.35700 36.90800 24.63800
O  44.97300 36.89100 23.46800
C  46.06000 35.72300 25.18800
N  43.35900 42.00000 23.92200
C  43.83300 40.96100 23.20700
C  43.67400 41.19800 21.69400
C  42.77900 42.55300 21.59000
C  42.93800 42.97500 23.08100
C  45.01200 41.30900 20.86700
C  41.17400 42.48500 21.20700
C  40.29300 41.55300 21.99500
N  42.66400 43.89200 25.93900
C  42.39100 44.69900 24.82900
C  41.85000 45.94700 25.30800
C  41.79500 45.82700 26.68600
C  42.32000 44.54500 27.04100
C  41.28800 47.06700 24.43700
C  41.40900 46.48600 27.88100
O  41.00900 47.64800 28.01700
C  41.81700 45.59300 29.06200
C  42.81300 46.42000 29.84800
O  44.03400 46.45200 29.63900
O  42.24500 47.05000 30.87000
C  43.07300 47.74500 31.90200
H  45.21300 39.61500 29.47500
H  44.61300 39.07900 22.98300
H  42.19600 44.94100 22.73700
H  43.81900 43.82200 30.92700
H  43.86100 40.90300 31.23700
H  45.54200 42.43300 31.94700
H  46.02600 42.86000 30.24100
H  46.20000 41.19500 30.84500
H  41.89300 41.67800 31.81900
H  41.24700 43.04000 30.79100
H  41.71400 44.62200 32.53000
H  42.79900 43.56900 33.33200
H  45.44000 37.52000 28.99200
H  46.78900 36.99800 27.97400
H  45.11600 36.33200 27.92400
H  46.49900 35.20200 24.33600
H  45.30400 35.10100 25.66700
H  46.80800 35.92000 25.95600
H  43.14000 40.34900 21.26700
H  43.28100 43.24000 20.91000
H  45.81900 40.94300 21.50100
H  45.20700 42.33800 20.56600
H  45.07800 40.75100 19.93300
H  41.10800 42.10100 20.18900
H  40.70900 43.46500 21.10000
H  39.52900 42.18000 22.45400
H  40.85900 41.00600 22.74900
H  39.77200 40.88300 21.31100
H  40.20900 47.10000 24.58900
H  41.48200 46.96500 23.36900
H  41.79000 47.97600 24.76800
H  40.95800 45.40100 29.70400
H  43.59400 47.09400 32.60500
H  42.36100 48.32000 32.49300
H  43.89000 48.35400 31.51500
Mg 17.13000 51.69800 26.36100
C  18.68200 50.02300 28.94900
C  14.73700 52.85200 28.60900
C  15.39100 52.91700 23.70700
C  19.55200 50.44300 24.08800
N  16.74800 51.40500 28.57100
C  17.51100 50.69200 29.37600
C  17.09100 50.76900 30.87700
C  15.58600 51.34100 30.55400
C  15.74800 52.04600 29.18900
C  14.37100 50.35600 30.63200
C  18.00500 51.67600 31.74100
C  18.08600 51.28700 33.19700
H  16.97200 51.88400 34.03700
N  15.35300 52.75500 26.17200
C  14.55200 53.17300 27.22600
C  13.42600 53.91600 26.67700
C  13.51500 53.92900 25.26600
C  14.71800 53.07700 24.93900
C  12.48900 54.57300 27.55300
C  12.57400 54.51100 24.27700
O  12.71600 54.41400 23.03500
C  11.34700 55.12800 24.70700
N  17.32400 51.61100 24.21700
C  16.47600 52.13300 23.37200
C  17.04400 52.02700 21.96500
C  18.44700 51.43100 22.09000
C  18.48500 51.22900 23.56000
C  16.03300 51.40000 20.98700
C  19.64000 52.26300 21.53200
C  20.83400 51.53100 20.93800
N  18.69500 50.44600 26.42400
C  19.66500 50.08400 25.46300
C  20.72000 49.30100 26.08700
C  20.37500 49.30100 27.42000
C  19.18200 50.04000 27.60900
C  21.92900 48.68000 25.39400
C  20.75300 48.77600 28.77600
O  21.71100 48.06300 29.10000
C  19.73700 49.30400 29.78600
C  19.24300 48.10700 30.64500
O  18.46300 47.25500 30.25800
O  19.91300 48.11100 31.85900
C  19.59100 47.16000 32.89500
H  14.08600 53.29800 29.36300
H  14.96700 53.48500 22.87600
H  20.35500 50.14800 23.40900
H  16.97500 49.79400 31.34900
H  15.33400 52.07700 31.31800
H  14.14000 50.17800 31.68200
H  14.56200 49.34900 30.26100
H  13.46400 50.81200 30.23500
H  17.51800 52.64700 31.83800
H  19.00400 51.79500 31.32300
H  19.07400 51.46800 33.62200
H  18.04400 50.20300 33.30300
H  11.49100 54.21800 27.29500
H  12.60100 55.60300 27.21200
H  12.73100 54.52500 28.61500
H  10.83700 54.46200 25.40400
H  10.65200 55.24400 23.87500
H  11.65100 56.05200 25.20000
H  17.15400 53.06200 21.64200
H  18.45100 50.45100 21.61200
H  15.76200 52.16900 20.26300
H  15.10000 51.18400 21.50800
H  16.35000 50.43500 20.59200
H  20.09300 52.97000 22.22600
H  19.24600 52.83200 20.69000
H  20.93700 51.85100 19.90100
H  20.69900 50.45100 20.87400
H  21.76900 51.66300 21.48200
H  21.63500 48.77000 24.34800
H  22.03300 47.61200 25.58000
H  22.90900 49.12300 25.57400
H  20.22500 49.98200 30.48600
H  19.10400 46.25900 32.52400
H  18.90800 47.74100 33.51500
H  20.54500 46.94700 33.37800

