158

Mg 2.12400 -0.30200 43.89000
C  5.58800 0.39400 43.27500
C  1.37500 2.48800 42.08200
C  -1.12000 -1.07800 44.09300
C  2.99700 -3.51100 44.85300
N  3.35500 1.22200 42.86000
C  4.74500 1.34100 42.63200
C  5.12100 2.48000 41.74000
C  3.75300 3.28900 41.58100
C  2.75100 2.29800 42.30700
C  3.73700 4.68900 42.29600
C  5.65100 1.96500 40.32600
C  6.99000 2.37400 39.94700
H  7.04200 3.26000 38.71100
N  0.33400 0.59700 43.25600
C  0.28400 1.72400 42.50000
C  -1.06500 2.05500 42.25000
C  -1.84600 0.99600 42.80400
C  -0.89000 0.08500 43.35600
C  -1.45200 3.17200 41.28100
C  -3.37500 0.97100 42.66600
O  -3.87700 1.91800 42.10900
C  -4.27200 -0.08500 43.17700
N  1.14300 -1.94700 44.48700
C  -0.17400 -1.93800 44.60300
C  -0.58500 -3.32600 45.01900
C  0.59600 -4.19100 44.76100
C  1.67900 -3.13500 44.69700
C  -1.22000 -3.41500 46.44000
C  0.57000 -5.05600 43.42900
C  -0.18900 -6.46400 43.45500
N  3.87800 -1.28700 44.28000
C  4.08600 -2.59000 44.71000
C  5.45200 -2.78700 44.82900
C  6.10800 -1.57200 44.36300
C  5.05800 -0.77000 44.02100
C  6.04900 -4.00300 45.35600
C  7.42400 -0.99700 44.14000
O  8.56500 -1.44200 44.36900
C  7.17400 0.41500 43.47200
C  7.59600 1.43300 44.57000
O  7.20500 1.47600 45.72100
O  8.09800 2.57500 43.95200
C  8.16100 3.91400 44.62100
H  1.16100 3.45300 41.61900
H  -2.17200 -1.33900 44.22400
H  3.07900 -4.53600 45.22000
H  5.81400 3.14600 42.25500
H  3.46700 3.46500 40.54400
H  4.68100 5.09000 42.66600
H  3.10000 4.64800 43.18000
H  3.08200 5.43000 41.83800
H  4.83400 2.09900 39.61700
H  5.68600 0.89600 40.53700
H  7.56700 1.47300 39.73700
H  7.45200 3.00900 40.70300
H  -2.17600 2.83100 40.54000
H  -0.61400 3.63100 40.75600
H  -1.94700 3.92600 41.89300
H  -5.28900 0.22500 42.93700
H  -4.11200 0.10300 44.23900
H  -4.04200 -1.10500 42.86700
H  -1.45600 -3.55900 44.40700
H  0.76500 -4.94800 45.52700
H  -0.48100 -3.67300 47.20000
H  -2.03000 -4.13900 46.52900
H  -1.62000 -2.42400 46.65100
H  1.55800 -5.16900 42.98200
H  0.08400 -4.36700 42.73900
H  -0.26200 -6.73100 44.50900
H  0.45900 -7.18500 42.95600
H  -1.14400 -6.46600 42.93100
H  5.36500 -4.45300 46.07600
H  6.89800 -3.78900 46.00500
H  6.35000 -4.72500 44.59700
H  7.76000 0.58500 42.56900
H  9.03500 3.83000 45.26700
H  7.27500 4.09500 45.23000
H  8.22600 4.63400 43.80600
Mg 29.97000 59.00800 39.88900
C  27.41600 56.95900 38.55600
C  32.20000 56.40300 38.78200
C  32.67200 61.22600 40.01400
C  27.74300 61.65400 40.22600
N  29.87600 56.85800 38.89400
C  28.69900 56.30400 38.37400
C  29.00900 54.97200 37.59600
C  30.52000 54.74700 38.00900
C  30.85800 56.08400 38.57200
C  30.81800 53.45300 38.86700
C  28.78400 55.16900 36.06200
C  28.12300 53.95600 35.35100
H  26.92400 54.24900 34.41400
N  32.14500 58.74300 39.69400
C  32.81600 57.58600 39.28300
C  34.23100 57.77800 39.39900
C  34.45700 59.19200 39.74200
C  33.06900 59.81400 39.81800
C  35.21700 56.65700 39.15700
C  35.71600 59.82800 39.96600
O  36.81800 59.25100 39.78000
C  35.78700 61.26400 40.36700
N  30.15900 61.14000 40.09400
C  31.39700 61.79900 40.21000
C  31.28900 63.30200 40.27400
C  29.70900 63.33700 40.62900
C  29.11900 61.98100 40.26900
C  32.22000 63.88300 41.37900
C  28.99700 64.59300 40.03600
C  28.42900 65.63000 41.00100
N  27.97000 59.21400 39.69200
C  27.18900 60.32800 39.84200
C  25.85300 59.99000 39.60500
C  25.84100 58.65400 39.11900
C  27.22600 58.26500 39.06500
C  24.68100 60.86300 39.64900
C  25.03700 57.49300 38.63100
O  23.81000 57.37700 38.53600
C  26.05200 56.33900 38.29700
C  25.65500 55.18400 39.21600
O  25.55200 55.18200 40.41200
O  25.42300 54.06400 38.46000
C  24.87700 52.93500 39.23900
H  32.86100 55.60300 38.44000
H  33.46700 61.96900 39.92900
H  27.08300 62.49600 40.44700
H  28.36800 54.15300 37.92100
H  31.22900 54.59700 37.19600
H  29.84700 52.96300 38.94800
H  31.20400 53.72500 39.84900
H  31.62900 52.81900 38.50900
H  29.70900 55.33600 35.51100
H  28.18300 56.05300 35.84700
H  27.83800 53.22700 36.11000
H  28.98400 53.57800 34.80000
H  34.99900 55.66000 39.53800
H  36.18900 56.90900 39.58100
H  35.34700 56.47000 38.09100
H  36.79900 61.55400 40.64800
H  35.04500 61.47600 41.13600
H  35.53000 61.94100 39.55200
H  31.57600 63.57700 39.25900
H  29.55600 63.47200 41.70000
H  32.71000 63.06100 41.90100
H  31.70900 64.48300 42.13200
H  32.97500 64.54100 40.94700
H  28.27500 64.22100 39.30900
H  29.62600 65.11700 39.31800
H  28.56100 66.57700 40.47700
H  29.05600 65.57500 41.89100
H  27.45000 65.23700 41.27500
H  24.90400 61.84900 40.05600
H  23.85300 60.41700 40.20000
H  24.37200 60.97000 38.60900
H  25.88000 56.11500 37.24400
H  24.56700 52.19200 38.50400
H  23.90200 53.22000 39.63400
H  25.61400 52.59600 39.96700

