158

Mg 49.53000 35.18900 27.86500
C  47.14800 34.03000 30.32100
C  49.90700 37.99000 29.74300
C  51.29700 36.31000 25.34300
C  48.70600 32.30900 25.93600
N  48.63000 35.89200 29.94200
C  47.87200 35.20300 30.80400
C  48.00700 35.83700 32.18000
C  48.46900 37.35400 31.87500
C  49.09400 37.04100 30.44600
C  47.41200 38.50100 31.85500
C  49.12400 35.13200 33.07600
C  48.92400 35.17400 34.55400
H  48.10100 36.36500 35.20900
N  50.38700 36.90500 27.56200
C  50.52200 37.92500 28.43800
C  51.39300 38.95200 27.92100
C  51.83900 38.52300 26.64000
C  51.16700 37.21800 26.42200
C  51.47600 40.27400 28.66000
C  52.90900 39.17300 25.75900
O  53.30500 38.77700 24.62800
C  53.65900 40.31600 26.41700
N  49.87000 34.35800 25.83600
C  50.79300 35.05900 25.09900
C  51.29900 34.13800 23.96500
C  50.58700 32.74900 24.20400
C  49.63200 33.12200 25.31800
C  51.18800 34.83300 22.56600
C  51.60000 31.61900 24.65900
C  51.29700 30.27300 24.04700
N  48.22200 33.51400 28.00100
C  48.00600 32.43900 27.16600
C  47.08900 31.47500 27.82600
C  46.70700 32.04300 29.03500
C  47.39900 33.29300 29.09500
C  46.74600 30.09900 27.26100
C  45.82300 31.94200 30.24500
O  45.02200 31.03300 30.53500
C  46.03900 33.18000 31.17200
C  46.40300 32.80400 32.54800
O  47.30100 32.05400 32.84700
O  45.56900 33.42100 33.39200
C  45.61600 33.20400 34.80700
H  50.20500 38.83100 30.37300
H  52.13800 36.57500 24.69900
H  48.54600 31.44300 25.29000
H  47.03700 35.78500 32.67500
H  49.28900 37.73300 32.48500
H  47.30900 38.68300 30.78600
H  47.63900 39.38400 32.45300
H  46.50000 38.07900 32.27700
H  50.02700 35.59800 32.68100
H  49.04100 34.06800 32.85500
H  49.81700 35.19900 35.17800
H  48.52000 34.18300 34.75900
H  51.68300 41.09300 27.97100
H  52.15800 40.27900 29.51000
H  50.56200 40.61100 29.14900
H  53.15000 41.23400 26.12400
H  54.57500 40.33800 25.82700
H  53.79400 40.10700 27.47800
H  52.35800 34.13600 24.21900
H  49.91000 32.38700 23.43000
H  52.18800 34.94400 22.14500
H  50.68900 35.80000 22.62100
H  50.74700 34.22700 21.77500
H  51.74700 31.50800 25.73400
H  52.54600 31.93000 24.21700
H  51.26200 29.56400 24.87400
H  52.11200 30.01000 23.37300
H  50.36800 30.29300 23.47600
H  47.16500 29.87200 26.28100
H  45.66300 29.98300 27.22100
H  47.21900 29.46100 28.00800
H  45.13100 33.78200 31.21200
H  46.62800 33.51700 35.06600
H  45.44900 32.13700 34.95600
H  44.90000 33.80300 35.36900
Mg 43.60400 42.34300 26.37200
C  42.80300 44.64900 28.88500
C  45.46600 40.51700 28.72700
C  44.61700 40.36400 24.03100
C  42.14900 44.44800 24.01300
N  44.12300 42.57600 28.53900
C  43.56300 43.58600 29.37800
C  44.00200 43.41000 30.83100
C  44.84900 42.12600 30.73900
C  44.85700 41.66600 29.32600
C  46.17300 42.04600 31.51400
C  42.89800 43.34500 31.90000
C  43.35700 44.06600 33.12600
H  42.48500 44.48300 34.31800
N  44.67800 40.58600 26.36900
C  45.45100 40.03000 27.36000
C  46.02300 38.76700 26.87700
C  45.61700 38.64900 25.50200
C  44.88400 39.88700 25.24900
C  46.67400 37.86100 27.84600
C  45.96500 37.57800 24.49900
O  45.47100 37.49900 23.34400
C  46.78400 36.39500 24.98600
N  43.59200 42.54100 24.27900
C  44.04100 41.51800 23.53600
C  43.90600 41.78600 22.00900
C  42.81700 42.92700 22.06600
C  42.93800 43.36300 23.50200
C  45.31500 42.25800 21.47700
C  41.48600 42.46100 21.43700
C  40.79400 41.31100 22.33700
N  42.75600 44.18900 26.41300
C  42.20900 44.93000 25.36900
C  41.62700 46.16000 25.89000
C  41.77600 46.11600 27.23100
C  42.49500 44.90600 27.49300
C  41.05800 47.29900 25.12200
C  41.61100 46.82600 28.50900
O  41.07500 47.89500 28.83500
C  42.30200 45.91300 29.64700
C  43.37900 46.67700 30.41900
O  44.54900 46.86200 30.09800
O  42.80100 47.23600 31.50500
C  43.78400 48.00400 32.27300
H  45.91800 39.95700 29.54900
H  45.00300 39.80400 23.17700
H  41.65000 45.06700 23.26300
H  44.73300 44.17900 31.08000
H  44.15500 41.36900 31.10400
H  45.99500 41.49900 32.44100
H  46.43800 43.02900 31.90300
H  46.99400 41.66400 30.90800
H  42.77800 42.31500 32.23500
H  41.90300 43.62400 31.55300
H  43.77000 45.02600 32.81500
H  44.21100 43.59500 33.61300
H  46.59800 38.23000 28.86800
H  47.73800 37.78500 27.62400
H  46.12300 36.92100 27.89400
H  46.41500 36.00500 25.93500
H  47.81300 36.73000 25.11700
H  46.76100 35.59900 24.24200
H  43.50700 40.88300 21.54700
H  43.12500 43.82400 21.52900
H  45.04200 42.95800 20.68700
H  45.87200 41.40300 21.09300
H  45.98500 42.64400 22.24500
H  41.81100 42.13400 20.44900
H  40.85900 43.34600 21.33200
H  40.05200 41.75900 22.99700
H  41.50900 40.75400 22.94300
H  40.45600 40.50900 21.68100
H  41.90400 47.96300 24.94600
H  40.49200 47.89200 25.84100
H  40.42700 47.17800 24.24100
H  41.51900 45.63600 30.35300
H  44.64000 47.40100 32.57600
H  43.30400 48.28000 33.21200
H  44.29800 48.77800 31.70300

