158

Mg 24.36900 -5.59400 47.06800
C  26.25600 -3.40100 45.15200
C  21.75200 -5.04100 44.91000
C  22.83200 -8.26300 48.45400
C  27.48400 -6.81300 48.50600
N  24.10200 -4.52400 45.18300
C  24.93100 -3.54000 44.67100
C  24.29500 -2.66200 43.58800
C  22.85000 -3.22200 43.60300
C  22.89500 -4.31100 44.64400
C  21.72600 -2.21200 43.87800
C  25.00400 -2.61300 42.16600
C  25.18000 -1.11200 41.66100
H  25.37800 -0.96300 40.09000
N  22.53500 -6.46400 46.79000
C  21.62000 -6.10300 45.86000
C  20.44100 -6.90900 46.10200
C  20.68200 -7.80300 47.14300
C  22.11800 -7.51400 47.55100
C  19.15200 -6.56000 45.33000
C  19.70900 -8.80100 47.74600
O  18.59500 -8.82700 47.17000
C  19.93200 -9.69500 48.90500
N  25.08100 -7.46300 48.10700
C  24.19400 -8.30200 48.65600
C  24.90800 -9.37900 49.55000
C  26.27200 -8.78100 49.71900
C  26.33900 -7.64000 48.65900
C  24.31600 -9.75000 50.92800
C  27.40200 -9.86800 49.65400
C  27.88100 -10.62100 50.90400
N  26.39600 -5.10800 47.05800
C  27.50100 -5.60900 47.70600
C  28.64500 -4.91000 47.35500
C  28.20900 -3.97500 46.39200
C  26.81100 -4.18700 46.16500
C  30.08400 -5.12200 47.91900
C  28.65500 -2.94400 45.50200
O  29.78500 -2.53900 45.34700
C  27.34400 -2.49800 44.73100
C  27.12800 -1.06000 45.05300
O  26.29300 -0.63400 45.81700
O  27.86700 -0.22100 44.34700
C  27.84000 1.20300 44.66900
H  20.88000 -4.83300 44.28600
H  22.37600 -9.16700 48.86200
H  28.44400 -7.02000 48.98300
H  24.24400 -1.67400 44.04600
H  22.63300 -3.66000 42.62900
H  21.03400 -2.21200 43.03600
H  22.07100 -1.19200 44.04700
H  21.22100 -2.53000 44.79100
H  24.40100 -3.09100 41.39400
H  25.92800 -3.19200 42.16400
H  26.12700 -0.70400 42.01500
H  24.27000 -0.65800 42.05500
H  18.87000 -7.34700 44.63100
H  19.18000 -5.71900 44.63700
H  18.42600 -6.39100 46.12500
H  18.96900 -10.16200 49.11200
H  20.38500 -9.14900 49.73200
H  20.67000 -10.48300 48.75300
H  25.04300 -10.25900 48.92100
H  26.42100 -8.23500 50.65000
H  23.49300 -9.08300 51.18400
H  24.95500 -9.65300 51.80600
H  23.97600 -10.78500 50.95400
H  28.27600 -9.32100 49.30100
H  27.15100 -10.65900 48.94700
H  28.92500 -10.42800 51.15200
H  27.84100 -11.70500 50.79300
H  27.27400 -10.46700 51.79600
H  30.82300 -4.60500 47.30600
H  30.13600 -6.21000 47.96100
H  30.05900 -4.65800 48.90500
H  27.53900 -2.52000 43.65900
H  28.63400 1.36900 45.39800
H  26.88100 1.51800 45.08000
H  28.23600 1.75100 43.81400
Mg 40.84200 9.27900 29.22800
C  42.46300 10.76600 31.96700
C  38.54400 7.99900 31.45600
C  39.12300 8.07100 26.60300
C  43.38000 10.41400 27.28000
N  40.60300 9.38300 31.44700
C  41.38500 10.06100 32.39900
C  40.77000 10.02500 33.77400
C  39.67300 8.90900 33.54100
C  39.54900 8.74300 32.02700
C  40.01300 7.61800 34.30800
C  40.19500 11.26800 34.45300
C  39.76300 11.21600 35.92800
H  40.24300 12.41700 36.77100
N  39.00500 8.22800 29.05900
C  38.23900 7.79600 30.05000
C  37.03300 7.17100 29.52700
C  37.06400 7.40900 28.08300
C  38.43600 7.94900 27.83400
C  36.00200 6.60200 30.40500
C  36.02300 7.15700 27.07400
O  36.19400 7.26100 25.86900
C  34.73800 6.79200 27.50400
N  41.24400 9.11900 27.28000
C  40.39900 8.63100 26.37300
C  41.01800 8.61400 24.94200
C  42.31900 9.49300 25.19700
C  42.32600 9.78600 26.67600
C  41.12300 7.16800 24.35600
C  42.41000 10.83900 24.37600
C  41.56500 12.09300 24.87900
N  42.63000 10.20600 29.51100
C  43.52500 10.62000 28.60900
C  44.55600 11.39800 29.23700
C  44.17200 11.54800 30.55600
C  42.97500 10.80800 30.70500
C  45.77000 11.87000 28.47700
C  44.56000 12.02600 31.86400
O  45.57400 12.67800 32.17200
C  43.38200 11.59700 32.86100
C  44.01000 10.82500 33.98800
O  44.90700 10.06600 33.86400
O  43.58000 11.22300 35.13800
C  44.15300 10.80700 36.40000
H  37.80400 7.56200 32.12900
H  38.63400 7.65400 25.72000
H  44.15000 10.92800 26.70200
H  41.45700 9.64900 34.53300
H  38.75200 9.30500 33.97000
H  41.03100 7.65000 34.69600
H  39.99900 6.76300 33.63100
H  39.30200 7.41700 35.11000
H  39.37900 11.59100 33.80600
H  40.91600 12.05700 34.23600
H  39.97700 10.24700 36.37900
H  38.68600 11.33400 36.04100
H  36.52100 6.24600 31.29400
H  35.50500 5.73700 29.96600
H  35.27400 7.39500 30.57900
H  34.63200 5.70700 27.52700
H  33.99400 7.09100 26.76600
H  34.41000 7.27400 28.42400
H  40.30400 9.20300 24.36600
H  43.15000 8.84000 24.92800
H  40.65100 7.19900 23.37400
H  40.62800 6.44600 25.00500
H  42.18600 6.93000 24.40400
H  42.20100 10.70700 23.31400
H  43.45600 11.13000 24.47700
H  40.95000 11.67000 25.67300
H  41.10900 12.37600 23.93000
H  42.22500 12.89400 25.21000
H  46.24200 11.05500 27.92900
H  46.46100 12.16800 29.26500
H  45.59000 12.65500 27.74300
H  42.98600 12.54100 33.23600
H  45.22000 10.61900 36.27900
H  43.68000 9.88300 36.73100
H  43.87800 11.53900 37.15900

