158

Mg 49.63500 46.89300 42.59100
C  46.37000 47.08300 41.24600
C  49.67600 43.51200 41.90600
C  53.04800 47.01100 42.88400
C  49.56900 50.41700 43.06700
N  48.20700 45.57100 41.64600
C  46.92300 45.76700 41.18600
C  46.18900 44.40500 40.81700
C  47.29400 43.36600 41.12500
C  48.51700 44.20300 41.64900
C  46.95200 42.26200 42.20900
C  45.79300 44.52700 39.27600
C  44.38600 43.97600 38.88200
H  43.97500 44.35600 37.44400
N  51.14500 45.48200 42.52900
C  50.89200 44.16600 42.30000
C  52.13600 43.43300 42.52100
C  53.14800 44.44700 42.72200
C  52.46100 45.74100 42.74200
C  52.26000 41.90700 42.62600
C  54.64200 44.08600 42.82700
O  55.02700 42.91600 42.74900
C  55.76500 45.12000 43.00400
N  51.05900 48.46900 42.91900
C  52.37300 48.22400 43.03700
C  53.18200 49.46800 43.53200
C  52.05700 50.67000 43.49900
C  50.82300 49.79900 43.21500
C  53.81800 49.27400 44.95600
C  52.35900 51.91300 42.55300
C  53.25900 53.04300 43.15900
N  48.20600 48.54300 42.29100
C  48.30600 49.89600 42.52300
C  46.98400 50.49800 42.23000
C  46.21600 49.43700 41.75900
C  46.99300 48.25400 41.77400
C  46.60700 51.85600 42.46300
C  44.92300 49.12600 41.14100
O  44.05600 49.86000 40.72900
C  44.93800 47.55800 40.89800
C  43.91300 46.90800 41.80700
O  44.06500 46.61100 42.95900
O  42.65700 46.88300 41.29100
C  41.55000 46.93200 42.15400
H  49.84300 42.45000 41.71800
H  54.12000 47.21700 42.90800
H  49.59700 51.49500 43.23900
H  45.31800 44.32500 41.46800
H  47.55200 42.83600 40.20800
H  47.19500 41.25300 41.87500
H  45.87200 42.36200 42.31700
H  47.36400 42.43800 43.20300
H  46.46200 43.80200 38.81300
H  46.01800 45.49100 38.82000
H  43.59800 44.51100 39.41200
H  44.27300 42.89900 39.00900
H  52.93800 41.69700 43.45300
H  52.66600 41.49000 41.70500
H  51.38300 41.40400 43.03400
H  55.75600 45.76600 42.12600
H  56.71500 44.60500 43.14300
H  55.60600 45.74300 43.88400
H  53.98000 49.63200 42.80800
H  51.84700 51.05900 44.49600
H  53.46900 49.98700 45.70200
H  54.88500 49.38400 44.76100
H  53.52700 48.30400 45.35900
H  51.40300 52.27400 42.17400
H  52.85200 51.57100 41.64200
H  53.87300 52.65000 43.96900
H  52.59900 53.90300 43.27300
H  54.00200 53.39000 42.44000
H  47.18500 52.61300 41.93300
H  46.66500 51.99400 43.54200
H  45.53800 51.98000 42.28900
H  44.74100 47.40700 39.83600
H  41.39400 47.98900 42.37100
H  41.43000 46.27700 43.01700
H  40.75700 46.56700 41.50100
Mg 42.53700 41.50600 26.40600
C  41.72900 43.93200 28.68700
C  43.59100 39.42500 29.19400
C  43.60800 39.08900 24.31100
C  42.09100 43.76600 23.87100
N  42.65400 41.71600 28.67700
C  42.21900 42.77900 29.32100
C  42.15500 42.45700 30.86400
C  43.01900 41.17800 31.03600
C  43.12600 40.71700 29.53600
C  44.35500 41.50800 31.68300
C  40.69600 42.37300 31.51600
C  40.27400 43.50400 32.47100
H  39.58900 43.04000 33.76300
N  43.34900 39.45700 26.70000
C  43.74000 38.86600 27.90700
C  44.13700 37.55800 27.60200
C  44.01300 37.38000 26.21800
C  43.66100 38.67800 25.66400
C  44.56000 36.53700 28.61200
C  44.13500 36.07000 25.41000
O  44.07200 36.02400 24.19800
C  44.48300 34.84100 26.08700
N  42.91200 41.48400 24.45100
C  43.19100 40.32900 23.72300
C  43.16900 40.60300 22.21500
C  42.69300 42.09600 22.04300
C  42.55300 42.51200 23.51300
C  44.56400 40.31000 21.54400
C  41.40500 42.36100 21.32500
C  41.36700 43.65600 20.37700
N  41.89600 43.44000 26.22500
C  41.85500 44.26300 25.16100
C  41.25200 45.54400 25.63600
C  41.25900 45.46400 26.97300
C  41.66000 44.19000 27.31200
C  40.96000 46.71500 24.77700
C  40.99400 46.20300 28.20200
O  40.73200 47.37000 28.33500
C  41.23500 45.19200 29.39600
C  42.12800 45.90800 30.32700
O  43.32600 46.06800 30.21200
O  41.40600 46.40200 31.38200
C  42.20900 47.01600 32.44200
H  43.95400 38.88400 30.07000
H  43.89600 38.37400 23.53800
H  41.91200 44.47700 23.06100
H  42.66700 43.29300 31.33800
H  42.49400 40.43000 31.63000
H  44.46800 42.57300 31.88800
H  45.24600 41.10300 31.20300
H  44.44900 41.11200 32.69500
H  40.63200 41.39500 31.99200
H  40.01900 42.30100 30.66500
H  39.55400 44.24500 32.12300
H  41.19200 44.05300 32.68100
H  44.53800 36.87000 29.65000
H  45.57500 36.20600 28.39300
H  43.90900 35.67000 28.73300
H  43.74900 34.68400 26.87800
H  45.40600 34.88500 26.66500
H  44.61600 33.95100 25.47200
H  42.46300 39.99000 21.65500
H  43.54700 42.68900 21.71600
H  45.26800 39.88700 22.26000
H  44.91300 41.19600 21.01300
H  44.44600 39.50000 20.82400
H  40.61500 42.29900 22.07300
H  41.16300 41.46000 20.76100
H  41.13100 43.37300 19.35200
H  42.32300 44.16700 20.48800
H  40.63000 44.38200 20.72000
H  41.65900 47.50400 25.05400
H  39.95900 47.02300 25.07900
H  41.10500 46.54200 23.71100
H  40.26800 44.93900 29.83000
H  43.29600 47.05600 32.38100
H  42.01300 46.41200 33.32800
H  41.97300 48.07600 32.53500

