158

Mg 44.57400 5.23000 48.46600
C  42.86900 8.14500 47.44100
C  41.69600 3.48800 47.79500
C  46.34300 2.35400 48.75000
C  47.47100 7.10300 48.91100
N  42.55500 5.74700 47.74600
C  42.10800 6.98600 47.37500
C  40.66200 6.98400 46.94300
C  40.23100 5.50100 47.22100
C  41.51600 4.85800 47.64100
C  39.04100 5.37200 48.22700
C  40.48900 7.34600 45.40000
C  39.34300 8.29700 45.18700
H  38.26200 7.99900 44.03800
N  44.11600 3.14700 48.25500
C  42.83900 2.67600 48.05800
C  42.91300 1.27800 48.04800
C  44.24000 0.84600 48.18700
C  44.98000 2.12500 48.34000
C  41.76700 0.43500 47.80800
C  44.70600 -0.57300 48.26400
O  43.91800 -1.48500 48.19200
C  46.10100 -0.82500 48.34900
N  46.62400 4.78200 48.71700
C  47.12500 3.52200 48.90700
C  48.70900 3.44400 49.12200
C  49.02200 4.97500 49.04300
C  47.59400 5.70300 48.93100
C  49.08300 2.80500 50.49400
C  50.05200 5.38200 47.88800
C  51.37500 6.04300 48.26000
N  45.10300 7.24700 48.33900
C  46.28500 7.87500 48.52400
C  46.13500 9.28200 48.34700
C  44.81600 9.36100 47.96800
C  44.21200 8.16000 47.93300
C  47.26100 10.25500 48.55500
C  43.81000 10.25500 47.40500
O  43.97200 11.43400 47.17400
C  42.52100 9.55800 47.09200
C  41.46700 10.15600 47.94700
O  41.16700 9.66900 49.05400
O  40.75900 11.11800 47.23300
C  39.43300 11.42700 47.79900
H  40.77900 3.00300 47.45600
H  47.08100 1.54900 48.78100
H  48.34600 7.75700 48.90200
H  40.02500 7.63500 47.54000
H  39.93200 4.99800 46.30100
H  39.35000 4.82500 49.11800
H  38.36800 4.79600 47.59200
H  38.64100 6.33200 48.55300
H  40.40200 6.41000 44.84800
H  41.40100 7.86400 45.10200
H  39.77400 9.29100 45.06400
H  38.80100 8.19800 46.12800
H  42.15400 -0.42000 47.25300
H  40.95100 0.92100 47.27300
H  41.40900 0.14700 48.79600
H  46.27100 -1.88700 48.52400
H  46.47400 -0.32100 49.24100
H  46.47200 -0.41300 47.41100
H  49.08400 2.87400 48.27200
H  49.52500 5.23900 49.97300
H  49.23600 1.74000 50.32100
H  48.33300 3.00800 51.25900
H  49.99600 3.22600 50.91600
H  49.57000 6.10600 47.23000
H  50.14700 4.43800 47.35200
H  52.23100 5.48600 47.88100
H  51.43600 6.14400 49.34400
H  51.38300 7.02200 47.78100
H  47.85300 9.93200 49.41100
H  46.83200 11.23900 48.74000
H  47.91500 10.27000 47.68300
H  42.34200 9.72700 46.03000
H  38.89400 10.48500 47.89300
H  38.79200 11.97000 47.10500
H  39.53300 11.93400 48.75900
Mg -5.03300 25.23900 26.22300
C  -3.58600 26.55900 29.12800
C  -6.83400 23.02500 28.21100
C  -6.00400 23.61100 23.40000
C  -2.72500 27.15900 24.42300
N  -5.18700 24.95100 28.41100
C  -4.52000 25.58100 29.41700
C  -5.14400 25.22700 30.77300
C  -5.97700 23.92600 30.48300
C  -5.97000 23.95000 28.94400
C  -5.26400 22.66800 31.08800
C  -5.92300 26.36200 31.42000
C  -5.51100 26.81100 32.89100
H  -5.12800 25.71000 33.88000
N  -6.32300 23.67700 25.84000
C  -7.03900 22.94600 26.80300
C  -7.90000 21.93700 26.08500
C  -7.74100 22.13400 24.66500
C  -6.63600 23.17300 24.55100
C  -8.86000 20.97900 26.83000
C  -8.53900 21.55200 23.46600
O  -8.30000 21.87100 22.34000
C  -9.73500 20.63600 23.74700
N  -4.47600 25.34600 24.21600
C  -5.04700 24.60800 23.22600
C  -4.37800 24.77600 21.89400
C  -3.54200 26.08600 22.13800
C  -3.54400 26.21100 23.68800
C  -3.54600 23.55200 21.36600
C  -4.04900 27.40800 21.48900
C  -3.22800 28.01300 20.32200
N  -3.46600 26.65400 26.61600
C  -2.63800 27.36000 25.81400
C  -1.73600 28.20400 26.58200
C  -2.04500 27.93800 27.83700
C  -3.08400 26.95000 27.83200
C  -0.89400 29.22000 25.95100
C  -1.70000 28.26900 29.24200
O  -0.84900 29.04200 29.70600
C  -2.73700 27.35200 30.09500
C  -1.87100 26.45300 31.01600
O  -1.35600 25.35000 30.77000
O  -1.86900 27.11900 32.25800
C  -1.15100 26.47500 33.38600
H  -7.27700 22.22300 28.80500
H  -6.27900 23.13700 22.45500
H  -2.06400 27.80700 23.84300
H  -4.31600 25.06500 31.46200
H  -7.04200 23.91000 30.71600
H  -6.15000 22.07700 31.31900
H  -4.64900 22.83700 31.97200
H  -4.58700 22.23600 30.35200
H  -6.98500 26.11400 31.40100
H  -5.91400 27.29300 30.85200
H  -6.41100 27.19400 33.37200
H  -4.76800 27.60900 32.89000
H  -8.73000 19.97000 26.43900
H  -9.90900 21.26900 26.78300
H  -8.51700 20.91600 27.86300
H  -10.45500 21.04900 24.45300
H  -9.32600 19.68300 24.08400
H  -10.17500 20.52800 22.75500
H  -5.11900 25.00600 21.12900
H  -2.55700 25.94300 21.69400
H  -3.61400 22.66300 21.99300
H  -2.52100 23.91100 21.27100
H  -4.02100 23.21800 20.44300
H  -4.29500 28.14800 22.25000
H  -5.06400 27.16400 21.17700
H  -2.45300 27.29100 20.06700
H  -2.96300 29.02900 20.61800
H  -3.77300 28.16900 19.39200
H  -0.23400 28.68100 25.27100
H  -0.42800 29.75700 26.77700
H  -1.57300 29.79900 25.32500
H  -3.40800 27.91400 30.74500
H  -0.12000 26.46600 33.03300
H  -1.42000 25.44700 33.63300
H  -1.33400 27.13300 34.23500

