158

Mg 3.04300 -0.99900 43.68100
C  6.45500 -0.18900 42.98000
C  2.16400 1.50300 41.55400
C  -0.18600 -2.16900 43.83800
C  4.19500 -3.72100 45.52000
N  4.19500 0.32700 42.23800
C  5.54300 0.50300 42.13500
C  5.84700 1.61400 41.14700
C  4.50300 2.32500 40.94100
C  3.53600 1.42400 41.71200
C  4.43000 3.84000 41.26800
C  6.58000 1.20500 39.78400
C  7.66300 2.15900 39.38100
H  7.46800 2.83500 38.04500
N  1.25100 -0.37300 42.93500
C  1.10900 0.72300 42.08400
C  -0.32900 1.02000 41.93700
C  -1.05400 0.01400 42.71000
C  -0.01100 -0.94000 43.18700
C  -0.90000 2.16600 41.12900
C  -2.64300 -0.06300 42.91900
O  -3.23300 0.83900 42.32400
C  -3.36900 -1.08800 43.86700
N  2.12600 -2.75600 44.42700
C  0.78100 -2.99900 44.47100
C  0.54400 -4.47900 44.85900
C  1.83400 -4.75800 45.66600
C  2.79300 -3.71000 45.16800
C  -0.88200 -4.75300 45.53900
C  2.43000 -6.23500 45.52600
C  1.73600 -7.32800 44.72200
N  4.85900 -1.75900 44.23600
C  5.20600 -2.87900 45.04200
C  6.67200 -2.90100 45.29700
C  7.07900 -1.78200 44.51100
C  6.00900 -1.21700 43.85000
C  7.46600 -3.86700 46.04600
C  8.30100 -1.09700 44.15600
O  9.47200 -1.38600 44.37500
C  7.97000 0.02400 43.23900
C  8.27600 1.25400 43.93500
O  7.61500 1.60600 44.90100
O  9.22900 1.95400 43.28800
C  9.56500 3.27100 43.81500
H  1.92600 2.36000 40.92100
H  -1.23300 -2.44900 43.97100
H  4.47400 -4.46200 46.27200
H  6.44500 2.28600 41.76300
H  4.07600 2.28500 39.93900
H  5.38000 4.37200 41.30300
H  3.90200 3.92200 42.21800
H  3.94100 4.42500 40.48900
H  5.89700 1.01600 38.95600
H  7.05000 0.22700 39.89600
H  8.55700 1.54300 39.28400
H  7.88400 2.96700 40.07800
H  -0.21200 2.73600 40.50500
H  -1.42800 2.81100 41.83100
H  -1.51100 1.74000 40.33300
H  -4.41800 -0.84600 44.03900
H  -2.91200 -1.07300 44.85700
H  -3.26400 -2.10100 43.47800
H  0.56100 -5.10300 43.96600
H  1.55200 -4.57200 46.70300
H  -0.80500 -5.18800 46.53500
H  -1.34900 -5.55300 44.96500
H  -1.49600 -3.85600 45.61600
H  2.49100 -6.66100 46.52700
H  3.38900 -6.22800 45.00900
H  1.97900 -8.29900 45.15300
H  2.05300 -7.41700 43.68300
H  0.67100 -7.15400 44.56500
H  6.84500 -4.61600 46.53700
H  8.13300 -3.36000 46.74300
H  8.00300 -4.36600 45.23900
H  8.53100 -0.01100 42.30500
H  9.16200 4.09400 43.22500
H  10.63900 3.30300 43.63300
H  9.36200 3.30900 44.88500
Mg -1.71900 35.11400 25.99200
C  -3.17700 33.35200 28.78300
C  -0.72100 37.56000 28.36200
C  -0.69300 36.90400 23.45300
C  -3.32100 32.90800 23.93100
N  -1.94700 35.38700 28.38100
C  -2.57100 34.51600 29.27600
C  -2.40200 35.04100 30.73100
C  -1.69800 36.42200 30.46600
C  -1.46400 36.51400 28.90800
C  -2.35300 37.57700 31.20000
C  -1.65000 34.02400 31.68200
C  -2.30800 33.41600 32.96700
H  -1.53400 33.29500 34.25600
N  -0.77800 36.90200 25.97600
C  -0.36300 37.69200 27.00800
C  0.26100 38.86000 26.39700
C  0.34400 38.64500 24.96600
C  -0.39300 37.43700 24.71200
C  0.93500 39.96700 27.19500
C  1.09400 39.50700 23.92500
O  1.23500 39.27300 22.71200
C  1.93900 40.68700 24.45300
N  -2.13600 34.97400 23.97200
C  -1.46400 35.80600 23.08200
C  -1.69800 35.38600 21.62200
C  -2.21000 33.92900 21.76700
C  -2.61000 33.88800 23.28300
C  -2.65800 36.24400 20.86200
C  -1.15800 32.84000 21.42800
C  0.20800 32.92000 22.10100
N  -2.93900 33.51300 26.28100
C  -3.55500 32.72700 25.27000
C  -4.28900 31.67400 25.86800
C  -4.16700 31.91600 27.23400
C  -3.34000 33.00800 27.44400
C  -5.11000 30.56900 25.21500
C  -4.57600 31.39700 28.51000
O  -5.24900 30.40500 28.86700
C  -3.97100 32.37000 29.61900
C  -5.09700 32.93500 30.37500
O  -5.78900 33.90300 30.00700
O  -5.32700 32.18400 31.51500
C  -6.36900 32.68500 32.43300
H  -0.31600 38.30100 29.05500
H  -0.26100 37.39900 22.58100
H  -3.89400 32.24100 23.28400
H  -3.43100 35.14900 31.07100
H  -0.70500 36.28100 30.89300
H  -2.57900 38.45400 30.59400
H  -1.55700 37.94100 31.85000
H  -3.16700 37.33200 31.88200
H  -0.67300 34.39700 31.99000
H  -1.33300 33.12900 31.14800
H  -2.67100 32.45100 32.61300
H  -3.22700 33.99500 33.06800
H  2.02100 39.90900 27.11800
H  0.74500 39.77200 28.25100
H  0.55800 40.93200 26.85700
H  2.37300 41.15700 23.57000
H  2.77600 40.42600 25.10000
H  1.28200 41.45700 24.85700
H  -0.72500 35.42900 21.13400
H  -3.09200 33.88300 21.12800
H  -2.06700 36.63100 20.03200
H  -2.95100 37.08900 21.48600
H  -3.55300 35.69400 20.57500
H  -1.10100 32.69000 20.34900
H  -1.60200 31.89500 21.73800
H  0.53500 32.17200 22.82300
H  0.38600 33.89600 22.55200
H  0.97400 32.78100 21.33800
H  -4.66800 30.22700 24.28000
H  -6.09700 30.97600 24.99300
H  -5.32500 29.69900 25.83500
H  -3.39800 31.66600 30.22100
H  -7.23800 33.11000 31.93100
H  -6.04900 33.21500 33.32900
H  -6.83900 31.80300 32.86700

