158

Mg 7.97100 2.54300 27.63500
C  9.36200 1.03400 30.44500
C  5.95600 4.35800 29.80600
C  6.38400 3.90400 24.94500
C  9.68200 0.43800 25.64800
N  7.62300 2.56700 29.91100
C  8.38700 1.98700 30.82200
C  7.95800 2.45300 32.24100
C  6.67300 3.36200 32.00300
C  6.70000 3.39500 30.48800
C  5.29300 2.92500 32.52500
C  9.08600 3.07500 33.12900
C  8.63000 3.53300 34.51600
H  9.51000 3.28700 35.72500
N  6.48800 4.04000 27.39000
C  5.78000 4.61300 28.43700
C  4.86800 5.56100 27.90500
C  4.99600 5.51100 26.49500
C  6.05700 4.50100 26.20600
C  3.80500 6.37800 28.73900
C  4.23800 6.30900 25.52500
O  4.43700 6.21500 24.30900
C  3.20600 7.27800 25.86300
N  7.88700 2.12700 25.61800
C  7.20200 2.78800 24.67200
C  7.41000 2.24900 23.26900
C  8.71300 1.32300 23.50700
C  8.84100 1.35800 25.01000
C  6.07000 1.58900 22.71500
C  10.03800 1.89100 22.83700
C  10.85100 0.80100 22.20400
N  9.13300 0.86100 27.95000
C  9.78200 0.15800 27.00000
C  10.75800 -0.68500 27.59200
C  10.61900 -0.43100 28.96600
C  9.57800 0.54200 29.12600
C  11.67400 -1.54200 26.84100
C  11.11300 -0.76500 30.28100
O  12.01500 -1.57500 30.52500
C  10.32200 0.15600 31.36000
C  9.61100 -0.78000 32.29900
O  8.97600 -1.74000 32.02400
O  9.78000 -0.37800 33.58100
C  8.85600 -0.88500 34.59800
H  5.28900 4.88900 30.48800
H  5.96700 4.41900 24.07700
H  10.33900 -0.05800 24.93100
H  7.79400 1.56800 32.85500
H  6.88700 4.31800 32.48200
H  4.59700 2.71500 31.71300
H  4.96900 3.60200 33.31500
H  5.48500 1.97000 33.01500
H  9.45700 3.92300 32.55300
H  9.92100 2.37500 33.15600
H  7.65000 3.10300 34.72400
H  8.43900 4.60500 34.45500
H  3.59800 6.04000 29.75400
H  2.77700 6.29900 28.38500
H  4.07600 7.43200 28.79900
H  2.76500 7.71200 24.96600
H  3.52400 8.09800 26.50700
H  2.32900 6.74100 26.22300
H  7.56700 3.04100 22.53700
H  8.54000 0.26600 23.30700
H  6.18700 0.51100 22.83000
H  5.80900 1.96700 21.72700
H  5.30700 1.85200 23.44700
H  10.64800 2.32400 23.63000
H  9.98600 2.71200 22.12100
H  10.63000 0.77300 21.13700
H  10.64900 -0.19200 22.60400
H  11.89300 1.10700 22.28900
H  12.12800 -2.24200 27.54300
H  12.53400 -1.06900 26.36800
H  11.10200 -2.11900 26.11500
H  10.97300 0.83000 31.91700
H  9.38900 -1.43700 35.37200
H  8.05700 -1.55300 34.27700
H  8.33000 -0.01900 34.99800
Mg 24.54600 1.61300 29.04200
C  26.84300 1.40000 31.67800
C  22.05300 1.81200 31.27600
C  22.54500 1.45400 26.44300
C  27.31700 1.00400 26.89800
N  24.57100 1.65700 31.16300
C  25.60800 1.65000 32.09100
C  25.08400 1.69700 33.51700
C  23.60400 1.69200 33.38400
C  23.35600 1.76300 31.86400
C  22.74800 0.50500 33.96600
C  25.66600 2.86000 34.33700
C  26.33700 2.62500 35.75900
H  26.28900 3.62300 36.87200
N  22.51600 1.63600 28.86200
C  21.65400 1.70900 29.90100
C  20.37200 1.81500 29.41000
C  20.44800 1.63100 27.97700
C  21.85600 1.51300 27.65700
C  19.21500 2.01600 30.33600
C  19.29900 1.55200 26.98900
O  19.49600 1.41700 25.80700
C  17.90300 1.74600 27.41600
N  24.95800 1.35500 26.97000
C  23.89200 1.43900 26.12500
C  24.37100 1.51900 24.62700
C  25.96500 1.35200 24.76800
C  26.11900 1.25500 26.24200
C  23.83200 0.31000 23.79000
C  26.75600 2.50400 24.16600
C  26.60800 3.86200 24.71100
N  26.67800 1.30600 29.18600
C  27.65200 1.00600 28.27800
C  28.89600 0.81200 28.90900
C  28.65300 0.97800 30.28800
C  27.27300 1.27000 30.38600
C  30.18500 0.59500 28.33900
C  29.31400 1.01100 31.56100
O  30.45800 0.87700 31.84000
C  28.10900 1.33300 32.57100
C  28.16600 0.31800 33.60400
O  27.44900 -0.68700 33.75600
O  29.18700 0.61000 34.50400
C  29.25800 -0.23300 35.68300
H  21.21300 1.96800 31.95600
H  21.85500 1.36800 25.60100
H  28.13700 0.93600 26.18000
H  25.31300 0.76700 34.03700
H  23.14200 2.59200 33.79000
H  22.09200 -0.05800 33.30100
H  22.14700 0.82400 34.81800
H  23.42800 -0.30800 34.22000
H  24.89800 3.57500 34.63200
H  26.24800 3.54600 33.72200
H  27.40600 2.43600 35.66300
H  25.87900 1.72300 36.16500
H  18.46200 2.63800 29.85100
H  19.38200 2.31900 31.36900
H  18.67000 1.07800 30.44600
H  17.54800 1.16900 28.27100
H  17.23500 1.33800 26.65800
H  17.95900 2.82500 27.56200
H  23.97900 2.45800 24.23500
H  26.34900 0.42300 24.34700
H  23.48300 -0.43500 24.50400
H  24.51600 -0.23900 23.14200
H  23.05900 0.66200 23.10700
H  26.49600 2.63200 23.11500
H  27.80700 2.23700 24.27000
H  26.06300 3.93700 25.65100
H  26.30300 4.56200 23.93300
H  27.59600 4.21400 25.01000
H  30.99200 1.06300 28.90400
H  30.23100 1.08900 27.36900
H  30.47200 -0.45700 28.34800
H  28.23800 2.25600 33.13600
H  29.25800 -1.29200 35.42400
H  28.32900 0.06400 36.17000
H  29.98000 0.07700 36.43800

