158

Mg 47.10600 24.77000 28.02600
C  48.03400 27.02000 30.63000
C  46.52700 22.46800 30.50500
C  46.82900 22.41200 25.69000
C  48.24300 27.09300 25.73200
N  47.16600 24.89300 30.31100
C  47.51600 25.86100 31.19400
C  47.33300 25.44400 32.66900
C  46.84600 23.99100 32.53900
C  46.91000 23.74700 31.01200
C  47.62400 22.93900 33.44800
C  46.33600 26.37900 33.37800
C  45.56500 25.85800 34.60600
H  45.53800 26.92900 35.78500
N  46.65800 22.70700 28.11100
C  46.51900 21.99200 29.24600
C  46.33100 20.64900 28.94900
C  46.25600 20.54300 27.46400
C  46.58000 21.91500 26.96300
C  46.21200 19.58000 30.00200
C  46.09300 19.33500 26.51100
O  46.21600 19.44400 25.30700
C  45.75800 17.95200 27.08000
N  47.50400 24.74000 26.03900
C  47.28700 23.67900 25.23600
C  47.43700 24.01500 23.74500
C  47.72200 25.59400 23.82400
C  47.81800 25.80400 25.29900
C  48.49300 23.26800 22.85700
C  46.61500 26.43800 23.07900
C  46.14100 25.85800 21.67900
N  47.87600 26.72400 28.05500
C  48.33500 27.49600 27.04000
C  48.91400 28.70300 27.59500
C  48.76700 28.55500 29.02100
C  48.15100 27.28200 29.22100
C  49.74500 29.79900 26.84500
C  49.03900 29.23500 30.29400
O  49.60600 30.27300 30.56500
C  48.47500 28.22200 31.36400
C  49.31900 28.02500 32.60100
O  50.40000 27.35100 32.71800
O  48.83500 28.78900 33.66600
C  49.47000 28.56400 34.97300
H  46.29800 21.84400 31.37100
H  46.84500 21.68600 24.87400
H  48.53700 27.84400 24.99600
H  48.29400 25.55100 33.17200
H  45.79100 23.85200 32.77500
H  47.82500 23.33100 34.44500
H  48.51400 22.57000 32.93800
H  47.04000 22.03000 33.58800
H  45.63800 26.84000 32.67900
H  46.93300 27.21100 33.75100
H  46.04700 24.95800 34.98800
H  44.51400 25.78800 34.32600
H  45.30400 18.99500 29.85600
H  46.38500 19.89100 31.03200
H  46.99800 18.84500 29.83200
H  45.68000 17.20400 26.29100
H  44.74100 18.16000 27.41300
H  46.47000 17.64100 27.84400
H  46.43100 23.97500 23.32800
H  48.62300 25.91500 23.30200
H  49.28500 23.91800 22.48400
H  48.08400 22.80600 21.95800
H  48.84200 22.44700 23.48300
H  46.98200 27.45600 22.95500
H  45.81300 26.47100 23.81600
H  45.16000 25.38600 21.73000
H  46.81000 25.12700 21.22500
H  46.10900 26.64200 20.92300
H  49.94200 29.49100 25.81800
H  50.71100 29.96700 27.32100
H  49.25600 30.76500 26.72300
H  47.63000 28.87800 31.57300
H  50.27400 29.27200 35.17700
H  49.89700 27.56200 35.00000
H  48.75300 28.77200 35.76700
Mg 47.98900 34.27700 26.83100
C  46.11300 32.62200 29.32400
C  47.90300 37.08500 28.83000
C  49.21000 36.00900 24.23300
C  47.15700 31.58300 24.60500
N  47.30500 34.67800 28.96400
C  46.76200 33.81400 29.74300
C  46.72500 34.48700 31.15700
C  47.03400 36.04800 30.94700
C  47.44300 35.95300 29.51000
C  45.69700 36.88000 31.00500
C  47.94200 33.86300 32.04500
C  48.00200 34.33900 33.57500
H  47.08300 35.41300 34.15000
N  48.49600 36.24600 26.53200
C  48.37500 37.22700 27.51200
C  48.93400 38.43900 26.99800
C  49.53000 38.12700 25.75200
C  49.05600 36.80800 25.39100
C  49.10600 39.67000 27.82800
C  50.35000 38.98400 24.90100
O  50.85400 38.57200 23.85400
C  50.85200 40.31400 25.39300
N  48.12300 33.77900 24.80000
C  48.68500 34.73700 23.88300
C  48.74600 34.20700 22.46100
C  48.22700 32.74200 22.59200
C  47.75100 32.67000 24.08200
C  47.96600 35.18500 21.56800
C  49.31900 31.73800 22.25300
C  49.17100 30.99300 20.87700
N  46.95400 32.39000 26.86500
C  46.77100 31.40300 25.94200
C  45.89300 30.35800 26.47300
C  45.58100 30.90200 27.76700
C  46.24800 32.09900 27.99200
C  45.45200 29.10300 25.74800
C  44.81100 30.59000 29.01000
O  44.17500 29.55700 29.31500
C  45.05800 31.78200 30.07100
C  45.29400 31.27800 31.44300
O  46.18100 30.52600 31.72800
O  44.43200 31.89000 32.24700
C  44.58200 31.69600 33.70500
H  47.85600 37.91200 29.54100
H  49.53500 36.64600 23.40800
H  47.02800 30.70300 23.97000
H  45.78100 34.31200 31.67300
H  47.84600 36.44900 31.55400
H  45.25000 37.10800 30.03800
H  45.89200 37.76800 31.60500
H  45.01200 36.38300 31.69300
H  48.83200 34.04000 31.44200
H  47.89900 32.77400 32.04100
H  49.04800 34.38100 33.87900
H  47.65100 33.49800 34.17300
H  50.09100 39.73200 28.29000
H  48.27900 39.79500 28.52700
H  48.86700 40.50500 27.16900
H  49.99700 40.98500 25.47300
H  51.65500 40.68200 24.75400
H  51.34600 40.09500 26.34000
H  49.79300 34.13900 22.16300
H  47.45700 32.51600 21.85500
H  47.84000 36.13400 22.08900
H  46.97200 34.85500 21.26900
H  48.55600 35.39400 20.67600
H  49.48200 31.01000 23.04800
H  50.26300 32.27900 22.32700
H  50.18300 30.97000 20.47300
H  48.42500 31.43600 20.21600
H  48.84400 29.98200 21.11800
H  44.36400 29.05200 25.71900
H  45.91000 28.24900 26.24800
H  45.86500 29.04300 24.74100
H  44.06500 32.23000 30.10400
H  45.64200 31.53500 33.89900
H  44.10300 30.78200 34.05800
H  44.23500 32.56900 34.25700

