158

Mg 47.28000 17.02400 28.18100
C  45.39500 16.69800 31.19300
C  49.66800 18.39200 30.01700
C  48.92900 17.27500 25.36900
C  44.58000 15.72800 26.44300
N  47.50400 17.45900 30.33300
C  46.65000 17.32700 31.40000
C  47.30600 17.80400 32.71200
C  48.54400 18.63000 32.21200
C  48.51900 18.18300 30.76300
C  48.38800 20.18300 32.36200
C  47.72900 16.63300 33.57300
C  48.19100 16.92700 35.06200
H  47.78500 18.26300 35.78400
N  49.06100 17.65500 27.81900
C  49.97000 18.08600 28.65600
C  51.23700 18.39300 27.92300
C  51.03600 18.03200 26.57000
C  49.65100 17.56900 26.57500
C  52.39100 18.87300 28.69800
C  51.96700 18.03700 25.44600
O  51.67400 17.67300 24.30000
C  53.40600 18.56300 25.59800
N  46.92400 16.21900 26.22000
C  47.72400 16.63500 25.22000
C  47.00700 16.49100 23.81800
C  45.56900 15.95300 24.28200
C  45.68200 16.04600 25.71600
C  46.79400 17.84600 23.04800
C  45.14000 14.54500 23.86400
C  45.55500 14.24200 22.45000
N  45.45900 16.30600 28.70100
C  44.47500 15.71100 27.87300
C  43.37800 15.32500 28.70700
C  43.67300 15.66600 30.01100
C  44.94300 16.28800 29.95500
C  42.10800 14.68500 28.13000
C  43.18500 15.54800 31.39500
O  42.10300 15.15100 31.89200
C  44.32900 16.17700 32.23700
C  43.63100 17.24500 33.05700
O  43.51700 18.47500 32.79400
O  43.15700 16.57200 34.18400
C  42.71300 17.58500 35.15100
H  50.41100 18.91200 30.62700
H  49.40000 17.50800 24.41100
H  43.69000 15.40500 25.89900
H  46.63400 18.50000 33.21400
H  49.45600 18.37400 32.75200
H  49.32000 20.47800 32.84400
H  47.63300 20.48900 33.08600
H  48.15900 20.58200 31.37300
H  48.68300 16.30300 33.16200
H  47.04900 15.78400 33.63700
H  49.27800 16.87100 35.12300
H  47.81500 16.12400 35.69500
H  52.13700 18.70500 29.74500
H  52.68400 19.91700 28.58200
H  53.29600 18.34200 28.40200
H  54.02200 17.82700 26.11300
H  53.42200 19.52500 26.11000
H  53.79800 18.66900 24.58600
H  47.56400 15.84900 23.13500
H  44.71800 16.61800 24.13700
H  45.73800 18.09700 22.94800
H  47.23200 17.90800 22.05200
H  47.14100 18.70900 23.61700
H  44.09500 14.24600 23.77900
H  45.63600 13.79600 24.48100
H  46.47600 13.69600 22.65300
H  45.63900 15.08900 21.76900
H  44.94800 13.49900 21.93200
H  41.34000 15.44600 28.26800
H  41.82900 13.75800 28.63100
H  42.28900 14.28900 27.13100
H  44.64100 15.44700 32.98300
H  43.47600 18.33900 35.34900
H  42.56800 17.07400 36.10300
H  41.74400 17.97100 34.83600
Mg 36.15900 49.22900 24.67500
C  36.29300 47.41700 27.79100
C  35.13100 51.94200 26.50900
C  35.40800 50.68500 21.76500
C  36.83900 46.19500 23.08700
N  35.68700 49.60800 26.99700
C  35.89000 48.77200 28.06400
C  35.57200 49.41900 29.34300
C  34.95400 50.83600 28.89500
C  35.21000 50.79000 27.37300
C  33.36800 51.06800 29.22300
C  36.83900 49.57100 30.27300
C  36.64800 49.29700 31.73400
H  35.23600 49.25700 32.23700
N  35.46000 51.04600 24.18600
C  35.27000 52.11100 25.07500
C  35.09400 53.27300 24.33600
C  35.06900 52.94800 22.92300
C  35.33900 51.50700 22.91200
C  34.94100 54.63200 25.06600
C  34.84000 53.82900 21.72000
O  34.96400 53.39300 20.60400
C  34.47900 55.31100 21.70900
N  35.99100 48.54000 22.61500
C  35.79800 49.36700 21.57700
C  36.06600 48.64300 20.27400
C  36.66100 47.27900 20.77200
C  36.40700 47.29900 22.24600
C  34.77000 48.62200 19.44100
C  38.18000 47.03200 20.36300
C  39.29800 47.72400 21.17500
N  36.47500 47.25100 25.24600
C  36.84900 46.13900 24.49600
C  37.41300 45.10100 25.31700
C  37.13900 45.53400 26.64600
C  36.54400 46.81800 26.52700
C  37.97000 43.68900 24.88100
C  37.21100 45.09800 28.04100
O  37.55300 44.02600 28.51700
C  36.73600 46.36700 28.85200
C  35.60700 45.79300 29.59200
O  34.50800 45.60000 29.11600
O  35.97800 45.57100 30.91200
C  34.93200 44.89000 31.71600
H  34.91600 52.83300 27.10400
H  35.18700 51.16700 20.81000
H  37.19700 45.35500 22.48800
H  34.84600 48.76200 29.82200
H  35.59100 51.66300 29.21000
H  32.93900 51.44000 28.29300
H  33.31900 51.78700 30.04200
H  32.93700 50.14300 29.60600
H  37.20300 50.58500 30.10800
H  37.67100 48.92200 29.99900
H  37.25200 49.99700 32.31200
H  37.12600 48.34300 31.95700
H  35.50900 54.55300 25.99300
H  33.91700 54.74600 25.42200
H  35.18500 55.56400 24.55600
H  33.79900 55.51100 22.53700
H  33.94500 55.51000 20.78000
H  35.47200 55.75000 21.80200
H  36.86200 49.20900 19.79000
H  36.10400 46.39800 20.45200
H  34.59700 47.69600 18.89400
H  34.75300 49.37000 18.64800
H  33.93100 48.89700 20.08100
H  38.41800 47.37500 19.35600
H  38.40900 45.97700 20.51300
H  39.95300 48.32100 20.54100
H  39.90700 46.98100 21.69000
H  38.76000 48.27900 21.94300
H  37.67700 42.93300 25.60900
H  39.05100 43.62700 24.75300
H  37.53400 43.53900 23.89300
H  37.48300 46.69200 29.57500
H  34.05500 45.49600 31.48800
H  35.15100 44.95000 32.78200
H  34.77900 43.84800 31.43700

