158

Mg 52.80000 24.05400 43.82800
C  49.85500 25.80800 43.64200
C  51.08100 21.07400 43.16300
C  55.75600 22.56900 43.27600
C  54.43300 27.15700 44.42000
N  50.78100 23.58700 43.27200
C  49.78000 24.45500 43.35700
C  48.45400 23.70200 43.15900
C  48.80400 22.19100 43.35900
C  50.32400 22.21600 43.24000
C  48.26100 21.54700 44.64800
C  47.78300 23.94800 41.70300
C  48.66300 23.78400 40.50000
H  47.93300 23.41400 39.28400
N  53.37900 22.09400 43.30200
C  52.51500 20.95700 43.24700
C  53.33900 19.73600 43.22400
C  54.71400 20.17900 43.17600
C  54.63900 21.67000 43.24000
C  52.78900 18.37500 43.11400
C  55.87700 19.13100 43.14700
O  55.65300 17.92400 43.08000
C  57.27600 19.61200 43.22000
N  54.80400 24.84000 43.73400
C  55.83200 23.98700 43.56600
C  57.15600 24.73400 43.70500
C  56.75400 26.07700 44.33000
C  55.23800 26.05400 44.13600
C  58.27500 23.88100 44.52100
C  57.45900 27.25700 43.56200
C  58.03700 28.30400 44.51200
N  52.28900 26.14100 44.07100
C  53.05800 27.25800 44.34900
C  52.17200 28.32400 44.63300
C  50.88200 27.77200 44.31000
C  51.03900 26.52400 43.92700
C  52.53100 29.73500 45.14300
C  49.44600 28.08400 44.26700
O  48.76600 29.11400 44.50500
C  48.77100 26.87100 43.73200
C  48.12700 27.21100 42.43900
O  48.79700 27.24600 41.41500
O  46.79500 27.42100 42.55900
C  46.04300 27.98700 41.40300
H  50.59500 20.10100 43.06200
H  56.74400 22.10500 43.23700
H  55.03800 28.00000 44.76200
H  47.79700 23.99500 43.97800
H  48.44300 21.61600 42.50600
H  48.04800 20.50100 44.42500
H  47.27700 21.91700 44.93500
H  48.95300 21.52000 45.49000
H  47.29200 24.91800 41.63500
H  46.92400 23.28700 41.58500
H  49.34200 22.96200 40.72700
H  49.21700 24.71600 40.38900
H  53.26300 17.88100 43.96300
H  53.06200 17.81600 42.21900
H  51.72500 18.36600 43.35100
H  57.52300 20.18100 42.32400
H  57.87100 18.69900 43.20100
H  57.50900 20.24500 44.07600
H  57.60900 24.92900 42.73300
H  57.09500 26.10600 45.36500
H  59.09300 23.45500 43.93900
H  57.78600 23.01100 44.95700
H  58.71000 24.48700 45.31600
H  56.76000 27.82900 42.95000
H  58.38500 26.88400 43.12600
H  58.69800 27.79900 45.21700
H  57.24400 28.85900 45.01200
H  58.64200 28.94600 43.87100
H  52.29800 30.54000 44.44500
H  53.62100 29.73100 45.17700
H  52.06600 29.88600 46.11800
H  48.02800 26.43700 44.40100
H  46.72500 28.11500 40.56300
H  45.60100 28.94900 41.66000
H  45.26600 27.38800 40.92800
Mg -0.15700 43.85300 24.71100
C  2.06400 43.70000 27.43000
C  -2.69600 42.78300 26.82900
C  -2.16900 44.06800 22.18800
C  2.72500 44.27700 22.66700
N  -0.30400 43.29300 26.93500
C  0.69500 43.43600 27.84000
C  0.24900 43.01900 29.26400
C  -1.23600 42.50400 28.95600
C  -1.47600 42.95400 27.46300
C  -1.51400 41.02100 29.24200
C  0.26000 44.15400 30.25100
C  0.14000 43.76900 31.75900
H  0.11800 42.32200 32.14800
N  -2.22400 43.59600 24.54300
C  -3.02300 43.11200 25.52800
C  -4.35000 43.13000 24.94100
C  -4.24200 43.46200 23.57300
C  -2.87300 43.78400 23.35200
C  -5.53300 42.67900 25.66400
C  -5.28700 43.51200 22.44300
O  -5.11400 43.98200 21.34500
C  -6.66700 42.88800 22.69900
N  0.29400 44.09700 22.74900
C  -0.79200 44.19000 21.91800
C  -0.24400 44.13700 20.42200
C  1.20300 44.46700 20.65300
C  1.49800 44.30900 22.08800
C  -0.55800 42.66700 19.74100
C  1.61000 45.90100 20.06800
C  1.44100 47.05300 21.05200
N  1.99200 43.86500 24.88000
C  3.02000 44.08100 24.02700
C  4.21600 44.18200 24.64300
C  3.94500 44.00800 26.02300
C  2.55500 43.80900 26.14000
C  5.59100 44.45000 23.98300
C  4.49000 44.00500 27.36300
O  5.60900 44.14400 27.68900
C  3.30500 43.79400 28.35900
C  3.58700 42.50400 29.16500
O  3.80900 41.37600 28.68300
O  3.85100 42.84300 30.43000
C  4.43200 41.77000 31.20200
H  -3.58900 42.38200 27.31300
H  -2.78700 44.18500 21.29500
H  3.58900 44.53800 22.05300
H  0.84900 42.15800 29.55800
H  -1.98800 43.02700 29.54700
H  -2.08200 40.58800 28.41900
H  -2.20200 41.00700 30.08700
H  -0.62500 40.51200 29.61500
H  -0.52800 44.84900 29.96400
H  1.16500 44.71500 30.01800
H  -0.66200 44.41000 32.12600
H  1.03500 44.13600 32.26200
H  -5.52400 42.87500 26.73600
H  -5.71400 41.63800 25.39800
H  -6.38000 43.19400 25.20900
H  -6.50700 41.98700 23.29100
H  -7.00800 42.70300 21.68000
H  -7.38800 43.47800 23.26400
H  -0.82600 44.79700 19.77800
H  1.69700 43.63200 20.15600
H  -1.19100 42.05600 20.38500
H  0.29500 41.99600 19.64300
H  -1.19200 42.77800 18.86200
H  0.98200 46.00300 19.18300
H  2.64400 45.95200 19.72600
H  1.10100 46.68000 22.01800
H  0.59700 47.60500 20.64000
H  2.37200 47.61700 20.99700
H  5.75900 43.63000 23.28400
H  6.40200 44.43900 24.71100
H  5.65400 45.42200 23.49400
H  3.16400 44.65500 29.01200
H  4.57000 42.20000 32.19300
H  5.43500 41.59600 30.81200
H  3.78200 40.89600 31.17100

