158

Mg 47.47500 17.04100 28.83200
C  45.61200 15.64900 31.68800
C  49.33400 18.70000 30.93600
C  49.10600 17.95200 26.07900
C  45.03600 15.47500 26.82100
N  47.38400 17.21900 31.12100
C  46.68400 16.55300 32.09600
C  47.14100 16.97200 33.52300
C  48.16300 18.13600 33.18100
C  48.26500 18.03000 31.65000
C  47.99400 19.57500 33.77100
C  47.87200 15.84600 34.39200
C  48.45300 16.21800 35.71500
H  48.04200 17.40500 36.50300
N  49.09100 18.10200 28.53400
C  49.71900 18.73400 29.55800
C  50.96200 19.26500 29.03500
C  50.96000 18.93200 27.62900
C  49.68800 18.37700 27.31300
C  52.01400 19.97900 29.93000
C  52.05500 19.06400 26.61000
O  51.88200 18.90300 25.35800
C  53.27500 19.56200 27.17400
N  47.02000 16.87900 26.76800
C  47.91200 17.37500 25.83200
C  47.37400 17.09600 24.34500
C  46.08300 16.29200 24.60000
C  45.98500 16.23100 26.13500
C  47.15400 18.38400 23.46100
C  46.13900 14.79600 24.09600
C  45.12700 14.42400 23.01100
N  45.73800 15.82500 29.16900
C  44.96900 15.20000 28.21400
C  43.91700 14.45000 28.82500
C  44.16200 14.61500 30.25000
C  45.30400 15.42600 30.33100
C  42.76100 13.71200 28.19400
C  43.59100 14.29900 31.47400
O  42.59500 13.69100 31.73200
C  44.47500 15.06300 32.50600
C  43.64100 16.05700 33.15300
O  42.83300 16.75500 32.64900
O  43.93500 15.99000 34.45900
C  43.34200 16.90800 35.47500
H  49.94000 19.24300 31.66500
H  49.65200 18.23600 25.17700
H  44.31200 15.06800 26.11200
H  46.29800 17.32000 34.12000
H  49.18200 17.86100 33.45300
H  47.90600 20.42800 33.09900
H  48.71500 19.74100 34.57200
H  46.98700 19.35200 34.12300
H  48.52500 15.24300 33.76100
H  47.06800 15.14200 34.60600
H  49.52100 16.28600 35.51000
H  48.16300 15.30900 36.24300
H  51.74600 20.08800 30.98100
H  52.31200 20.89800 29.42500
H  52.88200 19.33100 30.05700
H  53.16100 20.61800 27.41700
H  54.01200 19.52400 26.37200
H  53.52600 18.78700 27.89900
H  48.17600 16.56000 23.83700
H  45.18200 16.82900 24.30400
H  47.66400 18.22700 22.51000
H  47.71800 19.23900 23.83500
H  46.12900 18.75000 23.40700
H  46.07700 14.06400 24.90200
H  47.06500 14.55700 23.57300
H  45.66100 13.63100 22.48700
H  44.77400 15.27500 22.42800
H  44.20800 14.07400 23.48000
H  42.75000 13.82600 27.11000
H  41.81300 14.14800 28.51100
H  42.83700 12.66200 28.47900
H  44.74800 14.30500 33.24000
H  42.85800 16.22900 36.17800
H  42.62800 17.58600 35.00800
H  44.21900 17.36700 35.93200
Mg 10.12700 48.60400 24.79000
C  7.85500 48.83600 27.44100
C  12.54100 49.81600 26.81300
C  12.15500 48.39800 22.08600
C  7.31400 47.96600 22.68000
N  10.12600 49.30000 26.83100
C  9.15100 49.12800 27.80200
C  9.59200 49.61600 29.24100
C  10.84300 50.38900 28.75100
C  11.27100 49.80400 27.37900
C  10.72900 51.95700 28.66500
C  9.93800 48.47400 30.22600
C  9.52800 48.71100 31.66600
H  9.59700 47.58000 32.75600
N  12.11500 48.87600 24.56100
C  12.97700 49.37700 25.51900
C  14.37400 49.20900 24.99100
C  14.23600 48.78900 23.64200
C  12.76500 48.71900 23.33300
C  15.56700 49.52400 25.81900
C  15.30400 48.44700 22.59800
O  15.06500 47.97500 21.51900
C  16.70300 48.71800 22.99300
N  9.80800 48.32100 22.66800
C  10.81000 48.19700 21.80400
C  10.24800 47.63200 20.40000
C  8.76300 47.41800 20.73400
C  8.59400 47.96200 22.10100
C  10.48100 48.41100 19.17400
C  8.30300 45.86600 20.48100
C  8.35800 44.91100 21.71200
N  7.97000 48.44700 24.99700
C  7.05400 48.21700 24.02600
C  5.74800 48.34100 24.65800
C  5.94700 48.57500 25.96500
C  7.37000 48.66700 26.13500
C  4.49100 48.05100 24.04200
C  5.35100 48.75600 27.25800
O  4.17100 48.75100 27.56200
C  6.60000 48.91600 28.28900
C  6.56300 47.79600 29.19300
O  7.08100 46.73500 28.98200
O  5.86500 48.10100 30.26900
C  5.44500 47.02000 31.11000
H  13.35100 50.15600 27.46200
H  12.74100 48.25600 21.17500
H  6.45900 47.69300 22.05800
H  8.91200 50.34300 29.68400
H  11.65400 50.07500 29.40800
H  9.78000 52.13500 29.17000
H  10.58400 52.22200 27.61700
H  11.62400 52.51800 28.93400
H  11.02500 48.47600 30.30700
H  9.70400 47.46700 29.87900
H  8.60300 49.28600 31.62600
H  10.30500 49.38400 32.02700
H  16.12600 48.59500 25.92200
H  15.27500 49.75700 26.84300
H  16.21400 50.34400 25.50600
H  16.82100 49.76000 23.29100
H  17.35100 48.67600 22.11800
H  17.13900 48.10600 23.78300
H  10.74100 46.66000 20.40500
H  8.11700 48.03300 20.10800
H  9.53400 48.84700 18.85600
H  10.80700 47.81600 18.32100
H  11.19700 49.20300 19.39000
H  8.99200 45.50400 19.71800
H  7.27000 45.95500 20.14600
H  7.35900 44.64600 22.05800
H  8.99900 45.38000 22.45700
H  8.86400 43.95800 21.55100
H  4.61100 47.05000 23.62700
H  4.17800 48.84600 23.36500
H  3.76300 47.91900 24.84200
H  6.60400 49.83100 28.88200
H  5.46900 47.32900 32.15500
H  6.16800 46.21500 30.97600
H  4.41300 46.75000 30.88700

