158

Mg 1.77800 -2.20400 43.12600
C  5.15100 -1.50000 42.35000
C  0.98000 0.69200 41.45000
C  -1.40100 -3.11600 43.23200
C  2.77500 -5.48900 43.90700
N  3.00700 -0.66800 41.95100
C  4.31300 -0.53700 41.88800
C  4.71900 0.84000 41.20500
C  3.35200 1.57100 41.11300
C  2.38000 0.46400 41.50800
C  3.19100 2.88900 42.00500
C  5.48700 0.68500 39.86300
C  6.49100 1.76400 39.59900
H  6.62300 2.41900 38.18400
N  -0.00200 -1.23900 42.53300
C  -0.11500 -0.01700 41.93800
C  -1.51100 0.33800 41.86700
C  -2.21400 -0.81800 42.31900
C  -1.23100 -1.79700 42.77200
C  -1.92100 1.63800 41.20800
C  -3.75800 -0.96000 42.36200
O  -4.55500 -0.08300 42.00800
C  -4.42800 -2.12200 43.08000
N  0.81000 -4.06200 43.45300
C  -0.49800 -4.15400 43.53100
C  -0.94600 -5.49700 44.17600
C  0.41100 -6.32300 44.18600
C  1.37100 -5.28200 43.69600
C  -1.73400 -5.48300 45.44400
C  0.33200 -7.63300 43.35900
C  1.28700 -8.78200 43.73200
N  3.56300 -3.29400 43.24600
C  3.84100 -4.57100 43.63700
C  5.28400 -4.75600 43.81200
C  5.79900 -3.62800 43.27700
C  4.72200 -2.76100 42.87800
C  5.90200 -6.04200 44.40700
C  7.04400 -2.89200 42.97800
O  8.21900 -3.11900 43.13000
C  6.59500 -1.49300 42.39600
C  7.02400 -0.39200 43.30500
O  6.67800 -0.16800 44.43800
O  7.97600 0.35000 42.71800
C  8.60100 1.40500 43.56700
H  0.73800 1.65700 40.99900
H  -2.41600 -3.50300 43.34600
H  3.11700 -6.46200 44.26600
H  5.39600 1.38900 41.86000
H  3.00700 1.87500 40.12500
H  3.86800 2.85000 42.85800
H  2.19900 2.99600 42.44300
H  3.44800 3.75300 41.39200
H  4.80300 0.74900 39.01600
H  5.99100 -0.28000 39.82100
H  7.44900 1.28400 39.79800
H  6.34100 2.67500 40.18000
H  -1.77100 1.53700 40.13300
H  -1.24900 2.44500 41.49900
H  -2.94600 1.95600 41.39900
H  -5.47900 -1.86900 43.21400
H  -3.91200 -2.24800 44.03200
H  -4.35400 -3.04900 42.51100
H  -1.55000 -6.00800 43.42600
H  0.60400 -6.49100 45.24500
H  -1.60800 -4.52600 45.95100
H  -1.47800 -6.26400 46.15900
H  -2.80000 -5.59200 45.24200
H  0.57700 -7.51400 42.30400
H  -0.67400 -8.05200 43.33600
H  1.83600 -8.65500 44.66500
H  1.96400 -9.05400 42.92200
H  0.59300 -9.62100 43.78800
H  6.95300 -5.96600 44.68600
H  5.78900 -6.93900 43.79800
H  5.36600 -6.18100 45.34600
H  7.05500 -1.41400 41.41100
H  9.59100 1.49100 43.12100
H  8.55000 1.43700 44.65500
H  8.06800 2.32300 43.31800
Mg 48.90300 46.46200 44.11800
C  45.66400 46.63000 42.84500
C  49.36100 43.54100 42.58500
C  52.11500 46.56100 45.09700
C  48.73900 49.99400 44.69400
N  47.60400 45.30500 42.82100
C  46.34800 45.46900 42.40900
C  45.86600 44.24800 41.64900
C  47.02600 43.29500 41.62700
C  48.07600 44.10300 42.31400
C  46.66800 41.92100 42.32300
C  45.27700 44.57500 40.25300
C  43.72400 44.54200 40.02800
H  43.17000 43.80400 38.80300
N  50.45200 45.21800 43.91600
C  50.44700 44.02200 43.27000
C  51.76900 43.37500 43.34500
C  52.48100 44.09800 44.31000
C  51.72000 45.39200 44.49500
C  52.13400 42.14400 42.65300
C  53.90000 43.85900 44.74600
O  54.56800 42.90800 44.35400
C  54.59200 44.64900 45.81200
N  50.29400 48.12900 44.61800
C  51.52200 47.85500 45.10000
C  52.26700 49.12700 45.66300
C  51.19400 50.25400 45.30600
C  50.01900 49.40600 44.88400
C  52.45500 49.00800 47.22700
C  51.57000 51.19200 44.10400
C  50.78100 52.47000 43.72000
N  47.52300 47.92900 43.81000
C  47.57300 49.32500 44.09000
C  46.26400 49.88700 43.89500
C  45.45800 48.81300 43.45600
C  46.30800 47.71600 43.31900
C  45.80700 51.28400 44.18400
C  44.14200 48.40700 43.04200
O  43.05300 48.99800 42.94800
C  44.14000 46.92100 42.63500
C  43.16800 46.17200 43.47800
O  43.43700 45.63400 44.52900
O  41.90800 46.23600 42.88300
C  40.72900 45.63300 43.55300
H  49.35100 42.51600 42.20800
H  53.05100 46.61300 45.65600
H  48.59600 51.03800 44.98000
H  45.05800 43.78700 42.21700
H  47.38200 42.99200 40.64200
H  45.60700 41.81200 42.54500
H  47.21500 41.81600 43.26100
H  47.00100 41.24100 41.54000
H  45.83300 44.01700 39.49900
H  45.54300 45.60700 40.02500
H  43.47700 45.58900 39.85200
H  43.16200 44.32100 40.93400
H  52.87100 42.47400 41.92200
H  51.33100 41.54000 42.23000
H  52.61900 41.47500 43.36400
H  54.01900 44.87900 46.71000
H  54.90800 45.60200 45.38700
H  55.34900 43.95000 46.16700
H  53.22100 49.11800 45.13600
H  50.91900 50.93600 46.11200
H  52.97600 48.08300 47.47200
H  51.46400 49.08700 47.67300
H  52.98800 49.88000 47.60500
H  51.61500 50.49500 43.26700
H  52.61300 51.47000 44.25500
H  49.95200 52.67900 44.39600
H  50.21500 52.31600 42.80100
H  51.46300 53.30500 43.56000
H  46.06000 51.52200 45.21700
H  44.77000 51.56800 44.00300
H  46.33300 51.95200 43.50100
H  43.96600 46.84700 41.56200
H  40.02500 45.42600 42.74800
H  40.24700 46.25800 44.30500
H  41.12900 44.69100 43.92900

