158

Mg 17.35300 52.21800 26.52000
C  19.23800 50.70200 29.01900
C  14.94900 53.13100 28.97600
C  15.47400 53.70800 24.06400
C  19.69800 51.12600 24.12900
N  17.02600 51.75900 28.78000
C  18.02700 51.20700 29.58200
C  17.65400 51.47900 31.06200
C  16.11400 51.84900 30.95200
C  16.04300 52.33400 29.48800
C  15.19900 50.61000 31.05600
C  18.47300 52.67600 31.55300
C  18.69800 52.85500 33.07300
H  17.89800 51.91700 34.04500
N  15.56600 53.34500 26.50900
C  14.70700 53.52700 27.61800
C  13.62200 54.35500 27.19900
C  13.80800 54.66800 25.87900
C  14.95200 53.86800 25.41900
C  12.42200 54.56200 28.11500
C  12.88400 55.48300 24.96700
O  13.10200 55.48000 23.79800
C  11.76600 56.33900 25.44000
N  17.57800 52.27900 24.33100
C  16.59000 52.91000 23.58500
C  16.96500 52.72800 22.06200
C  18.52600 52.28900 22.16100
C  18.59200 51.80500 23.58000
C  15.95000 51.77400 21.44100
C  19.56100 53.46500 22.01200
C  20.64900 53.26900 21.04500
N  19.00600 51.01500 26.44000
C  19.91200 50.68300 25.44100
C  21.09100 50.02300 25.95600
C  20.79700 49.93800 27.38000
C  19.56500 50.62100 27.59900
C  22.34300 49.45400 25.24600
C  21.26700 49.52600 28.68500
O  22.25100 48.81900 28.94600
C  20.38300 50.18400 29.76200
C  20.05400 49.16200 30.83900
O  19.41700 48.09600 30.76600
O  20.83300 49.55900 31.91500
C  20.85600 48.56900 33.04600
H  14.31600 53.53000 29.77100
H  14.94700 54.24000 23.26900
H  20.51000 50.72200 23.52000
H  17.79400 50.57700 31.65700
H  15.77200 52.55700 31.70600
H  14.40800 50.64200 30.30700
H  14.69700 50.51700 32.02000
H  15.77800 49.69500 30.93600
H  18.04700 53.57300 31.10300
H  19.51400 52.54000 31.26000
H  18.65300 53.92500 33.27600
H  19.77900 52.77700 33.18900
H  12.38700 53.78700 28.87900
H  11.44500 54.43600 27.64800
H  12.38500 55.55000 28.57400
H  10.89200 55.78800 25.78800
H  11.47600 57.12400 24.74200
H  12.25500 56.80100 26.29800
H  16.86000 53.70600 21.59200
H  18.84500 51.54000 21.43500
H  15.07900 51.59700 22.07300
H  16.41300 50.80900 21.23900
H  15.57900 52.26300 20.54100
H  20.01600 53.63500 22.98800
H  19.01100 54.40600 22.02000
H  20.56100 52.34700 20.47200
H  21.68400 53.35100 21.37900
H  20.46400 54.08300 20.34500
H  23.22100 49.92200 25.69200
H  22.27700 49.76600 24.20300
H  22.41400 48.36900 25.32100
H  21.04900 50.92200 30.20900
H  21.71000 48.95700 33.60200
H  21.05500 47.53700 32.75700
H  20.01300 48.62600 33.73400
Mg -11.56200 16.23500 41.24100
C  -8.48100 14.65800 40.76100
C  -10.12800 19.13500 39.74500
C  -14.62500 17.58000 41.04100
C  -13.00900 13.05600 41.59300
N  -9.47500 16.79100 40.15600
C  -8.33000 16.00200 40.32000
C  -7.12400 16.69500 39.73800
C  -7.65200 18.15600 39.52300
C  -9.20700 18.05200 39.89100
C  -6.82100 19.21100 40.38700
C  -6.63700 16.00100 38.43600
C  -5.10400 16.31200 37.99800
H  -5.11900 17.03400 36.57000
N  -12.22700 18.10200 40.72300
C  -11.50000 19.16300 40.17900
C  -12.34900 20.35800 40.19900
C  -13.69200 19.96100 40.58000
C  -13.56500 18.48900 40.88300
C  -11.89400 21.79100 39.76000
C  -14.89500 20.84300 40.49500
O  -14.79300 22.03000 40.25500
C  -16.16600 20.38100 41.11600
N  -13.55400 15.38600 41.36800
C  -14.57800 16.17300 41.18200
C  -15.88200 15.33900 41.34500
C  -15.35700 13.92300 41.28400
C  -13.87000 14.09300 41.42900
C  -16.65200 15.79100 42.61600
C  -15.60900 13.17700 39.92900
C  -16.53300 11.88000 39.91900
N  -10.90000 14.30000 41.38900
C  -11.59500 13.11400 41.52700
C  -10.60400 12.03700 41.78900
C  -9.35700 12.60300 41.48100
C  -9.65100 13.98400 41.18700
C  -10.90000 10.54300 41.99400
C  -8.02200 12.32200 41.30800
O  -7.46300 11.25000 41.45100
C  -7.36800 13.63300 40.96700
C  -6.46800 14.06400 42.07300
O  -6.76900 14.44900 43.17800
O  -5.14100 13.75100 41.66600
C  -4.13900 13.75800 42.73600
H  -9.66100 20.10900 39.58500
H  -15.63100 18.00400 41.07600
H  -13.46500 12.07800 41.75700
H  -6.36600 16.65200 40.52000
H  -7.63600 18.42600 38.46700
H  -6.46600 19.95300 39.67200
H  -6.15100 18.68700 41.06800
H  -7.53100 19.67600 41.07200
H  -7.27800 16.38800 37.64400
H  -6.90400 14.94500 38.40200
H  -4.53700 15.39300 37.84800
H  -4.73000 16.99800 38.75800
H  -12.56900 21.91500 38.91400
H  -10.82600 21.79800 39.54100
H  -12.14300 22.57500 40.47600
H  -16.75200 21.26300 41.37300
H  -16.02100 19.89600 42.08200
H  -16.79800 19.80400 40.44200
H  -16.43700 15.61900 40.44900
H  -15.72700 13.43300 42.18400
H  -16.71200 16.87700 42.67700
H  -16.06600 15.42500 43.46000
H  -17.64100 15.33400 42.64700
H  -14.69300 12.80000 39.47500
H  -16.19900 13.81900 39.27400
H  -15.96100 10.97300 39.72800
H  -17.36100 11.89300 39.21000
H  -16.95200 11.73100 40.91400
H  -11.40300 10.11500 41.12700
H  -11.57800 10.39500 42.83400
H  -9.93100 10.06800 42.14600
H  -6.71900 13.50400 40.10000
H  -4.39000 12.95700 43.43100
H  -4.08800 14.67200 43.32900
H  -3.11300 13.62100 42.39300

