158

Mg 24.32300 -5.37100 45.74600
C  26.60900 -3.20900 44.14200
C  21.80400 -4.09900 43.68800
C  22.38200 -8.02800 46.29900
C  26.86800 -6.76600 47.59800
N  24.28300 -3.94300 44.10200
C  25.28700 -3.12200 43.64100
C  24.77800 -2.30900 42.41400
C  23.25100 -2.40700 42.57000
C  23.07800 -3.51800 43.54300
C  22.48000 -1.03800 43.00800
C  25.23200 -2.81600 41.01200
C  26.25700 -1.90800 40.28300
H  26.06200 -1.60500 38.80500
N  22.27800 -5.92100 45.16600
C  21.40400 -5.23000 44.37100
C  20.18200 -5.91000 44.28200
C  20.34200 -7.11100 44.99300
C  21.72200 -7.01100 45.53800
C  18.99200 -5.29500 43.47800
C  19.23100 -8.02800 45.29000
O  18.12100 -7.69100 44.92200
C  19.35100 -9.30600 46.04900
N  24.69700 -7.24500 46.56800
C  23.71800 -8.21300 46.71500
C  24.18300 -9.44200 47.51900
C  25.59300 -8.92300 48.08500
C  25.74000 -7.58700 47.36700
C  23.27200 -9.94300 48.70100
C  26.80000 -9.87700 47.99300
C  27.65300 -10.13700 49.26000
N  26.38800 -5.06100 45.93900
C  27.30700 -5.66800 46.77500
C  28.59300 -5.04000 46.54200
C  28.40900 -4.08900 45.56600
C  27.03600 -4.13800 45.25200
C  29.90700 -5.29000 47.35600
C  28.98900 -3.15000 44.69400
O  30.14400 -2.76400 44.80200
C  27.86700 -2.45000 43.71600
C  27.74800 -0.98200 43.91900
O  26.95300 -0.38600 44.62200
O  28.57400 -0.34900 43.06600
C  28.71400 1.09400 43.25900
H  21.01700 -3.65300 43.07600
H  21.80300 -8.94300 46.44200
H  27.71700 -7.09900 48.19900
H  25.14700 -1.30600 42.62800
H  22.68700 -2.68700 41.68000
H  23.13600 -0.17200 42.91300
H  22.09900 -1.20400 44.01500
H  21.67300 -1.04700 42.27500
H  24.38300 -2.92000 40.33700
H  25.67800 -3.77600 41.27300
H  27.29300 -2.21500 40.42900
H  26.22500 -1.01600 40.90800
H  18.48700 -6.01900 42.84000
H  19.20900 -4.36600 42.95000
H  18.28400 -5.05000 44.27000
H  18.38700 -9.80900 46.11400
H  19.64900 -9.01300 47.05600
H  20.17900 -9.78600 45.52700
H  24.37400 -10.29100 46.86100
H  25.46500 -8.64400 49.13100
H  23.83600 -9.98600 49.63300
H  22.94000 -10.96000 48.49200
H  22.42000 -9.29600 48.90700
H  27.32100 -9.59800 47.07700
H  26.51000 -10.90700 47.78400
H  27.48100 -11.17500 49.54700
H  27.28700 -9.44900 50.02200
H  28.72900 -10.00700 49.14900
H  30.78700 -5.34400 46.71500
H  29.82600 -6.20300 47.94600
H  30.06200 -4.38700 47.94600
H  28.21400 -2.67300 42.70700
H  28.37400 1.55600 44.18700
H  28.25300 1.63500 42.43200
H  29.77400 1.33800 43.19500
Mg 35.75800 3.40700 29.64000
C  33.27200 3.98600 31.98800
C  38.11200 3.65600 32.30200
C  38.14800 2.65700 27.43200
C  33.42600 3.70000 27.06400
N  35.76300 3.91000 31.90900
C  34.55500 3.99900 32.59200
C  34.82200 4.11600 34.13200
C  36.43800 4.27900 34.16200
C  36.83300 3.91700 32.72400
C  36.93100 5.72300 34.45400
C  34.26700 2.88800 34.92500
C  33.86500 3.13700 36.38500
H  34.52300 4.15300 37.27700
N  37.81200 3.16500 29.80600
C  38.56900 3.25200 30.97400
C  39.94300 2.84300 30.71800
C  40.02700 2.50800 29.31600
C  38.66300 2.81600 28.77400
C  40.94000 2.90900 31.88300
C  41.16300 2.03200 28.48500
O  41.07600 1.74800 27.25400
C  42.53600 1.82100 29.08500
N  35.81200 3.42500 27.54000
C  36.90200 2.92500 26.89700
C  36.64900 2.63900 25.44500
C  35.12900 2.74800 25.45600
C  34.77600 3.38300 26.73200
C  37.29100 3.61300 24.44800
C  34.42200 1.37800 25.12400
C  33.27700 1.46200 24.15600
N  33.71600 3.81300 29.47900
C  32.92400 3.91400 28.35900
C  31.60200 4.24600 28.89600
C  31.67600 4.21300 30.28600
C  33.02900 3.93700 30.61900
C  30.32200 4.47500 28.11700
C  30.92400 4.43700 31.50800
O  29.74400 4.74400 31.64000
C  31.94000 4.25400 32.68700
C  31.88000 5.52100 33.44600
O  32.16700 6.64700 33.03500
O  31.40500 5.26400 34.68900
C  31.65500 6.34700 35.64100
H  38.79300 3.80900 33.14200
H  38.98600 2.40800 26.77800
H  32.67900 3.55700 26.27900
H  34.39500 5.04300 34.51200
H  36.85500 3.60000 34.90600
H  37.18600 6.28800 33.55700
H  37.91800 5.73600 34.91500
H  36.22500 6.22400 35.11600
H  35.03700 2.12600 34.80400
H  33.30300 2.62500 34.49100
H  34.00200 2.17400 36.87700
H  32.80000 3.34500 36.47900
H  41.94800 3.09600 31.51300
H  40.83600 1.93500 32.36200
H  40.68300 3.66100 32.62900
H  42.65900 1.21300 29.98100
H  42.88600 2.79900 29.41800
H  43.24100 1.44500 28.34500
H  37.11300 1.67300 25.24600
H  34.84800 3.37800 24.61200
H  38.04300 3.26900 23.73800
H  37.87500 4.36300 24.98100
H  36.58600 4.14900 23.81200
H  34.06000 0.98300 26.07400
H  35.09900 0.59600 24.78100
H  32.41300 0.91400 24.53100
H  33.66400 0.89300 23.31100
H  32.97300 2.48100 23.91400
H  30.29400 5.33100 27.44300
H  29.64700 4.77700 28.91800
H  30.03100 3.51400 27.69100
H  31.53400 3.47800 33.33600
H  32.60200 6.84000 35.42000
H  31.71500 5.97600 36.66400
H  30.81200 7.03700 35.61900

