158

Mg 47.24200 16.15100 28.10400
C  45.26600 15.75600 30.96200
C  49.32400 18.30100 29.83000
C  48.82900 17.03700 25.15100
C  44.60600 14.73100 26.24900
N  47.10600 17.05300 30.11300
C  46.40400 16.62400 31.16400
C  46.94700 17.21300 32.54700
C  48.02400 18.19600 32.09800
C  48.21000 17.85300 30.56600
C  47.73000 19.72100 32.37800
C  47.52400 16.15800 33.62500
C  46.60800 16.10900 34.93100
H  46.61100 17.47700 35.64000
N  48.97800 17.37400 27.61300
C  49.64700 18.16100 28.48500
C  50.78700 18.71500 27.83400
C  50.71500 18.28600 26.48400
C  49.46900 17.47700 26.35200
C  51.75500 19.61800 28.42300
C  51.60600 18.58600 25.29800
O  51.36600 18.21300 24.18200
C  52.78200 19.41700 25.47300
N  46.78800 15.83100 26.05600
C  47.58000 16.30700 25.07300
C  47.13200 15.88100 23.70900
C  45.88100 14.91100 24.07500
C  45.76000 15.18500 25.56600
C  46.78300 16.99800 22.68300
C  46.07800 13.38700 23.67600
C  45.18200 12.88200 22.52500
N  45.38300 15.22300 28.42900
C  44.46600 14.62300 27.61900
C  43.35900 14.02900 28.41500
C  43.65900 14.41600 29.74300
C  44.89600 15.14200 29.71800
C  42.23600 13.16900 27.90900
C  43.20900 14.38600 31.08600
O  42.24600 13.81900 31.54500
C  44.19200 15.18900 31.95800
C  43.27600 16.27500 32.51800
O  42.65500 17.04500 31.80200
O  43.31900 16.27800 33.94400
C  42.70900 17.41700 34.64100
H  50.00200 18.90800 30.43400
H  49.23500 17.25200 24.16000
H  43.88100 14.31600 25.54600
H  46.10100 17.76400 32.95500
H  49.00500 17.96000 32.51000
H  48.65300 20.16700 32.75000
H  46.87800 19.84700 33.04500
H  47.47700 20.24500 31.45600
H  48.61400 16.14200 33.63900
H  47.28400 15.18300 33.19900
H  47.05100 15.38600 35.61600
H  45.61700 15.77100 34.62900
H  51.95500 20.48600 27.79500
H  52.60700 19.08200 28.84000
H  51.36100 20.07400 29.33100
H  53.46800 19.25100 24.64300
H  53.37500 19.01400 26.29300
H  52.47300 20.44600 25.66000
H  47.89000 15.21300 23.30000
H  44.95700 15.30400 23.65200
H  45.73100 16.98700 22.39700
H  47.33100 16.99000 21.74100
H  47.07200 17.97700 23.06700
H  45.71900 12.77600 24.50400
H  47.09100 13.04300 23.46900
H  45.70700 12.90700 21.57000
H  44.25300 13.42600 22.35200
H  44.90700 11.84100 22.69200
H  42.36700 12.88200 26.86600
H  41.30600 13.73800 27.89600
H  42.04000 12.35200 28.60400
H  44.58400 14.52700 32.73000
H  43.01300 18.35800 34.18000
H  42.82900 17.32100 35.72000
H  41.65000 17.32000 34.40300
Mg 28.64800 59.25500 41.47900
C  26.16100 57.19600 39.91300
C  31.10000 57.25100 39.95100
C  30.65000 61.72600 42.05600
C  25.95200 61.11900 42.74500
N  28.56200 57.32500 40.19700
C  27.44600 56.78600 39.54300
C  27.83800 55.61200 38.59600
C  29.35900 55.47300 38.98300
C  29.68100 56.74400 39.72800
C  29.67200 54.29800 39.87500
C  27.71600 55.94900 37.09200
C  27.22600 54.70700 36.25300
H  26.44100 54.86300 34.97900
N  30.62000 59.41800 41.21700
C  31.46300 58.45900 40.64700
C  32.75300 58.94200 40.61100
C  32.76600 60.28100 41.17300
C  31.36200 60.56200 41.51100
C  33.90100 58.02800 40.13400
C  34.00300 61.11300 41.33500
O  35.10900 60.61800 41.06600
C  33.97300 62.47000 41.94200
N  28.26200 61.16700 42.22900
C  29.30300 61.94100 42.48000
C  28.95700 63.27600 43.10100
C  27.57400 62.94300 43.61800
C  27.18900 61.69100 42.78500
C  29.96300 63.78500 44.11100
C  26.48600 64.11600 43.47000
C  25.93200 64.75200 44.74400
N  26.42900 59.20000 41.36100
C  25.54400 59.97900 42.02200
C  24.26000 59.47700 41.86000
C  24.43700 58.32900 41.04300
C  25.79900 58.21600 40.76400
C  22.92000 59.94300 42.52800
C  23.69200 57.33700 40.39500
O  22.45600 57.21300 40.24000
C  24.81100 56.49900 39.65400
C  24.72200 55.23500 40.32500
O  24.83000 55.15600 41.49300
O  24.52700 54.19700 39.40500
C  24.34700 52.85400 40.05100
H  31.74900 56.50900 39.48000
H  31.27800 62.58500 42.30100
H  25.22100 61.76800 43.23100
H  27.23200 54.74300 38.84800
H  30.01900 55.47400 38.11600
H  30.63200 53.81700 39.68500
H  28.88500 53.55200 39.98800
H  29.81800 54.62200 40.90500
H  28.71800 56.05600 36.67500
H  27.08700 56.79100 36.80500
H  26.57500 54.03500 36.81300
H  28.14100 54.17200 35.99900
H  33.93500 57.80700 39.06800
H  33.71300 57.02100 40.50600
H  34.89500 58.31900 40.47400
H  33.04700 62.98900 41.69600
H  34.91100 62.97000 41.70100
H  33.93300 62.45800 43.03100
H  28.82500 63.99200 42.29000
H  27.62500 62.69600 44.67800
H  29.51500 64.07200 45.06200
H  30.53300 64.65800 43.79400
H  30.74500 63.06700 44.35600
H  25.58700 63.82600 42.92500
H  27.01700 64.92500 42.96800
H  24.88800 64.45000 44.82600
H  26.03700 65.83700 44.76800
H  26.43200 64.38400 45.64000
H  22.07700 59.50700 41.99100
H  22.93100 60.98400 42.20200
H  22.95800 59.66400 43.58100
H  24.67400 56.32300 38.58700
H  23.27300 52.66900 40.07700
H  24.84600 52.73900 41.01300
H  24.58800 52.02200 39.38900

