158

Mg 25.86700 0.98500 29.15900
C  27.88700 0.84800 32.11700
C  23.11200 1.41400 31.23900
C  24.07400 1.39900 26.40100
C  28.70500 0.17800 27.22200
N  25.54100 0.98100 31.38900
C  26.50000 1.05900 32.41400
C  25.91200 1.34500 33.84300
C  24.38800 1.37200 33.56500
C  24.32900 1.25200 31.94900
C  23.58100 0.25700 34.30900
C  26.42900 2.61400 34.58600
C  27.02000 2.41700 35.95900
H  26.78100 3.50500 37.07700
N  23.86500 1.35700 28.87300
C  22.85400 1.43600 29.80800
C  21.60000 1.65400 29.16500
C  21.82500 1.59300 27.72100
C  23.30300 1.46700 27.63800
C  20.27500 1.83200 29.89300
C  20.89900 1.65800 26.54500
O  21.25400 1.61900 25.39200
C  19.54200 2.08400 26.86900
N  26.31400 0.73900 27.12900
C  25.46800 1.03200 26.15700
C  26.04000 0.85800 24.74100
C  27.54700 0.51300 25.06500
C  27.54500 0.51100 26.53800
C  25.30100 -0.01000 23.84800
C  28.65500 1.41400 24.48300
C  29.76100 0.64400 23.79300
N  27.86900 0.55500 29.53600
C  28.87800 0.36700 28.64500
C  30.08100 0.10000 29.35400
C  29.73800 0.35200 30.71900
C  28.38600 0.66500 30.79400
C  31.38600 -0.24500 28.75900
C  30.28400 0.48100 32.09400
O  31.44700 0.30900 32.45300
C  29.05900 0.63500 33.08900
C  28.88800 -0.57300 33.94800
O  28.89400 -1.73000 33.53800
O  28.80000 -0.23400 35.28700
C  28.79100 -1.43100 36.21700
H  22.25700 1.57400 31.90000
H  23.59700 1.72600 25.47500
H  29.47200 -0.30300 26.61100
H  26.19000 0.46100 34.41800
H  23.87900 2.29600 33.84000
H  22.69800 0.82800 34.59600
H  24.14700 -0.12900 35.15700
H  23.27700 -0.59300 33.69800
H  25.73000 3.45100 34.61700
H  27.21400 3.02300 33.94900
H  28.10100 2.52700 35.87800
H  26.80500 1.40800 36.31200
H  20.44900 1.93700 30.96300
H  19.66700 0.94800 29.69900
H  19.58900 2.59600 29.52700
H  18.92300 1.71600 26.05100
H  19.68000 3.16500 26.91000
H  19.16300 1.72900 27.82800
H  26.13200 1.87100 24.34900
H  27.74700 -0.54500 24.89500
H  24.28300 -0.13200 24.21800
H  25.87700 -0.93400 23.80100
H  25.31600 0.49400 22.88200
H  29.01700 2.04600 25.29300
H  28.31900 2.09900 23.70500
H  30.49000 0.27800 24.51600
H  30.22300 1.27400 23.03300
H  29.40100 -0.23700 23.26100
H  32.18500 -0.30500 29.49800
H  31.59600 0.49500 27.98600
H  31.45100 -1.19000 28.21900
H  29.35800 1.54800 33.60500
H  28.68300 -2.40200 35.73400
H  28.03800 -1.17300 36.96200
H  29.66800 -1.34000 36.85800
Mg 56.00900 23.00300 44.92000
C  53.70900 25.45200 43.98400
C  53.73100 20.59400 43.93600
C  58.35300 20.60900 45.32800
C  58.24200 25.39900 45.55600
N  53.94800 23.08100 43.99800
C  53.18000 24.20800 43.75200
C  51.80800 23.82600 43.06400
C  51.80700 22.31100 43.53000
C  53.22400 21.92300 43.80800
C  50.85400 22.07600 44.74300
C  51.70800 24.12800 41.55200
C  50.38100 24.58000 41.01900
H  49.77900 23.81600 39.87600
N  56.06800 20.88700 44.56100
C  55.00400 20.09500 44.26900
C  55.26200 18.64500 44.42700
C  56.60400 18.64300 44.81200
C  57.13800 20.03200 44.79300
C  54.25400 17.51000 44.14600
C  57.39800 17.33600 45.33600
O  56.74100 16.30000 45.54000
C  58.89800 17.26800 45.74800
N  58.08000 22.99400 45.07100
C  58.80000 21.90100 45.47800
C  60.06800 22.34000 46.17800
C  60.12100 23.83100 45.76500
C  58.72500 24.11100 45.52900
C  59.93300 22.01000 47.68700
C  60.96100 24.24700 44.53800
C  61.99000 25.32000 44.74700
N  55.97400 24.99700 44.93700
C  56.97000 25.86500 45.30300
C  56.48600 27.19000 45.40600
C  55.19200 27.10600 44.81900
C  54.94700 25.72700 44.51400
C  57.19900 28.38500 45.78400
C  54.03100 27.87900 44.43300
O  53.80500 29.09200 44.55800
C  53.08200 26.78900 43.79700
C  52.83400 27.14000 42.39300
O  53.64900 27.06700 41.44200
O  51.57500 27.73700 42.30500
C  51.32300 28.54000 41.06700
H  53.03500 19.75900 43.83800
H  59.14900 19.91500 45.60400
H  58.87300 26.06800 46.14500
H  51.01000 24.37300 43.56700
H  51.53700 21.66400 42.69600
H  51.32900 21.67300 45.63800
H  50.16000 21.34400 44.33100
H  50.32800 22.95600 45.11300
H  51.78400 23.15900 41.05900
H  52.49700 24.70000 41.06400
H  50.52800 25.60500 40.67800
H  49.61500 24.53000 41.79300
H  53.51800 17.73200 44.91900
H  54.59600 16.48600 44.29200
H  53.79700 17.69200 43.17300
H  59.49000 17.78600 44.99400
H  59.26100 16.25900 45.94500
H  59.03100 17.69000 46.74400
H  60.85800 21.76600 45.69300
H  60.40400 24.34100 46.68600
H  58.96900 21.52200 47.82800
H  59.96700 22.96800 48.20500
H  60.64300 21.26100 48.03500
H  60.32800 24.70900 43.78100
H  61.56500 23.42000 44.16500
H  61.95800 26.20900 44.11800
H  62.99400 24.90500 44.83900
H  61.71300 25.71700 45.72300
H  58.25900 28.14100 45.71800
H  57.01700 28.81200 46.77000
H  56.96200 29.15200 45.04600
H  52.11600 26.66000 44.28600
H  50.36700 28.11400 40.76000
H  52.05400 28.50200 40.26000
H  51.21900 29.59700 41.31300

