158

Mg 40.63300 8.57100 29.47500
C  42.26100 10.37200 31.91500
C  38.52200 7.28800 31.85900
C  38.87000 7.31000 27.04800
C  43.00400 9.72200 27.15300
N  40.44900 8.90700 31.73400
C  41.13400 9.72100 32.50200
C  40.71400 9.63700 34.00300
C  39.44700 8.64100 33.84600
C  39.50200 8.23400 32.41100
C  39.37600 7.34900 34.74800
C  40.32200 11.01700 34.66800
C  39.38900 10.95600 35.78200
H  39.66900 11.77100 36.99800
N  38.95100 7.47600 29.40100
C  38.19200 6.97200 30.47100
C  37.16100 6.13900 30.06100
C  37.14400 6.21500 28.62200
C  38.35000 7.04900 28.28800
C  36.37900 5.25600 30.96500
C  36.09300 5.78100 27.53600
O  36.09400 6.05200 26.35200
C  34.84600 5.13600 28.12800
N  41.11400 8.31400 27.42000
C  40.06800 7.86900 26.63500
C  40.36500 8.14100 25.12000
C  41.85200 8.67200 25.17000
C  42.06600 8.92300 26.67400
C  40.11500 7.03500 24.03000
C  42.10900 9.81500 24.17200
C  41.47700 11.18400 24.46100
N  42.35100 9.61800 29.53600
C  43.17200 10.06700 28.51100
C  44.22700 10.86900 29.03100
C  43.88500 11.11400 30.33600
C  42.69500 10.36800 30.56200
C  45.33300 11.31700 28.22300
C  44.24400 11.75200 31.60800
O  45.22600 12.43200 31.83900
C  43.21600 11.35400 32.61800
C  43.95400 10.73000 33.79200
O  44.21200 9.54200 33.95800
O  43.94800 11.67400 34.79400
C  44.33100 11.18300 36.19500
H  37.81100 6.98200 32.62900
H  38.31400 7.04700 26.14600
H  43.58300 10.29500 26.42600
H  41.47800 9.02900 34.48600
H  38.47700 9.09000 34.06000
H  38.36500 7.21500 35.13400
H  40.09800 7.32900 35.56500
H  39.72200 6.47200 34.20200
H  39.98500 11.77200 33.95800
H  41.28300 11.37200 35.04000
H  39.34000 9.91300 36.09300
H  38.36400 11.08500 35.43300
H  36.63500 4.22900 30.70300
H  35.30300 5.28500 30.79900
H  36.48100 5.43200 32.03600
H  34.06800 4.92600 27.39400
H  34.44800 5.90400 28.79200
H  35.12400 4.20200 28.61500
H  39.68000 8.95700 24.89100
H  42.49500 7.82300 24.93400
H  39.97200 6.08000 24.53500
H  40.92100 7.06100 23.29500
H  39.21500 7.32700 23.48900
H  41.66900 9.52100 23.22000
H  43.18700 9.91300 24.03700
H  41.00000 11.39200 25.41900
H  40.74400 11.23500 23.65600
H  42.30000 11.85300 24.21100
H  45.78900 12.20900 28.65200
H  44.94700 11.56500 27.23400
H  46.08800 10.53300 28.16500
H  42.66200 12.21200 33.00000
H  43.64700 11.46200 36.99700
H  45.21200 11.77300 36.44600
H  44.58400 10.13100 36.32600
Mg 6.08300 53.70500 41.61200
C  5.81500 50.26600 41.26700
C  9.23200 53.64800 40.10100
C  6.23600 57.11600 41.80400
C  2.72700 53.91600 42.61400
N  7.29400 52.10400 40.75200
C  7.03700 50.73700 40.72200
C  8.16000 49.95600 39.92500
C  9.29300 51.04300 39.97800
C  8.58100 52.36800 40.26900
C  10.39800 50.78900 41.04200
C  7.88900 49.29300 38.55800
C  6.81800 50.06000 37.69100
H  7.35200 50.39400 36.26300
N  7.58000 55.18200 41.07600
C  8.71100 54.94000 40.43400
C  9.44700 56.24500 40.26400
C  8.69000 57.26400 40.91800
C  7.42200 56.55300 41.25200
C  10.81300 56.36800 39.51500
C  9.06700 58.79300 41.14200
O  10.10100 59.17300 40.68300
C  8.16800 59.81500 41.84500
N  4.66600 55.27900 41.94600
C  4.95100 56.58500 42.01400
C  3.72900 57.48300 42.30300
C  2.65400 56.43700 42.55700
C  3.35300 55.10800 42.26000
C  3.98000 58.47700 43.51700
C  1.39800 56.63000 41.61800
C  0.65800 57.95100 41.57100
N  4.61600 52.35500 41.93800
C  3.30200 52.57500 42.47900
C  2.70800 51.33100 42.76000
C  3.68900 50.41600 42.35600
C  4.82800 51.08100 41.85100
C  1.27300 51.14100 43.31000
C  3.95900 49.00000 42.25000
O  3.19700 48.08500 42.54900
C  5.36400 48.86300 41.58100
C  5.08800 48.15300 40.36300
O  4.44300 48.55700 39.42900
O  5.73300 47.02400 40.49700
C  5.40600 46.01300 39.41700
H  10.22100 53.64200 39.63900
H  6.30200 58.20500 41.76000
H  1.68300 53.94900 42.93000
H  8.32100 49.18700 40.68100
H  9.69300 50.93900 38.97000
H  10.11500 49.93800 41.66200
H  10.49600 51.69100 41.64600
H  11.38500 50.59300 40.62200
H  7.87200 48.21800 38.73600
H  8.82000 49.39200 38.00000
H  6.33100 50.92400 38.14300
H  6.01600 49.33100 37.57800
H  11.29700 57.33600 39.65200
H  10.68000 56.18300 38.44900
H  11.37200 55.51500 39.90000
H  7.27500 60.16600 41.32700
H  8.86000 60.64500 41.98200
H  7.88200 59.47100 42.83900
H  3.54200 57.90200 41.31500
H  2.18000 56.49400 43.53700
H  5.02600 58.45500 43.82100
H  3.29400 58.20700 44.32000
H  3.80300 59.53300 43.31100
H  0.66000 55.86600 41.86200
H  1.81300 56.52000 40.61700
H  0.70800 58.19900 40.51100
H  1.11700 58.73700 42.17100
H  -0.40100 57.86500 41.81200
H  1.10900 51.89600 44.07900
H  1.11800 50.11800 43.65300
H  0.69200 51.29700 42.40200
H  6.04700 48.27200 42.19100
H  6.05400 46.14500 38.55000
H  4.36800 45.94500 39.09200
H  5.64400 45.04500 39.85600

