158

Mg 35.89300 1.72000 29.83200
C  33.51800 2.72700 32.09600
C  38.14100 1.65000 32.54300
C  38.49600 1.40000 27.65700
C  33.75400 2.35800 27.25200
N  35.82300 2.20900 32.01500
C  34.73200 2.60300 32.71400
C  35.06200 2.78500 34.19700
C  36.62800 2.79700 34.19400
C  36.87700 2.14200 32.81800
C  37.16100 4.26600 34.33700
C  34.57700 1.64900 35.13400
C  34.08600 2.04200 36.56600
H  34.67200 3.25300 37.19300
N  38.01800 1.40600 30.11300
C  38.70800 1.35700 31.27200
C  40.13700 0.98200 30.99200
C  40.24400 0.90100 29.55800
C  38.82900 1.20400 29.04400
C  41.28400 0.85600 31.93200
C  41.40000 0.48300 28.71800
O  41.38100 0.48700 27.47900
C  42.71100 0.05600 29.35000
N  36.11300 1.81800 27.79200
C  37.27300 1.71000 27.11000
C  37.07400 1.89300 25.62000
C  35.52300 2.14900 25.42500
C  35.06300 2.07900 26.93300
C  38.02500 2.98700 24.97700
C  34.73600 1.09900 24.50400
C  33.98600 1.66600 23.25900
N  33.97100 2.26500 29.67700
C  33.14700 2.41300 28.53200
C  31.82000 2.87400 28.96500
C  31.88200 2.95000 30.34400
C  33.22400 2.55700 30.71900
C  30.72800 3.45100 28.17100
C  31.16100 3.33600 31.57900
O  29.99300 3.73400 31.70100
C  32.20800 3.20300 32.73500
C  32.23700 4.56100 33.36500
O  32.70300 5.54300 32.89500
O  31.51000 4.49500 34.52300
C  31.38600 5.63400 35.32600
H  38.76500 1.44100 33.41500
H  39.30100 1.50200 26.92600
H  33.02000 2.52300 26.46100
H  34.64200 3.69600 34.62400
H  37.12500 2.18100 34.94400
H  37.83900 4.44700 33.50300
H  37.65300 4.25700 35.31000
H  36.36000 5.00500 34.30100
H  35.38400 0.93900 35.31800
H  33.80000 1.13700 34.56700
H  34.35900 1.18900 37.18700
H  33.00600 2.11900 36.69000
H  41.67000 -0.15700 32.03900
H  40.86400 1.26400 32.85100
H  42.08600 1.56900 31.74200
H  42.60300 -0.64300 30.18000
H  43.16800 0.98600 29.68800
H  43.41900 -0.26100 28.58400
H  37.29700 0.91900 25.18400
H  35.36900 3.17700 25.09600
H  37.54800 3.56400 24.18500
H  38.85900 2.46500 24.50700
H  38.43000 3.60400 25.77900
H  33.92400 0.63900 25.06700
H  35.38800 0.29500 24.16100
H  32.89900 1.65900 23.34400
H  34.19600 1.16400 22.31400
H  34.21300 2.69100 22.96800
H  30.92800 3.29000 27.11200
H  30.47100 4.50300 28.28700
H  29.86000 2.83700 28.41100
H  31.87000 2.42300 33.41800
H  30.36600 5.83100 35.65400
H  31.88300 6.54300 34.98700
H  31.86500 5.34200 36.26000
Mg -11.01600 15.73400 43.56300
C  -7.58700 16.78400 43.51500
C  -11.77100 19.04500 42.85100
C  -14.07400 14.74800 43.14000
C  -9.85800 12.49300 43.41500
N  -9.84200 17.72700 43.20100
C  -8.44800 17.87000 43.20700
C  -8.08500 19.32200 42.78900
C  -9.42900 20.12200 42.89900
C  -10.40000 18.92700 43.03300
C  -9.59300 21.02400 44.16800
C  -7.48500 19.41500 41.41500
C  -6.18000 20.21200 41.27100
H  -4.97900 19.53500 40.54900
N  -12.74700 16.68200 43.04700
C  -12.85100 18.06200 42.89000
C  -14.24700 18.34100 42.60200
C  -14.95100 17.13000 42.62600
C  -13.93900 16.13400 42.90500
C  -14.75600 19.76700 42.21300
C  -16.49200 16.97000 42.32600
O  -17.09200 17.94300 41.92600
C  -17.21700 15.69300 42.49700
N  -11.82400 13.79900 43.27400
C  -13.17400 13.71100 43.27000
C  -13.63400 12.24100 43.40300
C  -12.25400 11.45300 43.42300
C  -11.22500 12.64000 43.41200
C  -14.49000 11.99300 44.62600
C  -12.03900 10.29600 42.28200
C  -11.93000 8.82800 42.64500
N  -9.15700 14.80600 43.54600
C  -8.90000 13.47200 43.55000
C  -7.49600 13.26400 43.69600
C  -6.94900 14.53700 43.78000
C  -7.98300 15.42100 43.61100
C  -6.81300 11.98200 43.65300
C  -5.73600 15.33400 44.03300
O  -4.59500 15.04400 44.26700
C  -6.21700 16.80700 44.02700
C  -6.15100 17.27700 45.46400
O  -6.32900 16.55500 46.44000
O  -5.69900 18.56500 45.44000
C  -5.20800 18.99400 46.72000
H  -12.09900 20.07900 42.73000
H  -15.06500 14.29200 43.18300
H  -9.42200 11.49200 43.39600
H  -7.34400 19.63000 43.52600
H  -9.70500 20.69600 42.01400
H  -8.61500 21.21300 44.60800
H  -10.35700 20.81400 44.91700
H  -9.99100 21.96400 43.78400
H  -8.19600 19.87000 40.72400
H  -7.35400 18.34600 41.24900
H  -5.88600 20.57400 42.25600
H  -6.50600 21.04100 40.64300
H  -15.37000 19.66500 41.31900
H  -14.00200 20.50300 41.93300
H  -15.25700 20.20300 43.07800
H  -18.29300 15.75500 42.33100
H  -17.07800 15.23300 43.47500
H  -16.94800 14.93900 41.75800
H  -14.25400 12.04100 42.52900
H  -12.04100 10.93500 44.35900
H  -15.48200 11.90200 44.18300
H  -14.44600 12.76400 45.39600
H  -14.26900 11.02800 45.08200
H  -11.32500 10.68000 41.55300
H  -12.98200 10.32200 41.73600
H  -11.30400 8.35200 41.89000
H  -12.89500 8.32500 42.58200
H  -11.60600 8.67000 43.67300
H  -5.73000 12.08400 43.58200
H  -7.16200 11.55800 42.71100
H  -7.03800 11.26900 44.44500
H  -5.55200 17.37700 43.38000
H  -4.64900 18.17900 47.17900
H  -6.00700 19.38200 47.35300
H  -4.41500 19.73100 46.59600

