158

Mg 35.24400 1.90300 29.27800
C  33.04800 2.98500 31.88900
C  37.78000 1.85300 31.72700
C  37.40500 0.96800 26.89400
C  32.68500 2.31100 27.07200
N  35.39600 2.27400 31.49100
C  34.31100 2.68800 32.33800
C  34.80200 2.70600 33.80800
C  36.35200 2.69700 33.69500
C  36.55600 2.22200 32.25200
C  37.00600 4.17000 33.85700
C  34.20600 1.66000 34.81200
C  33.81800 2.15300 36.24600
H  34.60800 3.29400 36.83400
N  37.32200 1.45000 29.38200
C  38.17200 1.55400 30.41300
C  39.47900 1.06900 29.98900
C  39.36900 0.70400 28.59900
C  38.00800 1.08800 28.20700
C  40.67900 1.15100 30.83600
C  40.44800 0.26000 27.66800
O  40.18400 -0.03500 26.50000
C  41.88300 0.00600 28.11900
N  35.16400 1.80700 27.20700
C  36.18100 1.34700 26.44700
C  35.72200 1.24000 24.97700
C  34.14200 1.36800 25.08500
C  33.97800 1.90600 26.54300
C  36.41600 2.27700 24.01500
C  33.34900 0.10100 24.91100
C  32.02000 0.23400 24.26700
N  33.31400 2.57000 29.41600
C  32.40800 2.67600 28.41500
C  31.17400 3.12100 28.93000
C  31.31100 3.21500 30.30300
C  32.62100 2.84600 30.54300
C  29.84300 3.20800 28.18000
C  30.62900 3.55300 31.60000
O  29.48800 3.78700 31.93900
C  31.80800 3.41400 32.68000
C  31.92200 4.68200 33.39000
O  32.68600 5.65200 33.17300
O  31.05000 4.63000 34.48300
C  31.33400 5.55100 35.59300
H  38.55400 1.94800 32.49000
H  38.03400 0.58800 26.08600
H  31.90100 2.33600 26.31300
H  34.56300 3.72000 34.13000
H  36.77700 2.08200 34.48800
H  36.29100 4.77900 34.41100
H  37.21900 4.71300 32.93600
H  37.89800 4.09500 34.47900
H  34.96000 0.88200 34.92800
H  33.30100 1.12100 34.53100
H  34.12200 1.32300 36.88300
H  32.77300 2.33300 36.50000
H  41.21800 0.20800 30.74500
H  40.45100 1.48900 31.84700
H  41.36200 1.92400 30.48300
H  42.21000 0.81000 28.77900
H  42.52700 -0.06900 27.24200
H  41.84600 -0.88400 28.74700
H  36.02900 0.22300 24.73300
H  33.90700 2.11400 24.32600
H  36.88500 1.89400 23.10900
H  37.27700 2.60100 24.59900
H  35.75200 3.11800 23.81700
H  33.25500 -0.34000 25.90400
H  33.88900 -0.55400 24.22800
H  31.95100 -0.34700 23.34700
H  31.80900 1.29600 24.14200
H  31.18500 -0.18300 24.83000
H  29.40400 2.21400 28.09000
H  30.01600 3.52000 27.15000
H  29.14400 3.88300 28.67300
H  31.56900 2.51700 33.25100
H  30.92700 5.16300 36.52700
H  30.67400 6.41600 35.52500
H  32.28900 6.06400 35.70500
Mg 47.10600 15.90100 28.60200
C  44.80500 15.77300 31.31500
C  49.12600 17.81500 30.74100
C  48.92800 16.71000 25.89700
C  44.53600 14.72000 26.52800
N  46.83700 16.89100 30.71600
C  45.95900 16.49300 31.66500
C  46.38600 16.85600 33.11900
C  47.58700 17.82300 32.75900
C  47.93600 17.46900 31.30100
C  47.36300 19.36500 32.86300
C  46.86400 15.55300 33.83200
C  46.63600 15.59800 35.36000
H  46.37900 16.98100 35.96700
N  48.87100 16.95700 28.38100
C  49.54700 17.72100 29.33500
C  50.77200 18.20700 28.79100
C  50.75900 17.88200 27.38000
C  49.56100 17.05200 27.13500
C  51.69900 19.13600 29.65500
C  51.67500 18.30600 26.28800
O  51.76100 17.76000 25.19900
C  52.80000 19.24400 26.63200
N  46.81200 15.59900 26.47300
C  47.69700 16.15400 25.58500
C  47.12400 15.97200 24.09400
C  45.79000 15.29700 24.30100
C  45.70200 15.09400 25.86600
C  47.04000 17.34300 23.46300
C  45.61900 14.00200 23.51100
C  46.20400 12.69300 23.98400
N  45.20100 15.15700 28.89200
C  44.29900 14.73200 27.91400
C  43.02900 14.39500 28.59800
C  43.21500 14.71500 29.94300
C  44.54500 15.22300 30.10400
C  41.74500 13.94700 28.02500
C  42.54100 14.84400 31.32900
O  41.39500 14.62800 31.65300
C  43.61500 15.49500 32.23200
C  43.06300 16.69500 32.92100
O  42.74700 17.76900 32.43200
O  42.96600 16.27500 34.31100
C  42.43600 17.33000 35.16000
H  49.82200 18.26000 31.45600
H  49.51400 16.96100 25.01000
H  43.67800 14.59500 25.86400
H  45.47700 17.25300 33.57200
H  48.46300 17.62500 33.37600
H  48.16500 19.95000 33.31200
H  46.42700 19.69300 33.31600
H  47.28200 19.75100 31.84700
H  47.94100 15.58200 33.67200
H  46.41000 14.63400 33.46200
H  47.54700 15.24500 35.84200
H  45.83600 14.92600 35.67200
H  52.64100 18.67200 29.94900
H  51.23800 19.25100 30.63600
H  51.95400 20.09900 29.21400
H  53.27900 19.07500 27.59600
H  52.39600 20.24800 26.50700
H  53.57300 18.93200 25.92900
H  47.87500 15.33300 23.62900
H  44.97500 15.99400 24.10800
H  45.99700 17.41000 23.15200
H  47.60900 17.44400 22.53900
H  47.40800 18.12900 24.12200
H  46.17900 14.16400 22.59000
H  44.61500 13.91700 23.09600
H  46.45900 12.01400 23.17100
H  45.42800 12.17100 24.54400
H  47.04300 12.86600 24.65900
H  41.72700 14.11000 26.94700
H  40.93300 14.46700 28.53200
H  41.68600 12.86700 28.15700
H  43.84200 14.65200 32.88500
H  42.92200 18.30200 35.07600
H  42.39100 16.93300 36.17400
H  41.42500 17.44300 34.76900

