158

Mg 9.31700 48.29300 25.62900
C  7.41000 48.17700 28.56500
C  11.85600 49.71700 27.53200
C  11.18700 48.18000 22.92600
C  6.56600 47.26700 23.86800
N  9.54700 48.92700 27.82100
C  8.68000 48.72700 28.82000
C  9.17200 49.20500 30.13700
C  10.61100 49.79900 29.83800
C  10.67800 49.52400 28.27400
C  10.94000 51.17000 30.23300
C  9.08400 48.21900 31.29800
C  9.84200 48.68300 32.49200
H  9.23200 48.28700 33.89000
N  11.28100 48.95700 25.21200
C  12.18800 49.51900 26.09900
C  13.41700 49.70200 25.41800
C  13.28500 49.16600 24.12400
C  11.87100 48.79400 24.01700
C  14.58400 50.41700 26.02300
C  14.42300 48.85900 23.04600
O  14.11200 48.60900 21.92300
C  15.73200 48.90800 23.47800
N  8.84100 47.98600 23.68000
C  9.89100 47.72700 22.82200
C  9.41000 46.91600 21.52100
C  7.93000 46.67000 21.81300
C  7.76700 47.33300 23.20500
C  9.60700 47.55400 20.08800
C  7.56500 45.19400 21.75500
C  7.91700 44.38100 23.02200
N  7.37600 47.76900 26.05200
C  6.35100 47.46100 25.20300
C  5.06000 47.40300 25.94800
C  5.44400 47.67100 27.32500
C  6.80700 47.88900 27.30100
C  3.68000 47.37600 25.33000
C  4.95800 47.96300 28.62400
O  3.85800 48.07200 29.06200
C  6.21300 47.91600 29.45900
C  6.26900 46.63000 30.22000
O  6.64300 45.51200 29.77200
O  5.96400 46.78100 31.54600
C  6.13200 45.65700 32.44700
H  12.61800 50.09600 28.21700
H  11.83700 47.76300 22.15300
H  5.70400 46.87600 23.32400
H  8.55000 50.08300 30.30900
H  11.37300 49.07100 30.11700
H  10.05900 51.66300 30.64300
H  11.24900 51.75600 29.36700
H  11.66600 51.06500 31.04000
H  9.31000 47.20900 30.95800
H  8.02500 48.26100 31.55000
H  9.76600 49.76800 32.56400
H  10.87700 48.35700 32.59100
H  14.37100 50.70900 27.05200
H  14.84900 51.14500 25.25600
H  15.38000 49.67700 26.11300
H  15.93900 49.97300 23.58800
H  16.33900 48.52500 22.65700
H  15.89900 48.37800 24.41500
H  9.79700 45.90100 21.43400
H  7.35400 47.21400 21.06500
H  10.58900 47.28400 19.69800
H  9.51100 48.62900 20.23900
H  8.85500 47.29400 19.34200
H  8.13500 44.76600 20.93000
H  6.52500 45.06600 21.45300
H  8.34000 44.99200 23.81900
H  8.61400 43.61200 22.69000
H  7.00600 43.98200 23.46900
H  3.72100 47.29700 24.24400
H  3.23500 48.31900 25.64800
H  3.09500 46.53700 25.70500
H  6.06600 48.83500 30.02600
H  5.14500 45.20600 32.53900
H  6.32500 46.14200 33.40400
H  6.89100 44.93600 32.14400
Mg -1.51300 34.17500 27.18700
C  -3.09000 32.43700 29.80700
C  -0.22800 36.33900 29.41900
C  -0.35600 35.95300 24.50900
C  -3.21500 31.88800 24.87500
N  -1.72000 34.39700 29.35700
C  -2.36200 33.62500 30.21400
C  -2.18800 34.03900 31.68900
C  -1.47800 35.41500 31.52400
C  -1.14200 35.42500 30.04000
C  -2.37700 36.59000 31.90600
C  -1.32700 33.03000 32.52400
C  -1.97100 32.44000 33.76800
H  -1.17500 32.52600 35.05100
N  -0.32000 35.85500 26.99000
C  0.15200 36.56200 28.05100
C  0.95900 37.64400 27.57300
C  0.90100 37.58700 26.11500
C  0.06800 36.46900 25.76700
C  1.85200 38.56700 28.35100
C  1.67500 38.55700 25.05800
O  1.52100 38.29100 23.87100
C  2.52000 39.71400 25.48600
N  -1.72900 33.90900 25.11600
C  -1.15700 34.85700 24.21400
C  -1.74600 34.62900 22.82900
C  -2.27900 33.14500 22.92500
C  -2.39200 32.88700 24.37400
C  -2.87000 35.64300 22.28200
C  -1.44300 32.07100 22.33000
C  -0.28500 31.42900 23.17600
N  -2.86600 32.45300 27.28600
C  -3.43500 31.67000 26.28300
C  -4.24900 30.62900 26.89500
C  -4.08000 30.83800 28.25800
C  -3.23200 31.94200 28.48000
C  -5.10600 29.67100 26.12700
C  -4.55200 30.48300 29.58600
O  -5.36200 29.65600 29.89900
C  -3.99500 31.52400 30.59300
C  -5.10000 32.31600 31.13000
O  -6.03400 32.90700 30.57000
O  -5.04700 32.15200 32.43400
C  -6.13100 32.76700 33.19700
H  0.12900 37.11600 30.09800
H  -0.05100 36.49600 23.61200
H  -3.80900 31.33100 24.14700
H  -3.15200 34.34100 32.09800
H  -0.52500 35.50700 32.04600
H  -3.24100 36.23300 32.46800
H  -2.63800 37.12600 30.99400
H  -1.86100 37.35500 32.48600
H  -0.40400 33.44600 32.92800
H  -1.00800 32.22000 31.86800
H  -2.24300 31.39200 33.64600
H  -2.91400 32.92400 34.01800
H  1.56600 38.25700 29.35700
H  1.64900 39.62100 28.16100
H  2.87800 38.43100 28.01100
H  3.41600 39.27600 25.92700
H  1.98100 40.37400 26.16600
H  2.83400 40.15500 24.54000
H  -0.93800 34.56700 22.10000
H  -3.26600 32.98000 22.49400
H  -2.38200 36.07800 21.41000
H  -3.03200 36.46700 22.97600
H  -3.78900 35.08800 22.09700
H  -0.84400 32.51800 21.53700
H  -2.10100 31.36200 21.82700
H  0.58400 31.32500 22.52600
H  -0.49500 30.41400 23.51300
H  -0.04400 31.96800 24.09200
H  -5.87400 30.21400 25.57600
H  -5.41400 28.80400 26.71000
H  -4.44000 29.38400 25.31300
H  -3.51400 30.98200 31.40700
H  -7.13800 32.43900 32.93900
H  -5.93600 33.82800 33.03800
H  -6.00700 32.43400 34.22700

