158

Mg 24.62900 1.80400 30.07700
C  26.94700 1.38500 32.72500
C  22.08200 1.94300 32.45000
C  22.52800 1.92500 27.51900
C  27.38400 1.16700 27.89400
N  24.58900 1.53200 32.34800
C  25.70300 1.53600 33.24300
C  25.24100 1.87500 34.67000
C  23.64600 1.85800 34.58500
C  23.41700 1.89000 33.02900
C  23.01300 0.58800 35.20200
C  25.88100 3.23100 35.15100
C  26.66100 3.24900 36.44800
H  26.14200 4.09600 37.60500
N  22.60400 1.81500 30.00200
C  21.73500 1.88000 31.06300
C  20.37600 1.97900 30.57100
C  20.46900 1.98100 29.13900
C  21.93600 1.95000 28.78100
C  19.08100 2.18600 31.44100
C  19.36600 1.98600 28.09500
O  19.54600 2.08100 26.84400
C  17.95200 1.75500 28.58000
N  24.89600 1.67800 28.03600
C  23.89700 1.76200 27.14700
C  24.30000 1.81400 25.76600
C  25.80800 1.68400 25.93900
C  26.03200 1.36100 27.38400
C  23.65500 0.84200 24.68700
C  26.69200 2.90800 25.41000
C  26.98500 4.02100 26.36600
N  26.71900 1.32400 30.19600
C  27.70900 1.18400 29.23400
C  28.93500 0.92700 29.83700
C  28.70300 1.06000 31.23200
C  27.31500 1.23700 31.39000
C  30.24700 0.56600 29.12200
C  29.40100 1.13800 32.48900
O  30.56400 1.14600 32.75200
C  28.21600 1.28400 33.54700
C  28.25700 0.10900 34.52600
O  27.84300 -1.04200 34.31100
O  28.58800 0.53700 35.76600
C  28.39500 -0.44500 36.87100
H  21.36400 2.14700 33.24700
H  21.88700 2.00100 26.63700
H  28.22300 1.12100 27.19700
H  25.51300 1.07500 35.35900
H  23.26600 2.71200 35.14600
H  22.10300 0.26300 34.69800
H  22.62700 0.75700 36.20700
H  23.74200 -0.21400 35.32000
H  25.17300 4.04700 35.00500
H  26.62200 3.51400 34.40300
H  27.64200 3.64600 36.18800
H  26.91900 2.24400 36.78200
H  18.41000 2.97700 31.10700
H  19.38800 2.62200 32.39100
H  18.47300 1.29400 31.59000
H  17.33500 1.41600 27.74800
H  17.51000 2.68100 28.94800
H  17.95900 0.96000 29.32600
H  24.06400 2.83200 25.45600
H  26.04000 0.73600 25.45300
H  23.17500 -0.10100 24.94900
H  24.42300 0.59600 23.95300
H  22.79900 1.38000 24.28000
H  26.15700 3.34200 24.56500
H  27.66800 2.59300 25.04100
H  26.47300 3.91600 27.32300
H  26.82500 4.94200 25.80600
H  28.02800 4.03800 26.68300
H  31.04700 1.02000 29.70800
H  30.29600 1.04000 28.14200
H  30.34900 -0.51200 28.99200
H  28.45300 2.23500 34.02400
H  27.33000 -0.67400 36.87800
H  28.65200 0.10300 37.77700
H  29.00200 -1.34100 36.73900
Mg 10.71100 47.15800 25.52500
C  8.25800 47.61000 28.08300
C  13.06300 48.34900 27.60700
C  12.81500 46.85900 22.90300
C  8.05800 46.34100 23.31300
N  10.53300 48.00800 27.59700
C  9.52100 47.98200 28.51800
C  10.05200 48.38200 29.89400
C  11.43700 49.03500 29.44500
C  11.72700 48.35400 28.16100
C  11.49000 50.58500 29.29000
C  10.06000 47.39300 31.09800
C  10.19700 48.20200 32.40000
H  9.26000 47.86900 33.50700
N  12.72100 47.50300 25.27900
C  13.52900 48.00700 26.30600
C  14.89900 47.93500 25.84100
C  14.88500 47.56600 24.44700
C  13.40400 47.33600 24.11600
C  16.03300 48.36900 26.71200
C  15.99200 47.31900 23.58700
O  15.84100 47.03800 22.37800
C  17.26500 47.29900 24.12900
N  10.45900 46.86100 23.35700
C  11.47400 46.74300 22.51200
C  11.04600 46.00700 21.19400
C  9.48500 45.86800 21.37800
C  9.32500 46.36200 22.77300
C  11.46300 46.70100 19.89200
C  8.97200 44.38300 21.20200
C  7.57000 44.40800 20.48700
N  8.63300 47.04500 25.57900
C  7.65300 46.73800 24.63800
C  6.35400 46.84900 25.21900
C  6.57400 47.09300 26.56500
C  7.96300 47.21400 26.76300
C  5.12800 46.58000 24.55000
C  5.89500 47.18900 27.86400
O  4.69700 47.09500 28.12200
C  6.96800 47.64200 28.91900
C  6.86500 46.62200 29.95300
O  7.29200 45.51200 29.80100
O  6.04600 46.97700 30.93200
C  6.15100 46.10400 32.13300
H  13.83900 48.67500 28.30200
H  13.49400 46.58800 22.09200
H  7.26600 45.96400 22.66400
H  9.35100 49.16300 30.18900
H  12.16600 48.80600 30.22200
H  12.38200 50.89500 29.83400
H  10.66100 51.08000 29.79600
H  11.71800 51.00100 28.30800
H  11.00600 46.86700 30.96900
H  9.17100 46.76500 31.04200
H  9.89700 49.23200 32.21000
H  11.26800 48.26100 32.59200
H  15.66600 48.64000 27.70200
H  16.57000 49.22100 26.29700
H  16.82400 47.63400 26.85800
H  17.16700 46.66200 25.00700
H  17.58700 48.31200 24.37200
H  17.90700 46.92300 23.33300
H  11.50000 45.01700 21.16000
H  8.91100 46.60000 20.81100
H  12.05400 45.96000 19.35400
H  12.16100 47.53900 19.87900
H  10.55500 47.00200 19.37000
H  8.75500 43.85500 22.13000
H  9.58500 43.62200 20.71900
H  7.72700 44.27400 19.41700
H  7.08900 45.38400 20.54200
H  6.92900 43.67000 20.97000
H  4.21000 46.82800 25.08200
H  5.07100 45.49500 24.45500
H  5.13300 47.06200 23.57300
H  6.82100 48.62300 29.37000
H  7.09900 45.56900 32.09700
H  5.29500 45.43300 32.06500
H  6.04600 46.78500 32.97800

