158

Mg 8.06700 2.34700 27.66200
C  9.61400 0.83400 30.35900
C  5.97500 3.93100 29.62500
C  6.11200 3.19400 24.85500
C  9.63100 -0.12000 25.59400
N  7.78700 2.27900 29.79500
C  8.65200 1.70300 30.72400
C  8.26700 2.17000 32.18900
C  6.94200 3.01300 31.96100
C  6.85200 3.08500 30.36400
C  5.54100 2.57900 32.57400
C  9.37000 3.00300 33.01000
C  9.93800 2.38400 34.30700
H  10.14700 3.34100 35.51400
N  6.46800 3.59600 27.29900
C  5.80000 4.21200 28.25600
C  4.89300 5.23700 27.73700
C  4.88000 5.03600 26.32800
C  5.86700 3.91100 26.13200
C  4.02800 6.21800 28.57800
C  4.04500 5.68000 25.27300
O  4.31400 5.53300 24.06600
C  3.00500 6.63600 25.67800
N  7.97100 1.75500 25.51600
C  6.96900 2.13300 24.66800
C  6.90800 1.20700 23.39600
C  8.28400 0.40300 23.52800
C  8.63600 0.66500 24.98500
C  5.66200 0.41000 23.18300
C  9.44100 0.76800 22.54300
C  10.43000 -0.29700 22.11200
N  9.33900 0.72000 27.85100
C  9.92100 -0.08800 26.92700
C  10.96700 -0.95700 27.55500
C  10.88500 -0.52300 28.89200
C  9.88500 0.44300 29.03300
C  11.84300 -1.99600 26.86100
C  11.39300 -0.76100 30.23500
O  12.30000 -1.52900 30.64300
C  10.63400 0.10800 31.20700
C  10.12200 -0.76500 32.32300
O  9.07800 -1.41700 32.20800
O  11.01200 -0.75000 33.33400
C  10.45400 -1.33100 34.57800
H  5.46300 4.57900 30.34000
H  5.47800 3.45200 24.00500
H  10.28300 -0.74800 24.98200
H  8.00200 1.23600 32.68400
H  7.03100 4.06600 32.23000
H  5.02100 3.35500 33.13600
H  5.82300 1.71900 33.18100
H  4.86900 2.26600 31.77500
H  9.10400 4.03800 33.22500
H  10.18000 3.20400 32.30900
H  10.89300 1.95500 34.00600
H  9.23200 1.63700 34.67200
H  4.39300 6.36600 29.59400
H  3.04100 5.75700 28.58500
H  4.11600 7.14100 28.00400
H  2.43300 6.14200 26.46400
H  2.38400 6.89800 24.82100
H  3.36700 7.53000 26.18600
H  7.04300 1.92600 22.58700
H  8.06600 -0.66100 23.42600
H  5.02700 0.38800 24.06900
H  5.78900 -0.63700 22.90700
H  5.08600 0.94000 22.42400
H  9.95900 1.64100 22.93900
H  8.94000 1.10300 21.63500
H  10.36300 -1.26800 22.60400
H  11.42800 0.12200 22.23700
H  10.24100 -0.54600 21.06800
H  12.89000 -1.71700 26.74200
H  11.47100 -2.18300 25.85300
H  11.74900 -2.91700 27.43600
H  11.40400 0.80400 31.54100
H  11.24800 -1.15000 35.30200
H  10.23300 -2.39900 34.56100
H  9.58700 -0.75600 34.90300
Mg 16.58200 -2.27200 27.77200
C  15.54500 -0.25500 30.46500
C  18.51600 -4.14000 29.90400
C  18.16700 -3.50400 25.16500
C  15.05800 0.16100 25.73100
N  17.06000 -2.11000 29.89000
C  16.37100 -1.35400 30.79200
C  16.74000 -1.67300 32.24200
C  17.78400 -2.78800 32.00600
C  17.77800 -3.10500 30.49200
C  19.29700 -2.41800 32.51700
C  15.55500 -2.02100 33.21300
C  15.48500 -1.26800 34.54300
H  16.79100 -0.60200 35.10500
N  18.02200 -3.71800 27.53000
C  18.67600 -4.44000 28.56000
C  19.50200 -5.38100 27.99400
C  19.36300 -5.29600 26.53800
C  18.46500 -4.11600 26.33300
C  20.38200 -6.31900 28.82200
C  19.98100 -6.11400 25.40500
O  19.84300 -5.80300 24.24000
C  20.72500 -7.33000 25.65400
N  16.55800 -1.77400 25.68300
C  17.27500 -2.46500 24.79700
C  17.16400 -1.94100 23.40100
C  15.96300 -0.92100 23.55000
C  15.86400 -0.81100 25.08700
C  18.49300 -1.42500 22.81300
C  14.65300 -1.28400 22.90300
C  13.55200 -1.85400 23.83200
N  15.41900 -0.48700 27.94800
C  14.80000 0.40100 27.04600
C  14.10600 1.43500 27.77200
C  14.37400 1.18600 29.10100
C  15.12100 0.05900 29.20900
C  13.20100 2.43200 27.19400
C  14.09800 1.72300 30.39000
O  13.52000 2.71400 30.75000
C  14.84100 0.73100 31.41800
C  15.77400 1.64600 32.12400
O  16.86100 2.08300 31.70100
O  15.10200 2.18200 33.22800
C  15.94900 3.29000 33.82600
H  18.88900 -4.86200 30.63300
H  18.63300 -3.91900 24.26800
H  14.68300 0.85500 24.97500
H  17.34200 -0.87400 32.67700
H  17.61300 -3.75600 32.47900
H  19.34500 -1.40900 32.92900
H  20.01300 -2.61100 31.71900
H  19.52700 -3.17200 33.27000
H  15.61400 -3.09800 33.36900
H  14.59400 -1.89000 32.71500
H  15.14300 -1.98600 35.28900
H  14.78500 -0.43300 34.51900
H  20.05000 -7.35500 28.75700
H  20.39300 -6.07100 29.88300
H  21.42200 -6.31700 28.49500
H  21.56100 -6.99000 26.26500
H  20.99800 -7.88000 24.75400
H  20.05100 -7.93900 26.25700
H  16.80800 -2.82900 22.87700
H  16.21500 0.08600 23.21900
H  19.13600 -1.08300 23.62400
H  18.33200 -0.56000 22.17000
H  19.00400 -2.20900 22.25500
H  14.83000 -1.93200 22.04400
H  14.24100 -0.33700 22.55500
H  12.69600 -1.19300 23.96300
H  13.85600 -2.28100 24.78800
H  13.12400 -2.59900 23.16000
H  12.18400 2.03900 27.19700
H  13.28800 2.68500 26.13800
H  13.18500 3.35400 27.77500
H  14.15500 0.35200 32.17500
H  16.97500 2.96400 33.99700
H  15.49900 3.47700 34.80100
H  15.92000 4.18800 33.20900

