158

Mg 47.71500 16.24100 28.49200
C  45.76000 16.16800 31.39000
C  50.14000 17.85900 30.28000
C  49.72100 16.23100 25.70400
C  45.19400 14.80900 26.72600
N  47.81200 17.12000 30.62400
C  46.96500 16.80000 31.69000
C  47.54300 17.15800 33.05900
C  48.78500 17.98600 32.63800
C  48.93500 17.63600 31.06100
C  48.80800 19.43300 33.03200
C  47.84700 16.02900 33.95700
C  47.41000 16.28700 35.47400
H  47.34200 17.74600 36.02800
N  49.66800 16.81500 28.06600
C  50.43100 17.51600 28.95700
C  51.76300 17.77000 28.36900
C  51.66200 17.42000 27.03200
C  50.36000 16.72900 26.83900
C  52.94700 18.22000 29.21800
C  52.76400 17.55400 25.99700
O  52.74100 17.07200 24.88500
C  53.95400 18.43900 26.27000
N  47.44300 15.63900 26.54200
C  48.43200 15.64400 25.53300
C  47.97500 15.17000 24.20300
C  46.58200 14.56300 24.55600
C  46.39400 14.96900 26.01000
C  48.05800 16.31500 23.20900
C  46.46900 13.02400 24.43500
C  45.99100 12.51300 23.03400
N  45.84700 15.67900 28.88200
C  44.93300 15.07400 28.10100
C  43.77700 14.74800 28.86800
C  44.03900 15.02500 30.21700
C  45.31900 15.69800 30.12000
C  42.53900 14.08200 28.25500
C  43.56600 14.90300 31.50900
O  42.57800 14.34200 31.99900
C  44.73800 15.74300 32.33400
C  44.07300 16.90400 33.05800
O  44.09900 18.08300 32.79500
O  43.50400 16.41800 34.19100
C  42.87800 17.51200 34.95500
H  50.86100 18.40200 30.89400
H  50.26300 16.33300 24.76100
H  44.36400 14.39300 26.15200
H  46.84100 17.88300 33.47100
H  49.63200 17.53800 33.15800
H  48.94000 20.01700 32.12100
H  49.53400 19.55600 33.83600
H  47.83900 19.79500 33.37600
H  48.89500 15.75400 33.83100
H  47.19200 15.20300 33.68000
H  48.12000 15.84900 36.17600
H  46.39500 15.89700 35.54400
H  52.93100 17.81600 30.23000
H  52.99100 19.30700 29.27800
H  53.92100 17.97800 28.79200
H  53.56600 19.27100 26.85700
H  54.30900 18.72300 25.28000
H  54.69400 17.82000 26.77800
H  48.67600 14.42700 23.82300
H  45.80900 15.06000 23.97000
H  49.05900 16.39800 22.78500
H  47.72800 17.26100 23.63900
H  47.31800 16.01800 22.46600
H  45.82700 12.61500 25.21600
H  47.44500 12.56100 24.58100
H  46.77700 11.82300 22.72600
H  45.93000 13.28800 22.27100
H  45.05000 11.96600 22.97500
H  41.85200 13.87400 29.07500
H  42.84300 13.17500 27.73200
H  41.99000 14.72000 27.56300
H  45.04300 15.06200 33.12800
H  42.05500 17.84300 34.32100
H  43.61800 18.29000 35.14300
H  42.44800 17.14200 35.88600
Mg 47.93600 24.77100 28.53700
C  49.00200 27.00100 30.93300
C  46.95600 22.63000 31.01100
C  47.26500 22.64400 26.04400
C  49.33200 26.95800 26.20000
N  47.93600 24.83200 30.67900
C  48.34000 25.91100 31.48700
C  47.91900 25.70200 32.99200
C  47.51400 24.19300 32.97500
C  47.43000 23.86400 31.45700
C  48.35500 23.30500 33.89200
C  46.82200 26.70900 33.53400
C  46.11500 26.26300 34.83200
H  46.24900 27.21900 36.15200
N  47.00800 22.93600 28.53400
C  46.77700 22.13800 29.70400
C  46.19500 20.88000 29.23900
C  46.09500 20.93300 27.76200
C  46.69600 22.24600 27.36900
C  45.67100 19.87200 30.19100
C  45.62800 19.88000 26.78000
O  45.84500 19.96900 25.59600
C  44.99600 18.68300 27.29200
N  48.16700 24.85200 26.34500
C  47.91300 23.75700 25.58400
C  48.30500 23.92600 24.13300
C  48.72600 25.47700 24.21800
C  48.75800 25.82000 25.69500
C  49.46300 22.96600 23.61300
C  47.79300 26.41800 23.48600
C  47.78700 26.27600 21.97500
N  48.99300 26.55600 28.54300
C  49.42400 27.34400 27.54000
C  49.93600 28.66300 28.01000
C  49.88400 28.53200 29.38600
C  49.25900 27.28200 29.59200
C  50.48800 29.71200 27.08300
C  50.05900 29.17300 30.66600
O  50.65500 30.20200 30.96700
C  49.45000 28.20500 31.71000
C  50.45300 27.84600 32.72000
O  51.39700 27.16000 32.47700
O  50.30400 28.49500 33.86300
C  51.29200 28.18500 34.88400
H  46.82500 21.94500 31.85100
H  47.26400 21.82100 25.32500
H  49.69000 27.66500 25.44900
H  48.69300 25.99300 33.70300
H  46.54000 24.08100 33.45200
H  49.38900 23.63700 33.80600
H  48.41300 22.26000 33.58700
H  47.93000 23.31000 34.89600
H  46.00000 26.70000 32.81700
H  47.15200 27.73800 33.67800
H  46.40500 25.24100 35.07600
H  45.03800 26.21200 34.67300
H  46.09100 18.89300 29.96100
H  44.58700 19.79300 30.10000
H  45.76800 20.15200 31.24000
H  44.39300 18.83700 28.18700
H  45.77400 17.92300 27.36700
H  44.36100 18.30500 26.49100
H  47.47900 23.85100 23.42600
H  49.71700 25.62100 23.78900
H  49.18400 22.24200 22.84800
H  49.96800 22.43000 24.41700
H  50.11500 23.63900 23.05600
H  48.12400 27.39900 23.82700
H  46.75100 26.34900 23.80000
H  47.04500 26.96300 21.56700
H  47.73300 25.30300 21.48800
H  48.74400 26.75000 21.75600
H  50.56700 30.65600 27.62200
H  49.80700 29.91500 26.25600
H  51.48300 29.50500 26.69000
H  48.58500 28.76400 32.06600
H  50.98700 27.23900 35.33200
H  51.06600 28.83200 35.73100
H  52.34600 28.20600 34.60700

