158

Mg -0.48900 7.68200 26.21600
C  0.78500 9.61600 28.97900
C  -0.53300 4.96400 28.35300
C  -1.06600 5.78700 23.60600
C  0.19400 10.39300 24.15600
N  0.08000 7.36400 28.48100
C  0.46700 8.28800 29.41600
C  0.64700 7.64900 30.77000
C  0.35800 6.05500 30.55400
C  -0.00100 6.10300 29.01000
C  1.52900 5.10400 30.87000
C  -0.06300 8.25700 31.94600
C  0.64800 8.13400 33.33400
H  1.88600 7.22100 33.57500
N  -0.88700 5.64700 25.96400
C  -0.94500 4.72100 26.96000
C  -1.41900 3.43300 26.34900
C  -1.38100 3.56000 24.93400
C  -1.13100 5.00600 24.72800
C  -1.64200 2.20700 27.25100
C  -1.64100 2.65800 23.72600
O  -1.68500 3.10900 22.57200
C  -1.79100 1.16200 23.87700
N  -0.25900 7.98800 24.12200
C  -0.67400 7.09000 23.27200
C  -0.82800 7.61100 21.85300
C  -0.62600 9.16800 22.08200
C  -0.23500 9.17100 23.55800
C  0.16500 6.98700 20.84900
C  -1.82300 10.07400 21.77100
C  -2.86800 10.34900 23.00200
N  0.28900 9.61800 26.49400
C  0.53100 10.56900 25.52600
C  1.05100 11.77700 26.11100
C  1.11400 11.44500 27.48000
C  0.69900 10.10300 27.65100
C  1.36800 13.11500 25.38400
C  1.57100 11.96500 28.74900
O  2.03500 12.98800 29.01900
C  1.33300 10.77800 29.76900
C  2.54900 10.49700 30.70500
O  3.43100 9.68000 30.56700
O  2.43700 11.35700 31.82300
C  3.28500 11.07300 32.96600
H  -0.62400 4.15200 29.07700
H  -1.41000 5.22400 22.73700
H  0.36500 11.30100 23.57400
H  1.70500 7.60400 31.02700
H  -0.49100 5.73400 31.15700
H  1.19700 4.59700 31.77600
H  2.50600 5.57100 30.99400
H  1.52100 4.20300 30.25800
H  -1.04000 7.85500 32.21600
H  -0.10500 9.30700 31.65700
H  -0.15000 7.81700 34.00400
H  0.80300 9.15400 33.68400
H  -0.72900 1.63500 27.41600
H  -2.50700 1.57900 27.04200
H  -1.87900 2.54300 28.26100
H  -2.52600 0.91100 24.64100
H  -0.81400 0.79100 24.18700
H  -2.21200 0.87500 22.91300
H  -1.86900 7.44500 21.57500
H  0.30600 9.38600 21.56100
H  1.15000 7.12800 21.29400
H  0.11400 7.65600 19.99000
H  -0.13600 6.03000 20.42300
H  -2.41600 9.56400 21.01200
H  -1.54700 11.06200 21.40300
H  -2.86900 11.39300 23.31600
H  -2.48200 9.80100 23.86200
H  -3.85700 9.93400 22.81300
H  0.61800 13.27900 24.61000
H  2.29100 12.86400 24.86100
H  1.61200 13.95500 26.03400
H  0.59200 11.15500 30.47500
H  2.91000 10.09100 33.25400
H  3.08500 11.83900 33.71600
H  4.30200 10.99700 32.58200
Mg 50.15300 35.38800 27.42500
C  47.93200 33.74200 29.59600
C  50.48300 37.88800 29.64300
C  52.01600 36.80000 25.15300
C  49.11400 32.97600 24.86900
N  49.24900 35.70800 29.49600
C  48.47800 34.92500 30.21500
C  48.42300 35.42500 31.68200
C  48.93000 36.90100 31.50000
C  49.63100 36.82600 30.09100
C  47.78800 38.01200 31.63200
C  49.24100 34.63200 32.67600
C  48.80800 34.56800 34.12300
H  47.63600 35.42000 34.52400
N  51.14500 37.11000 27.44400
C  51.21100 37.99800 28.45000
C  52.04800 39.11300 28.01300
C  52.42100 38.87200 26.69500
C  51.85000 37.52600 26.34500
C  52.30400 40.23900 28.99800
C  53.14500 39.75700 25.77300
O  53.37800 39.36000 24.65700
C  53.66700 41.14900 26.21700
N  50.31700 35.09400 25.14100
C  51.24200 35.76500 24.54100
C  51.66500 35.23300 23.22200
C  50.58800 34.08500 22.96100
C  49.97600 34.00900 24.40400
C  51.66900 36.34000 22.05600
C  51.11900 32.78400 22.48700
C  51.56300 31.81800 23.67300
N  48.74700 33.74200 27.21000
C  48.51000 32.89400 26.12600
C  47.54500 31.92500 26.63000
C  47.23200 32.28500 27.94600
C  48.10000 33.30200 28.30100
C  47.00400 30.78500 25.77500
C  46.49600 31.86200 29.08800
O  45.76400 30.89200 29.27400
C  46.81800 32.91600 30.17600
C  47.06500 32.11200 31.39800
O  48.12000 31.54400 31.66600
O  45.94300 32.00000 32.13600
C  46.17300 31.49300 33.49700
H  50.64700 38.56900 30.48100
H  52.68200 37.10700 24.34400
H  48.87300 32.21100 24.12700
H  47.38600 35.44600 32.01800
H  49.72600 37.10100 32.21700
H  46.83900 37.53200 31.87100
H  47.66200 38.43700 30.63600
H  48.03600 38.78300 32.36200
H  50.30100 34.87800 32.72700
H  49.29800 33.61400 32.29200
H  49.65600 34.63700 34.80500
H  48.58500 33.51700 34.30900
H  53.35300 40.27600 29.29300
H  51.76700 40.24900 29.94600
H  51.96800 41.17400 28.55100
H  52.83500 41.83400 26.38300
H  54.31700 41.56700 25.44900
H  54.22100 41.03400 27.14900
H  52.69600 34.87800 23.23500
H  49.74600 34.32200 22.31100
H  51.30900 37.29500 22.44000
H  50.97300 35.97000 21.30200
H  52.67200 36.45200 21.64600
H  52.03300 33.00500 21.93500
H  50.38400 32.28800 21.85300
H  51.76100 32.26300 24.64800
H  52.54300 31.45600 23.36200
H  50.89900 30.96400 23.80900
H  46.33200 31.28200 25.07500
H  46.44500 30.00800 26.29600
H  47.73400 30.28900 25.13600
H  45.99600 33.62600 30.26800
H  45.46900 31.95400 34.19000
H  47.13700 31.85200 33.85900
H  45.98900 30.42000 33.55400

