158

Mg 26.09300 1.59900 29.63300
C  28.09800 0.85000 32.51700
C  23.44700 1.70200 31.76600
C  24.25600 1.44500 26.98800
C  28.91700 0.78400 27.72400
N  25.83200 1.36900 31.93900
C  26.76800 1.11700 32.87200
C  26.17300 1.31200 34.25800
C  24.60600 1.32400 34.02400
C  24.58700 1.42000 32.46600
C  23.80900 0.07700 34.61600
C  26.76600 2.50100 35.05200
C  27.45000 2.09400 36.36900
H  27.13700 3.07500 37.53700
N  24.12600 1.72100 29.37800
C  23.18200 1.81800 30.34300
C  21.87300 1.90900 29.69700
C  22.07700 1.83700 28.29400
C  23.50500 1.66400 28.17500
C  20.52600 1.95300 30.47500
C  21.04600 1.74200 27.19000
O  21.36500 1.47900 26.03500
C  19.59500 1.89600 27.44300
N  26.60400 1.27300 27.54700
C  25.57600 1.24900 26.65500
C  26.11800 1.05000 25.19300
C  27.68800 0.96900 25.42100
C  27.75200 0.99100 27.01200
C  25.48000 -0.09800 24.40300
C  28.50500 2.15700 24.90800
C  29.86000 1.84900 24.26100
N  28.14300 1.06200 30.01300
C  29.13400 0.71300 29.12100
C  30.34300 0.26800 29.84900
C  29.97800 0.42600 31.18600
C  28.62700 0.78500 31.24300
C  31.67000 -0.22900 29.29800
C  30.43700 0.17000 32.52900
O  31.53200 -0.14500 32.94400
C  29.28900 0.53200 33.49100
C  29.09700 -0.64600 34.38500
O  28.43400 -1.65500 34.11000
O  29.61900 -0.37800 35.61000
C  29.39800 -1.35100 36.65900
H  22.62200 1.89500 32.45500
H  23.62400 1.28000 26.11300
H  29.79400 0.51000 27.13400
H  26.50500 0.44400 34.82700
H  24.19500 2.19500 34.53300
H  23.15100 -0.29300 33.82900
H  23.15400 0.50400 35.37600
H  24.49400 -0.65500 35.04300
H  25.88300 3.08800 35.30900
H  27.55100 2.97900 34.46600
H  28.53400 2.20100 36.32200
H  27.31100 1.08400 36.75400
H  20.71100 2.09500 31.54000
H  19.94900 1.04500 30.30100
H  19.99500 2.83100 30.10600
H  19.35100 2.86100 27.88800
H  19.23600 1.06600 28.05100
H  19.02800 1.82900 26.51500
H  25.93200 1.98900 24.67200
H  28.03400 -0.01800 25.11600
H  25.52500 -1.00000 25.01300
H  25.92900 -0.25900 23.42400
H  24.44200 0.22300 24.31800
H  28.72600 2.93300 25.64100
H  27.96600 2.56500 24.05300
H  30.65100 2.48300 24.66200
H  29.84200 2.09100 23.19800
H  30.12500 0.79500 24.34400
H  31.97800 0.31800 28.40700
H  31.67100 -1.29900 29.08800
H  32.46700 0.01300 30.00100
H  29.59200 1.29000 34.21300
H  30.31700 -1.37900 37.24400
H  29.24400 -2.38200 36.34100
H  28.57300 -1.02400 37.29200
Mg 40.54200 41.09000 27.18300
C  40.10000 43.53700 29.77100
C  41.96800 39.05300 29.66800
C  41.31300 38.88100 24.82500
C  39.89100 43.44600 24.81100
N  40.78000 41.20900 29.52000
C  40.40100 42.26900 30.25700
C  40.64200 41.90300 31.78600
C  41.33700 40.44400 31.76600
C  41.35200 40.19600 30.25400
C  42.67700 40.38900 32.54200
C  39.34700 41.99300 32.61600
C  39.27700 41.16200 33.95200
H  38.53800 41.75800 35.21500
N  41.55200 39.26700 27.24000
C  41.97400 38.57100 28.33000
C  42.47300 37.25200 27.93300
C  42.15000 37.12100 26.57700
C  41.60200 38.45400 26.16300
C  43.18800 36.33300 28.80800
C  42.25300 35.93500 25.65000
O  41.93800 36.01300 24.47500
C  42.88800 34.67500 26.13300
N  40.85600 41.23300 25.06300
C  40.93000 40.09900 24.32200
C  40.71400 40.41400 22.76400
C  40.18400 41.89800 22.81600
C  40.34800 42.20200 24.28400
C  41.93200 40.23700 21.82000
C  38.78000 42.14400 22.24700
C  37.64800 41.61600 23.09400
N  40.10700 43.14900 27.23800
C  39.84000 43.91300 26.17900
C  39.39800 45.21100 26.67000
C  39.54900 45.12300 28.07200
C  39.96500 43.85200 28.37700
C  38.97300 46.34100 25.76500
C  39.45700 45.86100 29.25500
O  38.99100 46.99000 29.46800
C  39.86100 44.87100 30.43000
C  41.04700 45.31000 31.10300
O  42.05700 45.67200 30.59100
O  40.85800 45.22600 32.44100
C  41.96500 45.57200 33.35100
H  42.54100 38.32500 30.24500
H  41.39300 38.16300 24.00500
H  39.67300 44.19100 24.04300
H  41.35100 42.63400 32.17400
H  40.66100 39.69300 32.17500
H  43.51700 39.99000 31.97500
H  42.41300 39.67100 33.31800
H  43.02900 41.29000 33.04600
H  38.61700 41.64300 31.88600
H  39.06600 43.02900 32.80700
H  40.25600 40.83500 34.30300
H  38.64500 40.28700 33.80200
H  42.42300 35.66000 29.19500
H  43.80600 36.85200 29.54100
H  43.96700 35.77500 28.28700
H  42.84600 33.90500 25.36200
H  42.39600 34.29900 27.03000
H  43.96800 34.81100 26.19400
H  39.97400 39.63000 22.60200
H  40.84200 42.65000 22.38000
H  42.04000 41.11800 21.18600
H  41.69700 39.37000 21.20200
H  42.82700 40.21400 22.44200
H  38.80800 41.72100 21.24300
H  38.73900 43.22100 22.08400
H  37.36000 42.37100 23.82500
H  37.95600 40.78000 23.72200
H  36.82500 41.26300 22.47200
H  39.03800 46.01500 24.72700
H  39.60300 47.21200 25.94800
H  37.97500 46.66600 26.05800
H  39.06900 44.92900 31.17600
H  41.99100 46.63800 33.57700
H  42.89600 45.34200 32.83300
H  41.79300 45.01600 34.27300

