158

Mg 1.23800 8.25300 26.30200
C  1.46800 10.21000 29.06000
C  0.88700 5.43300 28.16700
C  1.09900 6.47100 23.39600
C  1.99900 11.09200 24.26900
N  1.29400 7.80300 28.50600
C  1.18400 8.85400 29.39900
C  1.05200 8.24400 30.84100
C  1.12500 6.66200 30.53400
C  1.12000 6.60000 29.02600
C  2.29000 6.00600 31.14200
C  -0.25700 8.59500 31.56900
C  -0.15800 8.44500 33.14000
H  1.01700 7.69600 33.83600
N  1.09900 6.21300 25.87700
C  0.95600 5.19300 26.76500
C  0.73800 3.94800 26.08900
C  0.81400 4.19500 24.74800
C  1.04900 5.66500 24.58100
C  0.62100 2.63300 26.86000
C  0.74800 3.19200 23.55000
O  0.96700 3.56900 22.41900
C  0.36400 1.77800 23.78600
N  1.67600 8.71200 24.12900
C  1.39500 7.77700 23.18000
C  1.34300 8.36100 21.78700
C  1.51200 9.91900 22.00700
C  1.81700 9.95400 23.55200
C  2.52800 7.69800 20.88400
C  0.39900 10.82900 21.49100
C  -0.79300 11.07900 22.38000
N  1.65600 10.25600 26.54300
C  1.93900 11.28000 25.68700
C  2.10000 12.51800 26.41400
C  2.07200 12.15300 27.77600
C  1.71300 10.77500 27.77900
C  2.34200 13.91100 25.94300
C  2.08700 12.57200 29.09800
O  2.40500 13.67800 29.57100
C  1.59300 11.39300 29.97100
C  2.66800 11.17100 31.02900
O  3.68900 10.58900 30.97200
O  2.13100 11.64600 32.26100
C  2.96000 11.41700 33.46500
H  0.61500 4.57200 28.78000
H  0.87500 6.04500 22.41600
H  2.07600 12.02700 23.70900
H  1.86400 8.66200 31.43700
H  0.23300 6.11600 30.84100
H  1.89400 5.36500 31.93000
H  2.99900 6.76300 31.47700
H  2.83900 5.36800 30.44900
H  -1.10300 7.97800 31.26400
H  -0.38800 9.65400 31.34400
H  -1.08700 8.01300 33.51200
H  -0.09500 9.48500 33.45900
H  0.91200 2.85400 27.88700
H  1.30200 1.88400 26.45600
H  -0.41600 2.30400 26.80000
H  0.27500 1.27000 22.82600
H  -0.62000 1.66200 24.24000
H  1.13100 1.25700 24.35900
H  0.35400 8.12300 21.39300
H  2.40500 10.35200 21.55600
H  2.07100 6.97500 20.20800
H  3.27000 7.21000 21.51700
H  3.08700 8.41500 20.28300
H  -0.15500 10.39000 20.66100
H  0.66300 11.84700 21.20600
H  -0.72700 10.35000 23.18800
H  -1.74900 10.85600 21.90700
H  -0.81200 12.07400 22.82500
H  1.44600 14.34100 25.49600
H  3.21400 14.03300 25.30100
H  2.48200 14.48500 26.85900
H  0.68500 11.59900 30.53800
H  2.26200 11.12200 34.24900
H  3.55200 12.32100 33.60400
H  3.72600 10.64600 33.38400
Mg 36.53100 2.46000 30.66300
C  33.67000 3.46500 32.59300
C  38.28400 2.79100 33.66800
C  39.20700 1.91400 28.95800
C  34.54000 2.66300 27.84500
N  35.97900 3.21400 32.82700
C  34.80600 3.37200 33.38600
C  34.83800 3.56100 34.91500
C  36.42300 3.63400 35.13500
C  36.95900 3.19700 33.77600
C  36.96800 5.08800 35.43100
C  34.06700 2.38200 35.62600
C  33.55300 2.43600 37.13600
H  34.21100 3.44500 38.07100
N  38.49800 2.26800 31.34700
C  39.05500 2.33500 32.54600
C  40.43400 1.93000 32.51700
C  40.75200 1.80900 31.14300
C  39.46400 2.04000 30.40900
C  41.23300 1.60300 33.70000
C  42.11700 1.45100 30.48000
O  42.32400 1.35000 29.29000
C  43.36500 1.24700 31.36700
N  36.83000 2.32800 28.67000
C  38.05700 2.08700 28.20600
C  38.00100 2.01000 26.69900
C  36.46200 2.16800 26.36900
C  35.89700 2.41400 27.73700
C  38.77200 3.15400 26.06100
C  35.75400 1.08000 25.58200
C  35.59700 -0.27300 26.29800
N  34.48800 2.91400 30.28900
C  33.83200 2.91200 29.06900
C  32.40800 3.23600 29.21200
C  32.34300 3.40500 30.60900
C  33.61400 3.24900 31.16800
C  31.36100 3.15400 28.19100
C  31.40300 3.68500 31.73800
O  30.18700 3.85800 31.68200
C  32.25500 3.64000 33.06900
C  32.06700 4.90600 33.89600
O  32.62300 5.96300 33.70800
O  31.18800 4.75700 34.95600
C  31.29200 5.82000 35.98200
H  38.81700 2.72500 34.61800
H  40.03700 1.61600 28.31400
H  33.91500 2.76900 26.95500
H  34.44400 4.55200 35.14100
H  36.81300 2.98000 35.91500
H  37.25900 5.09900 36.48100
H  36.25300 5.89500 35.27000
H  37.79800 5.29600 34.75500
H  34.74400 1.53200 35.70900
H  33.26900 1.99400 34.99300
H  33.70600 1.46900 37.61300
H  32.48600 2.64800 37.08000
H  41.56800 0.56700 33.65500
H  40.72200 1.72700 34.65400
H  42.13900 2.18900 33.85300
H  43.38200 0.32000 31.94100
H  43.28400 2.11700 32.01900
H  44.25900 1.23200 30.74300
H  38.33900 1.08100 26.23900
H  36.28800 3.11700 25.86200
H  39.84100 3.02000 26.22400
H  38.41200 4.03100 26.60000
H  38.60800 3.29000 24.99200
H  36.26100 0.95000 24.62600
H  34.77300 1.48900 25.34000
H  35.86000 -0.28100 27.35500
H  36.12700 -1.09300 25.81400
H  34.54600 -0.56200 26.26500
H  31.33700 3.95800 27.45600
H  30.39700 3.11700 28.69800
H  31.55100 2.16600 27.77100
H  31.89100 2.78200 33.63500
H  30.79000 6.75800 35.74400
H  32.32700 6.00700 36.26800
H  30.74100 5.47000 36.85500

