158

Mg 40.50900 10.07600 29.44300
C  42.57700 11.37200 31.93900
C  38.51100 8.58500 31.93200
C  38.70400 8.59900 27.03600
C  42.90300 11.12200 27.08200
N  40.64100 9.89400 31.68000
C  41.43300 10.67600 32.45100
C  40.93400 10.66000 33.96000
C  39.78800 9.62800 33.91900
C  39.62200 9.33800 32.37200
C  39.99800 8.33100 34.68300
C  40.49700 12.03400 34.49500
C  39.72900 12.15100 35.87600
H  40.34600 13.11200 36.91100
N  38.82800 8.76000 29.54000
C  38.11200 8.33300 30.63000
C  36.91300 7.57700 30.13400
C  37.00600 7.49900 28.70300
C  38.20700 8.31900 28.33600
C  36.01600 6.91200 31.14300
C  36.02800 6.79600 27.76100
O  36.27500 6.66300 26.54000
C  34.73300 6.15900 28.36400
N  40.78800 9.86000 27.32400
C  39.79000 9.35700 26.56300
C  40.23900 9.43900 25.07900
C  41.46900 10.51100 25.11700
C  41.76800 10.49200 26.63000
C  40.68500 8.02500 24.62800
C  41.15500 11.86000 24.37900
C  40.49700 12.97000 25.24100
N  42.32600 11.10900 29.44300
C  43.21000 11.42700 28.39900
C  44.40800 11.98200 28.93200
C  44.08100 12.18900 30.34300
C  42.88100 11.53300 30.55800
C  45.61900 12.44100 28.25100
C  44.63400 12.68300 31.59200
O  45.66700 13.26600 31.86800
C  43.51500 12.35500 32.63800
C  44.17000 11.82800 33.90800
O  44.78700 10.79900 33.93800
O  43.73100 12.57000 35.00500
C  44.25500 12.04500 36.34700
H  37.84700 8.36300 32.77000
H  38.09500 8.16200 26.24100
H  43.43000 11.66800 26.29700
H  41.62100 10.41300 34.76900
H  38.86100 10.13500 34.18500
H  39.11000 8.00600 35.22500
H  40.82800 8.17800 35.37300
H  40.10300 7.54800 33.93300
H  39.87700 12.50900 33.73400
H  41.41000 12.62900 34.52900
H  39.64000 11.15800 36.31700
H  38.70500 12.49700 35.74300
H  35.09500 7.48200 31.26600
H  36.46600 6.89700 32.13500
H  35.77900 5.89800 30.82300
H  34.03400 5.98400 27.54600
H  34.39500 6.93200 29.05400
H  35.02400 5.28800 28.95200
H  39.37400 9.76500 24.50200
H  42.34800 10.26400 24.52200
H  40.72000 7.29300 25.43500
H  41.69400 8.07100 24.21900
H  40.01300 7.51900 23.93500
H  40.55200 11.65000 23.49500
H  42.14400 12.21400 24.08900
H  40.78100 13.08900 26.28700
H  39.40900 12.92000 25.28800
H  40.61900 13.81300 24.56100
H  46.53600 12.45900 28.84000
H  45.43000 13.46000 27.91200
H  45.76500 11.77700 27.39900
H  42.97200 13.28200 32.82200
H  43.88100 11.04000 36.54400
H  44.01100 12.67300 37.20300
H  45.34300 12.08100 36.30100
Mg 31.18600 58.74300 40.73600
C  28.75100 56.41000 39.66800
C  33.57200 56.33700 39.88200
C  33.36200 61.16100 40.98500
C  28.54500 61.05900 41.17800
N  31.11600 56.54000 40.02400
C  30.00600 55.81900 39.60000
C  30.48500 54.49600 38.85500
C  31.91500 54.37800 39.43300
C  32.25700 55.85800 39.81300
C  32.13900 53.45000 40.71200
C  30.52700 54.58000 37.29000
C  29.60800 53.63700 36.44600
H  28.47900 54.35000 35.60700
N  33.12400 58.72200 40.61200
C  33.96400 57.68400 40.31200
C  35.36100 58.10100 40.38500
C  35.34600 59.45000 40.84100
C  33.88200 59.79400 40.85000
C  36.44100 57.16200 39.89900
C  36.52500 60.31100 41.27000
O  37.64900 59.80300 41.23900
C  36.40200 61.70600 41.80200
N  30.91000 60.81900 40.85700
C  31.99900 61.56800 41.06800
C  31.64900 63.02800 41.46400
C  30.09600 62.97900 41.74000
C  29.84400 61.55900 41.16500
C  32.38900 63.76000 42.61700
C  29.38300 64.03400 40.95400
C  28.09800 64.54900 41.72800
N  29.02900 58.76600 40.63200
C  28.15400 59.77100 40.83800
C  26.85100 59.21200 40.75700
C  26.98800 57.94200 40.22900
C  28.37200 57.70800 40.14700
C  25.55100 59.89300 41.16800
C  26.28900 56.70000 39.74900
O  25.11000 56.52900 39.44200
C  27.45700 55.66300 39.37700
C  27.32800 54.50000 40.29700
O  28.01400 54.25300 41.25700
O  26.08600 53.99500 40.12100
C  25.53700 52.84300 40.84500
H  34.23300 55.47900 39.74600
H  34.00500 62.01600 41.20600
H  27.79000 61.81300 41.41000
H  29.98600 53.58900 39.19800
H  32.65200 54.12100 38.67300
H  31.42500 52.62600 40.71100
H  32.01000 54.07000 41.59900
H  33.13000 52.99600 40.73100
H  31.54100 54.36100 36.95600
H  30.30200 55.60700 37.00300
H  28.97900 52.98400 37.05000
H  30.19300 53.01300 35.77100
H  36.16500 56.77100 38.91900
H  36.72800 56.44500 40.66800
H  37.33600 57.77200 39.77500
H  37.33500 61.93300 42.31700
H  35.57100 61.66500 42.50700
H  36.19400 62.36000 40.95500
H  31.85400 63.63500 40.58200
H  29.83500 62.99300 42.79900
H  32.85800 63.01900 43.26400
H  31.79100 64.41900 43.24700
H  33.17200 64.38500 42.18900
H  28.95800 63.72100 40.00100
H  30.07200 64.83700 40.69200
H  27.19700 64.23700 41.19800
H  28.10500 65.63800 41.71700
H  28.01200 64.08000 42.70800
H  25.42400 60.84500 40.65300
H  25.55600 60.01400 42.25100
H  24.77200 59.24400 40.76600
H  27.50300 55.33500 38.33900
H  24.65600 52.38000 40.39900
H  25.19100 53.29600 41.77400
H  26.30300 52.20900 41.29100

