158

Mg 0.63200 7.65800 26.68300
C  1.20700 9.62500 29.43000
C  0.67700 4.87100 28.69600
C  0.48600 5.68700 23.97400
C  0.89100 10.52300 24.62800
N  1.03800 7.34200 28.83500
C  1.06800 8.24200 29.81700
C  1.12600 7.54600 31.30200
C  1.21600 6.02500 30.94800
C  0.97200 6.08100 29.41300
C  2.56800 5.29400 31.33500
C  -0.07900 8.00800 32.16200
C  0.32600 8.62600 33.46500
H  -0.45600 8.05300 34.66500
N  0.39500 5.51100 26.37800
C  0.47900 4.55900 27.34100
C  0.07800 3.25700 26.71800
C  -0.04200 3.53400 25.31200
C  0.30400 4.96500 25.17700
C  -0.18800 2.05400 27.58700
C  -0.42800 2.55400 24.22100
O  -0.50500 2.96100 23.03700
C  -0.65300 1.17200 24.51300
N  0.88500 8.04700 24.54400
C  0.78500 7.02600 23.64200
C  0.97500 7.66900 22.22900
C  0.54800 9.16800 22.47900
C  0.77400 9.29400 23.97800
C  2.48200 7.51000 21.64400
C  -1.01000 9.40600 22.19400
C  -1.27200 10.26700 21.00600
N  1.06000 9.67500 26.90200
C  1.14700 10.79100 25.98400
C  1.30400 12.03200 26.72900
C  1.30300 11.62300 28.01100
C  1.18200 10.17200 28.08700
C  1.38700 13.42600 26.07700
C  1.46000 12.09700 29.39900
O  1.69600 13.19500 29.81500
C  1.38900 10.78900 30.38200
C  2.48700 10.78400 31.40000
O  3.63900 10.38300 31.20800
O  1.97300 11.46500 32.45000
C  2.89400 11.49600 33.59800
H  0.53600 4.07300 29.42800
H  0.29300 5.11300 23.06600
H  0.83000 11.36700 23.93800
H  2.01900 7.98100 31.75100
H  0.52500 5.51700 31.62100
H  3.05700 5.09900 30.38100
H  2.37600 4.39500 31.92000
H  3.27000 5.96200 31.83400
H  -0.74200 7.14900 32.26600
H  -0.72000 8.72700 31.65200
H  -0.06400 9.64300 33.48700
H  1.38800 8.72000 33.68800
H  -1.12200 1.84900 27.06300
H  -0.38500 2.27500 28.63500
H  0.48200 1.20400 27.45800
H  -0.69900 0.63900 23.56300
H  -1.57900 1.09600 25.08100
H  0.20900 0.79700 25.06500
H  0.26800 7.15500 21.57900
H  1.20700 9.85400 21.94900
H  3.05000 7.47500 22.57400
H  2.63200 8.29600 20.90400
H  2.74200 6.49100 21.35800
H  -1.51400 9.71200 23.11000
H  -1.35100 8.42200 21.87100
H  -0.90200 11.23800 21.33500
H  -2.36000 10.32400 20.98700
H  -0.87200 9.91300 20.05600
H  1.16700 14.10000 26.90500
H  0.68000 13.54600 25.25600
H  2.41800 13.56300 25.75300
H  0.50700 10.85100 31.02000
H  2.29800 11.32500 34.49400
H  3.26300 12.51500 33.71200
H  3.66000 10.72100 33.59500
Mg -12.41500 37.86900 42.82000
C  -10.24900 35.41500 41.50400
C  -10.32800 40.31200 41.50200
C  -14.80900 40.07700 43.24800
C  -14.60700 35.34800 43.74600
N  -10.60000 37.91000 41.53400
C  -9.83300 36.74500 41.30700
C  -8.56600 37.06000 40.52500
C  -8.45600 38.65000 40.81000
C  -9.87100 39.00100 41.30600
C  -7.34100 39.10500 41.77700
C  -8.69200 36.66100 39.03100
C  -7.58600 35.66500 38.62600
H  -6.61200 36.11000 37.51600
N  -12.61200 39.91600 42.41200
C  -11.59100 40.76900 41.98500
C  -12.04000 42.12100 42.02000
C  -13.40900 42.06900 42.46200
C  -13.69100 40.62900 42.69500
C  -11.17900 43.33600 41.63300
C  -14.31500 43.32900 42.72100
O  -13.89200 44.38000 42.33200
C  -15.76300 43.28700 43.32400
N  -14.50200 37.59400 43.15400
C  -15.20800 38.75900 43.43400
C  -16.48900 38.44800 44.25100
C  -16.28400 36.91500 44.57900
C  -15.09000 36.57000 43.77200
C  -16.83300 39.32700 45.51800
C  -17.51100 35.98300 44.35600
C  -17.78900 34.94500 45.37700
N  -12.42000 35.77600 42.70700
C  -13.38400 34.85600 43.15500
C  -12.79600 33.56900 43.06100
C  -11.55100 33.71300 42.39900
C  -11.38900 35.06300 42.13500
C  -13.42900 32.40900 43.60500
C  -10.38200 33.04100 41.85700
O  -9.99600 31.87200 41.87400
C  -9.53800 34.12400 41.11400
C  -8.10800 34.03000 41.60000
O  -7.24800 33.62900 40.88300
O  -7.87300 34.25400 42.93600
C  -6.52400 34.06900 43.29800
H  -9.62100 41.08200 41.18600
H  -15.52800 40.83600 43.56200
H  -15.11000 34.58100 44.33900
H  -7.73500 36.54400 41.00700
H  -8.14200 39.13700 39.88700
H  -6.94300 38.19800 42.23100
H  -7.71200 39.79200 42.53900
H  -6.57900 39.60800 41.18200
H  -8.60800 37.57400 38.44200
H  -9.73700 36.35900 38.95400
H  -8.07700 34.78400 38.21300
H  -6.96900 35.29000 39.44200
H  -11.31700 43.62800 40.59200
H  -10.14500 43.04500 41.81900
H  -11.46100 44.18000 42.26300
H  -16.33200 42.80200 42.53100
H  -16.24100 44.26500 43.27500
H  -15.90900 42.73900 44.25500
H  -17.37200 38.64100 43.64300
H  -16.04400 36.86600 45.64100
H  -17.47900 40.14600 45.20000
H  -15.96900 39.81900 45.96400
H  -17.35000 38.64500 46.19300
H  -17.43300 35.57500 43.34800
H  -18.37900 36.64100 44.32000
H  -17.06200 34.82700 46.18100
H  -17.85000 34.00600 44.82800
H  -18.77900 35.12000 45.79800
H  -12.85900 31.98800 44.43400
H  -13.47300 31.70200 42.77700
H  -14.45000 32.59500 43.93900
H  -9.60100 33.73800 40.09700
H  -5.92700 34.75700 42.69800
H  -6.17000 33.06300 43.07500
H  -6.34700 34.19000 44.36700

