158

Mg 17.09700 -1.32700 28.05700
C  16.06300 0.64200 30.88200
C  19.03200 -3.09000 29.98300
C  18.46400 -2.66500 25.17700
C  15.35300 0.89400 26.07800
N  17.56800 -1.02500 30.11700
C  17.06100 -0.31000 31.15500
C  17.49300 -0.79800 32.57600
C  18.63700 -1.77900 32.14900
C  18.36500 -1.99000 30.65500
C  20.06100 -1.34600 32.52700
C  16.35200 -1.38400 33.45600
C  16.64100 -1.46500 35.01200
H  17.89400 -0.84500 35.63700
N  18.42500 -2.80800 27.63600
C  19.05300 -3.46000 28.62000
C  19.80500 -4.53400 28.03600
C  19.73200 -4.43200 26.64300
C  18.85200 -3.24600 26.42600
C  20.43500 -5.59800 28.96300
C  20.36300 -5.19100 25.55900
O  20.13800 -4.95700 24.35500
C  21.25300 -6.37800 25.89800
N  16.90300 -0.93600 25.91200
C  17.47200 -1.68900 24.94700
C  17.16900 -1.11900 23.52400
C  16.15600 0.02700 23.79400
C  16.05600 -0.05000 25.35900
C  18.44200 -0.76100 22.75100
C  14.81700 0.02100 23.05700
C  14.87700 0.73700 21.64100
N  15.84800 0.40700 28.28100
C  15.18500 1.14200 27.43800
C  14.40400 2.13300 28.11000
C  14.77100 2.00500 29.48700
C  15.59500 0.91400 29.57300
C  13.72600 3.30200 27.40500
C  14.66300 2.60500 30.88900
O  14.15700 3.65100 31.31500
C  15.44000 1.58900 31.83800
C  16.31500 2.51100 32.63800
O  17.32200 3.02000 32.24100
O  15.72300 2.84900 33.76900
C  16.48400 3.83900 34.56800
H  19.73500 -3.62700 30.62300
H  18.81900 -3.03000 24.21100
H  14.83100 1.55100 25.37900
H  17.94400 0.06200 33.07200
H  18.55100 -2.73100 32.67300
H  20.69800 -1.49900 31.65500
H  20.40600 -2.00400 33.32400
H  20.09200 -0.33000 32.92100
H  16.07500 -2.35800 33.05300
H  15.49400 -0.71900 33.34900
H  16.51400 -2.52000 35.25600
H  15.84100 -0.85600 35.43200
H  21.43400 -5.25000 29.22200
H  20.38000 -6.60000 28.53500
H  19.81900 -5.69000 29.85700
H  22.06800 -5.97500 26.49900
H  21.72600 -6.84500 25.03400
H  20.77100 -7.10900 26.54700
H  16.67100 -1.93600 23.00100
H  16.61300 0.99100 23.57100
H  18.42800 0.31900 22.60000
H  18.58400 -1.28500 21.80700
H  19.25500 -0.93400 23.45700
H  13.98000 0.22300 23.72500
H  14.61700 -1.01500 22.78400
H  14.55800 -0.00100 20.90600
H  15.90200 0.95400 21.34200
H  14.26900 1.63500 21.52900
H  14.34300 3.39100 26.51200
H  13.86400 4.17400 28.04500
H  12.68300 3.16800 27.12000
H  14.66000 1.09000 32.41300
H  15.98100 4.04100 35.51300
H  16.49200 4.78700 34.02900
H  17.53300 3.57300 34.69700
Mg -5.26200 25.92300 26.36800
C  -3.87900 27.45500 29.23700
C  -7.22300 24.02500 28.37100
C  -5.95000 24.00000 23.72500
C  -2.89000 27.64200 24.41200
N  -5.42900 25.65000 28.58700
C  -4.78800 26.43100 29.51700
C  -5.30100 26.04900 30.93600
C  -6.30300 24.89700 30.69200
C  -6.36200 24.83500 29.13600
C  -5.95000 23.53700 31.29500
C  -5.98900 27.29200 31.60500
C  -6.26500 27.31000 33.14500
H  -5.87900 26.04800 33.98700
N  -6.71400 24.56500 25.96900
C  -7.48600 23.90000 26.95700
C  -8.36100 22.96200 26.33900
C  -8.01200 22.91100 24.96000
C  -6.83100 23.82700 24.78100
C  -9.42800 22.10100 27.04400
C  -8.58500 22.04900 23.86000
O  -8.11500 22.01900 22.69600
C  -9.68700 21.09400 24.26800
N  -4.30900 25.67500 24.33200
C  -4.88600 24.83300 23.48400
C  -4.22200 25.03400 22.06100
C  -3.30300 26.27400 22.26100
C  -3.49300 26.57300 23.74800
C  -3.52200 23.78700 21.58200
C  -3.69400 27.49000 21.42500
C  -2.51100 28.22500 20.68100
N  -3.72200 27.30800 26.69300
C  -2.89000 27.89500 25.79200
C  -1.98900 28.78600 26.54900
C  -2.38400 28.64700 27.84600
C  -3.48900 27.81500 27.93100
C  -0.81100 29.52100 26.03200
C  -2.00800 29.11100 29.14500
O  -1.13800 29.89300 29.44300
C  -2.97200 28.33800 30.11800
C  -2.15400 27.53500 31.06900
O  -1.40400 26.64800 30.75700
O  -2.27400 27.98700 32.33300
C  -1.72500 27.21400 33.47300
H  -7.88700 23.38500 28.95600
H  -6.20700 23.36900 22.87100
H  -2.20000 28.34000 23.93300
H  -4.45600 25.75600 31.56000
H  -7.29900 25.04200 31.11000
H  -5.35000 23.72800 32.18600
H  -5.39900 22.97000 30.54500
H  -6.86200 23.03000 31.60800
H  -6.98100 27.41900 31.17200
H  -5.49400 28.25000 31.44100
H  -7.30100 27.53700 33.39700
H  -5.70400 28.17100 33.50900
H  -9.12300 21.05500 27.07500
H  -10.41900 22.32600 26.65000
H  -9.50500 22.29400 28.11500
H  -10.62600 21.58700 24.52100
H  -9.26200 20.38700 24.98000
H  -9.87900 20.46600 23.39800
H  -5.01800 25.23100 21.34300
H  -2.26300 26.04700 22.02300
H  -2.43900 23.78600 21.70400
H  -3.61100 23.65700 20.50400
H  -3.97700 22.92300 22.06800
H  -4.38900 28.23000 21.82100
H  -4.29800 27.04800 20.63300
H  -2.36700 28.06500 19.61200
H  -1.59100 27.88500 21.15800
H  -2.66700 29.27700 20.91900
H  -0.41300 29.15700 25.08400
H  -0.03600 29.57900 26.79600
H  -1.02800 30.55800 25.77600
H  -3.52500 29.03400 30.74900
H  -1.27100 26.24900 33.24700
H  -2.47500 27.14400 34.26100
H  -0.92200 27.84100 33.86000

