158

Mg 42.89900 4.91000 47.29000
C  41.07000 7.99900 47.33600
C  39.93600 3.27200 46.97400
C  44.63800 2.21700 46.50200
C  45.82200 6.86800 47.24100
N  40.72900 5.62300 47.28300
C  40.21000 6.85400 47.22500
C  38.68300 6.81000 47.22300
C  38.33000 5.30400 47.44300
C  39.72700 4.68900 47.17100
C  37.76700 5.03300 48.85500
C  38.07900 7.46700 45.95600
C  38.93100 7.47500 44.71000
H  38.22600 7.74300 43.37900
N  42.34300 2.96800 46.83300
C  41.06600 2.49400 46.78300
C  41.09400 1.10500 46.43000
C  42.46100 0.67500 46.24900
C  43.22400 1.95500 46.55400
C  39.81400 0.29300 46.36800
C  42.99500 -0.76100 45.81800
O  42.30600 -1.71900 45.37400
C  44.39900 -1.02200 45.88700
N  44.89000 4.64900 46.77000
C  45.34400 3.36900 46.74200
C  46.87700 3.34800 46.80200
C  47.32600 4.84100 47.02800
C  45.95400 5.51400 47.02600
C  47.41600 2.27800 47.86700
C  48.26300 5.21200 45.98000
C  49.78700 5.19600 46.47500
N  43.37200 6.97100 47.28600
C  44.62300 7.60600 47.20000
C  44.42200 8.98500 47.36500
C  43.04600 9.19600 47.46800
C  42.46700 7.96600 47.30800
C  45.59400 9.96800 47.31300
C  42.04100 10.20600 47.55800
O  42.20600 11.39500 47.59500
C  40.63600 9.49700 47.42400
C  39.97300 9.72800 48.71200
O  39.97200 8.92200 49.63400
O  39.28300 10.96500 48.66000
C  38.23200 11.13000 49.70500
H  39.02000 2.68400 46.89200
H  45.27700 1.34500 46.34300
H  46.74700 7.40500 47.46300
H  38.46600 7.43000 48.09300
H  37.79800 4.81100 46.63000
H  37.14600 5.89800 49.08800
H  38.58800 4.98700 49.57000
H  37.23900 4.08300 48.93800
H  38.00900 8.54500 46.09500
H  37.05800 7.10400 45.83700
H  39.31900 6.45800 44.63500
H  39.73300 8.19300 44.88300
H  39.36900 0.28000 45.37300
H  39.16300 0.53400 47.20900
H  40.13100 -0.71400 46.63600
H  44.87900 -0.74500 46.82600
H  44.85600 -0.48800 45.05400
H  44.57900 -2.09600 45.85600
H  47.18000 2.87500 45.86900
H  47.70200 5.12900 48.01000
H  46.94600 2.16600 48.84500
H  48.45400 2.55100 48.05500
H  47.39300 1.24500 47.51800
H  48.11800 6.22800 45.61500
H  48.22500 4.60900 45.07300
H  50.00800 4.57100 47.34000
H  50.22900 6.18700 46.57400
H  50.46900 4.80700 45.71800
H  46.04400 9.75800 46.34300
H  46.28700 9.75400 48.12600
H  45.29400 11.01600 47.31200
H  40.00600 9.91100 46.63700
H  37.93200 10.32300 50.37300
H  37.31800 11.39700 49.17500
H  38.59400 11.79500 50.48900
Mg 9.93200 46.68500 26.29200
C  7.64400 47.12100 28.97000
C  12.32400 48.17300 28.31500
C  11.85600 46.80000 23.58100
C  7.19600 46.02300 24.27600
N  10.07200 47.26100 28.41100
C  9.01200 47.29900 29.34400
C  9.47200 47.67600 30.81300
C  10.77800 48.39100 30.41800
C  11.13300 47.82300 29.01200
C  10.58400 49.96200 30.43200
C  9.62400 46.34300 31.65300
C  9.33500 46.42300 33.13700
H  10.06900 45.39100 34.02400
N  11.89600 47.22700 25.97400
C  12.69800 47.85000 26.96000
C  14.01400 47.92500 26.43800
C  13.94600 47.55100 25.06200
C  12.56900 47.21900 24.80000
C  15.20000 48.41500 27.24200
C  15.09800 47.45300 24.02100
O  14.77000 47.12200 22.89500
C  16.47300 47.66900 24.32400
N  9.56700 46.54100 24.17400
C  10.59300 46.49500 23.28400
C  10.05200 46.25000 21.80300
C  8.58500 45.85100 22.10200
C  8.45600 46.01600 23.62600
C  10.32000 47.47200 20.92400
C  7.97900 44.51100 21.51200
C  7.43700 44.60300 20.07100
N  7.84700 46.76000 26.50500
C  6.86600 46.41100 25.62300
C  5.55900 46.44900 26.23100
C  5.79700 46.68900 27.61000
C  7.19400 46.90700 27.68600
C  4.20400 46.22900 25.52600
C  5.17100 46.88200 28.87500
O  3.97900 46.81900 29.21200
C  6.29500 47.34400 29.77300
C  6.10400 46.52700 31.04500
O  6.47900 45.35900 31.15900
O  5.43700 47.21400 32.01900
C  5.17400 46.35400 33.16400
H  13.05300 48.71100 28.92400
H  12.42300 46.94700 22.65900
H  6.32700 45.66300 23.72100
H  8.74800 48.35200 31.26900
H  11.58700 48.15100 31.10800
H  10.40200 50.32100 29.41900
H  11.47700 50.42400 30.85200
H  9.79600 50.28000 31.11500
H  10.64400 45.96700 31.57200
H  8.91400 45.66100 31.18600
H  8.27700 46.19200 33.26100
H  9.48500 47.45200 33.46300
H  15.03400 48.42200 28.32000
H  15.72200 49.28300 26.84100
H  15.94900 47.62300 27.24600
H  16.89600 46.86700 24.92900
H  16.69000 48.47500 25.02400
H  16.95000 47.84800 23.36000
H  10.55300 45.43300 21.28500
H  7.86600 46.56700 21.70400
H  10.99900 48.17100 21.41300
H  9.38800 47.96100 20.64200
H  10.71900 47.12900 19.96900
H  7.11800 44.21900 22.11300
H  8.78200 43.78300 21.63400
H  8.15100 44.11000 19.41100
H  7.36400 45.57600 19.58500
H  6.42400 44.22300 19.93900
H  3.84000 45.25200 25.84200
H  4.25200 46.31000 24.44000
H  3.42600 46.91900 25.85200
H  6.22600 48.39100 30.06700
H  4.29400 46.82700 33.59900
H  6.07800 46.24700 33.76500
H  4.82100 45.33100 33.03300

