158

Mg 24.79400 -4.49900 46.14300
C  26.90200 -2.28400 44.48000
C  22.35500 -3.79100 43.72400
C  22.98300 -7.16900 47.15200
C  27.52600 -5.75900 47.99400
N  24.65600 -3.18700 44.39000
C  25.60300 -2.37000 43.91300
C  25.13600 -1.49600 42.75200
C  23.60400 -1.74200 42.86200
C  23.47000 -2.99200 43.68500
C  22.73500 -0.68500 43.50500
C  25.76600 -1.87700 41.41800
C  26.32500 -0.74700 40.40600
H  26.26200 -1.15100 38.93800
N  22.94400 -5.33600 45.56900
C  22.09700 -4.91900 44.54700
C  20.89800 -5.67300 44.55800
C  21.03800 -6.75300 45.50600
C  22.34300 -6.48900 46.11100
C  19.80300 -5.44800 43.65000
C  19.98400 -7.83700 45.79800
O  19.00400 -8.04300 45.07100
C  20.17400 -8.91200 46.81100
N  25.24600 -6.37500 47.32800
C  24.25900 -7.16500 47.76800
C  24.78000 -8.22600 48.75800
C  26.26700 -7.78500 49.04600
C  26.41700 -6.60400 48.01000
C  23.90900 -8.55400 50.00100
C  27.31000 -8.91300 48.94500
C  28.45200 -8.79500 49.96500
N  26.76600 -4.10600 46.35700
C  27.73800 -4.61900 47.20500
C  28.94400 -3.87300 47.06900
C  28.72100 -3.04500 45.98800
C  27.38600 -3.15600 45.58100
C  30.30300 -4.13600 47.64300
C  29.30200 -2.06600 45.15000
O  30.41600 -1.62600 45.19300
C  28.24700 -1.54500 44.09600
C  28.12600 -0.07600 44.24100
O  27.43100 0.40600 45.09700
O  28.83300 0.56800 43.30500
C  28.91400 2.02900 43.39600
H  21.55100 -3.42400 43.08200
H  22.52700 -8.08900 47.52400
H  28.25400 -5.89400 48.79700
H  25.34000 -0.45400 42.99600
H  23.08500 -1.96200 41.92900
H  21.91700 -0.39900 42.84400
H  23.24400 0.24000 43.77500
H  22.31700 -1.09200 44.42600
H  25.06100 -2.41800 40.78600
H  26.64800 -2.48300 41.62400
H  27.36600 -0.52500 40.64400
H  25.69200 0.12500 40.57100
H  18.88700 -5.05400 44.08800
H  19.49700 -6.33300 43.09200
H  20.07600 -4.81800 42.80300
H  19.36100 -9.63700 46.76600
H  20.42500 -8.59000 47.82200
H  21.08800 -9.42000 46.50500
H  24.81500 -9.18800 48.24700
H  26.23700 -7.31800 50.03000
H  23.39200 -7.64400 50.30500
H  24.54300 -8.82200 50.84600
H  23.20500 -9.35900 49.79000
H  27.79400 -8.88400 47.96900
H  26.82300 -9.88600 49.01100
H  28.48500 -7.97100 50.67800
H  29.40600 -8.64600 49.46000
H  28.53100 -9.74100 50.50200
H  30.90300 -4.79700 47.01700
H  30.21200 -4.68300 48.58200
H  30.74300 -3.16600 47.87400
H  28.70900 -1.73000 43.12600
H  28.84300 2.56400 42.44900
H  29.75800 2.30700 44.02800
H  28.08800 2.28100 44.06100
Mg 42.96800 42.80400 26.19900
C  41.88600 45.01400 28.68300
C  44.11500 40.65200 28.74600
C  44.31900 40.92100 23.84800
C  42.34300 45.33400 23.83600
N  42.98900 42.85200 28.44300
C  42.43100 43.80900 29.27900
C  42.41900 43.34100 30.79000
C  43.46200 42.18100 30.78900
C  43.63600 41.90400 29.24000
C  44.81000 42.36800 31.57900
C  40.97500 43.07400 31.27700
C  40.42300 43.69500 32.56200
H  41.38500 43.92800 33.69100
N  43.86100 40.97700 26.31400
C  44.31300 40.29100 27.40500
C  44.99500 39.11800 26.93500
C  44.91800 39.10700 25.56200
C  44.33000 40.35900 25.20300
C  45.64100 38.08800 27.88200
C  45.39500 38.02600 24.58400
O  44.94100 37.96100 23.48600
C  46.37400 37.01300 24.94700
N  43.38000 43.20100 24.13100
C  43.84800 42.18200 23.37500
C  43.72900 42.49200 21.93700
C  43.04700 43.89400 21.85100
C  42.84600 44.17000 23.33700
C  45.08200 42.28200 21.17200
C  41.74000 43.99300 20.96300
C  40.54100 43.20700 21.52900
N  42.23500 44.72500 26.21300
C  42.03100 45.61500 25.15900
C  41.56200 46.89600 25.68900
C  41.38100 46.67600 27.06500
C  41.88900 45.34200 27.36500
C  41.39700 48.13600 24.86500
C  40.94900 47.22900 28.31900
O  40.44200 48.30300 28.58400
C  41.20500 46.14100 29.43400
C  42.14200 46.75300 30.44700
O  43.19500 47.35400 30.20700
O  41.55800 46.71600 31.66400
C  42.00000 47.94300 32.43200
H  44.35300 39.99900 29.58800
H  44.65700 40.15600 23.14600
H  41.88500 46.01500 23.11500
H  42.84200 44.08000 31.47000
H  42.84600 41.32200 31.05400
H  45.60900 42.29700 30.84100
H  44.88900 41.69300 32.43100
H  44.76900 43.33300 32.08400
H  40.93100 41.98700 31.35300
H  40.25400 43.27300 30.48400
H  39.73000 42.92700 32.90700
H  39.84600 44.59700 32.35900
H  45.55900 38.49600 28.89000
H  46.66900 37.77200 27.70800
H  45.11700 37.13300 27.85200
H  47.17200 37.60700 25.39300
H  46.66200 36.61300 23.97500
H  46.00400 36.24000 25.61900
H  43.06200 41.76900 21.46800
H  43.73900 44.61400 21.41600
H  46.05700 42.39700 21.64500
H  45.27200 43.04500 20.41700
H  45.07200 41.30300 20.69400
H  41.97200 43.88700 19.90300
H  41.38900 45.00500 21.16600
H  39.79600 43.96800 21.76200
H  40.92700 42.69200 22.40900
H  40.11600 42.48600 20.83100
H  42.40300 48.52900 24.71300
H  40.77800 48.77700 25.49200
H  40.84100 47.85500 23.97100
H  40.25100 45.93200 29.91600
H  41.53800 47.91800 33.41900
H  41.71900 48.90700 32.01000
H  43.08800 47.99300 32.46600

