158

Mg 35.36300 3.01500 29.92100
C  33.13500 4.24500 32.43500
C  37.90900 3.44300 32.11100
C  37.44100 2.01400 27.47600
C  32.75400 2.93200 27.69400
N  35.47100 3.90500 32.03700
C  34.39000 3.93900 32.88000
C  34.86800 3.90500 34.38200
C  36.44700 3.69200 34.21800
C  36.65500 3.72100 32.68500
C  37.30700 4.73600 34.86000
C  34.10200 2.84600 35.19100
C  33.42300 3.34900 36.48100
H  34.13600 4.44000 37.24200
N  37.40500 2.65200 29.84300
C  38.30400 2.96000 30.80400
C  39.67100 2.73000 30.42900
C  39.53600 2.37800 29.03400
C  38.09500 2.35800 28.70700
C  40.81500 2.88900 31.43400
C  40.57200 1.82600 28.12000
O  40.35000 1.50600 26.99600
C  42.02000 1.72300 28.61100
N  35.13100 2.54900 27.80700
C  36.08300 2.10200 27.03200
C  35.57700 1.88800 25.63800
C  34.00400 1.72100 25.85800
C  33.93700 2.41800 27.23000
C  35.99700 3.03700 24.75000
C  33.59900 0.21000 26.00200
C  32.43100 -0.28000 24.97400
N  33.46100 3.58600 29.95100
C  32.50300 3.48500 28.95500
C  31.28400 4.06400 29.37600
C  31.53500 4.39300 30.73500
C  32.85200 4.02900 31.02000
C  29.99200 4.19100 28.60500
C  30.78200 4.78500 31.91000
O  29.60300 5.12100 32.17300
C  31.82600 4.63800 33.07100
C  31.97400 5.81700 33.87300
O  32.69400 6.75700 33.49800
O  31.21200 5.80300 34.99900
C  31.18500 7.09500 35.70600
H  38.65500 3.30100 32.89700
H  38.06600 1.52700 26.72400
H  31.91400 2.82500 27.00500
H  34.65600 4.87600 34.82900
H  36.60700 2.64700 34.48500
H  38.02900 4.14800 35.42600
H  36.65600 5.33800 35.49300
H  37.79500 5.36500 34.11600
H  34.82100 2.07200 35.46000
H  33.42800 2.34100 34.49900
H  33.34300 2.47800 37.13200
H  32.41000 3.70700 36.30100
H  40.64600 3.61600 32.22700
H  41.70400 3.27500 30.93600
H  40.93500 1.87100 31.80400
H  42.07700 1.01000 29.43400
H  42.41500 2.70300 28.87800
H  42.49200 1.39300 27.68600
H  35.86600 0.93800 25.18800
H  33.67700 2.20200 24.93600
H  35.12200 3.51800 24.31400
H  36.60500 2.77800 23.88300
H  36.52300 3.82900 25.28300
H  33.11600 0.07100 26.96900
H  34.43100 -0.49300 26.03600
H  32.61800 -1.31800 24.69700
H  32.44100 0.18700 23.98900
H  31.43100 -0.21500 25.40300
H  29.79700 3.20900 28.17400
H  30.09700 4.90700 27.79000
H  29.16000 4.54200 29.21500
H  31.40800 3.88700 33.74100
H  30.78500 7.88600 35.07100
H  32.23100 7.28700 35.94100
H  30.70100 7.03700 36.68100
Mg 2.14600 42.15800 25.08900
C  3.14800 42.24200 28.49000
C  -0.66000 40.36500 26.06300
C  1.65100 41.20700 21.98300
C  5.35400 43.37500 24.37000
N  1.32100 41.51000 27.08500
C  1.85700 41.67400 28.32400
C  0.82800 41.38000 29.45100
C  -0.27800 40.59000 28.63300
C  0.08700 40.86600 27.13900
C  -0.39100 39.08600 28.94200
C  0.33700 42.70500 30.11000
C  -0.05900 42.66400 31.63200
H  -0.24000 41.34000 32.36000
N  0.56100 41.14800 24.12600
C  -0.50600 40.44400 24.71100
C  -1.36400 39.91300 23.69600
C  -0.66700 40.13500 22.52200
C  0.57700 40.84900 22.84900
C  -2.79000 39.35700 23.98600
C  -1.11900 39.77300 21.10800
O  -0.53700 40.05600 20.07400
C  -2.43100 39.02200 20.94100
N  3.27700 42.43400 23.37200
C  2.83500 41.93600 22.19900
C  3.86600 42.26000 21.04700
C  4.88400 43.11400 21.85300
C  4.50900 43.03300 23.31000
C  4.44000 41.08800 20.20200
C  4.96500 44.54400 21.24400
C  3.75100 45.43200 21.55500
N  3.85500 42.82800 26.17800
C  5.09700 43.29800 25.72600
C  6.02000 43.56400 26.75500
C  5.27200 43.15000 27.88600
C  4.00300 42.70400 27.51600
C  7.42300 44.08200 26.58600
C  5.38000 42.91500 29.29000
O  6.40500 42.88200 30.01800
C  3.90100 42.43200 29.79100
C  4.08200 41.28000 30.67000
O  4.30400 40.14900 30.36900
O  3.98600 41.69300 31.99800
C  4.10400 40.62100 32.97200
H  -1.56200 39.88100 26.44300
H  1.66100 40.88700 20.93900
H  6.29500 43.78200 23.99400
H  1.37700 40.81700 30.20600
H  -1.28200 40.99900 28.74500
H  -0.02500 38.97200 29.96200
H  0.19900 38.46700 28.26600
H  -1.42700 38.74800 28.90900
H  -0.62100 43.04100 29.71100
H  1.13600 43.43900 30.00300
H  -0.91200 43.30700 31.84700
H  0.72500 43.08000 32.26500
H  -2.96800 38.42600 23.44900
H  -3.52300 40.02800 23.53800
H  -3.14500 39.26900 25.01200
H  -2.38400 38.06200 21.45500
H  -2.59200 38.81700 19.88200
H  -3.18300 39.68000 21.37500
H  3.38800 42.94700 20.34900
H  5.87700 42.69600 21.68700
H  4.12600 40.15200 20.66400
H  5.49900 41.10400 19.94400
H  4.08400 41.06900 19.17200
H  5.03300 44.43400 20.16200
H  5.78900 45.10400 21.68600
H  4.01700 46.16400 22.31800
H  3.05500 44.79300 22.09700
H  3.29100 45.97700 20.73100
H  8.09900 43.23100 26.50000
H  7.67000 44.61800 27.50200
H  7.47700 44.61400 25.63600
H  3.44300 43.21100 30.40000
H  5.14700 40.44800 33.24100
H  3.67600 39.64900 32.72500
H  3.65200 40.83400 33.94000

