158

Mg 7.46400 2.82400 28.58200
C  8.73900 1.50400 31.34700
C  5.25600 4.71100 30.29000
C  6.32200 4.11500 25.65200
C  9.24700 0.46500 26.76800
N  7.01700 2.99300 30.61100
C  7.81900 2.50100 31.60200
C  7.33100 3.02600 33.00800
C  5.93400 3.75700 32.60900
C  6.04600 3.83500 31.07700
C  4.71400 2.92400 33.01000
C  8.29700 4.03200 33.65600
C  8.07000 4.33600 35.12900
H  9.02600 3.72100 36.14500
N  6.00100 4.22200 28.03000
C  5.21000 4.95500 28.89200
C  4.51600 5.95300 28.12200
C  4.83400 5.76400 26.75500
C  5.80900 4.66400 26.74100
C  3.55700 6.96100 28.71200
C  4.47500 6.60900 25.59400
O  4.90800 6.42400 24.47500
C  3.48100 7.70100 25.79400
N  7.70400 2.32300 26.55600
C  7.18500 3.03500 25.46700
C  7.51600 2.53200 24.10600
C  8.65600 1.55000 24.44800
C  8.56100 1.40500 26.03300
C  6.33200 1.75800 23.34100
C  10.10400 2.10500 24.00400
C  10.52000 3.42200 24.76700
N  8.69400 1.14100 28.89100
C  9.43300 0.35700 28.10700
C  10.19700 -0.57200 28.89900
C  10.01800 -0.08600 30.19400
C  9.06500 0.90800 30.09500
C  10.80500 -1.73400 28.37600
C  10.44100 -0.21900 31.57500
O  11.31600 -0.94700 32.05600
C  9.53800 0.82800 32.37100
C  8.84000 0.03500 33.47500
O  7.72100 -0.48800 33.42400
O  9.63900 -0.08300 34.60700
C  9.03400 -0.74400 35.82400
H  4.66800 5.34400 30.95900
H  6.00600 4.55200 24.70300
H  9.78000 -0.27200 26.16300
H  7.12800 2.18200 33.66800
H  5.99800 4.76500 33.01800
H  4.77700 1.83800 33.07300
H  3.92900 3.17400 32.29600
H  4.20200 3.36000 33.86800
H  8.11500 4.99100 33.17000
H  9.32100 3.67300 33.55200
H  7.07500 3.97000 35.38000
H  8.05600 5.41500 35.28600
H  3.56300 6.96000 29.80200
H  2.53500 6.73000 28.41000
H  3.81300 7.97700 28.41200
H  3.92400 8.50700 26.37800
H  2.49100 7.30100 26.01600
H  3.49400 8.24400 24.84900
H  7.76500 3.35700 23.43900
H  8.56400 0.62200 23.88500
H  5.45100 2.09800 23.88700
H  6.28400 0.67100 23.28900
H  6.33400 2.17500 22.33400
H  10.08500 2.26000 22.92500
H  10.72600 1.23400 24.21000
H  9.72900 3.79800 25.41600
H  10.74400 4.20500 24.04300
H  11.48300 3.25800 25.25100
H  11.70800 -1.49900 27.81200
H  10.10200 -2.15800 27.65900
H  11.04700 -2.41000 29.19600
H  10.17300 1.48400 32.96600
H  8.18100 -1.30200 35.43800
H  8.76000 0.01800 36.55400
H  9.76800 -1.40800 36.28000
Mg -11.64900 39.36100 41.32400
C  -10.21000 36.17400 40.72600
C  -9.01500 40.83400 39.69900
C  -13.32400 42.28600 41.27100
C  -14.50800 37.68100 42.44500
N  -9.90500 38.59100 40.28600
C  -9.55100 37.29100 40.20300
C  -8.23400 37.16100 39.40800
C  -7.77600 38.64300 39.23600
C  -8.93200 39.42900 39.83300
C  -6.39600 39.02800 39.74000
C  -8.36000 36.30600 38.08500
C  -7.26800 35.28500 37.81400
H  -6.10300 35.70800 36.97300
N  -11.15100 41.36900 40.67300
C  -10.05700 41.67400 40.00200
C  -10.03800 43.13300 39.83700
C  -11.27900 43.62500 40.16300
C  -11.99100 42.41300 40.71000
C  -8.91000 43.89400 39.18700
C  -11.90100 45.04000 40.00900
O  -11.17700 45.94100 39.59400
C  -13.26200 45.42800 40.39000
N  -13.69400 39.86700 41.55100
C  -14.10200 41.15600 41.64700
C  -15.44200 41.26500 42.24900
C  -15.65600 39.85400 42.85700
C  -14.57400 39.07300 42.16300
C  -15.57600 42.33500 43.29000
C  -17.20300 39.40400 42.76400
C  -17.63000 38.84900 41.40800
N  -12.26500 37.29700 41.70900
C  -13.45200 36.77900 42.15300
C  -13.30300 35.34700 42.27900
C  -12.03300 35.04600 41.72900
C  -11.45400 36.28400 41.42200
C  -14.32400 34.42400 42.83400
C  -11.06700 34.00500 41.48300
O  -11.00800 32.76500 41.69400
C  -9.88000 34.72200 40.81400
C  -8.57300 34.37500 41.56000
O  -7.78500 33.45900 41.40100
O  -8.36300 35.33900 42.49300
C  -7.22800 35.13600 43.37900
H  -8.07600 41.29000 39.37800
H  -13.82400 43.23200 41.48800
H  -15.32900 37.19700 42.97800
H  -7.49200 36.71300 40.06900
H  -7.85100 38.85300 38.16900
H  -5.88300 39.68100 39.03400
H  -5.78200 38.13900 39.88800
H  -6.60800 39.67700 40.58900
H  -8.19300 36.92700 37.20500
H  -9.30600 35.76700 38.13500
H  -7.79800 34.47300 37.31600
H  -6.84400 34.94000 38.75700
H  -9.01500 43.71500 38.11700
H  -7.97400 43.53400 39.61400
H  -8.84300 44.96300 39.39100
H  -13.48100 45.22800 41.43900
H  -13.85300 44.87900 39.65800
H  -13.42600 46.49100 40.21000
H  -16.11900 41.55800 41.44700
H  -15.44900 39.71800 43.91800
H  -14.67800 42.37600 43.90700
H  -16.50200 42.27000 43.86100
H  -15.59400 43.31900 42.82100
H  -17.84700 40.23800 43.04100
H  -17.34600 38.58100 43.46400
H  -17.37700 37.78900 41.41800
H  -17.07000 39.37600 40.63600
H  -18.70900 38.98100 41.32100
H  -13.81700 33.46000 42.88400
H  -15.12300 34.35800 42.09600
H  -14.60200 34.73900 43.84000
H  -9.76200 34.28200 39.82400
H  -6.37900 34.93500 42.72600
H  -7.32300 34.21500 43.95500
H  -6.97500 36.00400 43.98800

