158

Mg 35.49100 3.44500 29.50600
C  33.74400 4.18600 32.38500
C  38.37600 3.11500 31.30500
C  37.13200 2.78500 26.63100
C  32.62400 4.22000 27.67200
N  35.97400 3.77800 31.56200
C  35.10700 3.92200 32.61000
C  35.91100 3.75800 33.97700
C  37.44100 3.79700 33.56900
C  37.27900 3.55800 32.04400
C  38.16800 5.19500 33.84100
C  35.46100 2.42800 34.66000
C  35.20100 2.56900 36.20700
H  36.05800 3.47500 37.06500
N  37.45800 2.98300 29.09600
C  38.49000 2.81200 29.93100
C  39.60500 2.19500 29.25000
C  39.30300 2.25900 27.87300
C  37.91900 2.65900 27.78000
C  40.74600 1.53300 29.94300
C  40.23600 1.93000 26.69600
O  39.81600 2.13000 25.56700
C  41.66000 1.49400 26.93100
N  35.05200 3.59900 27.44100
C  35.81900 3.21300 26.42900
C  35.23700 3.55700 25.13200
C  33.69400 3.76000 25.48000
C  33.77700 3.88700 26.91900
C  35.85700 4.71600 24.35200
C  32.76200 2.67000 24.90400
C  32.38600 1.45900 25.84400
N  33.50700 4.06700 29.86600
C  32.46700 4.35800 29.08300
C  31.32100 4.62000 29.93000
C  31.71500 4.58500 31.24100
C  33.08500 4.34200 31.08900
C  29.87800 4.83000 29.46700
C  31.32900 4.62000 32.64100
O  30.19400 4.75400 33.10200
C  32.66400 4.39500 33.41400
C  32.88600 5.63700 34.12000
O  33.53800 6.60500 33.82400
O  32.09600 5.49200 35.20700
C  32.28400 6.46900 36.31900
H  39.29000 2.87200 31.85100
H  37.64800 2.37300 25.76100
H  31.83300 4.54300 26.99200
H  35.77900 4.57200 34.68900
H  38.03100 2.97100 33.96800
H  37.60500 5.76800 34.57800
H  38.25200 5.80300 32.94000
H  39.08400 5.06600 34.41800
H  36.25300 1.68700 34.55300
H  34.48100 2.09300 34.32100
H  35.25300 1.55600 36.60700
H  34.14700 2.83500 36.28700
H  40.79100 0.46700 29.72300
H  40.70400 1.66800 31.02400
H  41.66400 2.01400 29.60600
H  41.54800 0.66100 27.62600
H  42.41000 2.23300 27.21200
H  41.96700 1.00300 26.00700
H  35.48200 2.69900 24.50600
H  33.35300 4.74700 25.16800
H  36.25400 4.19200 23.48300
H  36.58500 5.32300 24.89000
H  35.01200 5.34300 24.07100
H  33.13800 2.37000 23.92600
H  31.78400 3.09000 24.66800
H  32.39600 0.51300 25.30300
H  31.34100 1.57400 26.13200
H  32.99300 1.45000 26.74900
H  29.40600 3.86600 29.65200
H  29.83500 5.17100 28.43200
H  29.35900 5.64900 29.96400
H  32.64500 3.50100 34.03900
H  32.84100 5.90400 37.06600
H  31.29500 6.66700 36.73200
H  32.66500 7.44800 36.02800
Mg 26.60700 49.78800 26.32400
C  24.57000 51.00700 28.88200
C  28.57000 48.44500 28.59800
C  28.55600 48.94100 23.83400
C  24.48800 51.51300 24.14000
N  26.57000 49.80000 28.54400
C  25.58800 50.24300 29.37700
C  25.84800 49.84700 30.85300
C  27.27200 49.14700 30.81400
C  27.49400 49.08900 29.22900
C  28.31700 50.01200 31.58600
C  24.67200 49.08800 31.51100
C  24.33100 49.52500 32.95800
H  25.27900 50.00300 34.02400
N  28.36200 48.79000 26.21800
C  29.06200 48.33200 27.27800
C  30.28500 47.72700 26.84400
C  30.29300 47.87400 25.43800
C  29.07100 48.63600 25.07600
C  31.27500 47.03200 27.67400
C  31.30900 47.49600 24.38000
O  31.18500 47.79800 23.20500
C  32.69500 46.90300 24.89200
N  26.57600 50.28000 24.29000
C  27.48500 49.75500 23.45600
C  27.00500 49.88600 22.00800
C  25.83400 50.96800 22.10700
C  25.55000 50.82200 23.58100
C  28.07600 50.24900 21.01400
C  24.55500 50.56200 21.27400
C  23.77700 49.20500 21.74000
N  24.90300 50.99100 26.44700
C  24.16600 51.64200 25.43800
C  23.07700 52.38200 26.02200
C  23.19500 52.12600 27.40100
C  24.37400 51.33700 27.59600
C  22.07400 53.11700 25.31400
C  22.65600 52.32900 28.66100
O  21.71900 53.00400 29.01400
C  23.51700 51.66100 29.75800
C  24.05400 52.71100 30.67600
O  25.12500 53.28100 30.68100
O  23.07600 52.93800 31.56000
C  23.66800 53.58500 32.76800
H  29.28300 47.94000 29.25300
H  28.94200 48.46800 22.92800
H  23.85400 52.04000 23.42400
H  25.98400 50.79600 31.37100
H  27.23400 48.12800 31.19800
H  29.04800 49.28000 31.93100
H  27.93200 50.53600 32.46100
H  28.70100 50.81600 30.95700
H  24.82900 48.01300 31.60100
H  23.75200 49.03800 30.92900
H  23.99300 48.62600 33.47300
H  23.48200 50.20800 32.92800
H  31.29200 45.95300 27.52200
H  31.07200 47.21400 28.72900
H  32.26900 47.47900 27.65600
H  32.61200 45.96000 25.43200
H  33.12300 47.70100 25.50000
H  33.43200 46.67000 24.12400
H  26.73500 48.88100 21.68400
H  26.15100 52.01000 22.15600
H  28.96900 50.60200 21.53000
H  27.75900 51.04400 20.33900
H  28.33000 49.42400 20.34800
H  24.76500 50.57100 20.20400
H  23.86100 51.39700 21.37100
H  22.92500 49.43400 22.38100
H  24.29800 48.57500 22.46100
H  23.56900 48.43600 20.99700
H  21.44600 53.54000 26.09800
H  21.44800 52.35200 24.85400
H  22.34100 53.83500 24.53800
H  22.77300 51.07700 30.30000
H  24.51300 53.03100 33.17600
H  22.92000 53.65500 33.55700
H  23.98700 54.59500 32.50600

