158

Mg 34.76900 2.91000 29.92400
C  32.41700 3.71700 32.39100
C  37.26800 3.55300 32.24900
C  36.96700 2.24900 27.68600
C  32.35700 3.45100 27.52900
N  34.85600 3.61500 32.05300
C  33.73200 3.55000 32.87700
C  34.19200 3.59200 34.35300
C  35.71500 3.93900 34.25100
C  35.97600 3.67700 32.75600
C  36.29400 5.34900 34.76900
C  33.73400 2.33300 35.05400
C  33.39700 2.52900 36.54600
H  34.27900 3.37600 37.45900
N  36.86500 2.87300 29.98200
C  37.68800 3.15500 31.00800
C  39.07300 2.89900 30.63700
C  39.07500 2.35600 29.34900
C  37.59200 2.44600 28.94200
C  40.22600 3.07400 31.56600
C  40.16800 1.82600 28.49300
O  39.90700 1.36700 27.37100
C  41.61700 1.76800 28.92900
N  34.70000 2.88400 27.87500
C  35.69400 2.41200 27.14400
C  35.41900 2.56400 25.58100
C  33.91500 3.05800 25.63300
C  33.64700 3.10000 27.09700
C  36.37700 3.51600 24.75500
C  32.94700 2.01200 24.93500
C  31.81200 2.63400 24.12300
N  32.74200 3.28900 29.90700
C  31.88700 3.50500 28.83400
C  30.54100 3.80100 29.36100
C  30.72000 3.87900 30.73400
C  32.07700 3.64300 31.01500
C  29.26800 3.84800 28.47000
C  30.04700 4.01500 32.04000
O  28.85400 4.19600 32.28900
C  31.19900 3.99100 33.18900
C  31.19400 5.31600 33.82500
O  31.15300 6.42400 33.31700
O  31.31300 5.13300 35.17200
C  31.54700 6.31300 35.96000
H  37.99500 3.69200 33.05300
H  37.73500 2.00200 26.94900
H  31.65000 3.76500 26.75800
H  33.70300 4.46000 34.79500
H  36.29400 3.18500 34.78300
H  35.55800 6.06000 35.14500
H  36.75300 5.80700 33.89300
H  37.12600 5.09800 35.42800
H  34.50400 1.56700 34.95600
H  32.76500 2.03900 34.65000
H  33.39800 1.50700 36.92700
H  32.33700 2.78000 36.58700
H  41.12400 3.20900 30.96300
H  40.23700 2.25100 32.28100
H  39.97700 3.92000 32.20600
H  41.64100 1.30100 29.91300
H  42.14500 2.72100 28.97600
H  42.13500 1.21000 28.14900
H  35.50800 1.58600 25.10900
H  33.82500 4.09100 25.29700
H  35.82100 4.19300 24.10700
H  37.17500 3.00700 24.21400
H  36.92600 4.09800 25.49500
H  32.44900 1.46400 25.73400
H  33.45600 1.27100 24.31800
H  32.02700 2.38800 23.08300
H  31.92100 3.70900 23.97900
H  30.87300 2.28200 24.55100
H  29.49000 3.17200 27.64300
H  29.14700 4.91300 28.27500
H  28.48600 3.46500 29.12600
H  30.87500 3.21400 33.88100
H  30.81700 7.11600 35.86400
H  32.52200 6.73000 35.70700
H  31.79100 6.15400 37.01000
Mg 47.05000 16.82400 27.59000
C  45.21300 16.75000 30.56600
C  49.51500 18.37300 29.50400
C  48.87700 17.07800 24.85800
C  44.31300 15.90100 25.84800
N  47.19800 17.74900 29.80600
C  46.37800 17.48100 30.77300
C  46.93800 17.87600 32.09800
C  48.20600 18.69300 31.67400
C  48.33300 18.20200 30.21800
C  47.97500 20.25600 31.80600
C  47.23700 16.66600 33.09100
C  47.29000 16.91200 34.60300
H  47.00500 18.33000 35.02700
N  48.94600 17.48000 27.29900
C  49.81200 18.00800 28.15400
C  51.12100 18.13900 27.56800
C  50.93800 17.70200 26.23200
C  49.50500 17.36300 26.06400
C  52.30000 18.82300 28.25600
C  51.96400 17.58600 25.20000
O  51.76900 17.03100 24.13900
C  53.30000 18.30400 25.38100
N  46.61900 16.62500 25.59500
C  47.53600 16.83300 24.61900
C  46.87000 16.66400 23.12800
C  45.46200 16.05500 23.50800
C  45.48000 16.15200 25.09900
C  46.82700 17.94600 22.31700
C  45.20300 14.54600 23.03800
C  45.34300 13.40500 24.10900
N  45.16900 16.40800 28.07800
C  44.13500 15.93400 27.25600
C  42.97900 15.54800 28.04000
C  43.35000 15.89300 29.33800
C  44.67700 16.41100 29.26700
C  41.74200 14.95700 27.46900
C  42.90300 15.82600 30.69100
O  41.87100 15.41100 31.25200
C  44.11400 16.22200 31.49100
C  43.74000 17.26200 32.52200
O  43.48500 18.44700 32.29700
O  43.69000 16.72900 33.77900
C  43.07300 17.55600 34.84600
H  50.26100 18.76800 30.19800
H  49.53700 16.87000 24.01400
H  43.42000 15.58100 25.30800
H  46.25200 18.53500 32.62900
H  49.14100 18.49700 32.19800
H  48.70900 20.77000 32.42500
H  47.01400 20.43800 32.28800
H  48.05600 20.75100 30.83900
H  48.21900 16.37400 32.72100
H  46.66100 15.75900 32.90300
H  48.29700 16.76800 34.99400
H  46.64900 16.18800 35.10700
H  53.23600 18.28200 28.11500
H  52.19000 18.88500 29.33800
H  52.30500 19.82600 27.83000
H  53.14400 19.34400 25.66800
H  53.77400 18.39200 24.40400
H  53.82500 17.77500 26.17700
H  47.61800 16.01800 22.66900
H  44.65100 16.70400 23.18000
H  47.68000 18.59800 22.50000
H  45.87400 18.46500 22.42100
H  46.94200 17.55700 21.30500
H  45.87200 14.26400 22.22400
H  44.24200 14.53600 22.52300
H  44.37300 13.12700 24.52000
H  46.03300 13.71500 24.89400
H  45.78600 12.57700 23.55500
H  41.77900 13.90400 27.18900
H  41.48500 15.48400 26.55000
H  40.94400 15.12700 28.19200
H  44.62100 15.36600 31.93700
H  43.17500 18.62300 34.65100
H  43.52400 17.45600 35.83300
H  42.04800 17.20700 34.97300

