158

Mg 26.32500 0.55200 28.36100
C  28.04900 0.40600 31.33100
C  23.47100 1.25600 30.09700
C  24.58700 0.23500 25.41500
C  29.28400 -0.36500 26.66800
N  25.81100 0.60500 30.53000
C  26.69400 0.66500 31.50200
C  26.05500 1.15300 32.81500
C  24.53500 1.23900 32.47400
C  24.59200 1.08600 30.92600
C  23.54800 0.32400 33.18900
C  26.64300 2.48000 33.40100
C  27.30500 2.32600 34.81100
H  26.75000 3.24100 36.00700
N  24.31100 0.74800 27.82800
C  23.33000 1.08100 28.74800
C  22.12000 1.21900 27.96900
C  22.36800 0.74600 26.58100
C  23.78800 0.54700 26.56100
C  20.80000 1.68800 28.54200
C  21.40700 0.61700 25.32300
O  21.79800 0.13500 24.22300
C  19.95400 1.07700 25.52300
N  26.87700 -0.15100 26.46100
C  25.95900 -0.06600 25.40700
C  26.62200 -0.35900 24.06700
C  28.14200 -0.37200 24.41400
C  28.12700 -0.23800 25.99100
C  26.19400 -1.78400 23.55100
C  29.01900 0.75400 23.77200
C  28.49200 2.16800 23.74200
N  28.26200 0.04200 28.87600
C  29.32700 -0.33500 28.11200
C  30.38100 -0.59200 29.01200
C  29.98100 -0.22300 30.27000
C  28.64200 0.08700 30.12200
C  31.69500 -1.31200 28.74500
C  30.42900 -0.11200 31.56800
O  31.51100 -0.32100 32.08800
C  29.18500 0.33100 32.36200
C  29.00900 -0.66300 33.38600
O  28.38900 -1.72100 33.23200
O  29.72900 -0.32600 34.51200
C  29.65200 -1.16400 35.60000
H  22.52900 1.40600 30.62900
H  24.03500 0.21900 24.47300
H  30.25700 -0.54200 26.20500
H  26.26700 0.27500 33.42500
H  24.17100 2.23400 32.73000
H  23.19500 -0.45800 32.51600
H  22.66800 0.92500 33.41900
H  23.98400 -0.00700 34.13200
H  25.93100 3.30400 33.40200
H  27.55700 2.81100 32.90800
H  28.35500 2.60500 34.71900
H  27.17800 1.33400 35.24400
H  20.78000 1.85900 29.61800
H  20.21400 0.76900 28.50900
H  20.33300 2.44500 27.91300
H  19.50900 0.61900 26.40600
H  19.36400 0.97500 24.61100
H  20.07000 2.10100 25.87900
H  26.35900 0.46100 23.39900
H  28.62600 -1.32400 24.19700
H  26.62500 -2.12500 22.60900
H  25.11400 -1.73600 23.41100
H  26.29900 -2.55800 24.31200
H  29.24300 0.46600 22.74500
H  30.03700 0.76700 24.16100
H  27.49100 2.18500 24.17100
H  28.46900 2.46900 22.69500
H  29.23200 2.72300 24.32000
H  32.44300 -0.52300 28.82700
H  31.55100 -1.68700 27.73200
H  31.97600 -2.15800 29.37200
H  29.49700 1.26600 32.82600
H  30.11500 -2.12800 35.38900
H  28.75100 -1.20900 36.21100
H  30.39100 -0.70600 36.25700
Mg 35.56600 1.54500 28.86700
C  33.44400 2.60100 31.30400
C  38.10400 1.30900 31.12800
C  37.80600 1.22000 26.19100
C  33.02400 1.81600 26.49600
N  35.71400 1.74300 31.01000
C  34.68900 2.20700 31.84200
C  35.11600 2.28100 33.30500
C  36.69000 2.01100 33.16100
C  36.80900 1.61500 31.67400
C  37.43700 3.22900 33.43200
C  34.37900 1.30000 34.31600
C  33.81800 1.93500 35.70500
H  34.51400 3.21400 36.26600
N  37.67500 1.27600 28.67200
C  38.52700 1.08900 29.77300
C  39.75800 0.48300 29.28600
C  39.74900 0.60200 27.85300
C  38.31800 1.04400 27.48700
C  40.89800 0.00200 30.17300
C  40.86100 0.40200 26.86500
O  40.67600 0.64900 25.67700
C  42.19900 -0.18400 27.37300
N  35.40600 1.68100 26.65200
C  36.50100 1.49600 25.79300
C  36.01000 1.71300 24.36700
C  34.45100 1.50600 24.39200
C  34.24400 1.68600 25.92800
C  36.36400 3.12200 23.77000
C  34.00500 0.06000 24.02700
C  33.03300 0.01900 22.78400
N  33.61000 1.97800 28.89100
C  32.69500 2.10400 27.78600
C  31.45900 2.69500 28.24200
C  31.70500 2.93000 29.61400
C  33.02000 2.49200 29.92300
C  30.14500 2.96400 27.52900
C  31.11400 3.42000 30.88000
O  30.00100 3.74100 31.21000
C  32.24300 3.28400 32.04100
C  32.58300 4.70000 32.46200
O  33.54500 5.35500 32.10600
O  31.64900 5.13200 33.37300
C  31.98000 6.36100 34.02200
H  38.88200 1.13300 31.87300
H  38.50200 1.33200 25.35700
H  32.23200 1.88700 25.74800
H  34.96800 3.29000 33.68900
H  37.06800 1.13400 33.68700
H  36.84700 4.02500 33.88600
H  37.93800 3.68900 32.58000
H  38.18100 2.94500 34.17600
H  35.04700 0.51700 34.67400
H  33.52100 0.95400 33.74100
H  33.79700 1.10700 36.41400
H  32.78500 2.21900 35.50200
H  41.80400 0.60000 30.06900
H  41.21600 -1.02500 29.99500
H  40.70800 0.03000 31.24600
H  42.91700 0.58000 27.67200
H  42.52000 -0.71800 26.47800
H  42.23700 -1.01400 28.07900
H  36.52600 0.96300 23.76800
H  33.91800 2.28500 23.84600
H  37.38600 3.02500 23.40200
H  36.30900 3.84000 24.58800
H  35.77500 3.48000 22.92500
H  33.53900 -0.32500 24.93400
H  34.91800 -0.48600 23.79100
H  33.23800 -0.85500 22.16600
H  33.24500 0.89600 22.17300
H  31.97300 -0.02600 23.03400
H  30.01500 2.31100 26.66500
H  30.19900 4.01000 27.22900
H  29.40300 2.75200 28.29900
H  31.85800 2.69700 32.87400
H  33.00800 6.39600 34.38300
H  31.29000 6.67000 34.80700
H  31.85400 7.16600 33.29800

