158

Mg 53.84000 23.70300 44.93800
C  51.40400 26.14000 44.23200
C  51.76200 21.33600 43.60000
C  56.32000 21.42200 45.22900
C  56.08300 26.20900 45.58600
N  51.93200 23.81400 43.86200
C  51.11800 24.83000 43.75000
C  49.98600 24.51500 42.75800
C  49.83600 23.00900 43.23600
C  51.25600 22.65800 43.55800
C  48.83100 22.75400 44.36500
C  50.17100 24.68600 41.19500
C  51.48700 25.19900 40.68100
H  51.43700 25.93100 39.37400
N  53.99200 21.66800 44.59200
C  53.02200 20.87000 44.03400
C  53.43200 19.52900 44.14600
C  54.72600 19.48400 44.61600
C  55.09400 20.88800 44.82900
C  52.56600 18.32800 43.80100
C  55.56500 18.20600 44.91800
O  55.23800 17.06400 44.58000
C  56.84500 18.35100 45.65900
N  55.86800 23.79900 45.20300
C  56.71700 22.72100 45.28900
C  58.22400 23.15200 45.43100
C  58.09400 24.65200 45.75600
C  56.55900 24.92300 45.59200
C  59.11100 22.34400 46.52200
C  58.94800 25.64200 44.93100
C  58.45800 25.91300 43.50500
N  53.77100 25.82000 44.98400
C  54.72400 26.67000 45.31700
C  54.20000 28.07100 45.33300
C  52.83800 27.84400 45.02000
C  52.68900 26.48400 44.76700
C  54.93800 29.31000 45.70600
C  51.49200 28.49200 44.84800
O  51.16000 29.66200 45.07600
C  50.49400 27.35400 44.33500
C  49.87500 27.78800 43.08600
O  50.45500 28.25600 42.14200
O  48.47700 27.67900 43.13600
C  47.64000 27.94800 41.98300
H  51.05600 20.57800 43.25400
H  57.15400 20.72600 45.34000
H  56.78100 27.03700 45.72700
H  49.11600 25.02100 43.17600
H  49.40700 22.52100 42.36000
H  49.40100 22.25900 45.15100
H  48.02300 22.04300 44.19200
H  48.44100 23.70500 44.72800
H  49.45000 25.39900 40.79400
H  49.95500 23.72600 40.72800
H  52.17400 24.35300 40.68800
H  51.98000 25.88800 41.36600
H  52.51100 17.55300 44.56500
H  52.94600 18.00500 42.83200
H  51.50500 18.56800 43.72400
H  57.19000 17.37500 45.99900
H  56.69500 18.98400 46.53400
H  57.44100 18.86900 44.90800
H  58.71000 22.99500 44.46800
H  58.31900 24.87900 46.79900
H  59.28600 23.01600 47.36200
H  60.03600 22.29500 45.94600
H  58.69800 21.37100 46.78700
H  59.93200 25.18600 45.04600
H  58.94000 26.52500 45.57000
H  59.05000 25.68100 42.61900
H  58.45300 26.99400 43.36900
H  57.49300 25.43900 43.32800
H  55.79800 29.44500 45.05100
H  55.26800 29.20000 46.73900
H  54.29700 30.18800 45.62400
H  49.87500 27.06600 45.18400
H  46.97600 27.10600 41.78500
H  48.06300 28.31300 41.04800
H  47.04400 28.80600 42.29300
Mg -2.55000 34.62300 26.45800
C  -4.23400 32.90600 28.81400
C  -0.97000 36.51500 28.78500
C  -0.98900 36.38000 23.89300
C  -4.34800 32.72000 23.97100
N  -2.83000 34.88600 28.56800
C  -3.39100 33.89600 29.33800
C  -3.13000 34.16500 30.84100
C  -2.36100 35.47500 30.75400
C  -1.98500 35.62200 29.29300
C  -3.01300 36.80300 31.26100
C  -2.26200 32.91700 31.36500
C  -2.60500 32.39600 32.79400
H  -1.52600 32.44000 33.96300
N  -1.12500 36.30400 26.34200
C  -0.58500 36.89500 27.47700
C  0.35800 37.87400 26.98600
C  0.32600 37.86400 25.61200
C  -0.59800 36.79000 25.22000
C  1.23500 38.75100 27.93900
C  1.11100 38.71000 24.58900
O  0.88700 38.72100 23.37900
C  2.21300 39.62400 25.18600
N  -2.59700 34.54800 24.35700
C  -1.82500 35.28100 23.50300
C  -2.11600 35.00300 22.00200
C  -2.91400 33.73000 22.11200
C  -3.36100 33.66300 23.59800
C  -2.75300 36.15100 21.32900
C  -2.27800 32.42400 21.46000
C  -1.22100 31.66300 22.26100
N  -4.11200 33.23100 26.37300
C  -4.62900 32.40500 25.35400
C  -5.62900 31.44100 25.92400
C  -5.46000 31.55000 27.29900
C  -4.53400 32.70200 27.47700
C  -6.47000 30.46200 25.17300
C  -5.87200 31.06800 28.57300
O  -6.67100 30.12800 28.82900
C  -5.09200 31.89500 29.64000
C  -6.02400 32.48400 30.66400
O  -6.74100 33.47300 30.41800
O  -6.08600 31.78600 31.82100
C  -7.01300 32.31700 32.90500
H  -0.53000 37.22500 29.48800
H  -0.54300 36.90300 23.04500
H  -4.79600 32.03400 23.25000
H  -4.04700 34.36900 31.39500
H  -1.41000 35.38300 31.27800
H  -3.55700 37.29300 30.45400
H  -2.21600 37.46500 31.59900
H  -3.69700 36.69600 32.10300
H  -1.21800 33.17800 31.53900
H  -2.26800 32.10800 30.63500
H  -3.00600 31.38600 32.71700
H  -3.48100 32.98500 33.06400
H  1.16000 38.38500 28.96300
H  0.92400 39.79000 27.83500
H  2.26900 38.62200 27.61900
H  1.76700 40.28700 25.92800
H  2.69600 40.27600 24.45800
H  2.91400 38.92800 25.64600
H  -1.15100 34.73900 21.57100
H  -3.82200 33.94500 21.54800
H  -1.85700 36.54900 20.85300
H  -3.03200 36.95800 22.00600
H  -3.59500 35.91300 20.67900
H  -1.79400 32.75800 20.54300
H  -3.13000 31.77800 21.24700
H  -1.61800 30.64800 22.26900
H  -1.12500 32.01300 23.28900
H  -0.22900 31.88100 21.86500
H  -7.31500 30.26200 25.83200
H  -5.85800 29.57000 25.30700
H  -6.77100 30.93000 24.23600
H  -4.44100 31.17900 30.14100
H  -7.72000 31.57000 33.26600
H  -7.54400 33.20300 32.55700
H  -6.44500 32.61900 33.78500

