158

Mg 6.61500 53.50200 40.70300
C  6.19100 50.01200 39.99500
C  9.88400 53.15100 39.56800
C  6.84800 56.79500 40.92700
C  3.12100 53.62100 41.27700
N  7.87200 51.74500 39.75400
C  7.52600 50.40200 39.60200
C  8.76300 49.54100 39.08600
C  9.91000 50.46200 39.49400
C  9.20300 51.85100 39.56600
C  10.54900 50.07600 40.89000
C  8.70600 48.91500 37.59900
C  8.61000 49.83200 36.39500
H  7.51900 49.72200 35.36000
N  8.17000 54.77700 40.28900
C  9.44300 54.46000 39.84700
C  10.20100 55.66900 39.74800
C  9.37100 56.70100 40.15900
C  8.07400 56.12900 40.50300
C  11.59500 55.79800 39.24300
C  9.84900 58.17000 40.13000
O  10.95500 58.51800 39.68700
C  9.01000 59.29400 40.80700
N  5.19300 54.96300 41.01400
C  5.55400 56.29000 41.01400
C  4.31400 57.24600 41.14100
C  3.20600 56.13100 41.34500
C  3.83600 54.80800 41.19600
C  4.24900 58.39300 42.26300
C  2.03200 56.48100 40.23900
C  0.89300 57.46300 40.55200
N  4.98800 52.15900 40.88000
C  3.66100 52.32900 41.24200
C  3.01300 51.08600 41.27600
C  4.02200 50.15800 40.88100
C  5.15100 50.84900 40.63000
C  1.55800 50.70900 41.61800
C  4.29400 48.69100 40.68900
O  3.59900 47.71300 40.86500
C  5.70200 48.56900 40.01300
C  5.37000 48.07300 38.61500
O  5.02400 48.78600 37.71000
O  5.52200 46.66700 38.49200
C  5.24900 46.10200 37.19900
H  10.95600 52.95000 39.51900
H  6.93200 57.88000 41.01700
H  2.05300 53.60200 41.50700
H  8.68200 48.63500 39.68700
H  10.73500 50.41900 38.78400
H  10.80900 50.84100 41.62200
H  11.41000 49.45900 40.63300
H  9.93000 49.31400 41.36400
H  7.83500 48.26200 37.53100
H  9.54600 48.25800 37.37500
H  9.61800 49.69600 36.00300
H  8.56300 50.87800 36.69900
H  12.21200 56.18400 40.05400
H  11.76300 56.40200 38.35200
H  12.02900 54.83500 38.97400
H  9.70100 60.12500 40.94500
H  8.67900 59.09700 41.82600
H  8.14100 59.57500 40.21300
H  4.31800 57.74500 40.17200
H  2.78400 56.27500 42.33900
H  5.21800 58.50000 42.75100
H  3.51900 58.19700 43.04900
H  4.08300 59.40700 41.89800
H  1.58900 55.53400 39.93100
H  2.47700 56.92500 39.35000
H  0.91100 57.71100 41.61400
H  -0.06900 57.03200 40.27300
H  1.07500 58.40900 40.04400
H  1.26700 49.99100 40.85100
H  0.91800 51.59100 41.56900
H  1.42700 50.19400 42.56900
H  6.35400 47.90100 40.57700
H  6.14900 46.17400 36.58800
H  4.42400 46.52400 36.62500
H  5.01200 45.04500 37.32500
Mg 0.97700 42.17600 25.97100
C  2.12000 42.31700 29.32000
C  -1.99600 41.18300 27.05000
C  0.19600 41.54700 22.78800
C  4.26300 42.98100 24.92400
N  0.24400 41.77100 27.98100
C  0.77400 42.01400 29.19900
C  -0.27300 41.88300 30.28200
C  -1.56100 41.34900 29.63500
C  -1.13100 41.45000 28.11800
C  -1.88200 39.87500 30.02900
C  -0.39700 43.27700 30.93500
C  -0.42900 43.29500 32.52800
H  -0.54400 41.90800 33.29900
N  -0.69200 41.43500 25.01000
C  -1.81100 41.04100 25.66100
C  -2.80700 40.66100 24.73100
C  -2.20200 40.87400 23.41700
C  -0.82800 41.35700 23.72400
C  -4.21800 40.22300 25.11200
C  -2.68800 40.57100 22.00800
O  -2.12600 40.93300 20.96900
C  -4.02900 39.79400 21.81400
N  2.13500 42.31300 24.15600
C  1.51600 42.03300 22.96400
C  2.46100 42.08700 21.76900
C  3.73200 42.74500 22.36000
C  3.38300 42.69900 23.88400
C  2.79800 40.70900 21.16500
C  3.90900 44.22100 21.95900
C  4.03200 44.57200 20.52200
N  2.82700 42.60500 26.90500
C  4.03800 42.99300 26.35400
C  5.00000 43.19000 27.42400
C  4.23300 43.03700 28.61600
C  2.98100 42.60100 28.22700
C  6.46600 43.54100 27.26000
C  4.29600 43.22900 30.04300
O  5.13900 43.64200 30.78400
C  2.92700 42.62000 30.54600
C  3.26700 41.35300 31.34600
O  3.16800 40.18300 30.98900
O  3.41000 41.67300 32.66900
C  3.25700 40.78400 33.83400
H  -3.01700 41.00900 27.39700
H  0.00500 41.25100 21.75400
H  5.28800 43.21900 24.63300
H  0.11800 41.13800 30.97500
H  -2.34300 42.05900 29.90800
H  -2.08100 39.35400 29.09200
H  -2.73500 39.82500 30.70500
H  -1.06500 39.33900 30.51300
H  -1.25500 43.79000 30.49900
H  0.45200 43.92300 30.71000
H  -1.31500 43.82400 32.87800
H  0.46800 43.76200 32.93400
H  -4.58800 39.34700 24.58000
H  -4.85100 41.08200 24.88900
H  -4.23200 39.95700 26.16900
H  -3.75700 38.75700 22.01300
H  -4.17500 40.05600 20.76600
H  -4.76900 40.31700 22.42000
H  2.09900 42.75200 20.98500
H  4.56600 42.07400 22.15300
H  2.25200 40.60900 20.22700
H  2.49600 39.83000 21.73500
H  3.85900 40.64900 20.92400
H  4.58100 44.74100 22.64100
H  2.94000 44.62100 22.25800
H  3.12800 45.12300 20.26100
H  4.28000 43.69900 19.91800
H  4.89900 45.22400 20.41000
H  7.03300 42.61100 27.22500
H  6.74500 44.11800 28.14200
H  6.52900 44.09100 26.32100
H  2.47700 43.42200 31.13200
H  2.73600 39.87200 33.54400
H  2.71800 41.26800 34.64800
H  4.20400 40.53000 34.31000

