158

Mg 47.23600 25.59600 27.63400
C  48.41600 27.61400 30.34300
C  46.39300 23.13200 30.12900
C  46.81900 23.32100 25.15900
C  48.76500 27.70000 25.56600
N  47.36900 25.41700 30.03800
C  47.79100 26.46500 30.87100
C  47.51200 26.09900 32.30200
C  46.92700 24.61000 32.23900
C  46.88600 24.35700 30.75900
C  47.77400 23.60500 32.96700
C  46.57700 27.17200 32.95700
C  47.16500 27.92000 34.17800
H  46.23500 28.07500 35.30200
N  46.58000 23.50100 27.66000
C  46.26100 22.68600 28.77400
C  45.72600 21.42700 28.22100
C  45.81500 21.56900 26.78500
C  46.40400 22.85100 26.48100
C  45.12000 20.34100 29.02900
C  45.33700 20.46000 25.75300
O  45.33300 20.65300 24.54600
C  44.91500 19.06700 26.14400
N  47.87800 25.46200 25.69100
C  47.50100 24.44300 24.84200
C  47.90300 24.73700 23.39700
C  48.24000 26.27800 23.56500
C  48.23400 26.50800 25.00900
C  49.22600 23.85400 23.04300
C  47.19500 27.18600 22.83400
C  45.83300 27.24100 23.60400
N  48.37700 27.31000 27.81900
C  48.83800 28.12900 26.87900
C  49.49500 29.31700 27.46100
C  49.32700 29.12700 28.80100
C  48.68000 27.89300 28.99200
C  50.27200 30.49100 26.74900
C  49.66200 29.66500 30.11500
O  50.27700 30.67400 30.42000
C  49.06900 28.64100 31.16900
C  50.17300 28.16400 32.01000
O  50.98600 27.32700 31.66400
O  50.33100 28.92800 33.12800
C  51.61700 28.73200 33.85700
H  45.98800 22.41000 30.84100
H  46.62800 22.61600 24.34800
H  49.04700 28.50600 24.88500
H  48.44700 26.03600 32.85800
H  45.94300 24.71000 32.69600
H  47.15100 22.76000 33.25900
H  48.36800 24.06200 33.75800
H  48.44300 23.14900 32.23700
H  45.56800 26.82000 33.17300
H  46.31400 27.93300 32.22100
H  47.40300 28.93400 33.85600
H  48.12700 27.51600 34.49100
H  45.21400 20.47400 30.10600
H  45.69400 19.44700 28.78700
H  44.06300 20.35200 28.76200
H  45.80200 18.59000 26.56000
H  44.83800 18.40300 25.28300
H  44.05400 19.06600 26.81300
H  47.09900 24.45500 22.71800
H  49.25400 26.40800 23.18500
H  50.11100 24.45700 22.84200
H  48.92700 23.19600 22.22700
H  49.44100 23.38700 24.00500
H  46.89500 26.76500 21.87500
H  47.63900 28.17100 22.69100
H  45.82200 27.97600 24.40900
H  45.65300 26.28700 24.09900
H  45.02300 27.30100 22.87700
H  50.92000 30.09600 25.96600
H  50.87400 30.98900 27.50900
H  49.52300 31.10000 26.24200
H  48.41400 29.20400 31.83400
H  51.52100 28.13600 34.76400
H  51.91800 29.70600 34.24400
H  52.51800 28.47800 33.29800
Mg 49.20500 35.39400 27.23200
C  46.98400 34.01100 29.68200
C  49.59300 38.09800 29.35200
C  51.32400 36.51000 25.06800
C  48.06900 32.90000 25.06700
N  48.48500 35.95000 29.31200
C  47.60600 35.18500 30.11400
C  47.60900 35.78800 31.57400
C  48.09900 37.25500 31.27300
C  48.70300 37.13100 29.84400
C  47.03300 38.38800 31.33700
C  48.56600 34.98200 32.47300
C  49.71300 35.70600 33.20100
H  49.23400 36.76100 34.31900
N  50.37700 37.07000 27.20200
C  50.46300 38.08000 28.13900
C  51.42800 39.04800 27.76000
C  51.97300 38.57000 26.49700
C  51.18400 37.35500 26.15600
C  51.68300 40.40500 28.56500
C  53.05500 39.35900 25.61900
O  53.21700 39.04200 24.42500
C  53.82700 40.56400 26.16200
N  49.42900 34.95500 25.19200
C  50.47300 35.52400 24.58700
C  50.83000 34.77700 23.24400
C  49.67000 33.75300 23.14100
C  49.00400 33.84500 24.52600
C  50.86600 35.60300 21.94100
C  50.00500 32.38900 22.61400
C  49.10100 31.68900 21.53400
N  47.87100 33.80000 27.32100
C  47.53200 32.83400 26.40300
C  46.56800 31.92900 26.89000
C  46.29700 32.36600 28.15700
C  47.09300 33.50700 28.39500
C  46.11700 30.69900 26.18400
C  45.59100 32.03100 29.38800
O  44.76700 31.13300 29.50800
C  45.98100 33.02300 30.40900
C  46.48400 32.42400 31.66800
O  47.43800 31.63600 31.83100
O  45.58800 32.70300 32.70500
C  45.87300 32.23800 34.09500
H  49.71500 38.90300 30.07900
H  52.09500 36.67600 24.31300
H  47.83900 32.06600 24.40100
H  46.54300 35.71700 31.79000
H  48.87200 37.62900 31.94400
H  47.42500 39.18300 31.97000
H  46.10700 37.91500 31.66300
H  46.93000 38.83500 30.34800
H  48.81500 34.05000 31.96600
H  47.86700 34.79400 33.28800
H  50.31200 36.15500 32.40900
H  50.33800 34.92700 33.63900
H  52.66400 40.28700 29.02500
H  51.00200 40.44900 29.41500
H  51.57300 41.16800 27.79500
H  53.27600 41.45400 26.46600
H  54.79200 40.65100 25.66100
H  54.12200 40.13400 27.12000
H  51.74500 34.22600 23.46000
H  48.88700 34.24500 22.56300
H  50.23500 36.47800 22.10000
H  50.44200 35.10000 21.07100
H  51.91100 35.90400 21.87900
H  50.16100 31.84400 23.54600
H  50.95500 32.49500 22.09000
H  48.39700 32.49300 21.32100
H  48.65600 30.76600 21.90700
H  49.53700 31.40200 20.57600
H  45.51600 31.05000 25.34500
H  45.51900 30.02900 26.80200
H  46.93800 30.04100 25.90100
H  44.99100 33.45000 30.56400
H  44.95200 32.05300 34.64700
H  46.36300 33.09200 34.56300
H  46.47700 31.33300 34.16100

