158

Mg 31.03600 58.33200 39.75400
C  28.31400 56.49800 38.71800
C  33.07800 55.53100 39.08700
C  33.67700 60.25400 40.13400
C  28.95700 61.23000 39.92800
N  30.70400 56.25600 38.82800
C  29.50200 55.74800 38.61500
C  29.68900 54.20400 38.29000
C  31.15500 53.90400 38.46700
C  31.69300 55.30400 38.81900
C  31.53500 52.87200 39.47100
C  29.25500 53.75600 36.92200
C  29.78300 54.51800 35.69800
H  28.67100 55.17700 34.79900
N  33.18200 57.95800 39.46900
C  33.78800 56.77300 39.19300
C  35.23000 56.96900 39.27100
C  35.41000 58.29400 39.70700
C  34.09200 58.91800 39.76700
C  36.28300 55.89900 38.96200
C  36.66800 58.93100 39.97900
O  37.66800 58.22400 40.00500
C  36.87000 60.49000 40.25700
N  31.30700 60.46900 39.87100
C  32.46200 60.95600 40.21500
C  32.47600 62.48400 40.52900
C  30.96400 62.72500 40.70300
C  30.33200 61.51600 40.04700
C  33.41900 63.08700 41.60800
C  30.42300 64.07800 40.01200
C  29.61600 64.96600 41.00100
N  29.02200 58.87200 39.43800
C  28.32200 60.02000 39.59300
C  26.92500 59.76200 39.38700
C  26.83200 58.38100 39.01900
C  28.10100 57.87300 39.08600
C  25.78400 60.80900 39.44300
C  25.94200 57.30100 38.66100
O  24.72400 57.36900 38.45100
C  26.82700 56.03300 38.56700
C  26.32600 55.03100 39.54400
O  26.76600 54.81100 40.67100
O  25.42400 54.18400 38.93000
C  25.11100 52.96200 39.67500
H  33.68300 54.63600 38.92600
H  34.45600 60.94400 40.46300
H  28.22800 61.98400 40.23100
H  29.17700 53.58200 39.02500
H  31.62700 53.51900 37.56300
H  31.64700 51.88600 39.02000
H  30.88900 52.76300 40.34200
H  32.47400 53.13500 39.95700
H  28.17100 53.70200 36.81900
H  29.60900 52.73200 36.80800
H  30.35300 53.87300 35.02900
H  30.35500 55.39400 36.00300
H  36.59900 56.08400 37.93500
H  35.82700 54.90900 38.95600
H  37.03600 55.88600 39.74900
H  36.62700 60.73600 41.29000
H  36.35200 61.13100 39.54400
H  37.93000 60.74000 40.21600
H  32.71200 62.84300 39.52700
H  30.72200 62.64500 41.76300
H  32.80500 63.55400 42.37800
H  34.18100 63.69800 41.12400
H  34.04000 62.38200 42.16100
H  29.82400 63.88200 39.12200
H  31.20900 64.71200 39.60100
H  28.60600 64.91500 40.59500
H  29.98500 65.99100 40.95900
H  29.77300 64.57000 42.00400
H  25.69900 61.25200 38.45100
H  25.83900 61.59500 40.19600
H  24.90600 60.17700 39.58000
H  26.75700 55.50800 37.61500
H  24.68100 52.21200 39.01100
H  24.27800 53.15400 40.35200
H  25.86600 52.37200 40.19400
Mg -9.99800 17.61900 41.42200
C  -6.56300 16.91500 41.55700
C  -9.03500 20.85200 40.57200
C  -13.10500 18.17900 40.53200
C  -10.69300 14.26600 41.67600
N  -8.01400 18.72100 40.96000
C  -6.75900 18.23800 41.14100
C  -5.72900 19.23200 40.74500
C  -6.49300 20.59200 40.79200
C  -7.94400 20.04400 40.86300
C  -6.21800 21.49900 42.07200
C  -5.19500 18.89600 39.32000
C  -3.71200 18.57700 39.13400
H  -3.38300 17.28900 38.36700
N  -10.96200 19.35600 40.76300
C  -10.44300 20.56200 40.54900
C  -11.46700 21.53500 40.18600
C  -12.66200 20.75700 40.20400
C  -12.31300 19.37000 40.50100
C  -11.13700 23.03000 39.93100
C  -14.04600 21.37700 39.91900
O  -14.18000 22.62200 39.83100
C  -15.38700 20.65300 39.67300
N  -11.69000 16.33200 41.06600
C  -12.93500 16.80300 40.85000
C  -13.98500 15.73000 40.77700
C  -13.16300 14.40800 41.06100
C  -11.79800 15.03800 41.32400
C  -15.26700 15.87800 41.67900
C  -13.13000 13.41400 39.89300
C  -12.11400 13.69000 38.71600
N  -8.83100 15.88000 41.75000
C  -9.30300 14.58700 41.79500
C  -8.15900 13.71300 41.77800
C  -7.02500 14.54500 41.80200
C  -7.52600 15.87200 41.81100
C  -8.16600 12.18100 41.74700
C  -5.53700 14.68300 41.70800
O  -4.67600 13.79500 41.67400
C  -5.22000 16.19300 41.69500
C  -4.38100 16.63000 42.84800
O  -3.34500 17.34100 42.75800
O  -4.72300 15.89900 44.02800
C  -3.96800 16.12100 45.20900
H  -8.79200 21.89000 40.33600
H  -14.12700 18.38800 40.20700
H  -10.86100 13.20600 41.88000
H  -4.88900 19.18600 41.43800
H  -6.37600 21.10800 39.83900
H  -6.98300 21.32200 42.82900
H  -6.23400 22.53700 41.74000
H  -5.24300 21.33100 42.53000
H  -5.38200 19.68300 38.59000
H  -5.80100 18.07200 38.94400
H  -3.30100 18.57300 40.14400
H  -3.27800 19.44300 38.63500
H  -10.38000 22.97900 39.14800
H  -10.79000 23.48500 40.85900
H  -11.98800 23.58200 39.53300
H  -15.72000 19.92400 40.41300
H  -15.34500 20.19800 38.68400
H  -16.15000 21.43000 39.65000
H  -14.29500 15.55200 39.74700
H  -13.42400 14.01700 42.04400
H  -16.19400 15.77700 41.11600
H  -15.27800 16.83600 42.20100
H  -15.15300 15.11900 42.45300
H  -14.09500 13.37800 39.38700
H  -12.95900 12.42200 40.31000
H  -11.75200 14.71700 38.74500
H  -12.55000 13.57700 37.72300
H  -11.26300 13.00900 38.74300
H  -9.12000 11.95000 42.22200
H  -7.42300 11.70900 42.39000
H  -8.20600 11.76900 40.73900
H  -4.57100 16.26500 40.82200
H  -3.23900 16.92900 45.14300
H  -3.49600 15.22200 45.60600
H  -4.77400 16.31500 45.91700

