158

Mg 1.11300 7.78600 26.54000
C  1.62900 9.70100 29.45100
C  0.83900 4.93300 28.53000
C  0.62600 5.94400 23.79900
C  1.51700 10.66000 24.56700
N  1.39500 7.40700 28.75500
C  1.44400 8.34100 29.77900
C  1.20300 7.65700 31.18200
C  1.40900 6.21200 30.83800
C  1.18800 6.14600 29.24600
C  2.78100 5.59200 31.28700
C  -0.25300 8.07300 31.65300
C  -0.35700 8.43700 33.14000
H  0.92600 8.31900 33.98400
N  0.76500 5.71200 26.25100
C  0.62800 4.67900 27.17700
C  0.02200 3.53600 26.49400
C  -0.15200 3.87200 25.11500
C  0.44500 5.20600 25.00700
C  -0.51100 2.32100 27.20900
C  -0.65500 2.99500 24.00900
O  -0.50200 3.29600 22.86500
C  -1.43900 1.78300 24.34900
N  1.40900 8.21000 24.42200
C  1.06800 7.25300 23.49900
C  1.16300 7.84600 22.10500
C  1.13700 9.32700 22.33500
C  1.36400 9.44600 23.88500
C  2.34300 7.38300 21.25500
C  -0.24100 10.05900 21.95000
C  -0.04100 11.10600 20.91900
N  1.49600 9.77500 26.84200
C  1.70600 10.81900 25.93400
C  2.02200 12.00100 26.69400
C  2.03000 11.61300 28.04100
C  1.67500 10.29100 28.11000
C  2.44100 13.25800 26.08600
C  2.26900 12.03700 29.38100
O  2.75500 13.08200 29.79100
C  1.89000 10.87300 30.32400
C  3.05600 10.71900 31.19200
O  4.05900 10.11000 30.87300
O  2.86200 11.40200 32.37100
C  4.08500 11.42800 33.16000
H  0.53600 4.05800 29.10900
H  0.35600 5.41600 22.88300
H  1.50700 11.58600 23.98900
H  1.97700 8.00100 31.86900
H  0.60600 5.60300 31.25400
H  2.58300 4.68200 31.85400
H  3.34400 6.39000 31.77200
H  3.39700 5.30300 30.43600
H  -0.96700 7.25000 31.64800
H  -0.71900 8.84400 31.03800
H  -1.10700 7.76100 33.55000
H  -0.74400 9.44200 33.30800
H  -0.21400 1.38100 26.74600
H  -1.59400 2.37100 27.09300
H  -0.07700 2.27200 28.20700
H  -1.83700 1.26000 23.48000
H  -2.20500 1.90000 25.11600
H  -0.58200 1.19600 24.67900
H  0.25800 7.46500 21.63100
H  2.04400 9.81700 21.98000
H  2.25900 6.29700 21.20400
H  3.26800 7.69800 21.73700
H  2.31200 7.79000 20.24400
H  -0.55100 10.52300 22.88600
H  -1.04100 9.42500 21.56700
H  0.95300 10.95400 20.49600
H  -0.00600 12.11600 21.32800
H  -0.73700 11.17400 20.08300
H  3.46000 13.24600 25.69800
H  2.32000 14.02100 26.85500
H  1.67900 13.41600 25.32400
H  1.02700 11.35100 30.78800
H  4.21700 10.43900 33.59800
H  3.96900 12.09500 34.01500
H  4.94500 11.73600 32.56300
Mg -1.21700 34.89700 27.17500
C  -2.88200 33.23400 29.84500
C  -0.08200 37.08100 29.60300
C  0.02200 36.80300 24.71100
C  -2.74500 32.75400 24.95100
N  -1.45600 35.17500 29.50300
C  -2.13500 34.30800 30.32200
C  -1.99900 34.78500 31.77900
C  -1.31600 36.13600 31.63700
C  -0.84700 36.11100 30.17800
C  -2.17600 37.36100 32.03200
C  -1.22800 33.64900 32.64300
C  -1.90700 33.37200 33.93900
H  -0.97400 33.17100 35.13300
N  -0.02700 36.56000 27.19600
C  0.37100 37.32400 28.23700
C  1.16700 38.42300 27.75700
C  1.36100 38.28400 26.35000
C  0.41300 37.17500 26.03300
C  1.79800 39.49800 28.56200
C  2.17000 39.03400 25.29400
O  2.16000 38.80000 24.10900
C  3.05400 40.00800 25.69500
N  -1.33300 34.71800 25.12700
C  -0.76600 35.69600 24.27200
C  -1.18500 35.33100 22.84100
C  -1.72900 33.89500 22.93700
C  -2.00100 33.74800 24.39100
C  -2.18800 36.29500 22.13700
C  -0.79100 32.91900 22.18500
C  0.22000 32.14300 23.11900
N  -2.59800 33.34600 27.29000
C  -3.12800 32.56600 26.30200
C  -3.87200 31.45700 26.87600
C  -3.81600 31.71700 28.20700
C  -3.01300 32.85400 28.47400
C  -4.57600 30.32500 26.18000
C  -4.29900 31.15700 29.45600
O  -4.96900 30.16300 29.68500
C  -3.59600 32.08600 30.59100
C  -4.60500 32.46000 31.43400
O  -5.43700 33.28500 31.24000
O  -4.56800 31.71200 32.57900
C  -5.53500 32.09000 33.63300
H  0.31500 37.72400 30.39100
H  0.34400 37.46300 23.90300
H  -3.25600 32.16600 24.18600
H  -3.01000 34.81600 32.18400
H  -0.44200 36.28400 32.27100
H  -2.29700 38.03900 31.18700
H  -1.54100 37.78300 32.81100
H  -3.17600 37.19400 32.43400
H  -0.16600 33.89800 32.65600
H  -1.25800 32.71800 32.07600
H  -2.41400 32.42000 33.78400
H  -2.63200 34.13000 34.23400
H  1.54700 40.48000 28.16100
H  2.87100 39.39000 28.71800
H  1.39700 39.53100 29.57600
H  3.69400 39.63200 26.49400
H  2.34600 40.71800 26.12200
H  3.57800 40.33300 24.79600
H  -0.21400 35.38600 22.34900
H  -2.63900 33.90600 22.33600
H  -2.51300 37.12000 22.77100
H  -3.09500 35.79200 21.80100
H  -1.70000 36.72200 21.26100
H  -0.13900 33.38800 21.44900
H  -1.43400 32.19200 21.68800
H  0.46800 32.65200 24.05100
H  1.16100 32.06000 22.57400
H  -0.11300 31.12400 23.31900
H  -4.17000 29.37400 26.52500
H  -4.40600 30.34800 25.10300
H  -5.58300 30.44400 26.57900
H  -2.94600 31.41800 31.15600
H  -5.33400 33.11600 33.94100
H  -5.39100 31.40900 34.47200
H  -6.47800 31.76600 33.19400

