158

Mg -0.00200 7.91900 26.83800
C  1.07200 9.91800 29.47500
C  -0.16100 5.24100 29.03700
C  -0.55700 6.00400 24.14700
C  0.31400 10.72100 24.74800
N  0.50600 7.64500 28.91100
C  0.84300 8.57900 29.89200
C  0.78700 8.05200 31.38600
C  0.34500 6.61400 31.13500
C  0.26000 6.46900 29.60900
C  1.32000 5.52600 31.78800
C  -0.08000 8.80900 32.37300
C  0.38500 8.73900 33.86200
H  -0.44100 8.02400 34.88900
N  -0.23300 5.90400 26.64100
C  -0.31700 5.00800 27.64400
C  -0.71700 3.73200 26.98600
C  -0.67000 3.86700 25.57600
C  -0.45500 5.33800 25.41200
C  -1.00300 2.56100 27.83900
C  -0.96700 2.84400 24.43900
O  -0.99300 3.02200 23.23600
C  -1.15500 1.36900 24.84400
N  -0.02900 8.28700 24.77100
C  -0.33600 7.33400 23.84400
C  -0.56900 7.93200 22.46900
C  -0.61000 9.47700 22.76700
C  -0.10300 9.51900 24.15700
C  0.45500 7.42600 21.45800
C  -2.05000 10.09900 22.76600
C  -2.72600 10.34700 21.36900
N  0.43700 9.96000 27.01200
C  0.62900 10.95500 26.08200
C  1.09800 12.21700 26.71200
C  1.30700 11.76500 28.05100
C  0.96400 10.43700 28.15800
C  1.29900 13.45800 26.02200
C  1.77800 12.24700 29.30600
O  2.22500 13.31100 29.63600
C  1.52700 11.12000 30.27900
C  2.73900 10.82800 31.10100
O  3.76500 10.24400 30.76800
O  2.48300 11.39900 32.31300
C  3.67600 11.34900 33.27300
H  -0.31600 4.44700 29.77000
H  -0.77600 5.42700 23.24700
H  0.35000 11.59600 24.09600
H  1.80300 8.01400 31.78000
H  -0.68200 6.40500 31.43800
H  0.80800 4.62100 32.11500
H  1.69800 5.86400 32.75300
H  2.12000 5.08700 31.19100
H  -1.05800 8.35100 32.22400
H  -0.16600 9.86800 32.13000
H  0.67400 9.73500 34.20000
H  1.39100 8.34300 34.00100
H  -0.28700 1.75000 27.70900
H  -1.94200 2.13200 27.48900
H  -1.29800 2.71100 28.87700
H  -0.27600 1.11200 25.43500
H  -1.50100 0.52000 24.25400
H  -2.07400 1.52800 25.40900
H  -1.55300 7.63900 22.10300
H  0.03800 10.18600 22.25200
H  0.63400 8.05800 20.58900
H  0.12900 6.54600 20.90500
H  1.41200 7.15600 21.90400
H  -2.01800 11.10300 23.18900
H  -2.71000 9.60000 23.47600
H  -2.17000 9.89400 20.54800
H  -2.81100 11.43100 21.30300
H  -3.68900 9.83600 21.34900
H  0.48400 14.17700 26.10600
H  1.47600 13.46600 24.94600
H  2.14500 13.92700 26.52400
H  0.71200 11.51300 30.88700
H  4.62100 11.52000 32.75700
H  3.69400 10.37200 33.75500
H  3.60400 12.19300 33.95900
Mg -1.41100 33.82000 26.80800
C  -3.53500 32.05000 29.20100
C  -0.21800 35.54200 29.50000
C  0.12900 35.65700 24.59400
C  -2.96200 32.07400 24.31300
N  -1.87500 33.75100 29.16500
C  -2.73700 33.01000 29.90400
C  -2.54700 33.25200 31.46200
C  -1.57200 34.44900 31.49000
C  -1.16800 34.63400 29.96700
C  -2.26800 35.72100 32.03700
C  -2.05000 31.97600 32.20000
C  -2.86800 31.43800 33.38200
H  -2.09500 31.18200 34.61600
N  -0.09600 35.38200 26.97300
C  0.34000 35.89500 28.22300
C  1.41500 36.77400 27.84600
C  1.48300 36.87600 26.42300
C  0.50000 35.96900 25.93900
C  2.32800 37.40600 28.93100
C  2.35000 37.72200 25.51700
O  2.12000 37.84600 24.34700
C  3.35000 38.65900 26.05900
N  -1.53900 33.97100 24.73100
C  -0.80200 34.81500 24.06700
C  -1.07700 34.73300 22.56600
C  -2.00700 33.48700 22.43000
C  -2.19000 33.13100 23.88700
C  -1.72500 36.01800 21.99500
C  -1.32000 32.34200 21.57700
C  -2.04300 31.85300 20.29000
N  -2.99500 32.38700 26.71300
C  -3.44600 31.69600 25.59700
C  -4.42200 30.73100 25.99000
C  -4.54600 30.85300 27.37000
C  -3.58300 31.85200 27.77200
C  -5.26400 29.75700 25.12200
C  -5.21700 30.36300 28.57300
O  -6.10700 29.54000 28.71900
C  -4.47900 30.96700 29.84600
C  -5.51800 31.51800 30.84600
O  -6.32700 32.34500 30.61600
O  -5.39000 30.76300 31.93200
C  -6.42100 30.99100 32.98600
H  0.16700 36.14900 30.32200
H  0.76800 36.10200 23.82700
H  -3.48300 31.44100 23.59200
H  -3.49500 33.68300 31.78300
H  -0.73400 34.18900 32.13700
H  -1.67700 36.16300 32.83900
H  -3.19400 35.67600 32.60900
H  -2.33100 36.53300 31.31300
H  -1.06000 32.19400 32.60200
H  -1.98600 31.21500 31.42100
H  -3.34700 30.48000 33.18100
H  -3.65600 32.16600 33.57800
H  2.15500 36.95700 29.90900
H  2.16500 38.48300 28.91700
H  3.39600 37.29100 28.74300
H  4.24100 38.05500 26.23400
H  2.92200 39.03800 26.98700
H  3.62200 39.34000 25.25200
H  -0.14300 34.61300 22.01700
H  -2.94600 33.67900 21.91000
H  -1.40600 36.81800 22.66300
H  -2.81400 35.98400 21.95500
H  -1.32400 36.23900 21.00600
H  -1.31800 31.46800 22.22800
H  -0.31400 32.58900 21.24000
H  -1.85100 32.61100 19.53100
H  -3.10100 31.61400 20.40000
H  -1.44300 31.02900 19.90400
H  -5.12100 28.70800 25.37900
H  -5.02500 29.92000 24.07100
H  -6.30900 30.01000 25.30500
H  -3.81700 30.23400 30.30500
H  -7.41700 31.09600 32.55600
H  -6.27900 31.88300 33.59600
H  -6.36000 30.18500 33.71800

