158

Mg 29.39200 57.48100 41.29500
C  26.74500 55.49700 40.29700
C  31.38100 55.51400 39.32500
C  31.74900 59.77100 41.42200
C  26.99700 59.80800 42.29200
N  29.12200 55.57600 40.11800
C  27.95700 54.94800 39.88800
C  28.16900 53.60800 39.05600
C  29.73200 53.52800 39.08600
C  30.10300 54.97600 39.47900
C  30.38200 52.37900 40.04200
C  27.49600 53.72300 37.64500
C  27.33200 55.06400 36.94400
H  27.59800 55.10100 35.46000
N  31.39600 57.47700 40.74300
C  32.03400 56.58400 39.99400
C  33.40000 56.96400 39.81800
C  33.51400 58.20100 40.39600
C  32.21900 58.57600 40.92800
C  34.43000 56.12300 39.12600
C  34.83200 58.94500 40.50100
O  35.87800 58.56700 39.94000
C  34.91200 60.26700 41.21900
N  29.37300 59.57000 41.70000
C  30.49100 60.32100 41.70300
C  30.28500 61.79100 42.07300
C  28.70500 61.69900 42.45700
C  28.29800 60.22400 42.16600
C  31.33600 62.46000 43.12100
C  27.86000 62.73400 41.62800
C  26.66600 63.44100 42.39600
N  27.25700 57.59700 41.51500
C  26.39800 58.62200 41.82100
C  25.04400 58.28200 41.70700
C  25.10000 57.00200 41.07900
C  26.50000 56.69600 40.95200
C  23.79400 59.04100 41.94800
C  24.33500 55.91900 40.58200
O  23.12300 55.68200 40.53200
C  25.35800 54.80200 40.14700
C  25.24400 53.37200 40.70500
O  25.48500 52.97800 41.80600
O  24.73900 52.57300 39.67700
C  24.47900 51.14300 40.05600
H  32.12700 54.94700 38.76400
H  32.51700 60.53800 41.54700
H  26.32700 60.63000 42.55200
H  27.81800 52.69900 39.54400
H  30.04800 53.33300 38.06100
H  29.63800 51.65900 40.38400
H  30.85600 52.74400 40.95300
H  31.15900 51.97900 39.39200
H  26.52000 53.23700 37.65700
H  28.02500 53.05900 36.96200
H  28.01000 55.77500 37.41700
H  26.26300 55.20400 37.10200
H  35.46300 56.21500 39.46100
H  34.38300 56.28900 38.05000
H  34.15100 55.08300 39.29800
H  34.24200 60.83300 40.57100
H  35.93800 60.61200 41.34300
H  34.35500 60.23800 42.15500
H  30.33400 62.36800 41.15100
H  28.66400 61.85600 43.53500
H  32.28600 61.94200 43.25200
H  30.87300 62.84200 44.03000
H  31.78300 63.30700 42.60100
H  27.35300 62.22400 40.80900
H  28.56800 63.45500 41.22000
H  25.80900 63.75100 41.79800
H  26.97000 64.34300 42.92800
H  26.21100 62.77200 43.12600
H  24.03300 60.02000 42.36300
H  23.28400 58.58000 42.79400
H  23.19100 59.24300 41.06300
H  25.13900 54.62700 39.09400
H  25.39300 50.59300 40.28300
H  24.11300 50.60300 39.18300
H  23.80800 51.08400 40.91300
Mg 17.26400 52.13900 26.86400
C  19.08600 50.57400 29.42500
C  14.90200 52.97900 29.13000
C  15.58200 53.49900 24.33200
C  19.50800 50.77300 24.55900
N  16.97200 51.79100 29.05900
C  17.99800 51.27700 29.91200
C  17.46900 51.24400 31.38800
C  15.93400 51.66200 31.18300
C  15.92100 52.17100 29.70300
C  14.98200 50.43600 31.40400
C  18.26600 52.24900 32.32300
C  17.63700 52.72300 33.67700
H  16.63400 51.88800 34.44300
N  15.51000 53.21200 26.73100
C  14.64800 53.44100 27.80100
C  13.55800 54.32900 27.34500
C  13.84900 54.60200 25.94600
C  14.97000 53.70400 25.57600
C  12.35000 54.77900 28.22100
C  13.10600 55.57000 24.94800
O  13.58200 55.93200 23.88400
C  11.96300 56.28400 25.41400
N  17.41300 51.93700 24.72100
C  16.59200 52.66700 23.91500
C  17.05400 52.67600 22.48500
C  18.47700 51.94800 22.61900
C  18.49200 51.55100 24.03300
C  16.06400 51.90900 21.52300
C  19.68500 52.90800 22.21200
C  20.92100 52.34000 21.43900
N  18.89300 50.82700 26.94600
C  19.72700 50.44300 25.93500
C  20.83500 49.71500 26.49500
C  20.67300 49.70800 27.91200
C  19.46200 50.41500 28.09700
C  21.84000 49.09600 25.77200
C  21.16400 49.34000 29.11900
O  22.20100 48.77100 29.47400
C  20.18100 49.94600 30.21700
C  19.74400 48.83200 31.06600
O  19.43600 47.71400 30.61800
O  19.84000 49.24900 32.38400
C  19.10800 48.31300 33.24700
H  14.08200 53.12300 29.83500
H  15.02600 54.09500 23.60500
H  20.26800 50.44000 23.84800
H  17.43100 50.22100 31.76200
H  15.57400 52.44500 31.85100
H  14.11900 50.83700 31.93500
H  15.31100 49.72800 32.16500
H  14.72700 49.86900 30.50800
H  18.39200 53.06100 31.60700
H  19.26000 51.83500 32.49300
H  17.29500 53.75100 33.56100
H  18.49200 52.91600 34.32300
H  11.48700 54.12300 28.10800
H  12.20300 55.83600 28.00000
H  12.63700 54.83300 29.27100
H  11.53500 56.58300 24.45700
H  12.26300 57.12800 26.03500
H  11.25700 55.65600 25.95700
H  17.14800 53.75500 22.36200
H  18.56700 50.94400 22.20500
H  16.59900 51.07600 21.06700
H  15.75400 52.58300 20.72500
H  15.17600 51.59900 22.07400
H  19.97700 53.24400 23.20700
H  19.42800 53.81100 21.65900
H  21.82200 52.42900 22.04500
H  21.17600 52.94000 20.56500
H  20.64100 51.31900 21.17900
H  21.45500 48.18900 25.30500
H  22.70100 49.11100 26.43900
H  22.11900 49.75700 24.95200
H  20.62900 50.71600 30.84600
H  18.92800 48.78700 34.21200
H  19.59400 47.35500 33.43500
H  18.10200 48.16400 32.85500

