158

Mg 34.53400 2.06900 29.29000
C  32.42000 3.02200 31.86100
C  37.12200 1.87600 31.65100
C  36.76400 1.94200 26.77000
C  32.12700 3.06600 26.85600
N  34.72600 2.57000 31.48800
C  33.71400 2.71800 32.36700
C  34.18400 2.67000 33.83300
C  35.69100 2.38400 33.63700
C  35.89100 2.32400 32.12400
C  36.63300 3.31100 34.43900
C  33.38900 1.67500 34.67600
C  32.89100 1.98500 36.13800
H  33.61600 3.10700 36.87400
N  36.62000 1.75000 29.16700
C  37.44200 1.74700 30.23400
C  38.78300 1.53700 29.74700
C  38.81400 1.41100 28.34200
C  37.37300 1.73900 28.01500
C  40.09400 1.30600 30.61700
C  39.95800 1.15500 27.39500
O  39.75800 1.16200 26.18000
C  41.41700 0.99500 27.67400
N  34.38200 2.27600 27.13400
C  35.46600 2.14900 26.31600
C  35.10600 2.41300 24.83900
C  33.60800 2.60900 24.81900
C  33.36300 2.73700 26.35300
C  35.84700 3.57600 24.03600
C  32.78800 1.44700 24.07700
C  32.64700 -0.02500 24.71300
N  32.65400 2.81900 29.29600
C  31.77000 3.08300 28.24500
C  30.56300 3.57900 28.83800
C  30.68500 3.56000 30.25400
C  32.01700 3.11700 30.45900
C  29.30400 3.86100 28.09800
C  30.05200 3.77800 31.49500
O  28.95000 4.14600 31.79300
C  31.17800 3.51600 32.57000
C  31.29800 4.83400 33.27900
O  31.71400 5.88100 32.80500
O  30.83000 4.68500 34.59500
C  30.94100 5.89500 35.46700
H  37.99800 1.76800 32.29500
H  37.50000 2.00000 25.96500
H  31.39400 3.34100 26.09600
H  33.97900 3.56400 34.42200
H  35.89700 1.36000 33.94900
H  36.06600 4.14700 34.85000
H  37.26500 3.87700 33.75500
H  37.22500 2.85000 35.22900
H  34.03200 0.80500 34.81400
H  32.62000 1.26100 34.02300
H  32.86300 1.12000 36.80000
H  31.88200 2.36800 35.98500
H  40.91100 1.79100 30.08300
H  40.20400 0.22200 30.63100
H  40.07700 1.74300 31.61500
H  41.82000 1.98000 27.91300
H  41.89000 0.70300 26.73600
H  41.58600 0.26400 28.46400
H  35.34800 1.49400 24.30500
H  33.29900 3.54100 24.34300
H  35.12100 4.29500 23.65900
H  36.50600 3.13900 23.28500
H  36.52400 4.17100 24.64900
H  33.26300 1.42500 23.09600
H  31.77100 1.73400 23.81100
H  33.64400 -0.38200 24.97200
H  32.35200 -0.78700 23.99200
H  32.00300 0.03100 25.59100
H  29.35900 4.17200 27.05500
H  28.71400 4.70300 28.46200
H  28.71700 2.94500 28.16400
H  30.81100 2.73700 33.23900
H  31.44300 6.74500 35.00500
H  31.43200 5.62300 36.40100
H  29.93200 6.26800 35.64000
Mg -11.43000 38.80400 41.35000
C  -9.51000 35.91100 40.41600
C  -9.21700 40.67100 39.59600
C  -13.57800 41.30700 41.44700
C  -13.92100 36.43500 42.47500
N  -9.62200 38.24300 40.01300
C  -8.96600 37.07300 39.91500
C  -7.69500 37.26400 39.11800
C  -7.64200 38.79200 38.88300
C  -8.87300 39.32700 39.61300
C  -6.30900 39.57500 39.19000
C  -7.62500 36.38200 37.80900
C  -6.26700 35.74900 37.44500
H  -5.70300 36.01500 35.98700
N  -11.35800 40.78800 40.71800
C  -10.34500 41.32700 39.99100
C  -10.64700 42.78200 39.71200
C  -11.90400 42.98400 40.32600
C  -12.33900 41.70800 40.97300
C  -9.70100 43.64700 38.87300
C  -12.60800 44.33200 40.19300
O  -12.14700 45.31200 39.63700
C  -13.91600 44.58300 40.91100
N  -13.52300 38.80900 41.66400
C  -14.15400 39.98200 41.66200
C  -15.57000 39.73000 42.12300
C  -15.75300 38.21300 42.34100
C  -14.28300 37.77200 42.20700
C  -16.00400 40.63600 43.23500
C  -16.70500 37.45700 41.35500
C  -17.85100 36.58400 42.06000
N  -11.71100 36.57000 41.48500
C  -12.65200 35.78900 42.11800
C  -12.18300 34.39800 42.26900
C  -10.92300 34.39900 41.58300
C  -10.74500 35.72700 41.12800
C  -12.86700 33.34900 43.08300
C  -9.77200 33.64600 41.18500
O  -9.52800 32.47200 41.41700
C  -8.83100 34.57900 40.19800
C  -7.39100 34.45600 40.71100
O  -6.56200 33.62500 40.33500
O  -7.20900 35.29000 41.75500
C  -5.91000 35.36900 42.34000
H  -8.45100 41.22700 39.05100
H  -14.25600 42.16200 41.42800
H  -14.69300 35.88500 43.01600
H  -6.86300 37.18400 39.81600
H  -7.76500 39.08600 37.84000
H  -6.12600 40.13700 38.27400
H  -5.42400 38.93900 39.20800
H  -6.52900 40.18400 40.06700
H  -7.71500 37.15600 37.04600
H  -8.42100 35.64200 37.72400
H  -6.35400 34.66400 37.51000
H  -5.40400 35.77800 38.11000
H  -10.22000 44.12300 38.04100
H  -8.88900 43.06500 38.43800
H  -9.31900 44.40700 39.55500
H  -14.07800 45.65900 40.98500
H  -13.80800 44.13800 41.90000
H  -14.82900 44.17200 40.48100
H  -16.06500 40.06500 41.21200
H  -16.05900 37.89200 43.33700
H  -16.90100 40.17200 43.64400
H  -16.14300 41.61400 42.77400
H  -15.31900 40.73400 44.07700
H  -16.11100 36.77600 40.74500
H  -17.15400 38.09500 40.59400
H  -17.88000 35.65500 41.49100
H  -18.79800 37.12300 42.09900
H  -17.52100 36.21000 43.02900
H  -12.07500 32.67300 43.40800
H  -13.57300 32.71700 42.54500
H  -13.36400 33.77100 43.95600
H  -8.88600 34.25100 39.15900
H  -5.17000 35.76700 41.64500
H  -5.66300 34.35200 42.64400
H  -5.90800 36.00900 43.22200

