158

Mg 23.78300 -5.87400 46.14600
C  25.99800 -3.51900 44.77400
C  21.33500 -4.74500 44.21900
C  21.92200 -8.46400 47.25700
C  26.70400 -7.44400 47.64000
N  23.70300 -4.30100 44.75000
C  24.71600 -3.50300 44.25400
C  24.07600 -2.43900 43.32700
C  22.54600 -2.68500 43.37200
C  22.55000 -4.02000 44.11700
C  21.69100 -1.48100 43.85500
C  24.79900 -2.46100 41.88600
C  25.28200 -1.04000 41.42900
H  25.22100 -0.73400 39.92700
N  21.85100 -6.43500 45.89500
C  21.01100 -5.86300 44.99000
C  19.73200 -6.47100 45.05600
C  19.87700 -7.60500 45.92200
C  21.28000 -7.52800 46.42100
C  18.61500 -6.02000 44.09200
C  18.68700 -8.50700 46.31000
O  17.58400 -8.33900 45.82200
C  18.82500 -9.60200 47.34700
N  24.15700 -7.64200 47.39800
C  23.21900 -8.56900 47.71600
C  23.72600 -9.63900 48.68300
C  25.28500 -9.40400 48.60800
C  25.45500 -8.06300 47.84900
C  23.12300 -9.56000 50.06600
C  26.12100 -10.50000 47.82700
C  27.38000 -11.04300 48.55100
N  25.95000 -5.50800 46.31200
C  26.90500 -6.20800 46.99200
C  28.17400 -5.48700 46.81900
C  27.84500 -4.30600 46.01400
C  26.44300 -4.43800 45.71800
C  29.45600 -5.83600 47.47200
C  28.38500 -3.17000 45.28800
O  29.46300 -2.50500 45.31200
C  27.17100 -2.58600 44.46100
C  27.00100 -1.24900 45.04300
O  26.81800 -0.93700 46.22000
O  27.21100 -0.24200 44.01700
C  27.12100 1.17000 44.37600
H  20.57900 -4.22200 43.63000
H  21.34800 -9.35500 47.52200
H  27.57900 -7.92400 48.08400
H  24.35000 -1.51800 43.84100
H  22.24400 -3.02600 42.38200
H  21.43000 -0.99700 42.91400
H  22.39400 -0.84300 44.39000
H  20.72900 -1.71400 44.31100
H  24.19400 -2.78800 41.04100
H  25.63600 -3.15800 41.86900
H  26.31000 -1.00100 41.78800
H  24.80700 -0.22200 41.97000
H  17.84100 -6.76900 43.92400
H  19.00200 -5.61900 43.15500
H  18.13700 -5.27500 44.72800
H  17.87900 -10.14500 47.34700
H  19.09900 -9.12300 48.28700
H  19.52800 -10.38800 47.07200
H  23.38200 -10.58700 48.27000
H  25.76500 -9.16600 49.55600
H  22.10800 -9.94400 49.96600
H  23.13500 -8.58100 50.54500
H  23.52600 -10.34000 50.71100
H  26.51300 -10.07300 46.90400
H  25.43700 -11.32000 47.60900
H  27.49700 -12.11500 48.39400
H  27.40400 -10.75100 49.60000
H  28.25200 -10.51500 48.16300
H  29.39300 -6.55300 48.29000
H  30.00000 -4.95200 47.80400
H  30.06600 -6.15000 46.62400
H  27.54400 -2.53500 43.43800
H  27.43500 1.40900 45.39200
H  26.17200 1.56300 44.01100
H  27.86200 1.54300 43.67000
Mg 16.88000 -1.09200 27.15300
C  16.13300 1.08500 29.89900
C  19.22800 -2.60300 29.20800
C  18.32900 -2.56300 24.48400
C  15.58400 1.43600 25.10500
N  17.71900 -0.61200 29.27700
C  17.07600 0.14000 30.24700
C  17.62200 -0.27300 31.66600
C  18.69300 -1.37900 31.37500
C  18.61500 -1.46700 29.84100
C  20.23800 -1.05100 31.73800
C  16.54400 -0.73500 32.69200
C  16.42600 0.06100 33.97400
H  17.62100 0.39100 34.95100
N  18.36100 -2.63400 26.96300
C  19.16400 -3.12300 27.91600
C  19.90200 -4.21600 27.42900
C  19.61400 -4.21300 26.00100
C  18.72800 -3.15500 25.75200
C  20.82800 -4.95600 28.30600
C  20.21800 -5.09000 24.94000
O  19.83400 -5.00600 23.75800
C  21.20200 -6.16500 25.30200
N  16.88800 -0.63700 25.06200
C  17.43900 -1.52600 24.13400
C  17.23800 -1.02500 22.78300
C  16.25200 0.18900 22.92800
C  16.15900 0.31100 24.45100
C  18.48300 -0.54500 21.93800
C  14.85000 0.03700 22.36400
C  14.60700 -0.61800 21.03100
N  15.79400 0.75700 27.40600
C  15.29900 1.63200 26.49400
C  14.53500 2.62700 27.19900
C  14.78700 2.48400 28.54800
C  15.62200 1.33400 28.60800
C  13.69700 3.75400 26.61700
C  14.61000 3.07400 29.87900
O  14.04700 4.10900 30.23300
C  15.41300 2.10000 30.82200
C  16.27300 2.97300 31.71300
O  17.39100 3.37300 31.45600
O  15.66100 3.28100 32.88700
C  16.45300 4.10900 33.81400
H  19.92900 -3.13300 29.85600
H  18.76500 -2.90600 23.54400
H  15.12900 2.11500 24.38000
H  18.06200 0.66000 32.01900
H  18.50600 -2.35600 31.82200
H  20.09300 -0.44200 32.63000
H  20.61900 -0.38800 30.96000
H  20.90200 -1.89100 31.93700
H  16.59400 -1.78300 32.98700
H  15.56100 -0.66200 32.22700
H  15.81400 -0.50800 34.67400
H  15.83800 0.93200 33.68300
H  21.19600 -5.93100 27.98900
H  20.60500 -5.21500 29.34100
H  21.73100 -4.35100 28.38400
H  21.67000 -6.67000 24.45700
H  20.57600 -6.91400 25.78700
H  21.89000 -5.74400 26.03600
H  16.71400 -1.85300 22.30500
H  16.70600 1.11900 22.58500
H  19.46000 -0.73700 22.38200
H  18.54400 0.50400 21.64500
H  18.41000 -1.16900 21.04800
H  14.52700 1.06200 22.18600
H  14.20500 -0.41300 23.11900
H  13.84400 -0.14900 20.41000
H  14.33000 -1.65100 21.24300
H  15.50700 -0.51000 20.42600
H  12.64500 3.51800 26.45800
H  14.12600 4.04400 25.65800
H  13.84500 4.68000 27.17300
H  14.71800 1.67300 31.54600
H  16.42600 5.14800 33.48600
H  17.44300 3.66200 33.90700
H  16.10600 4.04600 34.84500

