158

Mg 41.79700 41.07100 26.28800
C  40.95300 43.40500 28.79800
C  42.65900 38.75700 28.55400
C  43.00200 39.20300 23.72000
C  40.91100 43.63300 23.83300
N  41.83600 41.15000 28.36900
C  41.41200 42.14600 29.25200
C  41.39900 41.67500 30.77300
C  41.96000 40.26800 30.65200
C  42.13000 40.00200 29.08700
C  43.26600 39.91700 31.44800
C  39.92100 41.86500 31.43500
C  39.76300 42.82700 32.62200
H  39.07000 42.32900 33.86300
N  42.76500 39.28000 26.17900
C  42.97800 38.42200 27.20500
C  43.74700 37.27700 26.76200
C  43.80100 37.32100 25.35400
C  43.16300 38.64700 25.05000
C  44.35000 36.21700 27.69300
C  44.39900 36.36000 24.26800
O  44.42800 36.62300 23.06700
C  44.89300 35.00200 24.70600
N  42.10400 41.48900 24.06000
C  42.51200 40.42100 23.30200
C  42.29400 40.80800 21.81600
C  41.31900 42.06400 21.78600
C  41.39400 42.42300 23.27300
C  43.66900 40.98900 21.19000
C  39.90200 41.66200 21.26200
C  38.88300 41.15300 22.28200
N  41.16300 43.07800 26.29700
C  40.83300 43.96900 25.23500
C  40.31300 45.22100 25.78600
C  40.37900 45.03300 27.25000
C  40.96500 43.76300 27.42200
C  39.78300 46.36000 25.03800
C  40.09000 45.69800 28.54300
O  39.69600 46.83100 28.74900
C  40.43600 44.62100 29.62700
C  41.49400 45.11300 30.52800
O  42.68600 44.96000 30.33400
O  40.94800 45.73400 31.55800
C  41.88100 46.17700 32.63400
H  42.71400 38.10800 29.43000
H  43.15300 38.56500 22.84700
H  40.63700 44.32000 23.03000
H  42.08800 42.14100 31.47700
H  41.20800 39.51300 30.88100
H  44.07700 40.04100 30.73100
H  43.21400 38.92000 31.88500
H  43.45000 40.61600 32.26300
H  39.61400 40.86700 31.74800
H  39.25200 42.11900 30.61300
H  39.10300 43.63700 32.31200
H  40.76000 43.23800 32.77900
H  44.31200 35.21900 27.25700
H  43.70700 36.24100 28.57300
H  45.39500 36.48600 27.84500
H  45.63000 35.12100 25.50100
H  45.42200 34.48700 23.90500
H  44.07500 34.45500 25.17600
H  41.87000 39.94300 21.30600
H  41.70300 42.94200 21.26700
H  43.82500 42.00200 20.82100
H  43.87400 40.23300 20.43200
H  44.38700 40.88200 22.00400
H  40.06400 40.90000 20.50100
H  39.47700 42.46100 20.65500
H  39.30900 40.84300 23.23600
H  38.28100 40.29700 21.97700
H  38.18200 41.95600 22.51000
H  39.26700 45.94600 24.17100
H  40.52100 47.04000 24.61300
H  39.03400 46.82100 25.68300
H  39.48100 44.35700 30.08100
H  42.08400 47.22200 32.40400
H  42.78500 45.57400 32.72400
H  41.35600 46.20400 33.58900
Mg -5.57500 25.17300 25.93200
C  -4.25500 26.52900 28.80200
C  -7.77200 23.32800 27.72400
C  -6.30600 23.47800 23.05200
C  -3.15700 27.14400 24.10600
N  -5.78000 24.83800 28.05700
C  -5.23300 25.56200 29.08300
C  -5.84400 25.12600 30.41800
C  -6.82500 24.04600 30.02200
C  -6.85400 24.08000 28.49200
C  -6.46100 22.63600 30.66000
C  -6.52900 26.40100 31.03100
C  -6.52900 26.64700 32.52800
H  -6.01700 25.47100 33.43100
N  -6.99000 23.71500 25.43600
C  -7.82400 23.08600 26.37500
C  -8.57400 22.08300 25.69300
C  -8.21700 22.17000 24.25100
C  -7.07700 23.12800 24.20800
C  -9.65700 21.31400 26.31200
C  -8.74600 21.46200 22.97400
O  -8.40600 21.78400 21.83400
C  -9.75400 20.46000 23.17000
N  -4.73200 25.22200 23.93200
C  -5.25300 24.41200 22.93400
C  -4.47300 24.74900 21.58500
C  -3.89200 26.12700 21.95100
C  -3.85800 26.16300 23.43500
C  -3.42600 23.72000 21.07100
C  -4.47300 27.43600 21.36300
C  -3.47300 28.11900 20.46500
N  -4.01300 26.57300 26.32800
C  -3.21800 27.31500 25.49600
C  -2.44200 28.27900 26.31600
C  -2.75500 27.97600 27.65000
C  -3.73100 26.90500 27.56800
C  -1.44900 29.37500 25.80800
C  -2.50500 28.38700 29.06300
O  -1.73900 29.18700 29.57400
C  -3.45600 27.41300 29.83500
C  -2.77500 26.53400 30.83200
O  -2.15800 25.53700 30.56400
O  -2.88800 27.07400 32.09500
C  -1.99500 26.35300 33.13000
H  -8.57500 22.84700 28.28700
H  -6.48300 22.90900 22.13700
H  -2.57200 27.81000 23.46900
H  -5.09000 24.79900 31.13300
H  -7.85100 24.28600 30.30000
H  -6.37500 21.87200 29.88700
H  -7.27300 22.23600 31.26700
H  -5.58300 22.63900 31.30500
H  -7.59300 26.37200 30.79700
H  -6.22400 27.31300 30.51800
H  -7.57500 26.74500 32.81600
H  -5.91800 27.53700 32.68000
H  -9.19300 20.50700 26.87900
H  -10.36900 20.91400 25.59100
H  -10.19700 21.97800 26.98700
H  -9.81000 19.78900 22.31200
H  -10.71600 20.85300 23.49700
H  -9.43400 19.78100 23.96000
H  -5.22200 24.74000 20.79300
H  -2.81700 26.03300 21.79300
H  -2.37600 23.91200 21.28800
H  -3.58100 23.53300 20.00900
H  -3.60500 22.86300 21.72000
H  -4.67400 28.11100 22.19500
H  -5.37700 27.09700 20.85800
H  -3.00400 28.97900 20.94300
H  -3.96000 28.38700 19.52700
H  -2.61500 27.52400 20.15000
H  -0.70300 29.54700 26.58400
H  -1.76500 30.34300 25.41900
H  -0.92200 28.84000 25.01800
H  -4.05800 28.12200 30.40300
H  -2.14300 25.27500 33.06300
H  -2.14300 26.73500 34.14000
H  -0.92900 26.55400 33.02200

