158

Mg 26.26300 0.78400 28.73700
C  28.09200 -0.05400 31.69800
C  23.52900 1.22600 30.66200
C  24.47300 0.84100 25.85600
C  29.11500 -0.30900 26.89700
N  25.93500 0.61900 30.92000
C  26.82400 0.41700 31.96500
C  26.22100 0.82900 33.32600
C  24.71800 1.01000 32.95300
C  24.71000 0.95300 31.42700
C  23.77000 -0.00800 33.71200
C  27.03400 1.98200 33.93200
C  27.55100 1.71000 35.31000
H  27.49500 2.81800 36.27600
N  24.24500 1.00500 28.33900
C  23.29200 1.23900 29.22200
C  22.03100 1.43300 28.50000
C  22.29400 1.23300 27.14300
C  23.70000 1.09700 27.06100
C  20.73500 1.71800 29.25000
C  21.36200 1.24500 25.93800
O  21.71100 1.11500 24.77300
C  19.89000 1.49800 26.24600
N  26.76900 0.30800 26.70500
C  25.85800 0.75300 25.69200
C  26.53700 0.58700 24.29900
C  28.06200 0.51500 24.69300
C  27.99000 0.09400 26.15800
C  26.02700 -0.65700 23.45400
C  28.90400 1.79800 24.34600
C  29.28500 1.90400 22.85400
N  28.14300 -0.00800 29.11300
C  29.18900 -0.47300 28.29200
C  30.28100 -0.95500 29.11800
C  29.90500 -0.72900 30.38700
C  28.63300 -0.21100 30.38800
C  31.58400 -1.35300 28.59400
C  30.37900 -0.86100 31.72500
O  31.41600 -1.24700 32.18000
C  29.22700 -0.44200 32.71600
C  28.83600 -1.42600 33.78300
O  27.95100 -2.22500 33.78600
O  29.62400 -1.21800 34.91100
C  29.39200 -2.11500 35.99100
H  22.85000 1.75200 31.33600
H  23.96400 1.02300 24.90700
H  30.07400 -0.52700 26.42200
H  26.43800 -0.04800 33.93700
H  24.41000 2.03700 33.14700
H  24.42400 -0.72100 34.21500
H  23.15700 -0.50200 32.95900
H  23.18100 0.53900 34.44800
H  26.47100 2.91400 33.88800
H  27.93400 2.10900 33.33000
H  28.60000 1.44700 35.17400
H  27.13100 0.80800 35.75600
H  19.98900 0.92500 29.21900
H  20.41100 2.74400 29.07400
H  21.11600 1.81600 30.26700
H  19.48700 0.94100 27.09200
H  19.38700 1.18200 25.33300
H  19.76300 2.54500 26.52100
H  26.25600 1.50500 23.78300
H  28.63400 -0.27900 24.21300
H  26.71000 -1.47600 23.23100
H  25.46900 -0.26900 22.60100
H  25.17200 -0.99400 24.03900
H  29.74700 1.93200 25.02300
H  28.29000 2.66200 24.59700
H  28.88800 1.14600 22.17900
H  30.36000 1.77200 22.73300
H  28.88300 2.83900 22.46500
H  32.34900 -1.10000 29.32800
H  31.91200 -0.77700 27.72900
H  31.55400 -2.42500 28.39900
H  29.67200 0.35900 33.30500
H  28.44500 -1.82000 36.44200
H  30.24400 -2.10900 36.67200
H  29.32400 -3.16100 35.69300
Mg 47.57400 33.84100 26.74900
C  45.71400 32.69000 29.64000
C  48.25500 36.74200 28.65100
C  48.71500 35.37500 24.04900
C  46.40500 31.27700 24.90400
N  46.97800 34.67100 28.89300
C  46.36300 33.94600 29.86500
C  46.60400 34.64900 31.25800
C  47.07900 36.15400 30.85100
C  47.52100 35.84500 29.43500
C  45.98100 37.30900 30.88700
C  47.74500 33.87000 31.97600
C  48.04000 34.14600 33.47200
H  46.96200 35.04300 34.20400
N  48.34900 35.70300 26.40100
C  48.56500 36.77600 27.32000
C  49.28200 37.83800 26.64100
C  49.45800 37.45300 25.29200
C  48.86800 36.10300 25.18300
C  49.77000 39.11700 27.33100
C  50.05100 38.22200 24.10500
O  50.19300 37.74700 23.02400
C  50.40400 39.73000 24.24800
N  47.67800 33.36700 24.84000
C  48.17100 34.14900 23.83700
C  48.27700 33.38700 22.53100
C  47.64500 32.06000 22.81400
C  47.18500 32.21200 24.28900
C  47.82400 34.02400 21.19100
C  48.67400 30.91600 22.63100
C  49.49800 30.12400 23.69300
N  46.47200 32.23500 27.21600
C  46.02900 31.31600 26.31600
C  45.10200 30.39700 26.96400
C  45.00200 30.93800 28.26100
C  45.74000 32.09700 28.34300
C  44.39400 29.27100 26.29400
C  44.33500 30.69900 29.50600
O  43.55300 29.80200 29.81400
C  44.77900 31.83600 30.50600
C  45.54000 31.14500 31.56400
O  46.66300 30.64200 31.48400
O  44.79300 31.14500 32.67500
C  45.34100 30.30700 33.79400
H  48.44700 37.64800 29.22900
H  49.07500 35.77300 23.09800
H  46.02900 30.42100 24.34100
H  45.69800 34.67700 31.86400
H  47.88400 36.39600 31.54500
H  45.06600 36.91600 31.33100
H  45.85600 37.84800 29.94800
H  46.30800 38.04800 31.61900
H  48.62300 34.22100 31.43300
H  47.72500 32.79000 31.83100
H  48.99000 34.67900 33.51400
H  48.19100 33.20200 33.99600
H  50.80500 39.35500 27.08500
H  49.74000 38.94500 28.40700
H  49.03600 39.88900 27.10400
H  50.88400 39.98100 23.30200
H  51.07700 39.90500 25.08700
H  49.52300 40.36700 24.32100
H  49.36200 33.34800 22.44200
H  46.70400 31.83200 22.31400
H  46.98100 34.68500 21.39400
H  47.56900 33.30100 20.41600
H  48.61700 34.61700 20.73500
H  49.43300 31.25600 21.92700
H  48.17900 30.13300 22.05600
H  49.21800 30.59600 24.63500
H  50.57000 30.24700 23.53600
H  49.17700 29.08500 23.62400
H  43.41600 29.13600 26.75700
H  45.08600 28.49400 26.62000
H  44.22400 29.44100 25.23100
H  43.88900 32.40900 30.76900
H  46.40700 30.34800 34.02100
H  45.17300 29.23000 33.77000
H  44.91700 30.76100 34.68900

