158

Mg -11.84900 39.08200 42.15900
C  -9.66200 36.39900 41.54300
C  -9.53100 41.24900 40.90600
C  -14.14600 41.59500 42.43000
C  -14.37800 36.79100 43.12100
N  -9.84700 38.72200 41.07000
C  -9.13000 37.59000 41.04300
C  -7.91600 37.80500 40.17700
C  -7.85000 39.42500 40.23600
C  -9.19100 39.85100 40.78000
C  -6.63900 40.15000 40.92700
C  -7.96800 37.14700 38.72500
C  -6.99000 35.93600 38.54400
H  -6.04600 36.00300 37.41500
N  -11.83200 41.16400 41.81000
C  -10.80800 41.83000 41.23900
C  -11.18500 43.25800 41.19000
C  -12.48800 43.48900 41.71500
C  -12.89600 42.00700 41.91200
C  -10.10000 44.20500 40.56300
C  -13.13000 44.77500 41.96900
O  -12.52200 45.80400 41.69600
C  -14.39900 44.86500 42.71500
N  -13.96700 39.14200 42.79200
C  -14.62800 40.34000 42.77900
C  -16.16000 40.11200 43.10400
C  -16.25500 38.60900 43.19000
C  -14.77900 38.05700 42.99400
C  -16.69100 40.86700 44.41700
C  -17.35600 38.05700 42.15400
C  -17.03400 37.92200 40.64100
N  -12.07600 36.99200 42.21600
C  -13.10900 36.23000 42.71800
C  -12.72300 34.83500 42.76600
C  -11.38500 34.84500 42.29800
C  -11.01700 36.19500 42.02100
C  -13.65900 33.69700 43.16000
C  -10.28200 33.99000 41.88300
O  -10.17700 32.82800 42.05400
C  -9.16100 35.01700 41.34500
C  -7.90700 34.57400 41.98500
O  -7.48500 34.97600 43.06200
O  -7.25100 33.65200 41.17900
C  -5.89200 33.19000 41.62100
H  -8.81300 41.98900 40.54600
H  -14.92100 42.36100 42.36900
H  -15.25200 36.19600 43.39300
H  -6.99800 37.54100 40.70300
H  -7.81900 39.72000 39.18700
H  -6.98300 40.92400 41.61300
H  -6.01000 40.54400 40.12900
H  -6.12300 39.51800 41.64900
H  -7.71700 37.83100 37.91400
H  -8.95200 36.73700 38.50000
H  -7.66900 35.10400 38.35700
H  -6.59700 35.65600 39.52200
H  -9.16000 44.14500 41.11200
H  -10.48700 45.19900 40.33800
H  -9.99400 43.81300 39.55100
H  -15.15800 44.48300 42.03200
H  -14.58900 45.93400 42.81100
H  -14.17600 44.37800 43.66500
H  -16.76700 40.55300 42.31300
H  -16.49900 38.35500 44.22200
H  -17.69700 41.20600 44.17000
H  -16.00900 41.63200 44.78700
H  -16.85100 40.19900 45.26400
H  -18.09700 38.85600 42.13100
H  -17.83200 37.18100 42.59500
H  -17.33300 38.85500 40.16300
H  -17.63000 37.13700 40.17500
H  -15.95300 37.80500 40.56700
H  -14.52800 33.86400 42.52500
H  -13.93200 33.70600 44.21500
H  -13.23800 32.72400 42.90800
H  -9.08000 34.72400 40.29800
H  -5.36700 33.94700 42.20300
H  -5.34200 32.90700 40.72300
H  -5.74700 32.28400 42.20900
Mg -11.15700 17.22700 42.35800
C  -7.60400 18.24500 42.36500
C  -11.92500 20.59900 42.34000
C  -14.25600 16.32400 41.75100
C  -10.04800 13.89200 42.03700
N  -9.93400 19.21200 42.15100
C  -8.52800 19.34200 42.35700
C  -8.17100 20.75000 42.23600
C  -9.42200 21.48600 42.58500
C  -10.51500 20.41400 42.33300
C  -9.47300 22.06500 44.05200
C  -7.61000 20.98100 40.79100
C  -6.19800 21.61100 40.74900
H  -5.21500 21.04400 39.72700
N  -12.86400 18.33600 41.96600
C  -12.97800 19.68300 42.06500
C  -14.43900 19.96900 41.90600
C  -15.16000 18.74300 41.78400
C  -14.09600 17.74200 41.82500
C  -14.98500 21.41200 41.96200
C  -16.70000 18.54000 41.71200
O  -17.41600 19.54300 41.89700
C  -17.38200 17.24700 41.43500
N  -11.95700 15.35300 42.01300
C  -13.31500 15.27800 41.85400
C  -13.81400 13.83300 41.99800
C  -12.48700 13.00600 42.06600
C  -11.41700 14.14000 41.95700
C  -14.84000 13.60300 43.14900
C  -12.43400 11.86000 40.96200
C  -11.97400 10.53500 41.50500
N  -9.26600 16.23000 42.27200
C  -9.06200 14.86000 42.14600
C  -7.57900 14.60700 42.30400
C  -7.06900 15.96100 42.29100
C  -8.07800 16.90100 42.33200
C  -6.78400 13.38500 42.26000
C  -5.78700 16.61800 42.38800
O  -4.70400 16.12500 42.44300
C  -6.07400 18.20000 42.31600
C  -5.51400 18.75400 43.51300
O  -5.76600 18.38900 44.64100
O  -4.60600 19.71700 43.14800
C  -3.73000 20.29300 44.21800
H  -12.20100 21.65100 42.43100
H  -15.26700 15.91200 41.73100
H  -9.69200 12.86900 41.89600
H  -7.35400 21.00100 42.91100
H  -9.55700 22.35500 41.94200
H  -10.15500 21.40200 44.58400
H  -9.87300 23.08000 44.06200
H  -8.51600 21.94800 44.56000
H  -8.24100 21.76200 40.36700
H  -7.63300 20.04800 40.22800
H  -5.85000 21.73800 41.77400
H  -6.34500 22.63000 40.39200
H  -15.35700 21.76100 40.99800
H  -14.27100 22.05100 42.48100
H  -15.90100 21.31600 42.54500
H  -18.44300 17.49100 41.48400
H  -17.09200 16.67800 42.31800
H  -17.04800 16.70900 40.54700
H  -14.36400 13.70000 41.06600
H  -12.41100 12.64500 43.09200
H  -14.48600 12.77900 43.76800
H  -15.74700 13.23400 42.67100
H  -14.97400 14.53700 43.69600
H  -11.77800 12.14400 40.14000
H  -13.38600 11.69800 40.45600
H  -11.17900 10.09200 40.90500
H  -12.80400 9.84200 41.37200
H  -11.73800 10.63000 42.56500
H  -7.46600 12.66000 42.70400
H  -5.94800 13.50000 42.95000
H  -6.29100 13.18200 41.30900
H  -5.59300 18.60300 41.42500
H  -2.95700 19.57900 44.50200
H  -4.36100 20.47800 45.08700
H  -3.21400 21.16800 43.82300

