158

Mg 41.85200 40.74300 26.51800
C  41.05200 43.16400 29.11600
C  43.04500 38.78500 28.98400
C  42.56300 38.64900 24.06000
C  41.33600 43.34000 24.17800
N  41.93300 41.02700 28.77800
C  41.43400 41.92800 29.64100
C  41.42800 41.46800 31.08100
C  42.30100 40.22300 31.03000
C  42.40600 39.93000 29.47600
C  43.71600 40.32900 31.69000
C  40.00300 41.35700 31.71200
C  39.87600 42.12500 33.07700
H  38.92600 41.59400 34.17100
N  42.59600 38.97900 26.50600
C  43.20500 38.36000 27.62500
C  43.68100 37.10900 27.24000
C  43.33200 36.93900 25.88200
C  42.78500 38.17100 25.38600
C  44.35600 36.15600 28.22100
C  43.53800 35.73400 24.89800
O  43.23700 35.76500 23.74100
C  44.36000 34.47800 25.43800
N  42.13000 41.07300 24.43700
C  42.31900 39.95900 23.64000
C  42.24900 40.36100 22.19900
C  41.78000 41.83600 22.20500
C  41.76000 42.13100 23.73400
C  43.49700 40.14400 21.32600
C  40.35300 42.13500 21.55700
C  40.08500 43.64800 20.98000
N  41.36300 42.83100 26.52200
C  41.16900 43.67800 25.52800
C  40.79800 44.96900 26.08700
C  40.72000 44.77500 27.45900
C  41.12000 43.46900 27.75100
C  40.44600 46.15700 25.31100
C  40.29600 45.43100 28.67100
O  39.87800 46.52600 28.75700
C  40.52900 44.41700 29.77300
C  41.57500 44.94300 30.71700
O  42.76900 45.06000 30.39400
O  41.05100 45.14000 32.01200
C  42.03900 45.55800 33.04400
H  43.28900 38.08200 29.78300
H  42.81700 37.98300 23.23200
H  41.05300 44.14900 23.50100
H  42.11200 42.08600 31.66300
H  41.72900 39.41400 31.48600
H  43.93300 39.33700 32.08800
H  43.64700 41.05000 32.50500
H  44.55800 40.53900 31.03100
H  39.63900 40.34700 31.89900
H  39.27300 41.75800 31.00800
H  39.57500 43.14300 32.82900
H  40.88100 42.15900 33.49600
H  44.47200 36.64200 29.19000
H  45.33800 35.77900 27.93600
H  43.70900 35.29400 28.38400
H  43.85400 33.87500 26.19200
H  45.16300 34.89700 26.04300
H  44.65800 33.87400 24.58100
H  41.41100 39.76400 21.83900
H  42.50000 42.53900 21.78600
H  44.08100 41.06200 21.39800
H  43.23600 39.99200 20.27800
H  44.02200 39.31300 21.79700
H  39.66500 41.77500 22.32300
H  40.18500 41.39900 20.77000
H  39.50900 44.29300 21.64400
H  39.39700 43.61400 20.13500
H  41.05800 43.93300 20.57900
H  40.77000 46.06200 24.27400
H  41.09500 46.97200 25.63300
H  39.43400 46.44600 25.59400
H  39.59000 44.21000 30.28500
H  41.98200 44.76800 33.79300
H  41.56600 46.43800 33.48000
H  43.07400 45.65300 32.71700
Mg 6.63600 54.38000 41.02400
C  5.76500 50.95700 40.84300
C  9.83900 53.34600 39.89500
C  7.50100 57.59600 40.60600
C  3.39900 55.23900 41.74200
N  7.61300 52.39300 40.39200
C  7.09800 51.11600 40.47600
C  8.10500 50.00700 40.20300
C  9.43700 50.76600 40.25700
C  8.96700 52.26700 40.18900
C  10.39400 50.49400 41.49400
C  7.92100 49.30000 38.83500
C  7.60300 50.25100 37.62500
H  6.59600 49.69500 36.52200
N  8.51700 55.38900 40.44500
C  9.60700 54.78200 39.92200
C  10.49100 55.76300 39.34900
C  9.88300 56.99300 39.70000
C  8.56200 56.71800 40.26400
C  11.88600 55.49600 38.87900
C  10.46100 58.32800 39.32200
O  11.61000 58.36000 38.75900
C  9.89400 59.68600 39.48700
N  5.67600 56.09000 41.29900
C  6.26100 57.33900 41.15500
C  5.29100 58.41600 41.70700
C  3.98400 57.70000 41.88100
C  4.33600 56.26800 41.66400
C  5.69900 59.07400 43.09200
C  2.72700 58.18100 40.99700
C  1.43200 58.73900 41.75700
N  4.84900 53.42400 41.24400
C  3.64400 53.85100 41.67600
C  2.69500 52.77900 41.62600
C  3.43600 51.60000 41.36800
C  4.78600 52.03500 41.13500
C  1.20300 52.90100 41.74100
C  3.43700 50.09100 41.28100
O  2.50400 49.29500 41.45100
C  4.92000 49.64100 40.88100
C  4.79100 48.90600 39.58100
O  4.33100 49.32300 38.51800
O  5.14000 47.57500 39.85200
C  4.65800 46.60800 38.89000
H  10.84900 53.04400 39.61100
H  7.66100 58.66700 40.74500
H  2.35200 55.53900 41.81500
H  7.89100 49.28300 40.99000
H  10.05500 50.55400 39.38500
H  11.32600 50.18600 41.02000
H  10.03000 49.60100 42.00200
H  10.51200 51.38700 42.10900
H  7.30700 48.40200 38.89700
H  8.89900 48.90400 38.56000
H  8.55700 50.28400 37.10000
H  7.37200 51.27900 37.90600
H  12.07200 55.47200 37.80500
H  12.22300 54.52300 39.23500
H  12.56500 56.22400 39.32400
H  10.57200 60.52400 39.32600
H  9.78200 59.72400 40.57000
H  8.93000 59.90200 39.02600
H  5.33400 59.12700 40.88200
H  3.64700 57.77000 42.91500
H  6.27600 59.96200 42.83200
H  6.28600 58.46800 43.78200
H  4.79900 59.43900 43.58800
H  2.44700 57.36700 40.32900
H  3.18200 58.94200 40.36400
H  1.46500 58.42100 42.80000
H  0.59100 58.34300 41.18900
H  1.26400 59.81600 41.75500
H  1.06600 53.50500 42.63800
H  0.81600 51.88700 41.84300
H  0.84800 53.48300 40.89000
H  5.32900 48.96300 41.63000
H  5.02500 45.62900 39.19700
H  5.09900 46.69300 37.89700
H  3.56900 46.62600 38.86200

