158

Mg 35.89300 1.72000 29.83200
C  33.51800 2.72700 32.09600
C  38.14100 1.65000 32.54300
C  38.49600 1.40000 27.65700
C  33.75400 2.35800 27.25200
N  35.82300 2.20900 32.01500
C  34.73200 2.60300 32.71400
C  35.06200 2.78500 34.19700
C  36.62800 2.79700 34.19400
C  36.87700 2.14200 32.81800
C  37.16100 4.26600 34.33700
C  34.57700 1.64900 35.13400
C  34.08600 2.04200 36.56600
H  34.67200 3.25300 37.19300
N  38.01800 1.40600 30.11300
C  38.70800 1.35700 31.27200
C  40.13700 0.98200 30.99200
C  40.24400 0.90100 29.55800
C  38.82900 1.20400 29.04400
C  41.28400 0.85600 31.93200
C  41.40000 0.48300 28.71800
O  41.38100 0.48700 27.47900
C  42.71100 0.05600 29.35000
N  36.11300 1.81800 27.79200
C  37.27300 1.71000 27.11000
C  37.07400 1.89300 25.62000
C  35.52300 2.14900 25.42500
C  35.06300 2.07900 26.93300
C  38.02500 2.98700 24.97700
C  34.73600 1.09900 24.50400
C  33.98600 1.66600 23.25900
N  33.97100 2.26500 29.67700
C  33.14700 2.41300 28.53200
C  31.82000 2.87400 28.96500
C  31.88200 2.95000 30.34400
C  33.22400 2.55700 30.71900
C  30.72800 3.45100 28.17100
C  31.16100 3.33600 31.57900
O  29.99300 3.73400 31.70100
C  32.20800 3.20300 32.73500
C  32.23700 4.56100 33.36500
O  32.70300 5.54300 32.89500
O  31.51000 4.49500 34.52300
C  31.38600 5.63400 35.32600
H  38.76500 1.44100 33.41500
H  39.30100 1.50200 26.92600
H  33.02000 2.52300 26.46100
H  34.64200 3.69600 34.62400
H  37.12500 2.18100 34.94400
H  37.83900 4.44700 33.50300
H  37.65300 4.25700 35.31000
H  36.36000 5.00500 34.30100
H  35.38400 0.93900 35.31800
H  33.80000 1.13700 34.56700
H  34.35900 1.18900 37.18700
H  33.00600 2.11900 36.69000
H  41.67000 -0.15700 32.03900
H  40.86400 1.26400 32.85100
H  42.08600 1.56900 31.74200
H  42.60300 -0.64300 30.18000
H  43.16800 0.98600 29.68800
H  43.41900 -0.26100 28.58400
H  37.29700 0.91900 25.18400
H  35.36900 3.17700 25.09600
H  37.54800 3.56400 24.18500
H  38.85900 2.46500 24.50700
H  38.43000 3.60400 25.77900
H  33.92400 0.63900 25.06700
H  35.38800 0.29500 24.16100
H  32.89900 1.65900 23.34400
H  34.19600 1.16400 22.31400
H  34.21300 2.69100 22.96800
H  30.92800 3.29000 27.11200
H  30.47100 4.50300 28.28700
H  29.86000 2.83700 28.41100
H  31.87000 2.42300 33.41800
H  30.36600 5.83100 35.65400
H  31.88300 6.54300 34.98700
H  31.86500 5.34200 36.26000
Mg 30.12000 58.38000 40.80200
C  27.41800 56.55700 39.64700
C  32.27100 56.02500 39.32500
C  32.73800 60.51400 41.36800
C  27.84100 61.06400 41.51800
N  29.89000 56.52600 39.71000
C  28.67300 55.99700 39.29000
C  28.88700 54.80900 38.43900
C  30.39700 54.46700 38.51000
C  30.91800 55.73600 39.28700
C  30.87200 53.18000 39.16600
C  28.41000 55.14900 37.01400
C  27.35500 54.17800 36.36400
H  26.51300 54.84200 35.30000
N  32.26900 58.29200 40.40900
C  32.97100 57.18000 39.87300
C  34.36500 57.47400 39.88500
C  34.47500 58.79900 40.50500
C  33.18400 59.25700 40.80700
C  35.42300 56.67200 39.28300
C  35.80700 59.47400 41.00000
O  36.83400 58.90200 40.70000
C  35.89500 60.75100 41.86300
N  30.27100 60.46900 41.25100
C  31.50900 61.07400 41.53500
C  31.35500 62.58600 41.76100
C  29.75900 62.74500 41.82600
C  29.22600 61.32400 41.62900
C  32.19600 63.09300 42.98800
C  29.16300 63.84500 40.88700
C  27.92800 64.57900 41.41800
N  28.00500 58.72200 40.87900
C  27.24800 59.87600 41.09100
C  25.88800 59.54700 40.87300
C  25.91500 58.24000 40.36600
C  27.22900 57.77600 40.28300
C  24.63700 60.30400 41.07300
C  25.01200 57.13600 39.94600
O  23.82000 56.98500 39.95200
C  26.01000 56.05700 39.32300
C  25.69400 54.74200 39.98400
O  26.18500 54.44600 41.05500
O  24.78700 54.10200 39.28900
C  24.35300 52.80800 39.89500
H  32.85500 55.18700 38.93800
H  33.44700 61.33400 41.50400
H  27.22100 61.92000 41.79200
H  28.31000 53.96100 38.80900
H  30.76700 54.41900 37.48600
H  31.44800 53.29200 40.08400
H  31.46700 52.69300 38.39300
H  30.14000 52.41500 39.42200
H  29.19900 55.03600 36.27000
H  27.97200 56.14200 36.91900
H  26.82200 53.42000 36.93900
H  27.88200 53.48900 35.70400
H  36.15000 56.35000 40.02900
H  35.92200 57.27900 38.52900
H  35.02000 55.82200 38.73200
H  35.26200 60.56000 42.72900
H  35.56300 61.65400 41.35000
H  36.93600 60.81700 42.18100
H  31.67900 63.09200 40.85200
H  29.45500 62.95600 42.85100
H  32.39400 62.20300 43.58500
H  31.67600 63.86300 43.55700
H  33.13700 63.59600 42.76500
H  28.88200 63.39900 39.93300
H  29.91300 64.60900 40.68200
H  28.14400 65.64600 41.47000
H  27.63400 64.23700 42.41000
H  27.02800 64.49100 40.81000
H  24.67100 61.29100 41.53500
H  23.87600 59.74200 41.61400
H  24.14100 60.41400 40.10900
H  25.72000 56.00400 38.27400
H  25.25500 52.20300 39.98300
H  23.67400 52.33600 39.18600
H  23.93400 52.86500 40.89900

