158

Mg 46.93500 16.70400 27.85900
C  45.05500 15.99700 30.72900
C  49.08100 18.62100 29.97500
C  48.57400 17.88200 25.18100
C  44.43900 15.49500 26.00700
N  47.25000 17.07800 30.12100
C  46.27200 16.70600 30.99200
C  46.61600 17.20300 32.31300
C  47.74000 18.27700 32.12200
C  47.98600 18.13500 30.67900
C  47.45600 19.76500 32.61800
C  46.95800 15.97500 33.26600
C  46.38300 15.99200 34.73500
H  45.89200 17.34600 35.26700
N  48.72100 17.83600 27.60200
C  49.42800 18.49600 28.60500
C  50.61200 19.07000 27.97600
C  50.38600 19.08700 26.58100
C  49.22000 18.25800 26.39400
C  51.70600 19.61600 28.83800
C  51.23400 19.72300 25.45500
O  51.15600 19.51600 24.23100
C  52.35700 20.49800 25.89900
N  46.47600 16.70600 25.86300
C  47.36900 17.27500 24.95100
C  46.73100 17.06500 23.56700
C  45.38100 16.28600 23.76700
C  45.42700 16.15700 25.29100
C  46.62600 18.40800 22.72000
C  45.50800 14.90900 23.02900
C  46.24500 13.76000 23.72700
N  45.16600 15.87300 28.21200
C  44.23500 15.32100 27.37500
C  43.13000 14.69100 28.06000
C  43.37500 14.89700 29.37200
C  44.60800 15.62600 29.44600
C  41.90500 14.12400 27.39000
C  42.94700 14.69900 30.67000
O  41.97600 14.04600 31.04600
C  43.90900 15.49200 31.64100
C  43.08700 16.58300 32.36900
O  42.75400 17.69900 31.98600
O  42.83800 16.20100 33.73000
C  41.86300 17.06000 34.43400
H  49.61600 19.38800 30.53900
H  49.05200 18.20800 24.25400
H  43.64200 15.18300 25.32900
H  45.70600 17.62000 32.74400
H  48.62300 17.94100 32.66600
H  48.22500 20.04100 33.34000
H  46.50800 19.86200 33.14600
H  47.46200 20.49900 31.81200
H  48.04700 15.93500 33.28100
H  46.67500 15.09000 32.69600
H  47.06600 15.48400 35.41500
H  45.53700 15.30700 34.68300
H  51.72500 19.25000 29.86500
H  51.61500 20.70200 28.87500
H  52.66500 19.37100 28.38300
H  53.22300 20.01200 26.34800
H  51.97800 21.28100 26.55500
H  52.73300 21.03600 25.02900
H  47.42000 16.52300 22.92000
H  44.65100 16.95800 23.31700
H  46.45900 19.16800 23.48300
H  45.82900 18.38000 21.97700
H  47.51800 18.73600 22.18600
H  45.97000 15.06800 22.05500
H  44.48000 14.60500 22.83300
H  46.72200 14.10800 24.64300
H  47.02200 13.35800 23.07800
H  45.60200 12.93700 24.03900
H  41.92800 13.04100 27.26900
H  42.04400 14.49700 26.37500
H  40.92800 14.46900 27.73000
H  44.26600 14.76300 32.36900
H  41.36500 16.31100 35.05000
H  41.12000 17.55900 33.81100
H  42.29900 17.77400 35.13300
Mg 8.89200 48.61000 25.48100
C  7.05100 48.56200 28.49200
C  11.60100 49.88000 27.35900
C  10.67400 48.86700 22.62300
C  6.02000 47.98200 23.76900
N  9.35900 49.04400 27.75600
C  8.41400 48.94300 28.76900
C  8.90100 49.45800 30.07300
C  10.29500 50.10400 29.62300
C  10.50100 49.68400 28.13400
C  10.51700 51.62700 29.90300
C  8.86200 48.61200 31.35800
C  9.87000 48.91400 32.54700
H  9.24800 48.75600 33.97600
N  10.94400 49.15100 25.06800
C  11.91900 49.53700 26.00300
C  13.20100 49.55300 25.25600
C  12.92700 49.26700 23.87000
C  11.44800 49.08600 23.77800
C  14.52800 49.91700 25.90400
C  13.88600 49.33400 22.69000
O  13.49900 49.15100 21.53100
C  15.44000 49.61700 22.75900
N  8.39100 48.50600 23.46700
C  9.31900 48.46000 22.52700
C  8.69700 48.25500 21.14900
C  7.25800 47.75400 21.51700
C  7.16800 48.09900 22.99200
C  8.74800 49.48200 20.18700
C  6.85900 46.20800 21.28600
C  6.60000 45.92100 19.79100
N  7.01400 48.28700 26.00600
C  5.90700 48.04100 25.17300
C  4.71300 47.84300 25.90900
C  5.13200 48.05800 27.24000
C  6.53700 48.30400 27.23600
C  3.26800 47.62600 25.34600
C  4.70700 48.14400 28.60300
O  3.59200 48.08500 29.03600
C  5.93600 48.46100 29.49000
C  6.00400 47.24000 30.31100
O  6.84300 46.32700 30.23300
O  5.02800 47.15600 31.21900
C  5.27200 46.26600 32.40200
H  12.49700 50.18600 27.90300
H  11.19100 48.90600 21.66300
H  5.05300 47.80700 23.29200
H  8.26100 50.29600 30.35000
H  11.13100 49.57300 30.07800
H  11.56200 51.87000 30.09800
H  9.86200 52.04600 30.66700
H  10.43400 52.17600 28.96500
H  9.19000 47.62900 31.02000
H  7.85300 48.44300 31.73300
H  10.05800 49.97800 32.39700
H  10.80500 48.36000 32.46600
H  14.63200 49.67200 26.96100
H  14.88400 50.91100 25.63000
H  15.27500 49.24400 25.48400
H  15.78000 49.99800 21.79600
H  15.97100 48.71700 23.06800
H  15.56500 50.40200 23.50500
H  9.20200 47.40000 20.70000
H  6.57800 48.39100 20.95200
H  9.31300 49.32300 19.26800
H  9.27400 50.29300 20.69100
H  7.74700 49.85200 19.96200
H  5.94600 46.01900 21.85000
H  7.67800 45.52300 21.50300
H  6.62500 46.84600 19.21400
H  5.65300 45.39800 19.66200
H  7.43500 45.30400 19.46000
H  2.59700 47.88000 26.16700
H  3.04500 46.68900 24.83600
H  2.96200 48.43000 24.67700
H  5.70100 49.32600 30.11100
H  4.35300 46.11100 32.96600
H  6.02500 46.69500 33.06300
H  5.65600 45.29100 32.10000

