158

Mg 16.90500 -1.80800 27.97100
C  15.70000 0.41000 30.43100
C  19.03900 -3.12500 30.18600
C  18.44300 -3.54000 25.46100
C  15.39800 0.27100 25.60800
N  17.34700 -1.31300 30.12600
C  16.66000 -0.53600 30.92100
C  16.93600 -0.88000 32.36600
C  18.19700 -1.83600 32.32100
C  18.23200 -2.11600 30.74900
C  19.60400 -1.26600 32.79000
C  15.71400 -1.37100 33.17300
C  15.41200 -0.72000 34.56100
H  16.62200 -0.17900 35.31900
N  18.55800 -3.15600 27.79600
C  19.22100 -3.61800 28.87100
C  19.98000 -4.74400 28.49800
C  19.75900 -4.94300 27.09000
C  18.93300 -3.79400 26.70300
C  20.66100 -5.65900 29.56500
C  20.29700 -6.05900 26.12200
O  20.02500 -6.09200 24.88300
C  21.20600 -7.05800 26.72800
N  16.90200 -1.69400 25.83900
C  17.58100 -2.56500 25.03500
C  17.40700 -2.26500 23.53900
C  16.24400 -1.19900 23.58800
C  16.12200 -0.84700 25.08700
C  18.66700 -1.77300 22.80300
C  14.97900 -1.58400 22.70600
C  13.73200 -1.95700 23.56800
N  15.63500 -0.15600 27.95100
C  15.13500 0.56700 26.89800
C  14.35400 1.70000 27.41000
C  14.50300 1.57700 28.79500
C  15.31400 0.50700 29.06500
C  13.47500 2.58200 26.57700
C  14.07600 2.17700 30.03700
O  13.27300 3.03000 30.15800
C  14.85700 1.43600 31.13100
C  15.66100 2.40200 31.95900
O  16.69100 2.92900 31.59100
O  15.13200 2.65700 33.20000
C  15.75300 3.75000 33.93500
H  19.74700 -3.59400 30.87200
H  18.86100 -4.07300 24.60400
H  14.95300 0.88800 24.82500
H  17.21100 0.04200 32.87800
H  17.99300 -2.77100 32.84200
H  19.83300 -1.78600 33.72000
H  19.50200 -0.22800 33.10800
H  20.49000 -1.27800 32.15500
H  15.75700 -2.44300 33.36600
H  14.77500 -1.10700 32.68800
H  15.03100 -1.49200 35.23000
H  14.60300 0.00700 34.48800
H  20.32400 -6.67800 29.37400
H  20.34300 -5.38900 30.57200
H  21.74000 -5.51500 29.50800
H  21.82400 -7.37700 25.89000
H  20.75000 -8.00900 27.00400
H  21.84600 -6.76200 27.55900
H  17.04100 -3.23700 23.20800
H  16.60800 -0.29600 23.09900
H  18.55600 -0.80200 22.32000
H  19.12000 -2.43100 22.06100
H  19.45800 -1.63800 23.54000
H  15.29100 -2.39500 22.04800
H  14.64900 -0.73700 22.10400
H  13.32800 -1.09200 24.09300
H  14.00700 -2.67000 24.34500
H  12.98400 -2.52000 23.00900
H  13.00000 3.38000 27.14800
H  12.81800 1.92300 26.01000
H  14.20000 3.07500 25.93000
H  14.09000 0.89900 31.69000
H  15.36000 3.71800 34.95100
H  15.38200 4.69000 33.52700
H  16.83000 3.62100 34.04200
Mg 47.01300 16.73500 28.80200
C  44.99000 16.33100 31.43400
C  49.15100 18.68100 30.56600
C  48.77400 17.32400 25.86600
C  44.50900 15.15800 26.72200
N  47.03500 17.40600 30.72900
C  46.09000 17.11700 31.66900
C  46.55600 17.56000 33.05800
C  47.70800 18.53100 32.68600
C  48.01500 18.21400 31.25300
C  47.58000 20.08800 32.96100
C  47.10300 16.37800 33.92500
C  47.19400 16.58600 35.47000
H  46.93200 17.97100 36.21100
N  48.83700 17.80200 28.32600
C  49.55000 18.54200 29.19600
C  50.70300 19.12800 28.50100
C  50.53900 18.66200 27.11500
C  49.39600 17.79700 27.07100
C  51.75500 20.11100 29.20200
C  51.46600 19.08800 25.96800
O  51.27300 18.97100 24.79200
C  52.79500 19.74600 26.22300
N  46.76000 16.12300 26.55300
C  47.60600 16.62200 25.60100
C  47.05300 16.42200 24.22900
C  45.71900 15.58200 24.46300
C  45.63900 15.61500 26.00800
C  46.91400 17.62800 23.33600
C  45.71500 14.18600 23.97000
C  44.87000 13.87400 22.69500
N  45.18000 15.82300 28.97700
C  44.28300 15.29800 28.08100
C  43.09100 14.99600 28.81600
C  43.36200 15.26400 30.14100
C  44.61700 15.83100 30.18700
C  41.90400 14.36200 28.28400
C  42.72300 15.21300 31.36500
O  41.57600 14.85100 31.70600
C  43.85800 15.81800 32.35600
C  43.31200 16.92400 33.14200
O  43.04400 18.07200 32.73200
O  43.22400 16.48800 34.41100
C  42.60900 17.38900 35.43500
H  49.78600 19.22700 31.26700
H  49.27200 17.50900 24.91200
H  43.69800 14.76500 26.10500
H  45.74900 18.11500 33.53500
H  48.62900 18.25000 33.19600
H  46.66500 20.35200 33.49000
H  47.65400 20.73700 32.08700
H  48.42700 20.37500 33.58400
H  48.07100 16.07300 33.52700
H  46.40600 15.55600 33.76200
H  48.23100 16.37700 35.73000
H  46.53200 15.84000 35.90900
H  52.13200 20.94000 28.60300
H  52.66200 19.56300 29.45700
H  51.29600 20.51800 30.10300
H  53.32700 19.08800 26.91000
H  52.63600 20.80800 26.40800
H  53.50900 19.65200 25.40400
H  47.82900 15.80000 23.78300
H  44.83300 16.02300 24.00500
H  46.69800 18.56200 23.85500
H  46.03100 17.42700 22.73000
H  47.76400 17.49700 22.66700
H  45.36800 13.46300 24.70800
H  46.75500 13.86100 23.93300
H  45.44900 13.99300 21.77900
H  43.98000 14.49800 22.78100
H  44.58900 12.82200 22.73300
H  41.92400 13.29100 28.48400
H  41.71000 14.68700 27.26200
H  41.06000 14.86600 28.75600
H  44.16200 15.04700 33.06500
H  43.38900 18.11700 35.65700
H  42.25900 16.85300 36.31700
H  41.78000 17.89700 34.94200

