158

Mg -2.41000 17.16800 26.39200
C  -2.97500 14.82400 28.95700
C  -2.81300 19.76100 28.51800
C  -2.20500 19.21100 23.79500
C  -2.73400 14.40400 24.12100
N  -2.89600 17.25400 28.53900
C  -3.15000 16.13900 29.37900
C  -3.30100 16.68500 30.83700
C  -3.48900 18.20800 30.56600
C  -3.05700 18.45800 29.12000
C  -4.90300 18.81300 31.07700
C  -2.16400 16.28500 31.71700
C  -1.85600 17.15900 32.98900
H  -1.34000 16.47100 34.29100
N  -2.37900 19.21200 26.18100
C  -2.52500 20.10900 27.21300
C  -2.39600 21.42100 26.65800
C  -2.23200 21.25500 25.27000
C  -2.21800 19.82400 25.01100
C  -2.49700 22.68600 27.45000
C  -2.03700 22.38300 24.22400
O  -2.10100 22.16500 22.98400
C  -1.91200 23.80500 24.66000
N  -2.42500 16.84900 24.22900
C  -2.27400 17.89800 23.34500
C  -2.33300 17.42400 21.86300
C  -2.84300 15.98700 22.01800
C  -2.61100 15.66800 23.50700
C  -3.09900 18.40300 20.99800
C  -2.21300 14.93700 21.08500
C  -3.14300 14.33600 20.01400
N  -2.64600 15.02800 26.43900
C  -2.60800 14.04900 25.41700
C  -2.56700 12.76400 26.05000
C  -2.63800 13.02700 27.42800
C  -2.77300 14.40600 27.63800
C  -2.46300 11.41000 25.25900
C  -2.65300 12.34400 28.69500
O  -2.43300 11.14900 28.96200
C  -2.82900 13.48100 29.76300
C  -1.56800 13.47400 30.59800
O  -0.50300 13.96700 30.31000
O  -1.74900 12.61100 31.70500
C  -0.51300 12.47900 32.50500
H  -3.02700 20.51900 29.27500
H  -1.92700 19.83000 22.93900
H  -2.87700 13.51000 23.51000
H  -4.13400 16.15100 31.29500
H  -2.75100 18.79700 31.11000
H  -4.69400 19.41100 31.96300
H  -5.52500 17.93600 31.25600
H  -5.43100 19.43900 30.35700
H  -1.22500 16.23900 31.16500
H  -2.35400 15.24700 31.98900
H  -2.67400 17.77600 33.36200
H  -1.17100 17.96300 32.71900
H  -1.54400 23.21200 27.49500
H  -2.68300 22.40400 28.48600
H  -3.31500 23.30300 27.07900
H  -2.82700 24.11000 25.16600
H  -1.74300 24.45000 23.79800
H  -1.00400 23.85800 25.26100
H  -1.30700 17.39500 21.49700
H  -3.92500 16.00500 21.88500
H  -3.91600 17.84300 20.54200
H  -2.48600 18.84500 20.21300
H  -3.60600 19.26900 21.42400
H  -1.88100 14.14400 21.75500
H  -1.27500 15.24700 20.62600
H  -2.88600 14.79800 19.06100
H  -4.17600 14.46300 20.33800
H  -3.04600 13.25800 19.88800
H  -1.84000 11.75800 24.43500
H  -3.42800 11.06500 24.88800
H  -2.03700 10.62600 25.88500
H  -3.68700 13.30200 30.41000
H  -0.87100 12.24500 33.50800
H  -0.01400 13.44700 32.55700
H  0.02800 11.71700 31.94500
Mg 7.79200 53.30700 42.01000
C  7.13900 50.00200 41.36100
C  10.97600 52.90000 40.89400
C  8.05500 56.70100 41.77100
C  4.42000 53.79600 42.88000
N  8.83900 51.61900 40.99800
C  8.47400 50.34300 40.98200
C  9.66900 49.40400 40.47500
C  10.93400 50.29100 40.53100
C  10.25900 51.68900 40.79200
C  11.96800 49.76700 41.55900
C  9.45500 48.75600 39.11700
C  9.11000 49.56200 37.90300
H  8.01100 48.95900 36.96300
N  9.34000 54.59700 41.55100
C  10.55100 54.20300 41.14600
C  11.35600 55.37500 40.95500
C  10.52100 56.50100 40.90000
C  9.22400 55.96300 41.41800
C  12.81100 55.25800 40.57100
C  10.91200 57.97700 40.57100
O  12.05100 58.16600 40.19100
C  10.05200 59.29000 40.73400
N  6.44200 54.98900 42.30000
C  6.85900 56.32300 42.25100
C  5.63900 57.29300 42.38100
C  4.45100 56.33100 42.60100
C  5.14400 54.92900 42.67100
C  5.83500 58.32100 43.49400
C  3.46100 56.32100 41.40900
C  2.00900 56.74200 41.74700
N  6.07600 52.20000 42.11600
C  4.78900 52.46000 42.56100
C  4.06700 51.20000 42.62900
C  4.91300 50.23000 42.29500
C  6.12200 50.84600 41.89100
C  2.58900 50.97700 43.02600
C  5.13800 48.79500 42.20000
O  4.45000 47.86500 42.54600
C  6.48700 48.58600 41.48000
C  6.34800 47.79900 40.26200
O  6.20000 48.23300 39.12800
O  6.27800 46.48100 40.69600
C  6.36300 45.59200 39.53700
H  12.01800 52.73500 40.61300
H  8.16700 57.78800 41.75800
H  3.40600 54.06200 43.18600
H  9.69500 48.51700 41.10800
H  11.39200 50.35300 39.54300
H  11.99200 50.22900 42.54600
H  12.92600 49.86100 41.04800
H  11.82000 48.69700 41.70300
H  8.76400 47.91800 39.20600
H  10.42800 48.31600 38.89700
H  9.91800 49.60100 37.17200
H  8.83000 50.58500 38.15300
H  13.38100 54.34700 40.75700
H  13.24400 56.07500 41.14900
H  13.00700 55.49600 39.52600
H  9.04300 59.39100 40.33200
H  10.54400 60.06300 40.14400
H  9.96000 59.59200 41.77700
H  5.47600 57.95000 41.52600
H  3.91900 56.53400 43.53000
H  5.77500 59.32700 43.08000
H  6.77700 58.19600 44.02800
H  5.03700 58.32200 44.23700
H  3.47200 55.41700 40.80000
H  3.76400 57.15400 40.77600
H  1.87100 56.55800 42.81300
H  1.31600 56.13300 41.16700
H  1.86600 57.78100 41.45100
H  2.06100 51.92700 43.11200
H  2.66500 50.44200 43.97300
H  2.14600 50.18900 42.41700
H  7.10200 47.97600 42.14200
H  7.24600 45.89400 38.97500
H  5.38200 45.52600 39.06500
H  6.60400 44.60900 39.94100

