158

Mg 49.83500 45.59000 41.30400
C  46.64400 46.16400 40.07500
C  49.55600 42.28100 40.23700
C  53.18800 45.21200 41.73000
C  50.21400 49.03700 41.76100
N  48.31200 44.39700 40.13800
C  47.02100 44.84500 39.88400
C  46.23500 43.75300 39.11900
C  47.16900 42.42100 39.29100
C  48.40200 43.02500 40.03800
C  46.60400 41.19500 40.02700
C  46.09200 44.28500 37.67500
C  44.74800 44.25800 37.08000
H  44.52300 44.27400 35.56000
N  51.15400 43.95900 41.16600
C  50.80500 42.66000 40.78900
C  51.90200 41.74600 41.03700
C  53.02300 42.57500 41.49200
C  52.52400 44.01200 41.46000
C  51.79800 40.29400 40.83700
C  54.46100 42.14000 41.80200
O  54.78700 40.92500 41.73200
C  55.46400 43.11400 42.27000
N  51.53400 46.95900 41.63000
C  52.77400 46.52000 41.84400
C  53.76300 47.67200 42.05000
C  52.77200 48.82500 42.25500
C  51.38700 48.24900 41.83400
C  54.92900 47.56300 43.07900
C  53.15500 50.08400 41.38500
C  53.08900 51.34700 42.18700
N  48.68800 47.28800 41.04600
C  48.92200 48.58100 41.32200
C  47.73000 49.41800 41.00100
C  46.90800 48.51200 40.47800
C  47.47800 47.17500 40.61300
C  47.61600 50.85300 41.07400
C  45.61800 48.41700 39.82900
O  44.78300 49.24900 39.46800
C  45.32700 46.86800 39.61700
C  44.03100 46.57500 40.35900
O  43.05500 46.20600 39.75500
O  44.19100 46.59600 41.70200
C  43.19600 45.87400 42.42800
H  49.42300 41.22700 39.98500
H  54.27400 45.22800 41.83800
H  50.44700 50.06800 42.03200
H  45.27500 43.63600 39.62200
H  47.53600 42.03100 38.34200
H  45.51600 41.25600 40.03600
H  47.00200 41.11200 41.03900
H  46.86600 40.24800 39.55500
H  46.77300 43.62100 37.14200
H  46.33800 45.34600 37.63900
H  44.06700 45.02800 37.44100
H  44.21300 43.36000 37.39100
H  52.20400 39.95500 39.88400
H  50.78400 39.95100 41.04000
H  52.31900 39.83800 41.67900
H  54.99600 43.72300 43.04300
H  55.87900 43.64800 41.41500
H  56.32600 42.63800 42.73800
H  54.26300 47.85500 41.10000
H  52.72300 49.08400 43.31300
H  54.80300 46.62300 43.61600
H  54.98900 48.34700 43.83500
H  55.86100 47.65700 42.52100
H  52.40800 50.24700 40.60800
H  54.14000 49.97600 40.93200
H  54.06100 51.83700 42.12000
H  52.89800 51.18000 43.24600
H  52.37800 52.03500 41.73000
H  46.61200 51.11500 41.40800
H  47.73200 51.31900 40.09500
H  48.33400 51.27200 41.77900
H  45.12300 46.69900 38.56000
H  42.93000 45.00200 41.83000
H  42.27300 46.44100 42.55000
H  43.60100 45.68400 43.42200
Mg 30.11900 58.19200 40.33200
C  27.09600 56.44000 39.74200
C  31.81900 55.64500 38.71500
C  32.98600 60.13600 40.32600
C  28.15300 60.97500 41.43400
N  29.52700 56.27600 39.42300
C  28.21600 55.71300 39.33100
C  28.25400 54.43200 38.47500
C  29.77300 54.22200 38.15200
C  30.43800 55.42800 38.79800
C  30.41600 52.82000 38.59400
C  27.31500 54.42700 37.17400
C  27.65800 55.36900 36.02300
H  26.64800 56.29600 35.39900
N  32.11600 57.93300 39.66200
C  32.60300 56.85500 38.94600
C  34.04700 57.04000 38.74800
C  34.42900 58.31200 39.32600
C  33.13000 58.83900 39.81800
C  34.96900 55.95600 38.13700
C  35.86000 58.85600 39.48200
O  36.74900 58.30000 38.84600
C  36.26700 59.96100 40.34900
N  30.48300 60.23600 40.82500
C  31.74000 60.71500 40.81600
C  31.78800 62.16200 41.35700
C  30.33400 62.36300 41.71100
C  29.52000 61.17800 41.18200
C  32.73800 62.25900 42.59900
C  29.74200 63.74500 41.14000
C  29.56500 64.88300 42.10500
N  28.08600 58.60900 40.62700
C  27.44000 59.81100 41.09200
C  26.01300 59.47900 41.15400
C  25.92400 58.23400 40.60300
C  27.16500 57.70300 40.29600
C  24.94000 60.48500 41.61100
C  24.87500 57.28300 40.21300
O  23.67300 57.36200 40.28800
C  25.62100 56.06400 39.54600
C  25.18600 54.85200 40.27600
O  25.39900 54.65100 41.45300
O  24.45300 54.08400 39.44000
C  24.00900 52.77800 39.94100
H  32.23500 54.88800 38.04600
H  33.87200 60.76500 40.21800
H  27.46800 61.74500 41.79500
H  27.91800 53.66700 39.17500
H  29.89100 54.30500 37.07100
H  30.87200 52.23000 37.79800
H  29.61600 52.17700 38.95900
H  31.16200 52.94200 39.37900
H  26.24900 54.59600 37.32100
H  27.31700 53.37500 36.88900
H  27.87300 54.65900 35.22400
H  28.58300 55.91700 36.20200
H  35.67000 55.59400 38.88900
H  35.58300 56.36700 37.33500
H  34.46100 55.06900 37.76000
H  36.22700 60.97700 39.95800
H  37.29300 59.71400 40.62200
H  35.66900 59.81400 41.24900
H  32.18300 62.87200 40.63000
H  30.18600 62.29200 42.78800
H  32.19100 62.29600 43.54100
H  33.34100 63.15400 42.44400
H  33.58200 61.57200 42.66700
H  28.78700 63.53600 40.65800
H  30.38700 64.10800 40.34000
H  30.12300 65.79800 41.90700
H  29.84000 64.52000 43.09600
H  28.51700 65.14700 42.24400
H  25.26800 61.07700 42.46500
H  24.00700 59.93200 41.71700
H  24.77900 61.14500 40.75800
H  25.27900 56.16900 38.51700
H  23.46200 52.93200 40.87200
H  24.88000 52.15000 40.12800
H  23.46000 52.32800 39.11400

