158

Mg 2.41600 -1.01500 44.42000
C  5.64500 -0.09200 43.37500
C  1.17300 1.61900 42.65500
C  -0.68500 -2.34400 44.68400
C  3.89000 -3.87000 45.80700
N  3.34100 0.57500 43.26800
C  4.65200 0.76900 42.92500
C  4.81100 2.05300 42.14900
C  3.48500 2.78800 42.33700
C  2.56300 1.50800 42.69500
C  3.51500 3.90600 43.36800
C  5.10700 1.81700 40.59600
C  6.51100 2.16500 40.10100
H  6.58600 2.89000 38.74000
N  0.46400 -0.42000 43.76800
C  0.18700 0.79200 43.16800
C  -1.29400 0.95200 43.12700
C  -1.85700 -0.22600 43.72800
C  -0.68100 -1.03600 44.08900
C  -1.91200 2.11500 42.49000
C  -3.33100 -0.52600 43.82900
O  -4.18600 0.25000 43.40800
C  -3.90000 -1.72500 44.53900
N  1.72900 -2.85900 45.24600
C  0.43200 -3.15800 45.19100
C  0.21200 -4.53000 45.81700
C  1.60100 -4.98700 46.33600
C  2.48000 -3.87100 45.76500
C  -1.00900 -4.71000 46.77700
C  2.04900 -6.50900 46.10200
C  2.50400 -7.42100 47.24300
N  4.29700 -1.85300 44.59300
C  4.73800 -2.93800 45.29200
C  6.17300 -2.97300 45.35700
C  6.57100 -1.89000 44.57400
C  5.42300 -1.26800 44.07400
C  7.07900 -4.03900 45.98700
C  7.68900 -1.24200 44.07800
O  8.89100 -1.51300 44.14800
C  7.14500 0.04800 43.36600
C  7.63700 1.31700 43.96000
O  7.45600 1.69800 45.11700
O  8.45500 1.89300 43.10400
C  9.24500 3.05500 43.58600
H  0.73900 2.55400 42.29500
H  -1.64800 -2.84700 44.79000
H  4.37000 -4.78300 46.16500
H  5.54500 2.70400 42.62400
H  2.99600 3.28700 41.49900
H  4.51200 4.31200 43.54000
H  3.19800 3.47500 44.31800
H  2.99900 4.78000 42.97300
H  4.35100 2.36200 40.03100
H  5.01300 0.74900 40.39900
H  7.10400 1.25500 40.00800
H  7.06700 2.76200 40.82400
H  -2.34400 2.86200 43.15500
H  -2.74100 1.76900 41.87200
H  -1.18700 2.74900 41.98000
H  -3.63000 -2.58200 43.92100
H  -4.97700 -1.67300 44.70100
H  -3.52000 -1.74900 45.56100
H  -0.00200 -5.20800 44.99200
H  1.66900 -4.82600 47.41200
H  -1.69900 -3.86600 46.79500
H  -0.68800 -4.81100 47.81300
H  -1.62300 -5.53800 46.42100
H  2.94600 -6.44100 45.48700
H  1.13700 -6.85000 45.61200
H  2.66200 -6.91400 48.19400
H  3.46200 -7.90000 47.04100
H  1.80800 -8.25900 47.23100
H  6.43800 -4.51200 46.73100
H  7.89300 -3.51100 46.48300
H  7.57100 -4.62000 45.20700
H  7.59700 -0.05900 42.38000
H  8.60100 3.93400 43.56700
H  10.10900 3.10500 42.92300
H  9.54400 2.97100 44.63100
Mg 26.06300 51.99500 25.87100
C  23.73500 52.96100 28.48400
C  28.23200 51.15000 28.28700
C  28.19300 51.30800 23.33500
C  23.74200 53.07700 23.41700
N  26.03200 52.30000 28.20800
C  24.98000 52.51700 29.04600
C  25.28300 52.18700 30.51900
C  26.70300 51.49800 30.41200
C  27.05600 51.67300 28.88700
C  27.78600 52.01600 31.36300
C  24.19600 51.16800 31.09600
C  23.18900 51.53900 32.11600
H  23.26900 50.93100 33.50200
N  28.00100 51.52400 25.82000
C  28.71900 51.09400 26.88700
C  30.01700 50.71500 26.46400
C  30.01400 50.68500 25.01300
C  28.69200 51.17600 24.64100
C  31.16600 50.38300 27.42300
C  31.06600 50.38600 23.94300
O  30.92800 50.46800 22.74300
C  32.42600 49.97900 24.44500
N  25.99500 52.30700 23.70800
C  27.03500 51.91300 22.92300
C  26.74900 52.32100 21.45600
C  25.19800 52.60900 21.43800
C  24.99300 52.72300 22.93200
C  27.72100 53.37000 20.83500
C  24.31900 51.51200 20.76700
C  23.18200 52.06800 19.87700
N  24.20300 52.88500 25.87400
C  23.33400 53.16200 24.80000
C  22.05300 53.57900 25.34300
C  22.21100 53.53700 26.73900
C  23.45300 53.08000 27.03400
C  20.90400 54.11000 24.55800
C  21.47600 53.86400 27.99900
O  20.34200 54.33000 28.17500
C  22.48200 53.55400 29.11000
C  22.72900 54.67300 29.96900
O  23.67900 55.42400 29.92900
O  21.76100 54.91700 30.87900
C  21.80700 56.20300 31.56500
H  28.90400 50.77900 29.06300
H  28.85800 51.01400 22.52000
H  22.96700 53.26600 22.67100
H  25.27500 53.08400 31.13800
H  26.68200 50.42200 30.58800
H  28.37700 51.18700 31.75200
H  27.39000 52.68600 32.12600
H  28.43700 52.64300 30.75300
H  24.66500 50.25600 31.46600
H  23.52500 50.85400 30.29700
H  22.16800 51.52100 31.73400
H  23.46900 52.56600 32.35100
H  30.97900 50.57100 28.48000
H  32.04500 50.97200 27.16000
H  31.43700 49.33300 27.31700
H  32.38700 49.30200 25.29800
H  32.93600 50.87400 24.80300
H  32.86800 49.45300 23.59900
H  26.91200 51.40000 20.89500
H  24.96200 53.59600 21.04000
H  28.51500 52.81300 20.33900
H  28.27700 53.90000 21.60900
H  27.31900 54.03400 20.07100
H  23.92400 50.84600 21.53300
H  25.02600 50.89200 20.21500
H  22.28900 51.58700 20.27600
H  23.24700 51.78100 18.82800
H  22.99300 53.13000 20.03100
H  20.80800 55.15200 24.86300
H  19.99800 53.56700 24.82700
H  21.13000 54.18500 23.49400
H  22.00900 52.78600 29.72300
H  22.59700 56.09500 32.30800
H  20.91300 56.52200 32.10100
H  22.28500 56.90300 30.88100

