158

Mg 44.83700 4.31200 47.40600
C  43.21200 7.29600 46.54600
C  41.85700 2.59800 46.52300
C  46.55000 1.48700 47.50000
C  47.84700 6.14500 47.83400
N  42.79200 4.88900 46.55100
C  42.37900 6.18300 46.34100
C  40.94500 6.21800 45.70900
C  40.46800 4.79800 46.07100
C  41.76200 4.04500 46.39700
C  39.32500 4.74900 47.19100
C  40.95000 6.55200 44.23400
C  39.85800 7.51800 43.76800
H  39.36900 7.52900 42.31400
N  44.28300 2.37900 46.99700
C  42.99500 1.84500 46.81800
C  43.15000 0.38100 46.87500
C  44.50900 0.10800 47.01200
C  45.14400 1.37800 47.21000
C  41.93800 -0.64400 46.67300
C  45.12200 -1.31800 46.77000
O  44.37500 -2.29000 46.55100
C  46.52200 -1.61500 46.77400
N  46.88400 3.87600 47.47300
C  47.25900 2.62500 47.72500
C  48.78400 2.57300 48.05200
C  49.23900 4.08700 48.16900
C  47.87900 4.70200 47.88600
C  49.24800 1.58900 49.18700
C  50.44000 4.66800 47.32700
C  50.50100 4.36500 45.85300
N  45.41800 6.31600 47.15300
C  46.66800 6.92900 47.40300
C  46.48900 8.37600 47.23000
C  45.12800 8.58200 46.91800
C  44.57900 7.30300 46.85000
C  47.57800 9.36800 47.24400
C  44.08200 9.54800 46.65600
O  44.13400 10.75400 46.54300
C  42.84600 8.72200 46.28000
C  41.83200 9.12600 47.26000
O  41.75100 8.76700 48.42100
O  41.05800 10.11300 46.71400
C  39.91900 10.68000 47.45500
H  40.98400 1.94700 46.43500
H  47.11400 0.56300 47.63900
H  48.78300 6.66600 48.04100
H  40.43700 6.90800 46.38200
H  39.98800 4.35600 45.19800
H  38.98300 5.70700 47.58200
H  39.77500 4.26000 48.05500
H  38.49100 4.17800 46.78300
H  40.71000 5.72500 43.56500
H  41.88600 6.97400 43.86900
H  40.34300 8.48300 43.91600
H  38.91300 7.45500 44.30700
H  42.03600 -1.04100 45.66200
H  40.97800 -0.13700 46.76600
H  42.00600 -1.35300 47.49800
H  46.89600 -1.55500 47.79600
H  47.12000 -0.94000 46.16100
H  46.70300 -2.58700 46.31400
H  49.22400 2.17600 47.13600
H  49.41100 4.21700 49.23700
H  50.11500 2.09400 49.61200
H  49.58800 0.64400 48.76300
H  48.36200 1.47800 49.81100
H  51.37600 4.35500 47.78900
H  50.45100 5.74600 47.48700
H  51.53200 4.07900 45.64700
H  50.19600 5.27900 45.34200
H  49.83800 3.52400 45.64800
H  47.18900 10.33800 47.55400
H  48.07800 9.42500 46.27700
H  48.30000 9.06700 48.00300
H  42.53000 8.93700 45.25900
H  39.30200 9.81600 47.70100
H  39.27100 11.38100 46.92900
H  40.25900 11.21100 48.34400
Mg 43.13400 42.21600 26.23100
C  42.11500 44.43300 28.64500
C  44.24300 40.05000 28.55600
C  44.19100 40.20700 23.72000
C  42.04200 44.44500 23.83000
N  43.26200 42.24800 28.30900
C  42.65500 43.22800 29.15000
C  42.64500 42.75800 30.61700
C  43.46400 41.43100 30.60300
C  43.65200 41.20700 29.02000
C  44.86300 41.42900 31.35900
C  41.13800 42.54300 31.09900
C  41.02200 41.78000 32.42300
H  40.22400 42.55200 33.45600
N  44.18900 40.46600 26.14600
C  44.52000 39.69100 27.24900
C  44.99400 38.35700 26.80400
C  44.87900 38.33600 25.36800
C  44.52100 39.70500 24.98700
C  45.62300 37.31800 27.67900
C  45.20000 37.23000 24.30600
O  45.29800 37.43600 23.10300
C  45.11800 35.84400 24.81300
N  43.16100 42.35900 24.09900
C  43.63600 41.38000 23.28700
C  43.53800 41.69900 21.72800
C  42.64800 42.93400 21.79100
C  42.59300 43.29600 23.34500
C  44.96500 41.96700 21.25200
C  41.24800 42.71500 21.21600
C  40.52100 41.55100 21.88300
N  42.25400 44.14200 26.18500
C  41.91700 44.98200 25.14400
C  41.47300 46.23700 25.66800
C  41.42500 46.04800 27.06100
C  41.90300 44.74100 27.34500
C  41.01300 47.48600 24.83700
C  41.04600 46.57000 28.28600
O  40.69000 47.72900 28.51100
C  41.48900 45.50800 29.43700
C  42.55100 46.09100 30.29300
O  43.63900 46.44800 29.90600
O  42.07200 46.20400 31.62400
C  42.78900 47.08900 32.55300
H  44.48500 39.28000 29.29100
H  44.44900 39.53600 22.89800
H  41.61700 45.07100 23.04300
H  43.10500 43.55700 31.19800
H  42.91800 40.59900 31.04700
H  45.02900 42.41400 31.79500
H  45.66700 41.27000 30.64000
H  44.87600 40.58500 32.04900
H  40.63800 41.97400 30.31400
H  40.58200 43.46700 31.25600
H  42.02300 41.55900 32.79500
H  40.59800 40.80100 32.20200
H  45.94200 37.79400 28.60600
H  46.49400 36.88000 27.19100
H  44.83800 36.58700 27.87200
H  44.45700 35.68800 25.66500
H  46.14500 35.57300 25.06000
H  44.73000 35.24100 23.99200
H  42.97900 40.94100 21.17800
H  43.07700 43.83600 21.35400
H  45.10300 41.65000 20.21900
H  45.69700 41.34300 21.76500
H  45.15400 43.03100 21.39100
H  41.31300 42.46100 20.15800
H  40.72900 43.66900 21.31600
H  40.24300 40.84300 21.10200
H  39.63100 41.87400 22.42300
H  41.22700 40.96300 22.46900
H  41.90200 48.03700 24.53000
H  40.40300 48.15200 25.44700
H  40.41100 47.09700 24.01600
H  40.61000 45.19200 29.99800
H  42.63000 46.79600 33.59100
H  42.41900 48.08900 32.32700
H  43.84700 47.08100 32.29000

