158

Mg 5.83600 54.44700 39.88300
C  5.49300 50.96900 40.47700
C  8.90300 53.84900 38.54400
C  5.81600 57.66400 38.89700
C  2.53100 54.84400 41.20200
N  7.06600 52.54900 39.42500
C  6.66800 51.25700 39.72400
C  7.82900 50.32500 39.36300
C  9.03400 51.34100 39.29100
C  8.32400 52.66400 39.01600
C  9.94200 51.39400 40.54300
C  7.58200 49.54000 38.02100
C  6.47300 49.97000 37.08100
H  6.81200 50.47500 35.60900
N  7.14400 55.58800 38.87000
C  8.45900 55.16300 38.46500
C  9.20000 56.35700 38.04500
C  8.23300 57.44900 38.04000
C  6.98600 56.93300 38.61800
C  10.68300 56.29000 37.68000
C  8.52700 58.85800 37.69700
O  9.64100 59.14000 37.29100
C  7.49200 60.01300 37.82600
N  4.20400 55.99000 39.62200
C  4.56400 57.25000 39.45700
C  3.46400 58.20400 39.86000
C  2.62400 57.36800 40.85000
C  3.10800 55.95900 40.48300
C  3.89500 59.50700 40.52700
C  1.10100 57.40000 40.54500
C  0.13900 57.28000 41.79400
N  4.31800 53.19800 40.66800
C  3.04000 53.51500 41.21700
C  2.46200 52.28200 41.78900
C  3.40800 51.29100 41.53100
C  4.46100 51.83000 40.73500
C  1.23000 52.24500 42.59300
C  3.65800 49.88100 41.75300
O  2.99400 49.11300 42.39600
C  4.98500 49.54600 40.94700
C  4.60600 48.66100 39.78400
O  4.11600 49.03500 38.76900
O  4.93000 47.34100 40.06200
C  4.78400 46.37200 38.96500
H  9.90300 53.73700 38.12100
H  5.75100 58.70500 38.57500
H  1.72300 55.14900 41.87000
H  7.91300 49.57500 40.15000
H  9.72500 51.15600 38.46900
H  9.66800 50.74800 41.37600
H  10.09400 52.39100 40.95700
H  10.95300 51.09400 40.26800
H  7.52800 48.47900 38.26600
H  8.48500 49.55500 37.41000
H  5.93500 50.84500 37.44500
H  5.83400 49.09000 37.01700
H  11.31700 55.65300 38.29700
H  11.28600 57.18000 37.85700
H  10.65200 55.94300 36.64800
H  6.58200 59.93100 37.23200
H  7.89200 61.00200 37.59900
H  7.35000 60.12600 38.90100
H  2.82400 58.36000 38.99200
H  2.79600 57.58200 41.90500
H  4.84000 59.32100 41.03900
H  3.17800 59.92800 41.23200
H  4.16300 60.21100 39.73900
H  0.90300 56.51100 39.94700
H  0.82100 58.20600 39.86500
H  -0.44100 58.20200 41.84700
H  0.61000 57.20700 42.77400
H  -0.51400 56.45500 41.51000
H  0.51800 51.66200 42.00900
H  0.84600 53.16600 43.03200
H  1.52300 51.47800 43.30900
H  5.64700 48.91200 41.53600
H  5.09100 46.63300 37.95200
H  3.74000 46.06400 38.89600
H  5.40500 45.53700 39.28900
Mg 9.48800 48.62600 25.47600
C  7.37100 49.29700 28.16000
C  12.12300 49.98000 27.26200
C  11.63100 48.14400 22.77200
C  6.81100 48.03100 23.45500
N  9.73400 49.52200 27.45200
C  8.73400 49.57700 28.42000
C  9.38700 49.94900 29.73400
C  10.66600 50.72500 29.24500
C  10.88200 50.01700 27.90100
C  10.56600 52.30900 29.28800
C  9.61800 48.61600 30.56000
C  9.18700 48.77900 32.02100
H  8.97200 47.44000 32.88300
N  11.57900 48.86900 25.22000
C  12.48900 49.49300 26.01500
C  13.80600 49.35800 25.38900
C  13.65700 48.66500 24.16900
C  12.25600 48.52700 24.03100
C  15.07500 49.77900 26.15400
C  14.74400 48.06000 23.19700
O  14.46300 47.36600 22.24900
C  16.12000 48.32700 23.41100
N  9.20400 48.19500 23.37700
C  10.22800 47.91900 22.48300
C  9.69300 47.41500 21.15300
C  8.15400 47.38200 21.46900
C  8.01900 47.83700 22.83400
C  10.10300 48.25100 19.89500
C  7.48700 45.94300 21.22200
C  6.02300 45.90300 20.65700
N  7.45600 48.76100 25.68600
C  6.45700 48.46100 24.76800
C  5.20100 48.56800 25.37000
C  5.53000 48.80300 26.78200
C  6.92000 48.97800 26.87100
C  3.86800 48.22400 24.72200
C  4.97100 48.90000 28.09900
O  3.91100 48.65300 28.42000
C  6.09200 49.35100 29.06500
C  5.97500 48.23000 30.16100
O  6.46800 47.12300 30.04300
O  5.14400 48.64500 31.12800
C  4.76300 47.70200 32.20500
H  12.87300 50.33500 27.97100
H  12.24000 47.91000 21.89600
H  5.90900 47.90400 22.85300
H  8.76400 50.70400 30.21400
H  11.49000 50.45200 29.90500
H  10.70100 52.69600 30.29700
H  9.58400 52.67700 28.99300
H  11.31900 52.75600 28.63800
H  10.63400 48.22200 30.54800
H  9.03800 47.81900 30.09400
H  8.30400 49.41400 32.10500
H  9.86900 49.47700 32.50600
H  15.49000 48.81600 26.45300
H  14.80400 50.38500 27.01900
H  15.74300 50.36700 25.52600
H  16.27600 49.38200 23.18200
H  16.69800 47.67100 22.76000
H  16.14100 48.16100 24.48800
H  10.18100 46.44100 21.20400
H  7.60400 48.14500 20.91900
H  10.77400 49.09700 20.04700
H  9.20100 48.66300 19.44300
H  10.49900 47.66600 19.06500
H  7.35700 45.43400 22.17800
H  8.12200 45.31700 20.59600
H  5.75900 46.94400 20.47300
H  5.42500 45.50700 21.47800
H  5.88500 45.28800 19.76700
H  3.26500 47.46700 25.22400
H  3.94800 47.95900 23.66700
H  3.22100 49.10100 24.71900
H  5.85200 50.32100 29.50100
H  4.98600 46.65400 32.00700
H  3.68500 47.84800 32.27400
H  5.01000 47.94000 33.24000

