158

Mg 35.65300 0.93100 28.74200
C  33.53800 2.29800 31.39400
C  38.20600 1.04700 31.00500
C  37.68000 0.55200 26.15600
C  33.01000 1.55800 26.52200
N  35.87800 1.70400 30.86700
C  34.87900 2.11300 31.77500
C  35.47500 2.34900 33.13800
C  36.97100 2.10900 32.90800
C  37.02700 1.58300 31.53200
C  37.90200 3.25500 33.17500
C  34.81300 1.38600 34.21000
C  34.85300 2.03000 35.56600
H  35.74200 3.12700 35.96000
N  37.61300 0.45200 28.67000
C  38.53900 0.57500 29.73000
C  39.78100 0.17200 29.16900
C  39.60100 -0.09700 27.80000
C  38.23900 0.34700 27.45000
C  41.02600 0.10000 30.07400
C  40.59200 -0.57600 26.77300
O  40.38700 -0.61500 25.58400
C  41.99800 -0.96300 27.31700
N  35.32300 0.76600 26.64800
C  36.33000 0.62700 25.80900
C  35.92700 0.86100 24.36700
C  34.35100 0.86600 24.39900
C  34.20000 1.08400 25.94300
C  36.62200 2.00400 23.70100
C  33.56100 -0.49600 23.87900
C  32.56900 -0.31000 22.76600
N  33.65100 1.63900 28.95800
C  32.73800 1.85700 27.90500
C  31.48400 2.39200 28.46200
C  31.74400 2.54300 29.87800
C  33.04500 2.11800 30.05500
C  30.19100 2.62000 27.70700
C  31.24800 2.93700 31.06500
O  30.15200 3.43900 31.35900
C  32.37600 2.74500 32.17700
C  32.59500 4.01300 33.00400
O  33.42800 4.86500 32.69800
O  31.75000 4.01800 34.09500
C  31.85100 5.22500 34.87500
H  39.06700 1.07600 31.67500
H  38.33800 0.48200 25.28800
H  32.16400 1.80500 25.87600
H  35.24700 3.34300 33.52300
H  37.31500 1.28900 33.53800
H  38.76800 3.05500 33.80600
H  37.38900 4.15600 33.51100
H  38.17300 3.62200 32.18500
H  35.44900 0.51200 34.35000
H  33.79800 1.09200 33.94500
H  35.06200 1.24500 36.29300
H  33.90000 2.47700 35.85100
H  40.79600 0.26500 31.12700
H  41.73000 0.87900 29.78000
H  41.45800 -0.90000 30.02000
H  42.45100 -1.71000 26.66500
H  41.84100 -1.60600 28.18200
H  42.65900 -0.11300 27.49100
H  36.19700 -0.06200 23.85400
H  34.05600 1.65700 23.70800
H  35.94700 2.70000 23.20300
H  37.32600 1.59800 22.97500
H  37.19400 2.60500 24.40700
H  33.10400 -0.87000 24.79600
H  34.29900 -1.21500 23.52400
H  31.54100 -0.55600 23.03300
H  32.75300 -0.99400 21.93800
H  32.65900 0.72700 22.44300
H  29.61600 1.70900 27.86900
H  30.31000 2.73900 26.63000
H  29.64300 3.51000 28.01600
H  32.16100 1.85900 32.77500
H  31.74600 6.04100 34.16000
H  32.71600 5.36900 35.52300
H  31.01200 5.22500 35.57100
Mg 55.56600 24.69600 44.12800
C  52.92500 26.96800 43.13100
C  53.82700 22.27900 42.75900
C  58.27300 22.88400 44.46100
C  57.13500 27.49200 45.44900
N  53.76300 24.75600 42.77200
C  52.75900 25.71200 42.62800
C  51.42600 25.09300 42.13100
C  51.67300 23.60500 42.59300
C  53.19200 23.51700 42.67200
C  50.94000 23.13900 43.93500
C  51.11900 25.29800 40.63400
C  52.20100 25.71100 39.56000
H  51.77600 26.13600 38.19400
N  55.94300 22.81300 43.70100
C  55.13300 21.92100 43.09600
C  55.73300 20.62200 42.97100
C  57.02800 20.71200 43.54200
C  57.13100 22.18200 43.94300
C  55.08100 19.43600 42.29500
C  58.00000 19.65400 43.66400
O  57.75300 18.64100 43.04400
C  59.15100 19.79000 44.59800
N  57.44500 25.18000 44.78200
C  58.42200 24.21500 44.77800
C  59.76300 24.77800 45.23100
C  59.38000 26.25600 45.74100
C  57.93800 26.39300 45.30100
C  60.66700 23.94500 46.22100
C  60.32900 27.27600 45.12200
C  60.67800 28.60200 45.92500
N  55.14700 26.77500 44.30000
C  55.91600 27.74500 44.91800
C  55.17900 28.94800 44.85800
C  54.04300 28.70800 44.08900
C  54.05700 27.32600 43.83100
C  55.62400 30.22700 45.50900
C  52.84200 29.32000 43.56300
O  52.48400 30.49800 43.43400
C  51.94400 28.13500 43.24700
C  51.16500 28.37400 42.03300
O  51.45200 28.93200 40.97300
O  49.85800 28.02300 42.32000
C  48.94400 28.39500 41.23200
H  53.17700 21.48500 42.38500
H  59.20400 22.32800 44.59800
H  57.56900 28.38200 45.90900
H  50.58000 25.41300 42.73900
H  51.33200 22.89700 41.83700
H  51.52600 23.33600 44.83300
H  50.77600 22.06400 43.87100
H  49.87800 23.38400 43.94400
H  50.16500 25.80800 40.50300
H  50.69000 24.35400 40.29600
H  52.76100 24.77600 39.52100
H  52.95300 26.43200 39.88100
H  55.63900 19.15300 41.40200
H  54.09100 19.66500 41.90300
H  54.96600 18.71000 43.10000
H  58.74000 20.23600 45.50400
H  59.89500 20.45000 44.15100
H  59.45500 18.81600 44.98000
H  60.39900 24.80000 44.34600
H  59.41100 26.30700 46.83000
H  60.29500 22.92100 46.18600
H  60.50500 24.42300 47.18800
H  61.74500 23.94800 46.06400
H  59.92300 27.66500 44.18800
H  61.33300 26.94300 44.85900
H  60.75300 28.25100 46.95400
H  59.98000 29.39900 45.66600
H  61.67900 28.90600 45.61900
H  55.30200 30.15400 46.54800
H  55.23900 31.15200 45.07900
H  56.71200 30.21900 45.44800
H  51.30500 28.01300 44.12200
H  47.96600 28.04700 41.56300
H  49.16100 27.84800 40.31400
H  48.99800 29.48300 41.26900

