158

Mg -0.96800 17.80700 27.37000
C  -1.85900 15.56600 29.85100
C  -1.84000 20.37000 29.37900
C  -0.85500 19.67800 24.60900
C  -0.62900 14.90900 25.15200
N  -1.72800 17.92200 29.44600
C  -1.79400 16.88100 30.32700
C  -2.22000 17.41100 31.75700
C  -2.14000 19.00800 31.53500
C  -1.87700 19.16500 30.00600
C  -3.44400 19.72900 32.02000
C  -1.63200 16.96000 33.07900
C  -2.56200 16.85600 34.31500
H  -1.96100 16.29200 35.58300
N  -1.23000 19.75800 27.00200
C  -1.45900 20.67100 28.00000
C  -1.40700 21.98800 27.45600
C  -1.31500 21.81500 25.99400
C  -1.13300 20.33700 25.79800
C  -1.37700 23.23100 28.31000
C  -1.17200 22.85400 24.84700
O  -1.01500 22.58200 23.65500
C  -1.08000 24.30000 25.29700
N  -0.80000 17.27900 25.18400
C  -0.67000 18.28500 24.26200
C  -0.64000 17.76200 22.84000
C  -0.21300 16.30800 23.05700
C  -0.57500 16.15500 24.54400
C  -1.92300 18.05400 21.99000
C  1.27500 15.97900 22.72200
C  2.42600 16.24600 23.71300
N  -1.15900 15.73700 27.39300
C  -0.97100 14.69200 26.46000
C  -1.25000 13.46100 27.09700
C  -1.66700 13.71300 28.38500
C  -1.55100 15.14300 28.54600
C  -1.27900 12.13100 26.44700
C  -2.06400 13.14100 29.66500
O  -2.05400 11.95700 30.04800
C  -2.30000 14.36100 30.63200
C  -1.44000 14.01600 31.91200
O  -0.21700 14.18200 32.05200
O  -2.26500 13.37400 32.87200
C  -1.45200 12.79600 33.96400
H  -1.84400 21.14500 30.14800
H  -0.88200 20.27500 23.69500
H  -0.30300 14.12700 24.46300
H  -3.23800 17.02200 31.80100
H  -1.29300 19.46300 32.04700
H  -3.15800 20.59800 32.61400
H  -4.08400 19.09600 32.63500
H  -4.11200 20.08500 31.23600
H  -0.95300 17.77600 33.32400
H  -1.01100 16.06400 33.10900
H  -3.21000 16.03000 34.02200
H  -3.12300 17.78100 34.44900
H  -0.54100 23.90700 28.13200
H  -1.37300 23.10700 29.39300
H  -2.32200 23.74800 28.14800
H  -1.00300 24.96700 24.43900
H  -0.11500 24.57500 25.72300
H  -1.91000 24.68600 25.88900
H  0.21700 18.19400 22.32400
H  -0.76500 15.57900 22.46400
H  -2.32100 17.07400 21.72800
H  -1.68600 18.64800 21.10700
H  -2.70200 18.59100 22.53200
H  1.61900 16.60100 21.89600
H  1.42800 14.93100 22.46300
H  2.06400 16.71600 24.62700
H  3.24600 16.87700 23.37000
H  2.93300 15.29500 23.87700
H  -0.71400 11.43700 27.06900
H  -0.83300 12.04800 25.45500
H  -2.31500 11.79300 26.46500
H  -3.37900 14.37400 30.78700
H  -0.53100 13.29500 34.26700
H  -1.21300 11.77000 33.68600
H  -2.08800 12.62400 34.83200
Mg 41.43100 8.64000 29.24300
C  43.18300 9.61000 32.15900
C  39.18900 6.86300 31.22400
C  40.01600 7.55300 26.44900
C  44.06500 9.95400 27.37700
N  41.18400 8.37800 31.37800
C  42.01300 8.89700 32.42000
C  41.39800 8.53700 33.73300
C  40.37500 7.37400 33.43500
C  40.28900 7.42100 31.89300
C  40.81000 5.93000 33.90100
C  40.77900 9.75300 34.53300
C  40.88200 9.69600 36.02800
H  41.58000 10.89000 36.66700
N  39.81200 7.30500 28.92700
C  38.97700 6.79100 29.83400
C  37.90200 6.17200 29.14000
C  38.07900 6.47100 27.74300
C  39.37600 7.08500 27.62700
C  36.75800 5.39200 29.85100
C  37.19300 6.00500 26.60900
O  37.66400 5.92200 25.49000
C  35.87300 5.45500 26.89500
N  42.12900 8.46800 27.31800
C  41.29500 8.07300 26.28500
C  41.95900 8.26900 24.90900
C  43.30200 8.94700 25.21100
C  43.21700 9.08100 26.73600
C  42.12200 6.88800 24.23800
C  43.51800 10.33000 24.48000
C  42.50100 11.47800 24.75800
N  43.22500 9.68900 29.62600
C  44.19600 10.19600 28.77800
C  45.18700 10.86600 29.51300
C  44.83200 10.66100 30.85400
C  43.67400 9.88300 30.88900
C  46.36300 11.58500 28.93600
C  45.27900 10.96600 32.19000
O  46.11700 11.71700 32.64500
C  44.21000 10.28200 33.08600
C  44.77800 9.25100 34.00200
O  45.22500 8.16700 33.72900
O  44.72800 9.76100 35.26900
C  45.18100 9.02800 36.43100
H  38.47900 6.25600 31.78900
H  39.35300 7.40600 25.59300
H  44.86400 10.45800 26.83000
H  42.19000 8.02300 34.27600
H  39.33300 7.51000 33.72500
H  41.06400 5.33100 33.02600
H  40.05600 5.51700 34.57100
H  41.68600 6.04300 34.54000
H  39.70200 9.80000 34.37800
H  41.20000 10.68500 34.15700
H  41.44500 8.78800 36.24600
H  39.94600 9.59000 36.57600
H  36.98200 5.32200 30.91500
H  36.49400 4.38900 29.51600
H  35.83100 5.96500 29.82500
H  35.17600 5.49800 26.05800
H  35.35900 6.06300 27.64000
H  36.10400 4.44500 27.23400
H  41.26000 8.95300 24.42800
H  44.11400 8.23600 25.06100
H  41.78400 6.03700 24.83000
H  43.13100 6.76100 23.84600
H  41.44400 6.88700 23.38400
H  43.49600 10.11600 23.41200
H  44.55700 10.59000 24.68500
H  42.02300 11.08700 25.65600
H  41.77300 11.40600 23.95000
H  42.94500 12.46800 24.85600
H  46.33700 11.99400 27.92600
H  47.10900 10.79200 28.97900
H  46.59000 12.40900 29.61200
H  43.62600 10.96300 33.70600
H  44.34000 8.73100 37.05800
H  45.85000 9.53900 37.12300
H  45.74200 8.16800 36.06500

