158

Mg 41.88400 42.33000 26.41100
C  41.19000 44.56200 28.94100
C  42.70100 39.91100 28.85100
C  42.57700 40.12800 24.01600
C  41.29800 44.86100 24.04100
N  41.77500 42.21400 28.62600
C  41.46800 43.26200 29.40700
C  41.55800 42.78100 30.93600
C  42.28200 41.40300 30.89200
C  42.34900 41.19200 29.40600
C  43.60100 41.19600 31.60900
C  40.09500 42.72400 31.50000
C  39.95500 43.37300 32.86900
H  39.28700 42.58900 33.93700
N  42.56300 40.32500 26.43700
C  42.62900 39.53000 27.54800
C  43.10100 38.16800 27.04900
C  42.99500 38.17500 25.60900
C  42.69800 39.57500 25.29600
C  43.54900 37.06300 27.94900
C  42.99200 37.04900 24.59500
O  42.63100 37.22100 23.46300
C  43.28000 35.64800 25.02500
N  41.97400 42.46400 24.36200
C  42.24100 41.40700 23.61300
C  42.11800 41.79000 22.12500
C  41.44400 43.22400 22.14400
C  41.68300 43.58400 23.61100
C  43.53300 41.62700 21.56200
C  39.91100 43.25500 21.84400
C  39.02700 42.20400 22.47600
N  41.39400 44.29900 26.41500
C  41.09500 45.19100 25.39200
C  40.65400 46.42700 25.96200
C  40.66100 46.19100 27.38000
C  41.13600 44.91700 27.56300
C  40.29400 47.69200 25.19900
C  40.37800 46.81000 28.62300
O  39.95500 47.92900 28.96800
C  40.63700 45.73900 29.69700
C  41.62200 46.30400 30.69700
O  42.69900 46.89200 30.36400
O  41.27200 46.14800 31.99700
C  42.15300 46.86200 32.90600
H  42.80100 39.16700 29.64400
H  42.93600 39.49700 23.20100
H  40.93200 45.63600 23.36500
H  42.12500 43.52000 31.50300
H  41.62700 40.63900 31.31200
H  44.46100 41.12000 30.94400
H  43.51300 40.27000 32.17700
H  43.69800 42.06200 32.26400
H  39.67800 41.71700 31.53300
H  39.54300 43.31500 30.76900
H  39.50500 44.36400 32.81300
H  40.94600 43.52000 33.29900
H  42.91400 36.20600 27.72300
H  43.34700 37.33200 28.98500
H  44.56500 36.74700 27.71100
H  42.42600 35.15700 25.49200
H  44.22900 35.63900 25.56000
H  43.48100 34.87000 24.28900
H  41.46500 41.06300 21.64200
H  41.96900 43.97100 21.54800
H  43.50800 40.90000 20.75000
H  44.25600 41.27100 22.29600
H  43.93800 42.59200 21.25800
H  39.73900 43.07200 20.78400
H  39.49700 44.24800 22.02100
H  38.24200 42.83800 22.88700
H  39.48300 41.70100 23.33000
H  38.59900 41.53800 21.72700
H  39.54600 47.46600 24.44000
H  41.20700 47.81000 24.61500
H  40.04100 48.53900 25.83600
H  39.73700 45.55000 30.28100
H  42.24600 47.89000 32.55500
H  43.12800 46.37600 32.94000
H  41.70200 46.73700 33.89100
Mg 26.70200 50.85300 25.86900
C  24.94200 52.09000 28.69900
C  29.27400 50.24400 28.00900
C  28.34500 49.73600 23.23000
C  24.21500 52.21300 23.91700
N  27.03400 51.18600 28.08600
C  26.17900 51.50800 29.03900
C  26.71000 51.33500 30.49400
C  28.19200 51.06800 30.24200
C  28.18600 50.74500 28.65300
C  29.16000 52.20600 30.72200
C  25.89700 50.26900 31.24900
C  25.36100 50.61200 32.61600
H  26.43200 51.05700 33.63900
N  28.58700 50.17900 25.68400
C  29.51900 50.01100 26.64100
C  30.64600 49.41300 26.03500
C  30.39700 48.97800 24.70900
C  29.12500 49.66200 24.49200
C  31.84500 49.12800 26.88500
C  31.21200 48.14500 23.74300
O  30.88900 47.91200 22.58400
C  32.48700 47.48100 24.18100
N  26.36400 50.97300 23.81600
C  27.15700 50.32300 22.93300
C  26.44700 50.30100 21.52300
C  25.15600 51.18500 21.79800
C  25.21700 51.47700 23.23400
C  27.39800 50.72800 20.37500
C  23.74300 50.45400 21.44400
C  22.56900 51.34100 20.97900
N  25.00000 51.91300 26.18200
C  24.04300 52.36700 25.28500
C  23.00600 53.08100 25.92700
C  23.29200 52.99100 27.28400
C  24.51200 52.29300 27.37600
C  21.91300 53.80600 25.28500
C  22.84700 53.31700 28.55200
O  21.81300 53.93400 28.86700
C  23.92400 52.78800 29.55800
C  24.43400 53.82500 30.54300
O  25.23600 54.72000 30.30100
O  23.93500 53.59400 31.80400
C  24.32300 54.57900 32.85700
H  30.03800 50.08200 28.77200
H  28.96100 49.25200 22.46900
H  23.47100 52.67400 23.26500
H  26.52600 52.25600 31.04700
H  28.38500 50.11700 30.73700
H  28.77500 53.21800 30.59500
H  30.04500 52.14400 30.08800
H  29.49700 52.12900 31.75500
H  26.53100 49.38900 31.36200
H  25.08500 49.91400 30.61400
H  24.91200 49.67400 32.94400
H  24.52300 51.30700 32.67400
H  31.89500 49.75100 27.77700
H  32.78000 49.40700 26.39900
H  31.88600 48.10000 27.24600
H  33.02900 48.31800 24.62200
H  32.98400 47.06800 23.30400
H  32.30200 46.64000 24.84800
H  26.10400 49.31700 21.20300
H  25.22100 52.12600 21.25000
H  28.32200 51.06400 20.84500
H  26.90600 51.48200 19.76000
H  27.62300 49.89800 19.70600
H  23.36400 49.93700 22.32600
H  23.88800 49.74300 20.63100
H  22.15600 50.93200 20.05700
H  22.77200 52.41200 20.98900
H  21.64400 51.30900 21.55400
H  21.39700 53.24500 24.50700
H  22.30800 54.74000 24.88500
H  21.15100 53.96600 26.04900
H  23.34900 52.12900 30.20900
H  24.24700 55.60800 32.50600
H  25.31500 54.33200 33.23400
H  23.63500 54.52600 33.70000

