158

Mg 1.57200 -1.25100 44.18200
C  5.10300 -0.60200 43.56800
C  0.86600 1.64000 42.48000
C  -1.59000 -2.12700 44.27200
C  2.64500 -4.42900 45.40100
N  2.82600 0.22200 43.04800
C  4.20600 0.35000 42.99700
C  4.64200 1.58700 42.13800
C  3.34600 2.36500 42.03000
C  2.28900 1.37300 42.53400
C  3.23600 3.76200 42.80700
C  5.34900 1.20200 40.78300
C  6.77600 1.81900 40.48500
H  6.72300 2.66600 39.24800
N  -0.11500 -0.34400 43.53100
C  -0.22300 0.81800 42.78600
C  -1.65200 1.06500 42.54000
C  -2.33500 -0.02300 43.11100
C  -1.34900 -0.91600 43.64300
C  -2.22000 2.28800 41.76100
C  -3.84800 -0.22100 43.11400
O  -4.46000 0.77400 42.72000
C  -4.58900 -1.30300 43.84700
N  0.68700 -3.05200 44.69500
C  -0.66300 -3.03000 44.83300
C  -1.19600 -4.38800 45.34100
C  0.17600 -5.12300 45.75500
C  1.26700 -4.16400 45.21400
C  -2.35400 -4.32700 46.32400
C  0.43800 -6.49000 45.21600
C  -0.75500 -7.49200 45.03000
N  3.44600 -2.28300 44.51700
C  3.70200 -3.58600 45.06700
C  5.14700 -3.81500 45.11600
C  5.71800 -2.64700 44.56000
C  4.67100 -1.75400 44.20100
C  5.87300 -5.09600 45.47800
C  6.95600 -2.06200 44.11200
O  8.05900 -2.53600 44.08900
C  6.62300 -0.67600 43.46400
C  7.25500 0.34400 44.27700
O  7.00600 0.68400 45.39800
O  8.38100 0.81200 43.66700
C  9.21800 1.84300 44.26800
H  0.50700 2.60400 42.11400
H  -2.58800 -2.57100 44.29600
H  2.90500 -5.32400 45.97100
H  5.24200 2.25400 42.75700
H  3.17000 2.76700 41.03300
H  3.92700 3.56400 43.62600
H  2.37900 4.02600 43.42600
H  3.52100 4.63100 42.21400
H  4.68900 1.57400 39.99900
H  5.44300 0.11900 40.71000
H  7.45500 0.97000 40.41200
H  7.02000 2.43000 41.35400
H  -2.88900 1.90300 40.99200
H  -1.45800 2.97200 41.38700
H  -2.86000 2.81600 42.46800
H  -5.65200 -1.06200 43.85200
H  -4.13900 -1.32800 44.84000
H  -4.42600 -2.26200 43.35500
H  -1.49000 -4.85900 44.40300
H  0.29100 -5.13300 46.83900
H  -1.99600 -4.51200 47.33600
H  -3.09800 -5.08300 46.07100
H  -2.79000 -3.32900 46.29600
H  1.17300 -7.04500 45.79900
H  0.84600 -6.32100 44.22000
H  -1.57600 -7.31600 45.72600
H  -0.46000 -8.53900 45.09100
H  -1.09800 -7.47900 43.99600
H  5.97700 -5.86800 44.71600
H  5.33400 -5.42900 46.36500
H  6.82900 -4.80700 45.91600
H  6.94200 -0.67800 42.42200
H  9.89800 2.39600 43.62000
H  9.82700 1.36400 45.03500
H  8.68300 2.68400 44.70900
Mg 47.87000 14.51500 28.84400
C  45.73400 14.52300 31.42500
C  49.98500 16.66400 30.64800
C  49.86300 14.80200 26.17500
C  45.44600 13.06400 26.66800
N  47.87100 15.56200 30.81700
C  46.91700 15.24100 31.80600
C  47.41200 15.82000 33.18400
C  48.72000 16.66300 32.82800
C  48.79900 16.35000 31.31400
C  48.64900 18.16400 33.06400
C  47.55600 14.71400 34.29500
C  46.84700 15.18600 35.64600
H  47.02700 16.68100 36.06000
N  49.74500 15.47000 28.51400
C  50.41200 16.25100 29.39500
C  51.65900 16.60000 28.80800
C  51.72200 16.03500 27.46800
C  50.41500 15.38200 27.30800
C  52.69800 17.45100 29.51800
C  52.77200 16.07000 26.47600
O  52.77000 15.37700 25.48200
C  54.02000 16.86800 26.60900
N  47.66600 14.02500 26.68300
C  48.65000 14.17500 25.83600
C  48.27300 13.88200 24.37400
C  47.04300 13.04800 24.65800
C  46.64000 13.39300 26.10300
C  47.89900 15.12400 23.49600
C  47.14300 11.48700 24.46800
C  48.38000 10.91100 25.24600
N  45.97100 13.91000 28.94700
C  45.10000 13.33700 28.05900
C  43.85300 12.97600 28.76200
C  43.99500 13.48200 30.02900
C  45.34400 13.97800 30.12600
C  42.73300 12.17300 28.21000
C  43.40800 13.59300 31.33700
O  42.27700 13.26300 31.66700
C  44.43600 14.28400 32.24500
C  43.81600 15.56400 32.83000
O  43.53200 16.55200 32.16100
O  43.77800 15.41900 34.19900
C  43.33500 16.67900 34.85500
H  50.70000 17.21100 31.26700
H  50.38700 14.91000 25.22300
H  44.82000 12.44700 26.02000
H  46.56900 16.41200 33.53900
H  49.56800 16.19100 33.32400
H  48.88800 18.64500 32.11500
H  49.42100 18.49600 33.75800
H  47.70800 18.62400 33.36700
H  48.55600 14.49000 34.66500
H  47.09000 13.90800 33.72700
H  47.16600 14.58600 36.49900
H  45.76900 15.03500 35.60000
H  52.38900 17.88800 30.46700
H  53.02400 18.31300 28.93600
H  53.50000 16.74700 29.73600
H  53.75300 17.91300 26.76900
H  54.50600 16.81400 25.63500
H  54.66500 16.52700 27.41900
H  49.05200 13.26700 23.92100
H  46.34400 13.36700 23.88500
H  46.86700 15.47300 23.51500
H  48.08900 14.73600 22.49500
H  48.54500 15.94000 23.82100
H  47.16600 11.25600 23.40300
H  46.31900 10.96400 24.95300
H  49.07700 10.63200 24.45500
H  48.09500 10.16900 25.99200
H  48.93400 11.67000 25.79800
H  42.98200 11.91400 27.18100
H  41.80000 12.73700 28.18700
H  42.50300 11.32500 28.85500
H  44.61300 13.58900 33.06600
H  43.53300 16.53200 35.91700
H  42.24600 16.72000 34.83600
H  43.74400 17.63100 34.51700

