158

Mg 47.83800 15.10800 28.61200
C  45.67400 15.11100 31.43100
C  50.10200 16.87800 30.27400
C  49.61000 15.13600 25.77200
C  45.13400 13.55500 26.78400
N  47.88100 15.85100 30.65400
C  46.96400 15.68200 31.70900
C  47.60000 16.20000 33.07700
C  48.98500 16.73700 32.61700
C  49.03300 16.48000 31.05800
C  49.26600 18.23700 33.08000
C  47.68300 15.14600 34.20900
C  46.71300 15.33000 35.43000
H  46.38700 16.73100 36.01300
N  49.65300 15.79800 28.07800
C  50.46100 16.57600 28.93400
C  51.71900 16.83100 28.28400
C  51.62700 16.37400 26.92800
C  50.23100 15.71800 26.84300
C  52.83700 17.67200 28.93300
C  52.50500 16.65600 25.78200
O  52.27200 16.21600 24.71000
C  53.90900 17.37500 25.98400
N  47.38600 14.37800 26.69800
C  48.33700 14.54900 25.69900
C  47.95700 13.96300 24.32900
C  46.47000 13.51700 24.64900
C  46.29300 13.89300 26.10700
C  47.94700 15.09300 23.26100
C  46.36400 11.98100 24.42000
C  47.43200 11.08300 25.11100
N  45.83200 14.46000 28.99900
C  44.87300 13.81500 28.15900
C  43.67700 13.53800 28.88000
C  43.94500 14.05700 30.19400
C  45.21600 14.55400 30.18300
C  42.39700 12.85200 28.34800
C  43.41300 14.21800 31.60900
O  42.35500 13.81300 32.00900
C  44.50500 14.97200 32.40400
C  43.93300 16.14500 33.00700
O  44.01300 17.29200 32.60400
O  43.25100 15.70800 34.04200
C  42.31100 16.80600 34.41200
H  50.80100 17.51700 30.81900
H  50.18400 15.22300 24.84700
H  44.44300 12.99900 26.14800
H  46.94100 17.02000 33.36000
H  49.83500 16.17100 32.99800
H  49.31800 18.99800 32.30200
H  50.22000 18.26000 33.60500
H  48.47300 18.66300 33.69400
H  48.70700 15.21100 34.57600
H  47.52600 14.15600 33.78000
H  47.04200 14.71400 36.26600
H  45.71000 14.98400 35.18300
H  53.70200 17.12700 29.31100
H  52.38800 18.32900 29.67800
H  53.07600 18.37200 28.13200
H  54.36300 16.80300 26.79300
H  53.86400 18.46400 25.99600
H  54.44700 17.01700 25.10700
H  48.70100 13.21800 24.04800
H  45.65300 14.03600 24.14700
H  46.95300 15.52800 23.16000
H  48.09300 14.55200 22.32600
H  48.69600 15.86500 23.43800
H  46.47000 11.75900 23.35800
H  45.33300 11.80200 24.72700
H  46.86600 10.33000 25.65800
H  47.97900 11.69100 25.83100
H  48.08800 10.58800 24.39400
H  41.94400 12.22500 29.11600
H  42.54500 12.18900 27.49500
H  41.63300 13.54300 27.99400
H  44.98800 14.38900 33.18900
H  41.87200 17.27600 33.53300
H  42.68400 17.68100 34.94400
H  41.47000 16.42400 34.99100
Mg 26.24200 50.91800 25.72200
C  24.06600 52.26400 28.05600
C  28.43700 50.13500 28.30200
C  28.54700 50.00300 23.41100
C  24.23400 52.08500 23.19900
N  26.23600 51.18900 27.95700
C  25.19800 51.64900 28.68900
C  25.46600 51.44100 30.22700
C  26.99800 50.99800 30.28800
C  27.23400 50.70600 28.76900
C  27.98500 52.16200 30.61200
C  24.54800 50.32900 30.97000
C  24.19400 50.41800 32.48000
H  25.10200 51.19300 33.41600
N  28.18100 50.15500 25.84800
C  28.89100 49.87100 27.01900
C  30.17300 49.25800 26.65400
C  30.30400 49.44200 25.24900
C  28.97900 49.90700 24.74700
C  31.23200 48.77200 27.69200
C  31.43500 49.12100 24.31200
O  31.41100 49.33000 23.10800
C  32.76100 48.57900 24.90600
N  26.46400 51.11900 23.63300
C  27.39600 50.55800 22.86000
C  27.06100 50.71600 21.37500
C  25.63600 51.34000 21.35500
C  25.43800 51.53600 22.81700
C  28.24300 51.51000 20.64900
C  24.57900 50.47200 20.50700
C  24.00800 49.17400 21.04100
N  24.42600 51.98600 25.61300
C  23.69100 52.44700 24.53500
C  22.39500 53.00400 25.04100
C  22.50400 52.91000 26.39300
C  23.75300 52.32500 26.70800
C  21.38300 53.65400 24.14600
C  21.80400 53.27200 27.57300
O  20.67400 53.79400 27.76500
C  22.83300 52.83000 28.77200
C  23.23100 53.98500 29.64000
O  24.03300 54.88800 29.43500
O  22.70100 53.92000 30.84200
C  23.09600 54.78800 31.95400
H  29.14100 49.85900 29.09000
H  29.24400 49.57500 22.68800
H  23.61800 52.45400 22.37600
H  25.26300 52.41300 30.67700
H  27.20300 50.10700 30.88000
H  28.10400 52.24600 31.69200
H  27.54600 53.07100 30.19800
H  28.94200 52.07600 30.09800
H  25.08100 49.38000 30.90600
H  23.55600 50.24800 30.52400
H  24.15300 49.43200 32.94300
H  23.17000 50.77700 32.59000
H  31.69900 47.82200 27.43400
H  30.80900 48.59600 28.68100
H  31.96100 49.58100 27.74700
H  33.52100 48.46000 24.13300
H  32.51700 47.57700 25.25600
H  33.07000 49.20600 25.74200
H  26.99600 49.73700 20.89900
H  25.55900 52.34900 20.94800
H  28.99500 51.82500 21.37300
H  27.77900 52.43700 20.31300
H  28.64700 50.97000 19.79300
H  25.02600 50.28200 19.53100
H  23.72100 51.14100 20.45100
H  22.92500 49.16500 20.92200
H  24.04900 49.03200 22.12100
H  24.46700 48.31700 20.54800
H  21.73400 53.84900 23.13300
H  21.10800 54.57300 24.66400
H  20.51600 53.00100 24.04900
H  22.33600 52.12600 29.44000
H  22.12000 55.22700 32.15800
H  23.93500 55.44400 31.72000
H  23.35200 54.20800 32.84000

