158

Mg 41.91100 41.93900 27.40400
C  40.74700 44.34500 29.86100
C  42.58100 39.74800 29.95300
C  43.12200 39.78600 25.15500
C  41.46400 44.46100 25.05000
N  41.36000 41.90300 29.57700
C  41.01600 42.98200 30.41400
C  41.03000 42.66100 31.88700
C  41.55500 41.16800 31.85900
C  41.83100 40.91600 30.38100
C  42.83700 40.92100 32.76400
C  39.72200 42.99700 32.58200
C  39.37900 42.21900 33.83100
H  39.01600 43.15300 35.01000
N  42.66900 40.02100 27.52700
C  42.89200 39.29700 28.64300
C  43.54800 38.06700 28.27500
C  43.61700 38.07500 26.90800
C  43.10200 39.33100 26.48800
C  43.87100 37.00600 29.34100
C  44.13800 36.94000 26.02300
O  44.16700 36.98900 24.78200
C  44.59700 35.62500 26.59800
N  42.30300 42.13000 25.31800
C  42.59400 40.98800 24.58300
C  42.48000 41.29100 23.08800
C  42.00100 42.80900 23.06800
C  41.85900 43.17900 24.57300
C  43.69600 40.98300 22.17100
C  40.66400 43.05700 22.33800
C  39.51400 42.31600 22.84800
N  41.32900 43.99200 27.38100
C  41.23200 44.85700 26.33700
C  40.87400 46.18500 26.80500
C  40.62300 45.98200 28.17900
C  40.97600 44.64200 28.49800
C  40.70700 47.36600 26.01500
C  40.26200 46.58900 29.42100
O  39.96200 47.75600 29.67700
C  40.26500 45.58100 30.51500
C  41.32300 46.11200 31.52400
O  42.46800 46.31400 31.25900
O  40.78600 46.12400 32.82300
C  41.57900 46.48700 33.90500
H  42.57300 38.91700 30.66100
H  43.45900 39.03400 24.43900
H  41.27900 45.23400 24.30200
H  41.76900 43.37800 32.24500
H  40.65400 40.58300 32.04100
H  43.04200 41.77800 33.40500
H  43.65000 40.63700 32.09700
H  42.57600 40.09400 33.42500
H  39.01100 42.92100 31.75900
H  39.70100 44.04100 32.89500
H  40.22900 41.62000 34.15600
H  38.53500 41.55200 33.65300
H  44.86700 36.62000 29.12400
H  43.19900 36.16200 29.18900
H  43.75100 37.25900 30.39400
H  43.83400 35.03500 27.10500
H  45.48300 35.55500 27.23000
H  44.75000 34.91300 25.78800
H  41.66000 40.73200 22.63500
H  42.72700 43.47200 22.59500
H  43.42500 40.05300 21.67100
H  44.55900 40.80900 22.81300
H  43.95500 41.83800 21.54600
H  40.76200 42.77400 21.29000
H  40.39300 44.11000 22.26800
H  39.57500 42.11200 23.91700
H  39.33000 41.37700 22.32600
H  38.65200 42.96700 22.70100
H  39.71300 47.78500 26.17300
H  40.85000 47.17000 24.95200
H  41.47400 48.10800 26.23600
H  39.22800 45.59600 30.85000
H  40.97900 46.36500 34.80700
H  41.85100 47.53100 33.74800
H  42.42700 45.80100 33.90500
Mg -10.64700 17.75300 43.42400
C  -7.14300 17.20000 43.26000
C  -9.92400 21.07900 42.47500
C  -13.86200 18.31500 43.05800
C  -11.13800 14.37600 43.77200
N  -8.71900 18.97500 42.91900
C  -7.42100 18.53900 43.03000
C  -6.40500 19.63400 42.64800
C  -7.37000 20.93900 42.62400
C  -8.79700 20.29600 42.65500
C  -7.12000 22.00500 43.79400
C  -5.41700 19.34200 41.42900
C  -5.78300 18.29600 40.37600
H  -5.65100 18.71700 38.88300
N  -11.77000 19.51000 42.72500
C  -11.31200 20.77200 42.45400
C  -12.41700 21.58200 42.14900
C  -13.56200 20.81600 42.37800
C  -13.07300 19.47700 42.70400
C  -12.23400 23.06400 41.75500
C  -15.03200 21.28100 42.27200
O  -15.33400 22.47300 42.03800
C  -16.18600 20.44400 42.60200
N  -12.33800 16.50300 43.28700
C  -13.57800 17.00600 43.37200
C  -14.58400 15.97300 43.85100
C  -13.71600 14.67400 43.72200
C  -12.30000 15.16000 43.47900
C  -15.22400 16.26600 45.20500
C  -14.11300 13.69000 42.54900
C  -15.22900 12.69300 42.75500
N  -9.51500 16.09600 43.53300
C  -9.80900 14.80100 43.68200
C  -8.61300 13.98200 43.72500
C  -7.58300 14.90300 43.58100
C  -8.16100 16.17300 43.42200
C  -8.56900 12.41600 43.83800
C  -6.13400 15.02500 43.58600
O  -5.28100 14.15600 43.67700
C  -5.82700 16.52300 43.42700
C  -4.91600 17.00400 44.55700
O  -3.90200 17.70300 44.44100
O  -5.35900 16.48500 45.77600
C  -4.71400 16.99900 46.96400
H  -9.72700 22.12800 42.24400
H  -14.94900 18.36600 42.96500
H  -11.41100 13.33600 43.96200
H  -5.68800 19.69700 43.46600
H  -7.28100 21.38600 41.63400
H  -6.96000 22.96900 43.31000
H  -6.27300 21.79700 44.44900
H  -8.03100 21.97900 44.39100
H  -4.46300 19.10200 41.89800
H  -5.28600 20.27900 40.88700
H  -6.82600 18.07300 40.60200
H  -5.19200 17.38300 40.46000
H  -13.06500 23.46000 41.17300
H  -11.39700 23.11400 41.05800
H  -12.03800 23.70600 42.61400
H  -16.20100 20.29400 43.68200
H  -16.22900 19.55600 41.97200
H  -17.05800 20.99600 42.25200
H  -15.41300 15.93100 43.14400
H  -13.72400 14.15700 44.68200
H  -14.51800 16.65600 45.93900
H  -15.73900 15.40600 45.63300
H  -15.94300 17.07200 45.05900
H  -13.24300 13.09800 42.26300
H  -14.42400 14.25700 41.67100
H  -16.17000 12.98600 42.28800
H  -15.27700 12.78700 43.84000
H  -14.82300 11.72800 42.45300
H  -9.17100 12.05000 43.00600
H  -9.02300 12.02300 44.74700
H  -7.53800 12.07700 43.73300
H  -5.26800 16.61800 42.49600
H  -4.35000 18.01300 46.80200
H  -3.89800 16.37800 47.33400
H  -5.46600 17.12000 47.74400

