158

Mg 46.97400 34.17000 27.40700
C  45.29700 32.88100 30.11400
C  47.70500 36.80200 29.21200
C  48.26000 35.60600 24.61800
C  45.98300 31.39700 25.52800
N  46.76600 34.51900 29.64700
C  46.00400 33.97500 30.53100
C  45.96200 34.72500 31.81900
C  46.57700 36.08200 31.44600
C  47.13600 35.83400 30.02900
C  45.70200 37.27700 31.70600
C  46.69100 33.91900 32.98300
C  46.18800 34.01700 34.38100
H  45.78500 35.38800 34.92700
N  47.76400 36.04800 26.92000
C  47.98100 37.00400 27.85700
C  48.73900 38.06600 27.29000
C  48.91600 37.83300 25.90200
C  48.30600 36.45200 25.74500
C  49.19000 39.25300 28.05000
C  49.55400 38.65600 24.72700
O  49.84800 38.07700 23.67900
C  49.86400 40.19500 24.92100
N  47.16500 33.53500 25.45700
C  47.78400 34.30300 24.49400
C  47.78900 33.57900 23.14900
C  47.32900 32.16700 23.55200
C  46.73000 32.38300 24.93000
C  46.78900 34.07300 21.92700
C  48.48600 31.03600 23.50100
C  49.07800 30.80900 22.12200
N  46.00400 32.43800 27.71000
C  45.62300 31.42300 26.88000
C  44.78100 30.46900 27.61400
C  44.62500 31.02200 28.79500
C  45.34100 32.21300 28.85200
C  44.22600 29.26400 27.08500
C  43.98200 30.82600 30.15100
O  43.35000 29.89600 30.56000
C  44.17000 32.13000 30.91500
C  44.42600 31.79300 32.40900
O  45.30900 31.07000 32.78700
O  43.34800 32.27700 33.12300
C  43.04600 31.71000 34.48600
H  47.91000 37.75600 29.70300
H  48.72600 36.01800 23.72100
H  45.61200 30.51700 24.99900
H  44.91800 34.90200 32.07900
H  47.38500 36.33200 32.13400
H  44.82300 37.05300 32.31100
H  45.39900 37.75200 30.77300
H  46.18700 37.95800 32.40500
H  47.66700 34.40000 33.05700
H  46.87000 32.88700 32.68000
H  46.95400 33.61700 35.04500
H  45.34300 33.33800 34.48900
H  50.27700 39.28100 28.12100
H  48.71700 39.35600 29.02600
H  48.93000 40.07300 27.38000
H  48.92500 40.74900 24.92200
H  50.48300 40.51700 24.08400
H  50.46800 40.40300 25.80400
H  48.82500 33.53800 22.81300
H  46.51100 31.75200 22.96300
H  45.88300 33.49300 21.75200
H  47.21200 34.03100 20.92400
H  46.64000 35.14600 21.81000
H  48.05100 30.18000 24.01600
H  49.24500 31.26800 24.24900
H  50.15500 30.68500 22.24100
H  49.07800 31.60700 21.38000
H  48.61700 29.90500 21.72200
H  44.37200 28.45800 27.80400
H  44.74700 28.86100 26.21700
H  43.21500 29.52700 26.77700
H  43.24200 32.68900 30.78900
H  43.91500 31.36400 35.04500
H  42.45500 30.81700 34.28100
H  42.45400 32.35100 35.13800
Mg 0.12700 43.79000 26.75000
C  2.49800 43.57800 29.24500
C  -2.22700 42.65400 28.78700
C  -1.92000 43.41000 24.00300
C  2.72500 44.33300 24.54000
N  0.15400 43.14200 28.75900
C  1.18500 43.29700 29.66500
C  0.71400 43.00500 31.05800
C  -0.78000 42.54200 30.98500
C  -0.98900 42.79800 29.37400
C  -1.20800 41.18100 31.51400
C  0.81700 44.30700 31.95800
C  0.92600 44.15400 33.51500
H  0.84500 42.67300 34.08500
N  -1.90000 43.13400 26.50300
C  -2.71700 42.71400 27.46600
C  -4.03400 42.55100 26.92200
C  -3.98800 42.77300 25.51700
C  -2.60100 43.15000 25.26300
C  -5.28000 42.49000 27.77100
C  -5.09700 42.84000 24.48800
O  -4.90000 43.28400 23.35100
C  -6.48500 42.40900 24.80400
N  0.39000 43.83200 24.46800
C  -0.62700 43.65600 23.64400
C  -0.13300 43.92900 22.13500
C  1.33100 44.40000 22.34700
C  1.49600 44.12200 23.87000
C  -0.43900 42.79100 21.16500
C  1.69100 45.86500 21.91600
C  1.74300 47.01900 22.96700
N  2.19500 44.06100 26.86900
C  3.13700 44.21000 25.82400
C  4.51000 44.23200 26.34400
C  4.32600 43.93300 27.70300
C  2.89600 43.83800 27.94000
C  5.84100 44.39200 25.50100
C  4.94200 43.58700 29.02800
O  6.09700 43.36100 29.31300
C  3.79000 43.44000 30.05000
C  4.01700 42.05600 30.52300
O  3.87300 40.99600 29.91900
O  4.37600 42.15900 31.85700
C  4.91200 40.93800 32.48300
H  -2.98500 42.30100 29.49000
H  -2.64900 43.40200 23.19000
H  3.52600 44.64100 23.86500
H  1.33400 42.17900 31.40500
H  -1.34800 43.31800 31.50000
H  -1.58900 40.60800 30.66800
H  -2.03800 41.27600 32.21300
H  -0.44900 40.56200 31.99400
H  -0.07100 44.93900 31.97300
H  1.63000 45.00000 31.74200
H  0.03200 44.56700 33.98400
H  1.76900 44.70900 33.92500
H  -6.23900 42.80200 27.35800
H  -5.11700 42.98800 28.72600
H  -5.51600 41.44000 27.94600
H  -6.91500 42.13400 23.84100
H  -7.15500 43.17800 25.19000
H  -6.48200 41.51100 25.42000
H  -0.78200 44.75800 21.85100
H  2.01200 43.66400 21.92100
H  -0.36400 41.87400 21.74900
H  0.29300 42.67000 20.36600
H  -1.45300 43.01800 20.83800
H  0.92300 46.17800 21.20800
H  2.65200 45.84100 21.40300
H  2.77500 47.36500 23.02200
H  1.40400 46.75400 23.96900
H  1.11600 47.81100 22.55800
H  6.47800 43.54300 25.74900
H  6.30000 45.36900 25.65500
H  5.57500 44.39500 24.44400
H  3.72700 44.04500 30.95500
H  5.97100 41.04400 32.71900
H  4.94900 40.10300 31.78400
H  4.22500 40.74700 33.30800

