158

Mg 0.43900 7.87900 26.30100
C  1.34900 9.74900 29.04400
C  0.36200 5.11000 28.36700
C  0.11200 5.98700 23.56000
C  1.16200 10.65700 24.34300
N  0.92600 7.44800 28.44000
C  1.10400 8.43600 29.40300
C  1.09400 7.80900 30.78700
C  1.18500 6.27000 30.58100
C  0.85200 6.25900 29.00400
C  2.60400 5.63200 30.81700
C  -0.23000 8.20500 31.55300
C  -0.35200 7.90600 33.04100
H  0.85500 7.28300 33.77600
N  0.07000 5.84500 26.03800
C  -0.01300 4.90200 26.98900
C  -0.46300 3.68600 26.37400
C  -0.65300 3.97700 24.94800
C  -0.15200 5.29800 24.78300
C  -0.71500 2.39000 27.06400
C  -1.28800 3.09600 23.85100
O  -1.41300 3.44800 22.66100
C  -1.81700 1.77300 24.13300
N  0.67800 8.26400 24.26300
C  0.47600 7.29500 23.32100
C  0.75700 7.80500 21.85300
C  1.09100 9.30700 22.12300
C  1.02400 9.42700 23.69700
C  1.81800 7.01300 21.03400
C  0.19900 10.38600 21.35800
C  -1.24100 10.36100 21.72600
N  1.11300 9.84000 26.58400
C  1.15700 10.92200 25.66200
C  1.36900 12.20000 26.36800
C  1.53500 11.70400 27.73300
C  1.26600 10.35400 27.75400
C  1.51500 13.57100 25.78400
C  1.78000 12.15100 29.04100
O  1.88600 13.36500 29.37600
C  1.58500 10.93700 29.96100
C  2.86900 10.97000 30.77900
O  3.83600 10.17000 30.62500
O  2.66600 11.81500 31.85700
C  3.58500 11.53300 32.99800
H  0.30400 4.19900 28.96600
H  0.03700 5.38300 22.65300
H  1.54600 11.50600 23.77400
H  1.93500 8.24200 31.32700
H  0.42000 5.69900 31.10700
H  3.16100 5.29800 29.94200
H  2.42000 4.70800 31.36400
H  3.18400 6.22200 31.52600
H  -1.07400 7.60300 31.21700
H  -0.53600 9.24000 31.39700
H  -1.16200 7.21100 33.25800
H  -0.60000 8.83700 33.55100
H  -1.77600 2.25300 27.27200
H  -0.22300 2.35500 28.03700
H  -0.31000 1.56600 26.47600
H  -0.91000 1.17300 24.20900
H  -2.24200 1.33200 23.23200
H  -2.45800 1.62900 25.00300
H  -0.21900 7.71600 21.37800
H  2.12200 9.55800 21.87200
H  2.60000 7.71600 20.75000
H  1.44100 6.52400 20.13600
H  2.31000 6.17100 21.52200
H  0.53600 10.42900 20.32200
H  0.49600 11.37500 21.70800
H  -1.57300 11.39200 21.84100
H  -1.37600 9.83500 22.67100
H  -1.86800 9.97600 20.92200
H  1.79700 14.29500 26.54900
H  0.61600 13.83700 25.22700
H  2.31500 13.61700 25.04500
H  0.70900 11.05200 30.60000
H  4.22000 12.40300 32.83300
H  4.16400 10.60900 32.98200
H  2.98700 11.69800 33.89400
Mg -1.44000 34.46600 27.44100
C  -3.19400 32.56100 29.82200
C  -0.01600 36.21300 29.91200
C  -0.13900 36.40600 25.05000
C  -3.23200 32.70400 25.03100
N  -1.70600 34.41200 29.55100
C  -2.37500 33.57800 30.37500
C  -2.16900 33.89000 31.88700
C  -1.31000 35.18400 31.80100
C  -1.01900 35.31500 30.32300
C  -2.00900 36.38900 32.49900
C  -1.38700 32.70800 32.63800
C  -2.12900 32.03700 33.91400
H  -1.47600 32.08400 35.28200
N  -0.15300 36.07300 27.50000
C  0.36700 36.60100 28.63100
C  1.38000 37.52200 28.25600
C  1.41800 37.62200 26.79500
C  0.30800 36.69800 26.38600
C  2.28800 38.14500 29.21700
C  2.26200 38.46900 25.87100
O  2.29300 38.33200 24.63800
C  3.17900 39.44200 26.44400
N  -1.91300 34.76100 25.31800
C  -1.10800 35.57600 24.58600
C  -1.51500 35.41900 23.04400
C  -2.35000 34.06500 23.07800
C  -2.54200 33.86100 24.55300
C  -2.20900 36.60900 22.42300
C  -1.54300 32.91600 22.48400
C  -1.75700 32.58600 20.99000
N  -2.88600 32.88700 27.40800
C  -3.39000 32.25000 26.35300
C  -4.17600 31.12700 26.80800
C  -4.14600 31.25700 28.18100
C  -3.27700 32.28600 28.47800
C  -4.89800 30.16800 25.95000
C  -4.64900 30.63800 29.33500
O  -5.33500 29.58700 29.43200
C  -4.02400 31.49400 30.48300
C  -5.13600 32.12900 31.22800
O  -5.67500 33.20300 30.96800
O  -5.43400 31.43300 32.40500
C  -6.39500 32.03600 33.31700
H  0.52300 36.69000 30.73300
H  0.31400 36.94200 24.21300
H  -3.54300 32.00500 24.25100
H  -3.15300 34.07200 32.32000
H  -0.36100 35.11600 32.33300
H  -3.01500 36.10300 32.80400
H  -2.11200 37.35300 31.99900
H  -1.49300 36.63900 33.42600
H  -0.47800 33.15200 33.04200
H  -1.02200 32.02100 31.87400
H  -2.22700 30.96700 33.73200
H  -3.19100 32.27000 33.99200
H  1.83600 38.08200 30.20700
H  2.41400 39.21100 29.02700
H  3.23500 37.60600 29.20300
H  2.57300 40.09500 27.07200
H  3.57200 39.97700 25.57900
H  4.04700 38.97100 26.90500
H  -0.65200 35.20200 22.41400
H  -3.35900 34.17800 22.68100
H  -2.15200 37.50400 23.04300
H  -3.27700 36.39600 22.39900
H  -1.86300 36.90500 21.43300
H  -1.71200 31.96300 22.98500
H  -0.47900 33.14300 22.55100
H  -2.53300 33.24500 20.59900
H  -2.11900 31.57000 20.83200
H  -0.79500 32.81000 20.53000
H  -5.32200 29.40300 26.60100
H  -4.26400 29.61900 25.25300
H  -5.70700 30.56600 25.33800
H  -3.50000 30.83200 31.17300
H  -6.58800 33.10000 33.17900
H  -5.87700 32.00000 34.27500
H  -7.34000 31.50100 33.21900

