158

Mg -2.32800 17.57900 25.50100
C  -2.62500 15.57600 28.42200
C  -3.36700 20.25900 27.66000
C  -2.06400 19.60400 22.89700
C  -2.06100 14.74800 23.65200
N  -2.85800 17.87200 27.85200
C  -2.94400 16.88100 28.79500
C  -3.48800 17.45100 30.11900
C  -4.12800 18.87300 29.65300
C  -3.38800 19.03800 28.33000
C  -5.63600 18.90800 29.50700
C  -2.44100 17.67800 31.25800
C  -2.94200 17.54100 32.69200
H  -2.20600 16.60200 33.61600
N  -2.47600 19.58500 25.33400
C  -2.93900 20.52500 26.29500
C  -2.97700 21.80600 25.70000
C  -2.41700 21.68200 24.35100
C  -2.27000 20.24700 24.18100
C  -3.31300 23.09200 26.39900
C  -2.04500 22.82900 23.31700
O  -1.67700 22.55000 22.23000
C  -2.12400 24.20000 23.72300
N  -2.33100 17.24700 23.50100
C  -2.09000 18.23500 22.61400
C  -1.92400 17.65000 21.18100
C  -1.62300 16.09300 21.49000
C  -2.06700 16.03500 22.98000
C  -3.17200 18.02700 20.25200
C  -0.09500 15.72700 21.30500
C  0.89400 16.51100 22.26300
N  -2.25100 15.62400 25.89500
C  -2.14600 14.58000 25.05200
C  -2.01200 13.33800 25.80100
C  -2.08400 13.75000 27.15500
C  -2.34700 15.16300 27.09400
C  -1.86800 11.93200 25.29400
C  -2.14400 13.28200 28.51200
O  -2.08500 12.12800 28.91500
C  -2.32700 14.48900 29.37500
C  -1.06100 14.71200 30.20500
O  -0.10100 15.43700 29.92000
O  -1.00000 13.88200 31.29600
C  0.26700 13.90100 31.98000
H  -3.50700 21.15200 28.27300
H  -1.78100 20.13400 21.98500
H  -1.79600 13.93600 22.97200
H  -4.28200 16.75500 30.39200
H  -3.92400 19.67100 30.36700
H  -6.08800 18.08500 30.06100
H  -5.92200 19.00800 28.46000
H  -5.91100 19.83400 30.01200
H  -2.04600 18.69200 31.20900
H  -1.56100 17.04500 31.15100
H  -3.91900 17.11100 32.46800
H  -3.15200 18.55800 33.02300
H  -2.46400 23.77600 26.38600
H  -3.54000 22.93300 27.45300
H  -4.23900 23.59400 26.11800
H  -1.80000 24.86800 22.92600
H  -1.36100 24.42100 24.47000
H  -3.12800 24.45800 24.06100
H  -1.01000 18.13900 20.84400
H  -2.27900 15.37700 20.99600
H  -2.83600 18.80700 19.56900
H  -3.99300 18.47900 20.81000
H  -3.57800 17.19000 19.68300
H  0.28800 16.01200 20.32600
H  0.13000 14.66500 21.40500
H  1.42000 17.28300 21.70200
H  1.64100 15.82600 22.66500
H  0.36400 16.88000 23.14100
H  -1.69000 12.01900 24.22200
H  -2.80400 11.42200 25.52500
H  -1.02200 11.45400 25.78700
H  -3.20700 14.27300 29.98000
H  0.32700 14.82000 32.56200
H  1.06900 13.90100 31.24200
H  0.40300 13.02900 32.62000
Mg -1.90200 34.59500 27.09300
C  -3.61600 32.69300 29.53400
C  -0.59200 36.55600 29.61000
C  -0.56900 36.52700 24.72000
C  -3.79100 32.98100 24.65100
N  -2.19000 34.66100 29.31500
C  -2.78600 33.71800 30.06100
C  -2.43600 33.94800 31.54300
C  -1.54400 35.21200 31.51800
C  -1.45600 35.55700 30.02300
C  -2.07800 36.44700 32.28000
C  -1.86000 32.74500 32.35400
C  -2.78800 32.14100 33.45200
H  -2.10100 32.01600 34.91100
N  -0.72500 36.22200 27.10500
C  -0.28200 36.85800 28.23300
C  0.65200 37.87000 27.78800
C  0.75200 37.88700 26.38900
C  -0.19700 36.81000 26.01100
C  1.28900 38.81300 28.73800
C  1.64600 38.74500 25.40000
O  1.54200 38.71600 24.18900
C  2.64000 39.72300 25.89100
N  -2.13800 34.73600 24.97100
C  -1.41700 35.59600 24.17700
C  -1.59500 35.23500 22.74200
C  -2.52300 34.04900 22.77900
C  -2.82300 33.83300 24.26500
C  -2.19200 36.49300 22.02700
C  -1.83100 32.79200 22.14600
C  -0.63400 32.17500 22.84600
N  -3.36300 33.06000 27.02700
C  -4.01000 32.47500 25.99500
C  -4.83100 31.39600 26.50600
C  -4.66300 31.40700 27.85400
C  -3.79300 32.49300 28.18200
C  -5.77400 30.49200 25.73200
C  -5.17300 30.80900 29.16300
O  -6.07500 30.01100 29.42100
C  -4.44900 31.62700 30.29500
C  -5.47200 32.33200 31.15800
O  -5.93100 33.42100 30.95000
O  -5.85500 31.55800 32.30300
C  -6.32100 32.37600 33.39300
H  0.05800 37.04400 30.34000
H  -0.06000 37.16300 23.99300
H  -4.39700 32.47400 23.89700
H  -3.34600 34.25100 32.06000
H  -0.50500 35.02800 31.79200
H  -2.94300 36.25500 32.91600
H  -2.25800 37.30000 31.62600
H  -1.28400 36.79700 32.93900
H  -0.90600 32.94400 32.84200
H  -1.55900 32.01100 31.60600
H  -3.10000 31.12600 33.20700
H  -3.53600 32.93000 33.53300
H  0.76900 38.91600 29.69100
H  1.35700 39.79800 28.27600
H  2.31800 38.57600 29.00800
H  3.06400 39.07600 26.65900
H  2.14800 40.62000 26.27000
H  3.37600 40.01000 25.14100
H  -0.63300 34.83500 22.42100
H  -3.45800 34.23400 22.25200
H  -3.17700 36.75200 22.41500
H  -2.41400 36.34600 20.97000
H  -1.59900 37.40500 22.08900
H  -1.59500 33.02300 21.10700
H  -2.65200 32.07600 22.11300
H  -0.48600 32.57800 23.84800
H  0.20500 32.28200 22.15700
H  -0.84300 31.11800 23.01300
H  -5.19900 29.88500 25.03300
H  -6.54500 31.12500 25.29200
H  -6.29900 29.82100 26.41100
H  -3.82100 31.01400 30.94200
H  -5.55900 32.65800 34.12000
H  -6.96800 31.67900 33.92600
H  -6.95000 33.21500 33.09200

