158

Mg 9.08300 3.15000 27.62200
C  9.92800 1.40400 30.59200
C  6.85600 5.03200 29.47500
C  8.01300 4.54500 24.75700
C  10.75400 0.68600 25.78900
N  8.64600 3.34000 29.79600
C  9.12500 2.52200 30.77900
C  8.61100 2.97400 32.13200
C  7.48300 4.06900 31.72900
C  7.67400 4.19000 30.23300
C  6.00600 3.69500 32.19100
C  9.69100 3.54700 33.10200
C  9.08000 4.37100 34.19200
H  9.61400 3.96300 35.57000
N  7.58100 4.56800 27.21500
C  6.79400 5.30900 28.08600
C  5.96700 6.28800 27.33000
C  6.38900 6.14400 25.93800
C  7.35500 5.02400 25.93300
C  4.99100 7.17400 28.00800
C  5.90400 6.91000 24.73100
O  6.18200 6.69100 23.57100
C  4.87400 7.86800 25.02900
N  9.30900 2.69300 25.55800
C  8.82600 3.43600 24.55500
C  9.20700 2.93600 23.11500
C  9.95900 1.62100 23.50900
C  10.03400 1.62200 25.05800
C  8.05600 2.61400 22.15800
C  11.35500 1.57000 22.84000
C  11.58300 0.53300 21.72200
N  10.16800 1.40700 28.03900
C  10.75600 0.49700 27.15300
C  11.30400 -0.53400 27.98800
C  11.13600 -0.11600 29.36500
C  10.35500 0.98200 29.32200
C  11.94400 -1.77400 27.50500
C  11.44100 -0.53100 30.67100
O  12.10200 -1.45000 31.03700
C  10.66100 0.47100 31.57800
C  9.78600 -0.38300 32.39800
O  8.65800 -0.82600 32.10000
O  10.38300 -0.49300 33.68100
C  9.53200 -1.10600 34.73300
H  6.22100 5.70700 30.05200
H  7.75700 5.07100 23.83400
H  11.07300 -0.06100 25.06000
H  8.21700 2.07700 32.61000
H  7.69100 5.04300 32.17200
H  6.10000 2.75900 32.74200
H  5.21600 3.50800 31.46300
H  5.52600 4.39100 32.87800
H  10.51200 3.96600 32.52000
H  10.12100 2.66100 33.56800
H  8.02800 4.13500 34.34700
H  9.33800 5.43000 34.16200
H  5.42200 8.17500 27.99000
H  4.90900 7.09500 29.09200
H  4.02300 7.16200 27.50800
H  3.97500 7.29200 25.25100
H  4.76100 8.44500 24.11100
H  5.29400 8.46100 25.84100
H  9.86500 3.72000 22.74100
H  9.26300 0.80100 23.33200
H  7.12000 2.73300 22.70400
H  8.14700 1.59500 21.78200
H  8.03700 3.28800 21.30100
H  12.10000 1.44100 23.62600
H  11.64500 2.54000 22.43800
H  10.65600 0.42000 21.16100
H  11.92200 -0.43200 22.10000
H  12.37500 0.94800 21.09800
H  12.29500 -2.42900 28.30200
H  12.89700 -1.44100 27.09300
H  11.42400 -2.39300 26.77400
H  11.16500 1.03800 32.36100
H  10.15300 -1.81900 35.27400
H  8.76300 -1.61000 34.14600
H  8.96400 -0.31900 35.22900
Mg -5.54400 25.47000 26.28400
C  -4.00500 26.73200 29.14000
C  -7.44000 23.42900 28.45700
C  -6.66100 23.90000 23.65100
C  -3.55600 27.50400 24.32300
N  -5.62700 25.12200 28.49900
C  -4.97800 25.84500 29.43000
C  -5.61900 25.71400 30.79100
C  -6.45900 24.33900 30.66800
C  -6.58100 24.27200 29.09800
C  -5.77200 23.09400 31.35600
C  -6.45700 27.05900 31.28500
C  -6.15400 27.43700 32.72400
H  -5.88100 26.23600 33.61300
N  -7.06600 23.98100 26.06300
C  -7.64600 23.27700 27.09000
C  -8.52300 22.25500 26.47200
C  -8.24600 22.35600 25.02000
C  -7.24900 23.42500 24.87900
C  -9.41400 21.30400 27.26300
C  -8.70200 21.42600 23.88700
O  -8.32700 21.55200 22.69600
C  -9.69100 20.32200 24.23100
N  -5.35000 25.84300 24.25800
C  -5.86000 24.98800 23.27500
C  -5.55600 25.48500 21.84700
C  -4.48700 26.65500 22.12100
C  -4.46000 26.70500 23.71600
C  -4.99700 24.52200 20.83800
C  -4.92500 28.09200 21.55500
C  -5.68100 28.16500 20.23100
N  -3.90100 26.62700 26.60800
C  -3.30500 27.49000 25.68200
C  -2.36300 28.34300 26.45400
C  -2.60000 28.04700 27.72900
C  -3.51100 26.98300 27.85500
C  -1.52700 29.50600 25.88000
C  -2.30000 28.56600 29.05900
O  -1.52000 29.40500 29.42600
C  -3.15400 27.74300 30.05400
C  -2.24900 26.94100 30.93000
O  -1.81200 25.82100 30.75000
O  -1.96300 27.63700 32.06800
C  -1.42900 26.86300 33.20100
H  -7.96600 22.80500 29.18300
H  -6.99900 23.35800 22.76600
H  -3.08700 28.22900 23.65400
H  -4.79100 25.51600 31.47200
H  -7.47800 24.36200 31.05400
H  -5.14000 23.34600 32.20700
H  -5.24600 22.51300 30.59900
H  -6.55100 22.44200 31.75000
H  -7.53800 26.95300 31.19000
H  -6.24000 27.86800 30.58700
H  -7.02700 27.93700 33.14300
H  -5.35800 28.18200 32.71800
H  -9.36100 21.59700 28.31200
H  -9.04700 20.31500 26.98800
H  -10.43400 21.30700 26.87900
H  -9.80700 19.74000 23.31600
H  -10.59400 20.65600 24.74200
H  -9.12100 19.65500 24.87800
H  -6.49800 25.90200 21.49000
H  -3.42900 26.45800 21.94700
H  -3.97300 24.66100 20.49100
H  -5.76400 24.44700 20.06800
H  -5.06800 23.56100 21.34700
H  -3.91800 28.48800 21.42100
H  -5.44600 28.69600 22.29800
H  -6.41800 28.94000 20.01900
H  -6.05900 27.23100 19.81600
H  -4.83500 28.33200 19.56400
H  -2.04900 29.81800 24.97500
H  -0.54400 29.15800 25.56500
H  -1.51700 30.29200 26.63500
H  -3.78200 28.42100 30.63200
H  -0.35800 27.00900 33.34700
H  -1.50300 25.77600 33.17300
H  -1.99100 27.19500 34.07400

