158

Mg 47.40200 25.70200 28.85200
C  48.35600 27.76200 31.30700
C  46.46500 23.38000 31.21300
C  46.89500 23.32200 26.33100
C  49.07600 27.53800 26.56200
N  47.60600 25.57500 31.05400
C  47.84900 26.62100 31.88600
C  47.28800 26.32300 33.32900
C  46.82600 24.87300 33.28300
C  46.99100 24.56200 31.77300
C  47.34200 23.91800 34.35600
C  46.27800 27.30900 33.85200
C  46.64800 28.09400 35.11700
H  45.58200 28.26100 36.22600
N  46.71100 23.60700 28.77100
C  46.40800 22.85000 29.90000
C  45.88900 21.54000 29.45600
C  45.94800 21.56800 28.04100
C  46.46700 22.90800 27.62800
C  45.25300 20.54100 30.51800
C  45.58500 20.42100 27.08900
O  45.71000 20.54700 25.86800
C  45.01600 19.12700 27.69300
N  48.04000 25.40100 26.81400
C  47.59400 24.42600 25.93100
C  47.89400 24.79900 24.48000
C  48.13600 26.30600 24.57700
C  48.46900 26.45300 26.08600
C  49.07800 23.88700 24.09100
C  46.96900 27.26200 24.08000
C  45.54100 26.91200 24.65900
N  48.41800 27.41700 28.85700
C  49.11000 28.05200 27.86800
C  49.56200 29.39200 28.36300
C  49.27500 29.27800 29.69900
C  48.63700 28.06300 30.00800
C  50.28300 30.40000 27.54100
C  49.35100 30.01400 31.00400
O  49.72500 31.13900 31.22000
C  48.75100 29.06200 32.05200
C  49.84100 28.79800 33.04200
O  50.67600 27.89600 32.87200
O  49.79500 29.74300 34.13600
C  50.89900 29.54400 35.11000
H  45.94500 22.75400 31.94000
H  46.62100 22.52300 25.63900
H  49.43000 28.12500 25.71200
H  48.13500 26.30100 34.01600
H  45.74800 24.82300 33.43800
H  46.45800 23.40800 34.73800
H  47.87200 24.50100 35.10900
H  47.97900 23.16000 33.90000
H  45.34100 26.80700 34.09400
H  45.99000 27.94700 33.01600
H  46.92000 29.06900 34.71300
H  47.56900 27.73700 35.57800
H  44.21700 20.31700 30.26000
H  45.34700 20.95200 31.52300
H  45.82200 19.61300 30.48000
H  45.61800 18.59600 28.43000
H  44.79000 18.57600 26.78000
H  44.00900 19.24400 28.09300
H  47.01800 24.59100 23.86600
H  48.97800 26.60400 23.95200
H  49.57800 23.48900 24.97400
H  49.80500 24.52500 23.58800
H  48.85900 22.99400 23.50600
H  47.00800 27.09100 23.00400
H  47.36000 28.28000 24.05200
H  45.79700 26.29600 25.52000
H  45.01600 26.31200 23.91500
H  44.89500 27.75300 24.91400
H  50.17300 31.39800 27.96600
H  49.81800 30.31000 26.56000
H  51.31300 30.11300 27.32800
H  47.88600 29.50800 32.54200
H  51.81300 29.39300 34.53600
H  50.71500 28.75100 35.83500
H  50.99800 30.45400 35.70200
Mg 49.14000 35.98500 27.83700
C  47.10100 34.25700 30.12000
C  49.58100 38.46200 30.39800
C  50.72300 37.96600 25.58800
C  48.49800 33.58600 25.48300
N  48.41900 36.31100 29.94200
C  47.79600 35.35200 30.70100
C  47.82700 35.68300 32.18800
C  48.23400 37.20100 32.22900
C  48.66400 37.44300 30.72100
C  47.06200 38.05600 32.74900
C  48.71800 34.71100 32.93100
C  48.57400 34.49600 34.45400
H  47.79300 35.57900 35.30100
N  50.06000 37.88300 28.00100
C  50.18100 38.72600 29.12000
C  50.96900 39.80100 28.77000
C  51.42700 39.64500 27.45200
C  50.67900 38.42200 26.96100
C  51.19000 40.99400 29.71100
C  52.21000 40.62500 26.56700
O  52.42300 40.24800 25.42200
C  52.66500 42.02500 26.96900
N  49.43300 35.88100 25.73100
C  50.15400 36.76900 25.03600
C  50.31400 36.30100 23.54400
C  49.80800 34.79300 23.56900
C  49.19900 34.70300 24.99100
C  49.58000 37.12900 22.51900
C  50.83500 33.73500 23.24400
C  50.53100 32.81900 22.03400
N  47.99700 34.26300 27.70100
C  47.76500 33.33300 26.62600
C  46.91200 32.19100 27.09300
C  46.58200 32.62600 28.41400
C  47.28400 33.84800 28.73600
C  46.61100 30.91100 26.36700
C  45.76300 32.34300 29.58100
O  45.03700 31.37500 29.76000
C  45.98900 33.36400 30.65300
C  46.15500 32.70300 32.00000
O  46.96000 31.82600 32.30600
O  45.28300 33.21600 32.86400
C  44.98800 32.43900 34.09100
H  49.87200 39.06500 31.26000
H  51.25400 38.42500 24.75100
H  48.53700 32.81900 24.70700
H  46.86200 35.52900 32.66900
H  49.07900 37.36800 32.89800
H  47.36900 38.50900 33.69100
H  46.22700 37.41100 33.02500
H  46.82900 38.81400 32.00100
H  49.76200 35.02300 32.90200
H  48.66200 33.74400 32.43000
H  49.57700 34.43800 34.87700
H  47.98400 33.64100 34.78500
H  52.19600 41.38700 29.56200
H  51.07000 40.84300 30.78400
H  50.47900 41.75500 29.38700
H  51.79400 42.56800 27.33800
H  52.77600 42.46200 25.97700
H  53.60100 42.15400 27.51200
H  51.36400 36.32000 23.25200
H  48.97000 34.70300 22.87800
H  49.40000 38.14500 22.87000
H  48.65500 36.64300 22.20700
H  50.16100 37.24500 21.60400
H  51.02800 33.06000 24.07900
H  51.85000 34.08300 23.05100
H  49.73100 33.20400 21.40200
H  50.33100 31.77300 22.27000
H  51.47600 32.85000 21.49300
H  47.30900 30.13100 26.67300
H  46.67800 31.00800 25.28300
H  45.62400 30.52200 26.61700
H  45.10400 33.99900 30.69400
H  44.22000 31.68500 33.91400
H  44.62400 33.01600 34.94000
H  45.88600 31.92600 34.43400

