158

Mg 47.86000 35.39400 27.92200
C  45.99800 33.54800 30.24300
C  47.96700 38.03700 30.18500
C  49.10600 37.23900 25.43300
C  47.18900 32.79400 25.68300
N  47.00100 35.75400 29.91100
C  46.50000 34.74100 30.74200
C  46.59200 35.24600 32.22700
C  46.81600 36.75300 32.09900
C  47.26500 36.90400 30.66100
C  45.55800 37.66100 32.39500
C  47.71000 34.54300 33.01000
C  47.57600 34.46800 34.53100
H  46.47400 35.27800 35.21100
N  48.57400 37.27900 27.88100
C  48.46500 38.24700 28.92800
C  49.13600 39.43500 28.46800
C  49.54000 39.16600 27.12200
C  49.11700 37.83100 26.76200
C  49.43200 40.70000 29.32500
C  50.33700 40.08300 26.24200
O  50.76000 39.71500 25.13300
C  50.65500 41.49900 26.63300
N  48.01100 35.11300 25.84300
C  48.60500 35.96000 25.01700
C  48.89700 35.45700 23.63300
C  48.42400 33.99200 23.74100
C  47.82300 33.94600 25.18400
C  48.34000 36.27100 22.46900
C  49.48000 32.93100 23.38600
C  50.26500 32.37000 24.58400
N  46.83200 33.49400 27.91300
C  46.65500 32.59400 26.92200
C  45.79300 31.51500 27.38700
C  45.55400 31.83100 28.71100
C  46.16200 33.09000 28.96200
C  45.35300 30.29900 26.67000
C  44.85500 31.37900 29.88300
O  44.18000 30.36400 30.08200
C  45.00700 32.56200 30.88600
C  45.43500 32.01700 32.16600
O  46.44300 31.38200 32.43800
O  44.43500 32.25900 33.08900
C  44.36500 31.26700 34.13400
H  47.90100 38.90300 30.84700
H  49.58800 37.81700 24.64100
H  47.00900 32.01900 24.93500
H  45.64000 34.99200 32.69400
H  47.61800 37.12400 32.73700
H  45.48300 38.33200 31.53900
H  45.67100 38.18500 33.34400
H  44.67700 37.02300 32.32600
H  48.62400 35.09800 32.79800
H  47.85500 33.52700 32.64200
H  48.53700 34.79500 34.92700
H  47.49600 33.40700 34.76900
H  50.51800 40.75900 29.40700
H  49.02700 40.66500 30.33700
H  49.01200 41.57600 28.83000
H  49.80400 42.18100 26.65700
H  51.37900 41.82000 25.88400
H  51.23200 41.69400 27.53600
H  49.97800 35.51900 23.51600
H  47.63100 33.77700 23.02600
H  47.66400 37.05200 22.81500
H  47.80300 35.56800 21.83300
H  49.22900 36.60400 21.93300
H  50.15900 33.39900 22.67400
H  49.06700 32.12700 22.77800
H  51.22500 32.04500 24.18200
H  49.69800 31.61600 25.13000
H  50.38600 33.15500 25.33100
H  44.70500 29.74100 27.34600
H  46.24300 29.73900 26.38200
H  44.87700 30.57600 25.72900
H  44.05400 33.08900 30.86900
H  44.57100 31.81800 35.05200
H  44.92300 30.33100 34.15700
H  43.33700 30.91300 34.21000
Mg -5.13200 25.45200 25.69500
C  -3.71500 26.99100 28.46300
C  -6.68200 23.20000 27.78000
C  -6.65900 24.20400 22.94600
C  -3.31600 27.63300 23.52000
N  -5.03500 25.03000 27.90400
C  -4.49900 25.86900 28.83300
C  -4.84000 25.46400 30.26000
C  -5.67300 24.16200 30.02700
C  -5.77700 24.05600 28.51300
C  -5.11300 22.83600 30.63300
C  -5.56600 26.66800 31.00100
C  -5.56500 26.81300 32.52200
H  -4.82000 25.80800 33.36900
N  -6.40700 23.84200 25.40400
C  -6.89700 22.99000 26.38700
C  -7.87300 22.03600 25.72800
C  -7.87100 22.34600 24.31400
C  -6.90900 23.51600 24.14800
C  -8.56100 20.99900 26.49400
C  -8.76100 21.75000 23.22500
O  -8.56800 21.99000 22.04300
C  -9.86900 20.84700 23.47500
N  -4.99600 25.87400 23.46700
C  -5.85100 25.26200 22.64900
C  -5.52300 25.64500 21.19200
C  -4.39200 26.79500 21.32100
C  -4.17200 26.73300 22.84900
C  -5.02900 24.42800 20.31600
C  -4.89600 28.18900 20.81100
C  -3.89000 29.00100 20.01100
N  -3.79000 26.99100 25.85500
C  -3.11300 27.77100 24.94900
C  -2.31000 28.72300 25.66400
C  -2.48400 28.42300 27.02300
C  -3.46600 27.40900 27.14400
C  -1.46300 29.88000 25.20100
C  -2.06700 28.74800 28.30100
O  -1.14800 29.48800 28.68600
C  -2.86000 27.91000 29.34700
C  -1.85200 27.12400 30.11500
O  -1.32400 26.06100 29.73400
O  -1.51400 27.76600 31.23300
C  -0.46300 27.24800 32.11000
H  -7.15500 22.48200 28.45300
H  -7.21800 23.97700 22.03600
H  -2.75200 28.43300 23.03500
H  -3.91900 25.25700 30.80500
H  -6.68400 24.35100 30.38600
H  -4.77800 22.11500 29.88700
H  -5.90800 22.34900 31.19800
H  -4.27300 23.08000 31.28300
H  -6.63500 26.62800 30.79300
H  -5.26400 27.64000 30.61300
H  -6.59400 26.60400 32.81600
H  -5.24400 27.82000 32.78800
H  -9.52400 20.73700 26.05500
H  -8.77200 21.49300 27.44300
H  -7.91800 20.12300 26.41900
H  -9.58700 20.08000 24.19600
H  -10.20300 20.33700 22.57200
H  -10.75100 21.31500 23.91200
H  -6.33500 26.10600 20.63000
H  -3.44000 26.49400 20.88400
H  -4.11000 24.61100 19.75900
H  -5.84400 24.16600 19.64100
H  -4.90300 23.53100 20.92200
H  -5.24200 28.65100 21.73500
H  -5.78700 28.20100 20.18300
H  -4.22300 29.27500 19.01000
H  -2.89800 28.56200 19.90400
H  -3.69800 29.88500 20.62000
H  -0.45200 29.49800 25.06100
H  -1.58600 30.72700 25.87500
H  -1.84800 30.23700 24.24600
H  -3.39100 28.55300 30.04800
H  0.34500 27.96900 31.98400
H  -0.02000 26.31600 31.75900
H  -0.91700 27.13600 33.09400

