158

Mg 24.89600 -6.35700 45.68200
C  27.44700 -4.31300 44.36600
C  22.71000 -4.75700 43.58000
C  22.78500 -8.99800 46.12300
C  27.36100 -8.06900 47.45100
N  25.14200 -4.85200 44.09300
C  26.23700 -4.13600 43.73700
C  26.02900 -3.17700 42.62400
C  24.47000 -3.11600 42.62700
C  24.06700 -4.36300 43.48700
C  23.93400 -1.81100 43.17800
C  26.59400 -3.55200 41.23900
C  26.77700 -2.48900 40.19200
H  25.93300 -2.62100 38.94700
N  22.98000 -6.76100 44.96100
C  22.20100 -5.88800 44.29100
C  20.87500 -6.46000 44.25900
C  20.94100 -7.72200 44.83000
C  22.23400 -7.86600 45.39200
C  19.70600 -5.80400 43.53200
C  19.73700 -8.64100 44.96400
O  18.59700 -8.35000 44.71500
C  19.92500 -10.05000 45.51200
N  25.14500 -8.34400 46.49100
C  24.07400 -9.12600 46.65000
C  24.36400 -10.34000 47.59900
C  25.83400 -10.02900 48.03600
C  26.16700 -8.70100 47.32300
C  23.28000 -10.64100 48.75300
C  26.94700 -11.16300 47.73600
C  27.99700 -11.49900 48.81000
N  27.04700 -6.18400 46.01500
C  27.85000 -6.93900 46.76600
C  29.17800 -6.33700 46.77700
C  29.05500 -5.32100 45.81200
C  27.73700 -5.25900 45.40300
C  30.40200 -6.88900 47.56600
C  29.81400 -4.32400 45.04800
O  30.98800 -4.07800 45.00400
C  28.77800 -3.64200 44.14000
C  28.75800 -2.19400 44.34000
O  29.02200 -1.40300 43.40700
O  28.43100 -1.87800 45.61000
C  28.04900 -0.46800 45.84100
H  22.02000 -4.17800 42.96200
H  22.20700 -9.88800 46.38100
H  28.12300 -8.49400 48.10700
H  26.61500 -2.29800 42.89400
H  24.10100 -3.08800 41.60200
H  23.42400 -2.07600 44.10400
H  23.25400 -1.42500 42.41800
H  24.83100 -1.21100 43.33200
H  26.01600 -4.39500 40.86000
H  27.53100 -4.05100 41.48500
H  27.84200 -2.40100 39.97900
H  26.46600 -1.49700 40.51800
H  19.59000 -6.19400 42.52100
H  19.93500 -4.74200 43.44200
H  18.66100 -5.81400 43.84400
H  20.06700 -9.99100 46.59100
H  20.74800 -10.47600 44.93700
H  19.02900 -10.63200 45.29600
H  24.39700 -11.21200 46.94700
H  25.84200 -9.80200 49.10200
H  22.77400 -11.51700 48.34900
H  22.54900 -9.84400 48.89200
H  23.78000 -10.89900 49.68700
H  27.46400 -11.08000 46.78000
H  26.32800 -12.04300 47.56300
H  28.25700 -12.55700 48.77600
H  27.73400 -11.17700 49.81700
H  28.91800 -11.02800 48.46600
H  30.92200 -7.52700 46.85100
H  30.21700 -7.45700 48.47900
H  31.09600 -6.11700 47.89600
H  29.00600 -3.90300 43.10600
H  26.96700 -0.40900 45.95900
H  28.36600 0.18200 45.02500
H  28.50600 -0.04200 46.73400
Mg -9.70000 41.31300 41.76900
C  -8.56200 38.04900 41.12500
C  -6.80000 42.43400 40.39100
C  -11.11600 44.19800 41.87500
C  -12.76000 39.85200 43.01000
N  -8.03400 40.34800 40.73700
C  -7.75400 38.97900 40.63800
C  -6.38200 38.71000 39.82900
C  -5.80400 40.12400 39.83300
C  -6.90800 41.00500 40.39000
C  -4.42400 40.45200 40.59900
C  -6.59700 38.04900 38.40300
C  -5.85600 36.72700 38.04000
H  -4.99100 36.86700 36.75000
N  -9.05200 43.11900 41.20500
C  -7.84800 43.39700 40.68600
C  -7.72900 44.81200 40.51800
C  -8.99400 45.39200 40.89700
C  -9.81100 44.25900 41.30300
C  -6.43900 45.49400 39.84100
C  -9.35900 46.87600 40.86600
O  -8.55800 47.72300 40.43900
C  -10.68700 47.32600 41.21200
N  -11.68900 41.92100 42.29700
C  -11.88600 43.23400 42.40100
C  -13.31500 43.50400 42.85300
C  -13.62600 42.19300 43.67300
C  -12.64200 41.25700 42.96000
C  -13.55000 44.87100 43.64500
C  -15.13300 41.71300 43.47300
C  -15.92300 41.20800 44.68100
N  -10.55300 39.30900 42.07200
C  -11.81900 38.90400 42.51200
C  -11.71500 37.40500 42.59800
C  -10.44800 37.06600 42.08000
C  -9.82800 38.27200 41.72200
C  -12.84600 36.51400 43.12500
C  -9.55200 35.97500 41.84000
O  -9.71800 34.74500 42.04300
C  -8.34600 36.53200 41.10900
C  -7.16700 35.97300 41.85400
O  -6.42700 36.54300 42.62900
O  -6.85000 34.83900 41.14600
C  -5.56200 34.23800 41.43300
H  -5.81600 42.76400 40.05400
H  -11.52000 45.20300 42.01400
H  -13.57800 39.37900 43.55900
H  -5.66400 38.10300 40.38100
H  -5.60300 40.49600 38.82900
H  -3.82900 41.13100 39.98800
H  -3.99100 39.45500 40.67200
H  -4.57500 40.75000 41.63700
H  -6.36600 38.81100 37.65900
H  -7.66100 37.88900 38.23300
H  -6.69700 36.06700 37.82600
H  -5.20300 36.40800 38.85300
H  -6.47200 46.56200 39.62600
H  -6.11000 44.98700 38.93400
H  -5.63100 45.26800 40.53700
H  -10.86500 48.38400 41.01800
H  -10.92800 47.26400 42.27300
H  -11.48400 46.79300 40.69300
H  -13.80200 43.57400 41.88100
H  -13.43000 42.35800 44.73200
H  -13.96200 45.57100 42.91900
H  -12.64600 45.35000 44.02100
H  -14.26200 44.71000 44.45500
H  -15.22000 40.87700 42.77900
H  -15.71400 42.51900 43.02500
H  -16.82300 41.82100 44.71400
H  -15.31700 41.48400 45.54400
H  -16.01000 40.12300 44.74600
H  -13.55400 37.24600 43.51300
H  -12.56600 35.82300 43.92100
H  -13.12900 35.89100 42.27600
H  -8.29700 36.22200 40.06500
H  -5.49000 33.41200 40.72600
H  -5.56100 33.76000 42.41200
H  -4.80500 35.01800 41.34700

