158

Mg 1.52500 8.47600 25.79300
C  2.33200 10.37800 28.59600
C  1.95100 5.65100 27.64400
C  1.38700 6.56200 23.06400
C  1.54300 11.34300 23.86800
N  2.00200 8.05900 27.81900
C  2.21700 8.99800 28.81800
C  2.28500 8.37700 30.20800
C  2.35600 6.88600 29.81600
C  2.12600 6.85600 28.30600
C  3.75100 6.11800 30.12300
C  1.07200 8.87600 30.92100
C  1.12600 8.79500 32.49500
H  2.42500 8.15500 33.11000
N  1.39300 6.40400 25.41700
C  1.61600 5.37500 26.27200
C  1.37500 4.10300 25.68500
C  1.16500 4.39400 24.32500
C  1.30500 5.88400 24.19600
C  1.33100 2.83700 26.53600
C  0.83800 3.43900 23.21900
O  0.59000 3.75200 22.07300
C  0.93600 1.93600 23.60100
N  1.44800 8.93100 23.76300
C  1.43800 7.94400 22.81700
C  1.24900 8.56400 21.40700
C  0.96200 10.02000 21.73300
C  1.36700 10.12600 23.22500
C  2.52400 8.26100 20.60300
C  -0.56100 10.45100 21.53800
C  -0.97200 10.95000 20.17200
N  1.89800 10.44400 26.11600
C  1.94000 11.52900 25.21500
C  2.35400 12.74200 25.93100
C  2.41700 12.33600 27.30800
C  2.16900 10.93000 27.36400
C  2.30300 14.08000 25.35600
C  2.75600 12.86200 28.64600
O  3.16400 13.97100 28.96300
C  2.56000 11.64300 29.57000
C  3.79700 11.54400 30.44500
O  4.89400 11.25800 30.06000
O  3.39400 11.90000 31.67600
C  4.48500 12.23900 32.55800
H  2.17400 4.76100 28.23700
H  1.47300 5.78800 22.29800
H  1.33200 12.25100 23.29900
H  3.17100 8.72600 30.73700
H  1.51100 6.28700 30.15500
H  3.50100 5.33000 30.83300
H  4.53100 6.71900 30.59100
H  4.18300 5.69000 29.21800
H  0.28000 8.19300 30.61400
H  0.70000 9.86800 30.66800
H  0.34200 8.12400 32.84700
H  1.05000 9.82000 32.85700
H  1.43400 2.98900 27.61000
H  2.25100 2.34600 26.21700
H  0.53400 2.10400 26.41600
H  1.81800 1.79300 24.22400
H  1.21100 1.54500 22.62200
H  0.01300 1.47500 23.95400
H  0.49000 8.00700 20.85600
H  1.52800 10.56300 20.97700
H  3.21200 8.03800 21.41800
H  2.89300 9.10700 20.02300
H  2.38200 7.32900 20.05600
H  -0.79500 11.13500 22.35400
H  -1.20100 9.64600 21.90100
H  -0.17700 10.67900 19.47700
H  -1.12100 12.01200 19.97700
H  -1.86900 10.38600 19.91700
H  1.22500 14.22400 25.41700
H  2.53700 14.10300 24.29100
H  2.96500 14.84100 25.76800
H  1.63900 11.89200 30.09600
H  5.04000 13.04700 32.08200
H  5.27100 11.53300 32.82700
H  4.08900 12.68600 33.47000
Mg 47.31200 14.39400 28.18600
C  45.14700 14.41000 30.84200
C  49.40900 16.43900 29.87300
C  49.13500 14.77500 25.32900
C  44.97800 12.39200 26.30600
N  47.24600 15.36600 30.17100
C  46.35500 15.11600 31.16600
C  46.83900 15.70200 32.48400
C  48.06400 16.61800 32.08100
C  48.29400 16.09000 30.63700
C  47.86600 18.20400 32.24800
C  47.09000 14.58400 33.54800
C  47.04000 15.09000 35.02500
H  48.34300 15.06400 35.86200
N  49.17900 15.31700 27.74600
C  49.86800 16.06200 28.59100
C  51.14400 16.43500 27.95900
C  51.01800 16.05600 26.61400
C  49.77100 15.33600 26.46800
C  52.21800 17.19800 28.72400
C  51.92000 16.21400 25.43300
O  51.65700 15.82500 24.29100
C  53.23000 16.88300 25.69900
N  47.17400 13.59400 26.20100
C  47.92400 14.07000 25.20100
C  47.55000 13.42000 23.80100
C  46.34900 12.53500 24.10500
C  46.16800 12.74800 25.67600
C  47.32600 14.38100 22.61000
C  46.51400 11.06000 23.70500
C  47.04300 10.03100 24.76300
N  45.47200 13.54700 28.45600
C  44.61300 12.79300 27.64900
C  43.41800 12.46700 28.29400
C  43.58800 13.06000 29.55800
C  44.86800 13.65700 29.64400
C  42.24700 11.52400 27.86000
C  42.98000 13.23800 30.81300
O  41.94000 12.82000 31.24200
C  43.98100 14.09400 31.76000
C  43.36400 15.29500 32.09900
O  43.06400 16.12900 31.25200
O  43.13800 15.33600 33.48100
C  42.84300 16.66900 33.97900
H  50.11800 17.08300 30.39600
H  49.49400 14.97300 24.31700
H  44.21600 11.92900 25.67400
H  45.99800 16.31800 32.80200
H  48.82900 16.21700 32.74700
H  48.56500 18.79400 31.65400
H  48.12100 18.34000 33.29900
H  46.85500 18.55100 32.03700
H  48.07100 14.15000 33.35300
H  46.31200 13.82400 33.48700
H  46.31100 14.42000 35.48100
H  46.55700 16.06700 34.99700
H  53.20900 16.81400 28.48300
H  52.10500 17.10700 29.80400
H  52.22400 18.22900 28.37200
H  52.99600 17.85400 26.13400
H  53.74300 17.10200 24.76300
H  53.85300 16.45700 26.48600
H  48.34800 12.74700 23.48600
H  45.50800 12.94500 23.54400
H  46.35800 14.37200 22.11000
H  48.05200 14.16500 21.82600
H  47.43100 15.43600 22.86100
H  47.06400 10.91100 22.77500
H  45.46600 10.81900 23.52900
H  47.18100 10.50500 25.73500
H  47.92800 9.54800 24.34900
H  46.32700 9.21700 24.86800
H  41.82800 11.59700 26.85700
H  41.52400 11.82200 28.61900
H  42.55600 10.48500 27.98100
H  44.26200 13.59300 32.68600
H  43.73800 17.25300 34.19200
H  42.33300 16.52300 34.93100
H  42.17600 17.16900 33.27800

