158

Mg 50.68100 45.29200 42.34700
C  47.79900 47.03000 41.03900
C  49.54600 42.39100 40.98000
C  53.74600 44.03200 42.58000
C  51.94400 48.55600 42.98000
N  48.95900 44.83700 41.11300
C  47.82200 45.65500 40.81300
C  46.67400 44.82400 40.15300
C  47.08800 43.31600 40.36000
C  48.65600 43.52100 40.84800
C  46.31200 42.49800 41.45700
C  46.44000 45.08600 38.65500
C  44.99700 45.02800 38.16200
H  44.63700 43.86500 37.27100
N  51.53400 43.40200 41.90000
C  50.83200 42.34700 41.42500
C  51.76700 41.25900 41.38400
C  53.01700 41.72600 41.77500
C  52.83400 43.12500 42.03600
C  51.41400 39.94800 40.83600
C  54.26100 40.93600 41.81100
O  54.23000 39.70300 41.68100
C  55.63200 41.48300 41.93800
N  52.49800 46.14700 42.81800
C  53.66900 45.38100 42.93700
C  54.89400 46.18400 43.36500
C  54.28300 47.59500 43.67000
C  52.85300 47.44400 43.08900
C  55.59400 45.51500 44.52300
C  55.01300 48.81500 42.97300
C  55.13700 50.06300 43.78600
N  49.96800 47.37600 42.23800
C  50.62600 48.56000 42.52100
C  49.82900 49.68800 42.23900
C  48.62500 49.12100 41.76200
C  48.80400 47.76300 41.74100
C  50.28900 51.18100 42.33600
C  47.44100 49.45800 41.05700
O  47.05400 50.61100 40.80200
C  46.82800 48.11500 40.55400
C  45.52100 48.11600 41.22000
O  45.28600 48.38800 42.41800
O  44.53700 47.99000 40.26400
C  43.17300 48.12000 40.67500
H  49.06700 41.43300 40.77000
H  54.79400 43.72700 42.60300
H  52.37100 49.50900 43.29800
H  45.83500 45.03200 40.81700
H  47.11900 42.68800 39.47000
H  45.34900 42.94200 41.70700
H  46.82400 42.43000 42.41700
H  46.01300 41.53400 41.04300
H  46.99000 44.33300 38.09000
H  46.86300 46.00900 38.25800
H  44.83300 45.95300 37.60900
H  44.32400 44.92900 39.01400
H  52.00700 39.63000 39.97900
H  50.37900 39.90100 40.49900
H  51.36100 39.09000 41.50600
H  55.61900 41.98500 42.90500
H  55.74900 42.24300 41.16600
H  56.48700 40.81300 41.84600
H  55.58300 46.21700 42.52100
H  54.06500 47.65500 44.73600
H  55.84100 46.28800 45.25200
H  56.51700 45.02400 44.21900
H  54.94800 44.78600 45.01300
H  54.43100 49.10100 42.09700
H  56.04400 48.52300 42.77200
H  56.11200 50.11900 44.27100
H  54.30100 49.98300 44.48000
H  54.91000 50.90600 43.13300
H  50.47600 51.49300 43.36400
H  49.55300 51.80500 41.83000
H  51.24900 51.19700 41.82000
H  46.77800 48.10500 39.46600
H  42.87400 47.16100 41.09700
H  42.52100 48.30800 39.82200
H  43.00600 48.97900 41.32500
Mg -9.87900 16.83500 41.66900
C  -6.22900 16.57800 41.77700
C  -9.46700 20.33700 41.51700
C  -12.90700 16.77700 40.70700
C  -9.75700 13.26500 41.63700
N  -8.16400 18.23200 41.52500
C  -6.77200 17.90300 41.65200
C  -5.99400 19.15700 41.53800
C  -6.97300 20.24800 42.03000
C  -8.28200 19.59200 41.58900
C  -7.03100 20.55800 43.56200
C  -5.57000 19.34700 40.07900
C  -4.09100 18.83400 39.69500
H  -3.90900 18.03100 38.42300
N  -11.01900 18.36000 41.15800
C  -10.70000 19.71800 41.16900
C  -11.90000 20.37800 40.83200
C  -12.96000 19.41500 40.70800
C  -12.37100 18.07000 40.81500
C  -11.92700 21.93300 40.57700
C  -14.41100 19.71800 40.49400
O  -14.77700 20.82400 40.14100
C  -15.46100 18.66600 40.32300
N  -11.11500 15.17000 41.04100
C  -12.36400 15.51300 40.80100
C  -13.19000 14.24800 40.55700
C  -12.20100 13.07800 41.01300
C  -10.98400 13.83300 41.27900
C  -14.50800 14.26200 41.25400
C  -12.07500 11.97600 40.02100
C  -12.89400 10.67500 40.26700
N  -8.31400 15.15000 41.80900
C  -8.43600 13.78300 41.91500
C  -7.15600 13.11400 42.13300
C  -6.26500 14.18700 42.13400
C  -6.99000 15.38400 41.83300
C  -6.81500 11.72400 42.23300
C  -4.87500 14.58000 42.28000
O  -3.86600 13.97200 42.55900
C  -4.78300 16.10100 42.02000
C  -4.07500 16.80200 43.10200
O  -3.05900 17.46200 42.99400
O  -4.66200 16.63800 44.36100
C  -4.01800 17.22900 45.53500
H  -9.33800 21.42200 41.52900
H  -13.89400 16.71500 40.24200
H  -9.81500 12.19200 41.83300
H  -5.14900 19.12200 42.22600
H  -6.85000 21.15800 41.44200
H  -6.15300 20.32900 44.16600
H  -7.85200 20.05100 44.06700
H  -7.09300 21.62800 43.76400
H  -5.68800 20.41800 39.91200
H  -6.22000 18.72500 39.46300
H  -3.70000 18.32800 40.57700
H  -3.58100 19.78800 39.56200
H  -12.00700 22.47300 41.52000
H  -12.87600 22.30200 40.19000
H  -11.12200 22.35900 39.97900
H  -15.50900 18.06400 39.41600
H  -16.47100 19.07800 40.31100
H  -15.37300 17.99900 41.18000
H  -13.36700 14.25100 39.48100
H  -12.48500 12.63900 41.96900
H  -15.35500 14.39300 40.58100
H  -14.46600 15.05500 42.00000
H  -14.73200 13.33200 41.77600
H  -11.02000 11.73700 39.88600
H  -12.42800 12.34400 39.05700
H  -13.31100 10.71400 41.27400
H  -12.29800 9.77900 40.09500
H  -13.69000 10.57400 39.52900
H  -5.90400 11.62200 42.82400
H  -6.47100 11.39900 41.25100
H  -7.60700 11.03000 42.51300
H  -4.21300 16.22100 41.09800
H  -3.09300 16.66600 45.66000
H  -4.61900 17.12300 46.43800
H  -3.82800 18.29500 45.41100

