158

Mg -0.34400 43.49600 26.91900
C  2.05700 43.26500 29.34800
C  -2.70900 42.31100 29.19300
C  -2.68900 43.46800 24.37400
C  2.16400 44.13800 24.61700
N  -0.31600 42.85500 29.03500
C  0.76600 43.15500 29.86200
C  0.38500 43.15200 31.34600
C  -1.08600 42.55400 31.31300
C  -1.45000 42.61300 29.79700
C  -1.16000 41.07800 31.79900
C  0.45700 44.58600 32.03500
C  0.72100 44.47900 33.49800
H  0.43100 43.30900 34.37200
N  -2.44000 43.00800 26.77400
C  -3.14400 42.45500 27.85800
C  -4.45400 42.03400 27.23400
C  -4.45300 42.48400 25.89100
C  -3.16800 43.05500 25.64700
C  -5.46800 41.34900 28.17400
C  -5.56700 42.20300 24.96600
O  -5.39600 42.43000 23.76500
C  -6.85100 41.44300 25.30200
N  -0.29800 43.66100 24.77600
C  -1.40800 43.72700 23.99400
C  -1.00800 43.97300 22.55400
C  0.46100 44.37400 22.66600
C  0.80600 44.02200 24.12100
C  -1.18200 42.78200 21.53500
C  0.78500 45.82700 22.29100
C  0.24200 46.88900 23.24200
N  1.72800 43.55800 26.87700
C  2.64400 43.75800 25.86600
C  4.00700 43.71400 26.36200
C  3.78500 43.56200 27.76100
C  2.45400 43.49400 28.03700
C  5.25700 43.70800 25.46000
C  4.52100 43.41000 29.01100
O  5.69100 43.44200 29.15400
C  3.40700 43.39500 30.15700
C  3.62100 42.18300 30.99800
O  3.45600 41.04600 30.55100
O  4.21400 42.55400 32.16700
C  4.81100 41.43900 32.98400
H  -3.35100 41.99000 30.01600
H  -3.32300 43.31700 23.49800
H  2.88300 44.55000 23.90600
H  1.10800 42.48900 31.82100
H  -1.74300 43.16800 31.92900
H  -0.35700 40.46600 31.38900
H  -2.09200 40.75900 31.33300
H  -1.14500 40.98100 32.88500
H  -0.51000 45.08000 31.92900
H  1.21100 45.20200 31.54400
H  0.43400 45.43500 33.93400
H  1.80800 44.54800 33.52800
H  -6.39800 41.91500 28.10100
H  -5.24500 41.25400 29.23700
H  -5.67600 40.33500 27.83500
H  -7.37700 42.25700 25.80000
H  -6.66400 40.61600 25.98700
H  -7.38500 41.10000 24.41600
H  -1.69000 44.70000 22.11200
H  1.17200 43.79300 22.07800
H  -2.25600 42.60900 21.60300
H  -0.51500 42.02500 21.94700
H  -0.84500 42.96900 20.51500
H  0.32900 45.94100 21.30800
H  1.85800 45.80700 22.10100
H  -0.60900 47.40000 22.79200
H  1.16100 47.46100 23.36600
H  -0.15900 46.44800 24.15500
H  5.35700 42.77200 24.91000
H  6.10700 43.81000 26.13400
H  5.31300 44.57800 24.80600
H  3.38700 44.36400 30.65500
H  4.41200 40.47500 32.66900
H  4.48500 41.58900 34.01300
H  5.88300 41.42600 32.78600
Mg -9.51700 17.68900 42.24100
C  -6.16300 17.27100 42.55400
C  -9.11200 20.96800 41.45200
C  -12.85500 17.89300 41.40800
C  -9.85800 14.16400 42.20800
N  -7.81400 18.92300 42.07000
C  -6.52300 18.61200 42.36600
C  -5.59300 19.87100 42.27300
C  -6.64400 20.99600 42.29400
C  -7.95700 20.26800 41.91000
C  -6.73400 21.72400 43.70700
C  -4.70000 19.84400 40.94700
C  -5.03200 18.77000 39.91000
H  -4.62000 19.15300 38.52800
N  -10.78100 19.25000 41.57400
C  -10.39200 20.46100 41.20600
C  -11.55000 21.26600 40.82000
C  -12.68600 20.46600 40.91900
C  -12.12600 19.12100 41.29700
C  -11.41500 22.73500 40.40200
C  -14.11000 20.87000 40.76700
O  -14.42800 22.04100 40.52400
C  -15.38300 19.94700 40.93800
N  -11.10100 16.26200 41.84600
C  -12.39300 16.63100 41.74800
C  -13.35400 15.45900 41.72300
C  -12.36200 14.22500 41.84100
C  -10.95900 14.88200 41.98500
C  -14.36700 15.47600 42.87700
C  -12.33400 13.39100 40.46700
C  -12.83600 11.86900 40.51200
N  -8.28100 16.03400 42.40400
C  -8.55400 14.67000 42.45100
C  -7.30600 13.97600 42.67900
C  -6.33800 14.93300 42.85300
C  -7.01100 16.17000 42.64200
C  -7.09800 12.47000 42.74100
C  -4.94600 15.28400 43.04500
O  -3.96400 14.58000 43.12200
C  -4.79500 16.85000 42.99400
C  -4.43300 17.33100 44.35000
O  -3.43600 17.99300 44.54300
O  -5.41300 16.96900 45.25200
C  -5.08100 17.28600 46.71100
H  -9.08700 22.05900 41.42800
H  -13.86500 17.81900 41.00000
H  -10.00000 13.08400 42.27700
H  -4.81900 19.90600 43.04000
H  -6.58300 21.70400 41.46700
H  -5.91100 21.58700 44.40900
H  -7.68500 21.50100 44.19000
H  -6.60800 22.78000 43.46700
H  -3.68300 19.70800 41.31400
H  -4.90200 20.82000 40.50400
H  -6.08100 18.47300 39.90500
H  -4.51000 17.83800 40.12600
H  -10.75800 22.80200 39.53500
H  -11.12800 23.32800 41.27100
H  -12.34300 23.23800 40.12700
H  -15.45700 19.02300 40.36500
H  -16.21200 20.57300 40.60800
H  -15.50000 19.72700 41.99900
H  -14.02200 15.46200 40.86200
H  -12.70400 13.61500 42.67700
H  -14.52000 14.53200 43.39900
H  -15.31600 15.85600 42.49900
H  -14.00400 16.15000 43.65300
H  -11.31700 13.34700 40.07700
H  -12.89900 13.92900 39.70500
H  -13.13400 11.61300 41.52900
H  -12.00700 11.24300 40.18000
H  -13.71100 11.93600 39.86600
H  -7.37500 12.34700 43.78800
H  -6.08800 12.14200 42.49700
H  -7.72400 11.77700 42.17900
H  -4.05500 17.12700 42.24300
H  -5.96400 17.80000 47.09200
H  -4.26100 17.99600 46.81900
H  -4.91200 16.33600 47.21700

