158

Mg -2.75600 17.18000 25.79400
C  -2.99500 14.94800 28.52200
C  -2.98500 19.75600 28.03500
C  -2.53700 19.32900 23.13900
C  -2.98100 14.53500 23.61200
N  -3.00200 17.30300 28.04000
C  -2.97400 16.26100 28.90200
C  -3.08300 16.85500 30.30900
C  -3.17800 18.40800 30.12400
C  -3.02400 18.56200 28.63200
C  -4.50800 19.03800 30.77500
C  -1.92800 16.40500 31.23200
C  -1.62500 17.17300 32.51700
H  -1.08100 16.37900 33.70800
N  -2.76600 19.24100 25.58600
C  -2.81700 20.15200 26.65400
C  -2.74000 21.53100 26.08400
C  -2.55400 21.37500 24.67000
C  -2.65700 19.96300 24.42700
C  -2.94500 22.73900 26.98400
C  -2.21000 22.40000 23.60400
O  -1.75500 22.19100 22.44000
C  -2.29000 23.85300 24.02000
N  -3.01900 17.01100 23.68400
C  -2.83900 18.01900 22.78700
C  -2.92600 17.48500 21.31200
C  -3.01500 15.88300 21.50300
C  -2.99300 15.78100 23.03600
C  -3.98600 18.07200 20.37400
C  -2.06200 14.98000 20.68100
C  -2.61100 14.36800 19.35100
N  -3.03200 15.21200 25.94100
C  -2.96600 14.25400 24.99100
C  -2.94200 12.88200 25.57200
C  -2.94500 13.15700 26.95100
C  -3.01900 14.56500 27.14600
C  -2.88100 11.53200 24.87900
C  -3.02800 12.48300 28.26500
O  -3.13600 11.28700 28.50000
C  -3.14500 13.61000 29.28700
C  -2.09400 13.36200 30.22700
O  -0.89200 13.71900 30.11900
O  -2.50300 12.58300 31.25200
C  -1.52000 11.94700 32.10600
H  -3.09300 20.57400 28.75000
H  -2.40800 19.94600 22.24700
H  -3.08600 13.78200 22.82800
H  -3.89700 16.34800 30.82700
H  -2.33200 18.89900 30.60600
H  -4.56000 19.53700 31.74300
H  -5.30200 18.29400 30.83900
H  -4.85700 19.89700 30.20100
H  -1.02200 16.65200 30.67900
H  -2.09500 15.38000 31.56300
H  -2.47900 17.70100 32.94100
H  -0.71900 17.76500 32.38800
H  -3.29800 22.49200 27.98500
H  -3.67900 23.44300 26.59300
H  -2.01600 23.27100 27.18900
H  -3.32800 24.07400 24.27100
H  -1.78400 24.50400 23.30700
H  -1.74300 23.83600 24.96300
H  -1.97500 17.62300 20.79800
H  -4.00700 15.60900 21.14400
H  -4.92600 17.52000 20.40800
H  -3.57000 17.87800 19.38600
H  -4.29100 19.11500 20.46300
H  -1.71300 14.15400 21.30100
H  -1.10700 15.45100 20.44700
H  -3.51300 14.97100 19.24700
H  -2.78200 13.31400 19.57400
H  -1.93700 14.42100 18.49600
H  -2.43300 11.50900 23.88600
H  -3.86400 11.07200 24.97800
H  -2.24300 10.85700 25.44900
H  -4.11700 13.46900 29.76100
H  -2.11700 11.47600 32.88700
H  -0.78700 12.66700 32.47000
H  -0.91300 11.14700 31.68200
Mg 48.60500 36.02600 28.26500
C  46.73400 34.29600 30.60100
C  48.64400 38.73900 30.25300
C  49.94600 37.78700 25.77000
C  48.29500 33.30200 26.07100
N  47.67300 36.44800 30.17700
C  47.12500 35.54300 31.07200
C  46.88100 36.19200 32.45600
C  47.25200 37.69000 32.24300
C  47.86900 37.61900 30.80100
C  46.15300 38.83000 32.38500
C  47.78500 35.47900 33.62000
C  49.08800 36.01200 34.17400
H  49.11500 36.73200 35.54700
N  49.33900 37.95100 28.08200
C  49.29100 38.90900 29.00400
C  50.04400 40.14500 28.61100
C  50.47400 39.85500 27.26400
C  49.91800 38.52500 26.96200
C  50.25700 41.34000 29.41600
C  51.29800 40.65100 26.27000
O  51.71900 40.19300 25.25600
C  51.67400 42.03800 26.65600
N  48.93600 35.59900 26.25400
C  49.44600 36.55000 25.46800
C  49.65100 36.03100 24.02000
C  49.42900 34.44900 24.11100
C  48.81700 34.45600 25.51600
C  48.67600 36.68400 22.99800
C  50.81800 33.73600 23.96500
C  51.50500 33.82500 22.61600
N  47.72400 34.13800 28.25900
C  47.71800 33.14700 27.30900
C  46.98700 32.00200 27.82100
C  46.57500 32.42800 29.09100
C  46.97000 33.75600 29.27600
C  46.84300 30.71000 27.17700
C  45.81800 32.07900 30.26200
O  45.23200 31.01300 30.50000
C  45.77400 33.27500 31.25400
C  46.16500 32.75800 32.58800
O  47.08300 31.98100 32.80100
O  45.19300 33.16900 33.44400
C  45.25200 32.51000 34.79200
H  48.68600 39.58500 30.94200
H  50.41900 38.34400 24.95800
H  48.23600 32.46000 25.37900
H  45.87300 36.06000 32.84800
H  48.06300 37.95400 32.92200
H  46.54200 39.84800 32.34700
H  45.56600 38.66900 33.28900
H  45.50000 38.74000 31.51700
H  48.06600 34.50900 33.21000
H  47.02200 35.25900 34.36700
H  49.55000 36.64900 33.41800
H  49.78000 35.17400 34.09600
H  49.39500 41.99100 29.27200
H  51.22800 41.81600 29.28000
H  50.22200 41.05000 30.46700
H  52.00600 42.45800 25.70700
H  52.38400 42.05400 27.48300
H  50.75200 42.54500 26.94200
H  50.67700 36.29200 23.76000
H  48.62100 34.00100 23.53200
H  49.17900 37.50600 22.48800
H  47.86300 37.07900 23.60600
H  48.30500 35.92900 22.30500
H  50.57300 32.67900 23.85600
H  51.56100 33.73700 24.76300
H  51.66600 34.79700 22.15000
H  50.89600 33.25100 21.91700
H  52.47200 33.32400 22.64300
H  47.59700 30.11200 27.68900
H  47.00300 30.73100 26.09900
H  45.83900 30.36000 27.41700
H  44.71000 33.50600 31.30400
H  45.54700 31.48500 34.56600
H  44.23700 32.45000 35.18400
H  45.92100 32.86800 35.57500

