158

Mg 41.40900 9.03200 30.13700
C  43.43900 10.00500 32.86300
C  38.92500 8.06100 32.45900
C  39.61300 8.14100 27.66800
C  44.11500 9.62400 27.99700
N  41.23700 9.02800 32.40000
C  42.14400 9.59600 33.27700
C  41.54800 9.64800 34.70400
C  40.18100 8.82000 34.57700
C  40.12800 8.60300 33.06200
C  40.14200 7.52500 35.41900
C  41.49400 11.11900 35.33700
C  40.65400 11.36500 36.59000
H  41.29300 12.34200 37.56600
N  39.51200 8.16200 30.08500
C  38.62300 7.84800 31.10100
C  37.44100 7.23500 30.51000
C  37.63900 7.24700 29.12000
C  38.95100 7.82300 28.85500
C  36.36100 6.60900 31.25700
C  36.72600 6.72100 28.02700
O  37.14400 6.38100 26.97800
C  35.19700 6.63600 28.31700
N  41.78600 8.87200 28.04000
C  40.85900 8.51300 27.25300
C  41.24400 8.67300 25.81100
C  42.64700 9.29300 25.89400
C  42.92400 9.18200 27.40100
C  41.03200 7.48100 24.83300
C  42.79800 10.70400 25.38300
C  44.12300 11.09300 24.78500
N  43.41400 9.63100 30.34400
C  44.42400 9.75700 29.37800
C  45.60800 10.20300 30.02500
C  45.29100 10.34000 31.37800
C  43.93000 9.96300 31.56000
C  46.88700 10.53300 29.40700
C  45.79900 10.82200 32.64700
O  46.85000 11.28600 32.97200
C  44.55200 10.74700 33.61000
C  45.09300 10.17300 34.83100
O  45.49000 9.03400 34.91300
O  45.18700 11.11300 35.83200
C  46.00900 10.91000 37.05400
H  38.13500 7.88300 33.19100
H  39.12800 7.82100 26.74400
H  44.97600 9.95300 27.41100
H  42.30900 9.15700 35.31100
H  39.28200 9.32200 34.93400
H  40.08800 6.63600 34.79200
H  39.29100 7.55000 36.09900
H  40.98400 7.47400 36.11000
H  40.95500 11.59100 34.51600
H  42.51400 11.50300 35.37000
H  40.64300 10.39100 37.08000
H  39.66200 11.68800 36.27400
H  35.42500 7.16000 31.35300
H  36.74500 6.49900 32.27100
H  36.09400 5.65900 30.79400
H  34.64700 7.55900 28.50200
H  34.87100 6.03900 29.16900
H  34.68300 6.19600 27.46300
H  40.61900 9.47000 25.40800
H  43.32000 8.56100 25.44700
H  40.58400 6.65400 25.38300
H  41.97800 7.20900 24.36600
H  40.30800 7.85300 24.10800
H  42.63100 11.39000 26.21400
H  41.99800 10.85300 24.65800
H  44.47900 12.00300 25.26700
H  44.19700 11.33600 23.72500
H  44.87500 10.34700 25.04100
H  47.12700 11.58300 29.24000
H  46.90000 10.13300 28.39300
H  47.72300 10.11500 29.96800
H  44.27800 11.78400 33.80300
H  45.38100 10.95000 37.94300
H  46.84800 11.59000 37.20300
H  46.38900 9.88900 37.07500
Mg 50.07200 45.35500 41.11300
C  46.85400 46.07900 40.10500
C  49.70100 42.11400 39.98700
C  53.54100 44.82900 41.22400
C  50.71900 48.77900 41.63200
N  48.39600 44.18000 40.23600
C  47.08900 44.67700 39.95500
C  46.23500 43.51100 39.38500
C  47.17200 42.23300 39.50400
C  48.49800 42.88100 39.92700
C  46.55900 41.17900 40.53100
C  45.71100 43.68400 37.96900
C  44.61500 42.70600 37.48000
H  44.91900 41.88500 36.21900
N  51.34600 43.67700 40.82900
C  51.00800 42.41700 40.31400
C  52.19100 41.57600 40.27800
C  53.29300 42.41400 40.72500
C  52.74600 43.72900 40.95800
C  52.24000 40.11200 39.87400
C  54.65500 41.87600 40.96800
O  54.85800 40.66100 40.86900
C  55.88500 42.60600 41.56200
N  51.85800 46.61100 41.33500
C  53.15300 46.13400 41.36500
C  54.15600 47.26800 41.66000
C  53.19500 48.44300 41.99700
C  51.83700 47.87900 41.68300
C  55.31300 46.98700 42.72700
C  53.48600 49.76400 41.26900
C  53.27900 51.06400 42.07500
N  49.06200 47.08400 41.02700
C  49.41800 48.39500 41.24300
C  48.28000 49.31400 41.13400
C  47.25900 48.39500 40.59500
C  47.76800 47.07200 40.59100
C  48.28200 50.75600 41.31300
C  45.88100 48.37400 40.05500
O  45.09400 49.29800 39.76800
C  45.60600 46.91100 39.83000
C  44.45900 46.50300 40.80500
O  44.48000 46.55200 41.99900
O  43.43400 46.12700 40.02400
C  42.13500 45.84700 40.69000
H  49.56900 41.06400 39.72000
H  54.62400 44.70100 41.27700
H  50.84900 49.79300 42.01600
H  45.29800 43.43200 39.93600
H  47.17400 41.71700 38.54400
H  46.27800 40.26600 40.00600
H  45.63900 41.51800 41.00700
H  47.28700 41.02200 41.32700
H  46.52800 43.46900 37.28000
H  45.28100 44.68300 37.90300
H  43.75600 43.32100 37.21100
H  44.31200 42.01500 38.26700
H  51.38100 39.87000 39.24800
H  52.12800 39.49300 40.76400
H  53.19800 39.92800 39.38900
H  55.54500 43.28500 42.34400
H  56.32400 43.23400 40.78700
H  56.59300 41.90200 41.99800
H  54.76100 47.55100 40.79900
H  53.25700 48.62500 43.07000
H  55.44800 47.86700 43.35400
H  56.21000 46.67000 42.19600
H  55.01000 46.20000 43.41800
H  52.79300 49.79000 40.42800
H  54.54500 49.78900 41.01300
H  52.85700 50.86900 43.06100
H  52.47300 51.55600 41.53000
H  54.16400 51.70000 42.08200
H  47.38100 51.01900 41.86700
H  48.10100 51.09500 40.29300
H  49.18300 51.26300 41.65900
H  45.40000 46.78800 38.76600
H  41.74700 44.96800 40.17700
H  41.48000 46.67700 40.42500
H  42.17900 45.65800 41.76300

