158

Mg 53.91600 23.98500 44.82900
C  50.93200 25.79100 44.00800
C  52.28100 21.16800 43.96700
C  56.81500 22.31000 45.24300
C  55.58100 27.00400 45.44000
N  51.92600 23.60800 43.97100
C  50.85200 24.42800 43.72700
C  49.69300 23.66300 43.24400
C  49.97300 22.15500 43.72200
C  51.49200 22.34700 43.91300
C  49.15600 21.69700 45.00100
C  49.55500 23.91800 41.69100
C  48.20900 23.94600 41.04200
H  48.03800 23.23600 39.68600
N  54.44800 22.08000 44.54300
C  53.64800 21.01300 44.27400
C  54.32100 19.79700 44.35900
C  55.58900 20.11600 44.82500
C  55.66300 21.56700 44.82300
C  53.68400 18.46800 43.94900
C  56.65600 19.05900 45.24500
O  56.37800 17.85500 45.19100
C  57.93900 19.42000 45.86400
N  55.99200 24.57700 45.08800
C  57.00600 23.69500 45.30700
C  58.24000 24.46400 45.69100
C  57.80900 25.96200 45.85600
C  56.34300 25.83800 45.38800
C  59.03300 23.76000 46.91700
C  58.78500 27.03700 45.14700
C  59.24900 28.22400 46.04300
N  53.41600 25.97900 44.69300
C  54.20700 27.08400 45.14600
C  53.24200 28.24100 45.17500
C  51.98900 27.75800 44.80100
C  52.13600 26.35600 44.46400
C  53.71700 29.62800 45.62500
C  50.56800 28.13100 44.66200
O  50.05200 29.22600 44.82900
C  49.87900 26.93300 43.96900
C  49.43900 27.36500 42.69800
O  50.11300 27.58600 41.70000
O  48.03500 27.34600 42.63400
C  47.51000 27.90500 41.39500
H  51.70000 20.27300 43.73800
H  57.72000 21.72400 45.41000
H  55.99000 27.92400 45.86400
H  48.79900 23.95800 43.79300
H  49.69400 21.47100 42.92000
H  49.74400 21.90400 45.89500
H  48.78800 20.67400 44.92200
H  48.31900 22.35500 45.23600
H  50.23300 23.21100 41.21400
H  49.89600 24.93100 41.47900
H  47.80800 24.95000 40.90100
H  47.55600 23.42200 41.74000
H  54.50000 17.79300 43.69300
H  52.98200 18.59000 43.12400
H  53.19200 18.12800 44.86100
H  58.66100 19.92900 45.22700
H  58.36900 18.49100 46.23900
H  57.59500 20.05900 46.67700
H  58.85100 24.39300 44.79100
H  57.73700 26.12000 46.93200
H  58.51800 22.93000 47.40200
H  59.32800 24.50000 47.66000
H  59.91200 23.39200 46.38700
H  58.43600 27.45700 44.20300
H  59.68300 26.50800 44.82800
H  58.89100 29.16200 45.61900
H  60.33400 28.28900 46.12300
H  58.83700 28.16900 47.05000
H  54.79500 29.68900 45.77200
H  53.18900 29.84400 46.55400
H  53.30500 30.38300 44.95600
H  48.96200 26.72000 44.51900
H  48.11200 27.68700 40.51300
H  47.42800 28.98400 41.52700
H  46.55100 27.40100 41.27900
Mg 36.14900 48.82100 24.69300
C  35.95100 47.31800 27.85300
C  35.53600 51.85700 26.19300
C  36.09300 50.15100 21.73300
C  36.77000 45.65300 23.41100
N  35.68300 49.43700 26.85700
C  35.76200 48.66900 27.97000
C  35.67300 49.52300 29.23500
C  35.37200 50.93300 28.62500
C  35.57700 50.74000 27.06600
C  33.90200 51.51900 29.01400
C  37.01700 49.34800 30.05000
C  36.82400 49.32400 31.62900
H  35.55400 49.82000 32.34900
N  35.84000 50.73000 24.04400
C  35.69600 51.84400 24.86700
C  35.79300 53.02800 24.06200
C  35.96800 52.59600 22.71000
C  36.04600 51.12200 22.75600
C  35.94200 54.45500 24.71900
C  36.07600 53.48500 21.41800
O  36.40300 52.95500 20.34500
C  35.79800 55.00700 21.46000
N  36.22100 48.03900 22.83700
C  36.07600 48.76400 21.77300
C  36.35700 48.01200 20.49000
C  37.00100 46.68600 20.99200
C  36.70700 46.77000 22.54100
C  35.12700 47.72000 19.49100
C  38.42000 46.27000 20.53900
C  38.94000 44.79000 20.65700
N  36.21500 46.87900 25.49200
C  36.49100 45.68800 24.76400
C  36.63400 44.59400 25.66800
C  36.34000 45.16100 26.90200
C  36.07700 46.53400 26.70000
C  37.08800 43.20000 25.32400
C  36.16500 44.87000 28.35800
O  36.12600 43.83000 28.98500
C  35.95500 46.25000 28.99300
C  34.80800 46.14100 29.84600
O  33.65400 46.40100 29.49300
O  35.15000 45.61300 31.01600
C  34.07400 44.93400 31.69000
H  35.36300 52.79100 26.73200
H  36.11000 50.55000 20.71700
H  36.95500 44.67100 22.97000
H  34.88400 49.17200 29.89900
H  36.15500 51.57100 29.03500
H  33.94600 52.40200 29.65200
H  33.42900 50.74100 29.61300
H  33.46000 51.68000 28.03100
H  37.56200 50.27800 29.88500
H  37.64700 48.53000 29.70100
H  37.69400 49.82300 32.05600
H  36.87800 48.26100 31.86100
H  36.67500 55.06700 24.19300
H  36.29900 54.44200 25.74900
H  34.95900 54.91900 24.78800
H  35.36100 55.13100 20.46900
H  36.74700 55.50200 21.66400
H  34.99400 55.26800 22.14900
H  37.19300 48.51300 20.00200
H  36.36900 45.85200 20.68800
H  34.15300 48.03500 19.86400
H  35.06200 46.64600 19.32200
H  35.29600 48.28600 18.57400
H  39.02500 47.00200 21.07400
H  38.59700 46.49800 19.48800
H  38.10900 44.08700 20.59500
H  39.40900 44.58300 21.61800
H  39.56100 44.66500 19.77000
H  37.75200 43.20600 24.46000
H  36.27000 42.52000 25.08200
H  37.81600 42.72700 25.98300
H  36.81000 46.32800 29.66500
H  33.49100 44.33600 30.98900
H  33.35500 45.64900 32.09200
H  34.41700 44.37500 32.56000

