158

Mg 46.89900 25.54900 29.08800
C  48.02200 27.70200 31.61500
C  45.82700 23.44200 31.61000
C  46.27600 23.13400 26.66000
C  48.53300 27.38300 26.63100
N  46.89300 25.62100 31.39100
C  47.39400 26.63800 32.15700
C  47.06100 26.37300 33.62600
C  46.55700 24.90300 33.64700
C  46.38000 24.61300 32.12400
C  47.47900 23.79800 34.23600
C  46.02300 27.50200 34.18700
C  46.50100 28.13800 35.51600
H  45.29500 28.19200 36.54800
N  46.08000 23.66400 29.12700
C  45.64700 23.03200 30.27200
C  45.06100 21.74500 29.88600
C  45.06600 21.73300 28.43900
C  45.86000 22.86300 27.98300
C  44.39300 20.84100 30.90600
C  44.51600 20.73000 27.53400
O  44.70000 20.80400 26.32000
C  43.57500 19.64000 28.00300
N  47.41700 25.25500 26.91400
C  46.99500 24.22600 26.16800
C  47.56500 24.26300 24.77900
C  47.89900 25.84200 24.67300
C  47.96200 26.21600 26.14300
C  48.83500 23.37700 24.63200
C  46.80000 26.75000 23.92200
C  47.42400 27.32300 22.63100
N  48.08000 27.25300 29.01500
C  48.61400 27.92400 27.98400
C  49.24400 29.08400 28.51700
C  49.02200 29.06700 29.88200
C  48.25200 27.96300 30.15800
C  49.99900 30.06700 27.72000
C  49.25600 29.73800 31.16400
O  49.98700 30.70700 31.35800
C  48.60500 28.96400 32.33900
C  49.62200 28.63500 33.39700
O  50.54200 27.91200 33.26400
O  49.28400 29.25000 34.55300
C  50.02800 29.05000 35.75000
H  45.60800 22.84100 32.49500
H  46.07800 22.46900 25.81700
H  49.03900 28.02500 25.90700
H  47.93600 26.41200 34.27500
H  45.55900 24.82100 34.07800
H  48.26400 24.26600 34.82900
H  47.90800 23.18100 33.44700
H  46.87700 23.26400 34.97200
H  45.03400 27.04600 34.22700
H  45.97000 28.35900 33.51500
H  46.77500 29.15500 35.23500
H  47.31900 27.55500 35.93800
H  43.45900 20.37300 30.59400
H  44.10200 21.36800 31.81500
H  44.95800 19.92500 31.07400
H  42.66600 20.19300 28.24000
H  43.92900 18.98700 28.80000
H  43.31600 18.99200 27.16600
H  46.81300 23.96300 24.04900
H  48.90300 25.96300 24.26700
H  48.60500 22.37000 24.28400
H  49.34800 23.39700 25.59300
H  49.50100 23.86500 23.92000
H  46.40400 27.52700 24.57600
H  45.98200 26.05000 23.74800
H  46.81800 27.07500 21.76000
H  48.44800 27.03600 22.39200
H  47.44100 28.41100 22.69000
H  49.63900 30.04900 26.69100
H  51.05100 29.79700 27.62800
H  49.89300 31.11800 27.99000
H  47.85700 29.68500 32.66900
H  49.57000 29.57700 36.58800
H  51.02200 29.48800 35.65500
H  50.23100 27.98400 35.85200
Mg -1.77400 33.57400 26.97100
C  -3.46800 32.08500 29.57900
C  -0.39400 35.76800 29.40500
C  -0.13000 35.16700 24.45800
C  -3.38900 31.54200 24.70000
N  -1.83300 33.84200 29.33100
C  -2.62600 33.07300 30.12500
C  -2.34400 33.26800 31.57800
C  -1.53600 34.64200 31.59500
C  -1.17500 34.82900 30.09000
C  -2.36500 35.91700 32.07700
C  -1.60400 32.03500 32.34100
C  -2.35800 31.39600 33.57400
H  -1.54200 31.44200 34.85700
N  -0.52600 35.31600 26.95500
C  -0.09900 36.05200 28.05900
C  0.85300 37.00600 27.52200
C  0.88400 36.88100 26.06500
C  0.05400 35.72900 25.75900
C  1.57400 37.91900 28.38700
C  1.65900 37.74400 25.00400
O  1.75300 37.45300 23.85600
C  2.38200 39.00500 25.49800
N  -1.73400 33.44100 24.86500
C  -0.90200 34.01900 24.04800
C  -1.04600 33.54100 22.53100
C  -1.90800 32.25000 22.82700
C  -2.43500 32.42100 24.24300
C  -1.74300 34.62700 21.57200
C  -1.19300 30.94900 22.61700
C  -2.12900 29.80800 22.02000
N  -3.13000 32.06500 27.11500
C  -3.77000 31.38500 26.04700
C  -4.75100 30.48600 26.56500
C  -4.65000 30.67000 27.95500
C  -3.68600 31.69900 28.25700
C  -5.67200 29.60800 25.79100
C  -5.05900 30.17500 29.26800
O  -5.90700 29.35800 29.61500
C  -4.40800 31.16900 30.35100
C  -5.47100 32.01800 31.05600
O  -5.73900 33.21400 30.84600
O  -5.99400 31.18700 31.99300
C  -6.91400 31.87300 32.86400
H  0.09600 36.43200 30.12000
H  0.49600 35.55600 23.65300
H  -3.65100 30.86400 23.88500
H  -3.32000 33.45400 32.02700
H  -0.58800 34.61600 32.13200
H  -3.40500 35.63500 32.24200
H  -2.21700 36.67700 31.31100
H  -1.92600 36.45100 32.91900
H  -0.61300 32.30500 32.70500
H  -1.36100 31.29300 31.58100
H  -2.60300 30.34600 33.41700
H  -3.27300 31.96500 33.74100
H  0.83100 38.11400 29.16100
H  1.83300 38.89200 27.96900
H  2.34700 37.41600 28.96900
H  1.58600 39.62900 25.90500
H  2.79900 39.46000 24.60000
H  3.09100 38.68700 26.26100
H  -0.11000 33.12400 22.15800
H  -2.77400 32.28400 22.16600
H  -1.03200 35.42000 21.34500
H  -2.60600 35.20400 21.90400
H  -1.98200 34.07500 20.66300
H  -0.81900 30.57800 23.57200
H  -0.42600 31.14400 21.86600
H  -1.63000 29.36000 21.16100
H  -3.09200 30.24200 21.75100
H  -2.28100 29.01500 22.75200
H  -5.40800 29.60400 24.73300
H  -6.68500 29.99000 25.91900
H  -5.68200 28.57200 26.13100
H  -3.88300 30.60200 31.12000
H  -7.47100 32.58600 32.25600
H  -6.42200 32.44300 33.65300
H  -7.48200 31.04200 33.28100

