158

Mg 8.43400 3.35000 27.68700
C  10.01000 2.06200 30.42600
C  6.44400 5.28500 29.79500
C  6.58600 4.29400 24.96600
C  10.26400 1.06200 25.66800
N  8.24800 3.57300 29.83900
C  8.98900 2.93600 30.81300
C  8.57100 3.43400 32.27800
C  7.45300 4.48300 31.93600
C  7.36600 4.48000 30.42100
C  6.08800 4.19300 32.60400
C  9.81600 3.98800 33.03400
C  9.52100 5.11800 34.10700
H  10.20200 5.02400 35.47800
N  6.78000 4.53800 27.38400
C  6.17900 5.32200 28.35900
C  5.18900 6.27900 27.71600
C  5.28300 6.02200 26.33200
C  6.24000 4.89500 26.16700
C  4.35200 7.29300 28.41900
C  4.57500 6.75800 25.19800
O  4.68500 6.45900 23.99300
C  3.61400 7.86200 25.50000
N  8.25300 2.56700 25.68400
C  7.49200 3.29500 24.71200
C  7.97100 2.92300 23.28900
C  9.25600 2.12900 23.52000
C  9.25100 1.90700 25.03600
C  6.79600 2.13700 22.49200
C  10.57800 2.83000 22.97100
C  11.28100 3.90100 23.86000
N  9.72300 1.71000 27.97000
C  10.40000 0.94500 27.04700
C  11.43200 0.23400 27.70700
C  11.29700 0.60300 29.12600
C  10.26400 1.49900 29.18900
C  12.47100 -0.68600 26.96900
C  11.83500 0.43400 30.43800
O  12.71800 -0.34900 30.80100
C  11.04900 1.38700 31.36500
C  10.38700 0.62300 32.43300
O  9.47300 -0.18100 32.26200
O  11.07000 0.72400 33.59900
C  10.42100 0.08800 34.72600
H  5.76500 5.89000 30.40000
H  6.21800 4.77000 24.05500
H  10.96300 0.45800 25.08700
H  8.20900 2.51100 32.73100
H  7.76400 5.49700 32.18900
H  5.49300 3.47300 32.04200
H  5.74400 5.22600 32.55900
H  6.11600 3.79500 33.61800
H  10.52600 4.34300 32.28800
H  10.35900 3.23200 33.60000
H  8.44400 5.02700 34.25300
H  9.73900 6.00000 33.50500
H  3.27800 7.24100 28.24200
H  4.67600 8.29600 28.14200
H  4.44400 7.16700 29.49800
H  2.71500 7.43000 25.94000
H  3.37400 8.16200 24.48100
H  4.14800 8.65400 26.02600
H  8.14100 3.85500 22.74900
H  9.11200 1.19900 22.97100
H  5.88400 2.08100 23.08700
H  7.02600 1.12900 22.14600
H  6.51600 2.76700 21.64800
H  10.28300 3.28000 22.02300
H  11.35200 2.08700 22.77500
H  10.70800 4.04600 24.77600
H  11.27000 4.87000 23.36200
H  12.27000 3.51900 24.11400
H  12.77800 -0.09600 26.10600
H  11.93300 -1.61200 26.76700
H  13.25700 -0.91500 27.68800
H  11.76000 2.08300 31.81000
H  9.90900 0.90900 35.22800
H  11.23300 -0.27300 35.35700
H  9.76200 -0.74500 34.48200
Mg 5.82700 54.44600 40.34400
C  4.65800 51.10700 40.24000
C  9.00300 53.40000 40.12700
C  6.60500 57.77100 40.17900
C  2.34300 55.38300 40.47600
N  6.77800 52.44600 40.04000
C  6.06700 51.19800 40.07000
C  7.10300 50.06400 39.97500
C  8.55700 50.79300 40.21700
C  8.12500 52.28500 40.26600
C  9.37900 50.36700 41.43000
C  7.09200 49.29700 38.58400
C  7.35700 50.09200 37.34300
H  6.38500 49.94800 36.14500
N  7.51300 55.45700 39.91900
C  8.78200 54.77600 39.96100
C  9.81700 55.82000 39.83400
C  9.22400 57.06700 39.91100
C  7.72200 56.80700 40.00100
C  11.31700 55.61000 39.80800
C  9.89200 58.40800 39.84200
O  11.06500 58.57000 39.85600
C  9.12300 59.63800 39.85200
N  4.56700 56.30900 39.98300
C  5.21100 57.52100 40.23700
C  4.14700 58.67000 40.32600
C  2.78200 57.90500 40.19400
C  3.23400 56.38300 40.19700
C  4.32500 59.64800 41.53200
C  1.89600 58.35000 39.01700
C  0.43200 58.90900 39.28900
N  3.91200 53.53800 40.47500
C  2.62200 54.03700 40.52900
C  1.63800 53.01600 40.76700
C  2.42800 51.82700 40.72200
C  3.76100 52.21300 40.45900
C  0.27700 53.33000 41.09200
C  2.37900 50.41000 40.80900
O  1.41500 49.61800 40.96000
C  3.80100 49.86100 40.48500
C  3.62100 49.09200 39.21800
O  3.37100 49.54700 38.12600
O  4.00800 47.78600 39.55300
C  3.91800 46.76000 38.55300
H  10.05900 53.18300 39.95300
H  6.78900 58.82800 40.38000
H  1.34700 55.72000 40.77100
H  6.99600 49.33600 40.77900
H  9.22400 50.64100 39.36900
H  9.39700 51.22300 42.10500
H  10.41400 50.18700 41.13900
H  9.06800 49.42800 41.88700
H  6.08800 48.88200 38.50000
H  7.72000 48.40600 38.59700
H  8.37400 49.82900 37.05200
H  7.29400 51.15200 37.58600
H  11.71100 55.71600 40.81900
H  11.92900 56.09400 39.04700
H  11.42900 54.54400 39.61000
H  9.72800 60.54300 39.81100
H  8.41500 59.78500 40.66700
H  8.45000 59.65000 38.99500
H  4.18900 59.30700 39.44300
H  2.13200 58.00800 41.06300
H  3.36900 59.89900 41.99200
H  4.67200 60.64200 41.25300
H  5.01600 59.16600 42.22500
H  1.81900 57.55300 38.27700
H  2.41400 59.14300 38.47900
H  0.37600 59.93700 38.93100
H  0.27600 58.80400 40.36200
H  -0.33300 58.31600 38.78600
H  -0.42900 52.50000 41.05900
H  -0.07300 54.03100 40.33400
H  0.12500 53.75100 42.08600
H  4.12600 49.24400 41.32300
H  3.85600 47.22700 37.57000
H  3.01600 46.15800 38.66600
H  4.77200 46.08200 38.54500

