158

Mg 49.18200 46.57000 43.21900
C  46.00300 47.35000 42.19600
C  48.91900 43.58800 41.53400
C  52.49800 46.24700 43.54200
C  49.57500 49.97000 44.21900
N  47.57600 45.58900 42.07700
C  46.34700 46.09100 41.73700
C  45.51200 45.04700 40.97200
C  46.53400 43.88100 40.85200
C  47.73500 44.40600 41.49900
C  45.90800 42.46900 41.36600
C  45.01600 45.54300 39.58900
C  43.93400 44.69300 38.96100
H  44.32100 43.78400 37.75000
N  50.50400 44.95800 42.76400
C  50.17500 43.81000 42.17700
C  51.35500 42.97700 42.04500
C  52.42200 43.69700 42.70600
C  51.91600 45.05900 42.96900
C  51.29900 41.59100 41.50900
C  53.89800 43.18100 42.97600
O  54.20600 42.05200 42.56700
C  54.96200 43.94500 43.61200
N  50.87800 47.96300 43.64100
C  52.10300 47.51600 43.89800
C  53.02300 48.70900 44.39100
C  52.11600 49.91100 44.23400
C  50.73600 49.26900 43.99300
C  53.46300 48.38400 45.78600
C  52.61700 50.95800 43.19200
C  52.30700 52.41900 43.57800
N  48.04700 48.29800 43.37400
C  48.31500 49.60000 43.82700
C  47.07500 50.35500 43.80800
C  46.16000 49.46900 43.23000
C  46.79500 48.29300 42.89900
C  46.91600 51.76600 44.30000
C  44.78700 49.40900 42.79600
O  43.81900 50.16000 42.92600
C  44.66300 48.02700 42.06900
C  43.70900 47.09000 42.70100
O  43.73900 46.84400 43.91400
O  42.80800 46.60500 41.71700
C  41.78600 45.71800 42.25500
H  48.86800 42.63100 41.01100
H  53.58400 46.13900 43.57500
H  49.67000 50.96300 44.66300
H  44.66500 44.69200 41.55900
H  46.87000 43.78700 39.82000
H  44.88600 42.43400 40.99000
H  45.87100 42.38800 42.45200
H  46.25300 41.53600 40.92000
H  45.91000 45.66900 38.97700
H  44.54400 46.51500 39.73100
H  43.12400 45.38200 38.72200
H  43.49900 44.09200 39.75900
H  50.78000 40.86800 42.13900
H  52.26900 41.15000 41.28200
H  50.72700 41.74100 40.59400
H  54.55900 44.39200 44.52100
H  55.35800 44.67700 42.90900
H  55.76400 43.27500 43.92000
H  53.83300 48.71700 43.66100
H  52.19800 50.33300 45.23600
H  53.71100 47.32300 45.77900
H  52.67600 48.49400 46.53200
H  54.42300 48.85500 46.00200
H  52.09500 50.80900 42.24700
H  53.69500 51.04600 43.05800
H  51.33900 52.52100 43.08800
H  53.11400 53.03200 43.17500
H  52.34300 52.67100 44.63800
H  45.83200 51.87200 44.28300
H  47.47200 52.41300 43.62100
H  47.27500 51.99100 45.30500
H  44.45800 48.25500 41.02300
H  41.28300 46.19800 43.09400
H  42.35000 44.85000 42.59600
H  41.08900 45.48000 41.45200
Mg -1.08600 34.77200 26.46800
C  -2.66200 32.87800 29.06000
C  0.15300 36.82400 29.01000
C  0.23900 36.69900 24.12200
C  -2.67200 32.93500 24.13200
N  -1.38300 34.84800 28.79800
C  -1.87600 33.89100 29.58000
C  -1.53000 34.20700 31.06800
C  -0.75100 35.52100 31.06300
C  -0.64900 35.80400 29.52200
C  -1.50800 36.72900 31.90300
C  -0.87400 33.02300 31.98000
C  -1.45800 32.88600 33.40000
H  -0.51500 32.97900 34.56700
N  0.04500 36.43300 26.52900
C  0.54400 37.10200 27.67700
C  1.53000 38.04200 27.29500
C  1.53100 38.11600 25.86900
C  0.63600 37.00200 25.43300
C  2.30700 38.95700 28.31000
C  2.29200 38.99900 24.93900
O  2.21200 38.82100 23.71700
C  3.05000 40.16900 25.48700
N  -1.24900 34.86700 24.37100
C  -0.54900 35.68500 23.61100
C  -0.67500 35.39900 22.11700
C  -1.33300 33.95000 22.18400
C  -1.75900 33.87500 23.64400
C  -1.57200 36.42100 21.28900
C  -0.65500 32.66400 21.58900
C  0.66100 32.36000 22.30700
N  -2.41800 33.28300 26.52700
C  -3.02300 32.67600 25.49600
C  -3.80400 31.58400 25.93200
C  -3.68900 31.68700 27.32600
C  -2.85400 32.71300 27.64800
C  -4.70300 30.68700 25.19900
C  -4.02300 30.98500 28.53600
O  -4.67000 29.97000 28.64000
C  -3.39100 31.74700 29.75000
C  -4.52600 32.30200 30.52600
O  -5.31500 33.15500 30.21300
O  -4.58900 31.64100 31.77300
C  -5.66300 32.08700 32.63900
H  0.42100 37.56900 29.76200
H  0.58500 37.29100 23.27200
H  -3.11700 32.23900 23.41800
H  -2.48300 34.44800 31.53800
H  0.21000 35.44200 31.57200
H  -2.47900 36.86200 31.42600
H  -0.93600 37.65400 31.97800
H  -1.75400 36.32100 32.88300
H  0.20000 33.20200 32.01500
H  -1.13200 32.02300 31.63100
H  -1.89900 31.89100 33.46300
H  -2.26300 33.61000 33.52700
H  3.34400 38.65100 28.16900
H  2.13600 38.71600 29.35900
H  2.09400 39.99200 28.04100
H  2.37800 40.80300 26.06500
H  3.50600 40.73400 24.67400
H  3.89900 39.90800 26.11800
H  0.35400 35.46100 21.76300
H  -2.31300 33.89600 21.71000
H  -1.51500 37.42000 21.72200
H  -2.63500 36.18200 21.26000
H  -1.32800 36.54600 20.23400
H  -0.49000 32.69800 20.51200
H  -1.27000 31.77900 21.75400
H  1.29100 31.86900 21.56500
H  0.43200 31.66900 23.11900
H  1.30000 33.19900 22.58500
H  -4.75400 30.99200 24.15400
H  -5.70700 30.77900 25.61300
H  -4.37600 29.65100 25.28700
H  -2.76300 31.09000 30.35100
H  -5.24600 32.88500 33.25400
H  -5.84600 31.17100 33.20100
H  -6.59700 32.40800 32.17700

