158

Mg 0.81800 8.88200 26.71900
C  1.26700 10.91500 29.41600
C  0.55200 6.13500 28.98800
C  0.74700 6.75100 24.06000
C  1.09600 11.58100 24.59400
N  0.85400 8.58600 28.97800
C  1.08200 9.58900 29.84200
C  1.11400 9.08200 31.30700
C  1.13700 7.50700 31.14100
C  0.78100 7.37800 29.64200
C  2.45400 6.78000 31.43600
C  -0.01100 9.63800 32.23500
C  -0.28400 8.88500 33.61800
H  0.86800 8.42500 34.46100
N  0.61000 6.80600 26.54900
C  0.47700 5.90200 27.57500
C  0.22100 4.57800 26.98800
C  0.47100 4.61300 25.57400
C  0.57400 6.10800 25.35500
C  -0.00100 3.33500 27.82100
C  0.45900 3.45100 24.57500
O  0.54600 3.74300 23.42100
C  0.22400 1.99300 25.01300
N  0.79600 9.16300 24.63800
C  0.82300 8.14500 23.76800
C  0.92600 8.77700 22.33700
C  0.53400 10.18200 22.56400
C  0.83300 10.31200 23.98900
C  2.37300 8.56100 21.74400
C  -0.97900 10.44900 22.26700
C  -1.36800 11.35700 21.10100
N  1.23400 10.84800 26.89900
C  1.27500 11.85400 26.01300
C  1.69200 13.09600 26.67100
C  1.54400 12.76100 27.99300
C  1.34900 11.39300 28.06000
C  1.84200 14.43000 25.96300
C  1.73100 13.33000 29.30400
O  1.93700 14.46100 29.59600
C  1.45900 12.12100 30.24300
C  2.53400 11.96700 31.22400
O  3.67900 11.67500 30.94300
O  2.04500 12.25200 32.46300
C  2.93800 12.06500 33.63300
H  0.59200 5.25200 29.63000
H  0.60900 6.20500 23.12500
H  1.06300 12.41500 23.89100
H  2.10400 9.39000 31.64500
H  0.35500 7.00700 31.71100
H  3.30700 7.37400 31.76300
H  2.88100 6.53600 30.46400
H  2.27000 5.96900 32.14100
H  -0.89800 9.41900 31.64000
H  0.22000 10.66400 32.52100
H  -1.08300 8.15000 33.51500
H  -0.84500 9.67300 34.12100
H  -0.95700 2.91600 27.50500
H  -0.23900 3.57400 28.85800
H  0.85500 2.66000 27.83900
H  0.54600 1.24400 24.29000
H  -0.81300 1.88600 25.33200
H  0.93700 1.75000 25.80100
H  0.28500 8.26400 21.62000
H  1.27200 10.74900 21.99800
H  2.23500 8.06500 20.78300
H  3.00400 7.92600 22.36600
H  2.92600 9.48600 21.58100
H  -1.30200 11.09500 23.08300
H  -1.61200 9.56200 22.29100
H  -0.57900 11.46500 20.35700
H  -1.74700 12.31000 21.47200
H  -2.21000 10.81800 20.66600
H  2.40900 14.35500 25.03500
H  2.19800 15.10600 26.74000
H  0.84600 14.77400 25.68500
H  0.56000 12.36500 30.80900
H  3.57400 12.94000 33.76600
H  3.47100 11.11400 33.60800
H  2.31200 12.16100 34.52000
Mg -10.52600 16.90300 41.18400
C  -7.07200 16.71300 41.09700
C  -10.29700 20.31400 40.64200
C  -13.92900 16.96900 40.78500
C  -10.55400 13.31600 41.21100
N  -8.85100 18.27800 40.87100
C  -7.50900 17.97800 40.94800
C  -6.69700 19.33000 40.70400
C  -7.77600 20.46600 41.02400
C  -9.06700 19.67500 40.77700
C  -7.56900 21.21900 42.38800
C  -6.15500 19.38300 39.22700
C  -4.66200 19.20000 39.05900
H  -4.14600 18.49700 37.78500
N  -11.96300 18.51400 40.74600
C  -11.68900 19.82600 40.61000
C  -12.90300 20.56000 40.40000
C  -13.97000 19.64500 40.41500
C  -13.31900 18.27100 40.59300
C  -12.93700 22.05900 40.16900
C  -15.40400 19.98600 40.29300
O  -15.89000 21.11900 40.11100
C  -16.45100 18.88900 40.33200
N  -12.07400 15.34100 40.79900
C  -13.41900 15.68200 40.89400
C  -14.26200 14.40900 41.13900
C  -13.15500 13.27000 41.24600
C  -11.83500 14.00300 41.17700
C  -15.31200 14.34600 42.27800
C  -13.29100 12.04500 40.36700
C  -12.57200 12.04700 39.02500
N  -9.09400 15.20900 41.07600
C  -9.24700 13.81800 41.22300
C  -7.90100 13.22800 41.51000
C  -7.03700 14.30200 41.35100
C  -7.80100 15.49800 41.13300
C  -7.48100 11.86600 41.87100
C  -5.64600 14.68700 41.49400
O  -4.67100 14.00100 41.81100
C  -5.64300 16.27400 41.23500
C  -4.99600 17.09300 42.39500
O  -3.87500 17.56600 42.22800
O  -5.71800 17.01700 43.63600
C  -5.17200 17.83500 44.67800
H  -10.13000 21.38800 40.53800
H  -15.02000 16.98200 40.81700
H  -10.50000 12.25500 41.46300
H  -5.90400 19.43400 41.44500
H  -7.68200 21.26300 40.28700
H  -7.07400 22.18700 42.30800
H  -7.09300 20.52400 43.07900
H  -8.55200 21.39400 42.82600
H  -6.39500 20.38500 38.87200
H  -6.59100 18.58800 38.62200
H  -4.30100 18.58900 39.88700
H  -4.12800 20.13000 39.25700
H  -13.10400 22.28200 39.11500
H  -11.96500 22.44000 40.48200
H  -13.70000 22.49900 40.81100
H  -16.27000 18.28200 39.44500
H  -17.41700 19.37500 40.19700
H  -16.54400 18.37200 41.28700
H  -14.86500 14.39800 40.23200
H  -13.16100 12.85300 42.25300
H  -16.23100 13.85600 41.95800
H  -15.65600 15.33400 42.58200
H  -14.92500 13.87100 43.18000
H  -14.37000 12.05000 40.20800
H  -13.00700 11.13700 40.89900
H  -13.17500 11.42300 38.36400
H  -11.59000 11.57700 39.06500
H  -12.46500 13.02100 38.54800
H  -6.40100 11.83500 41.72600
H  -7.94800 11.26000 41.09500
H  -7.88100 11.72100 42.87400
H  -5.20200 16.44400 40.25300
H  -5.82400 18.70500 44.74800
H  -4.14100 18.16400 44.54100
H  -5.35800 17.29100 45.60300

