158

Mg 23.31100 -6.19100 45.98500
C  25.64800 -3.88300 44.87800
C  21.11300 -4.67800 43.55900
C  21.32000 -8.83100 46.12000
C  25.87800 -8.08600 47.61400
N  23.44900 -4.56900 44.31300
C  24.48900 -3.75800 44.14100
C  24.22700 -2.58500 43.21100
C  22.72200 -2.86400 42.86400
C  22.36500 -4.08700 43.67200
C  21.77400 -1.64900 43.30900
C  25.16300 -2.68400 41.96500
C  25.33500 -1.41600 41.22800
H  24.66000 -1.27700 39.80000
N  21.38900 -6.56900 45.15900
C  20.67300 -5.84900 44.22100
C  19.42500 -6.49900 43.90300
C  19.39900 -7.71200 44.67700
C  20.76800 -7.74900 45.43400
C  18.43700 -6.09700 42.82600
C  18.26200 -8.70600 44.65000
O  17.18100 -8.49600 44.05500
C  18.34800 -9.96200 45.44400
N  23.52600 -8.11800 46.85800
C  22.52700 -9.01500 46.80400
C  22.94200 -10.38800 47.23900
C  24.36200 -10.21700 47.76200
C  24.61400 -8.69000 47.46500
C  21.96200 -11.29500 48.07300
C  25.48000 -11.08600 47.20000
C  26.48200 -11.52500 48.18200
N  25.29800 -5.96300 46.34100
C  26.21900 -6.78800 47.06700
C  27.42500 -5.98400 47.25200
C  27.27200 -4.89600 46.46200
C  25.96900 -4.91100 45.90100
C  28.61200 -6.46800 48.02600
C  27.90300 -3.70400 45.96400
O  28.99500 -3.21600 46.23500
C  26.95400 -3.08100 44.88600
C  26.88800 -1.61200 45.17100
O  27.19700 -0.75000 44.34700
O  26.35600 -1.43900 46.45900
C  25.77600 -0.04500 46.66700
H  20.45100 -4.06300 42.94600
H  20.68900 -9.71900 46.19700
H  26.57300 -8.68300 48.20800
H  24.43900 -1.70200 43.81300
H  22.71300 -3.05400 41.79000
H  21.23800 -1.95800 44.20600
H  21.10400 -1.44100 42.47400
H  22.30400 -0.72000 43.51700
H  24.66300 -3.21700 41.15600
H  26.05700 -3.26400 42.19500
H  26.40700 -1.22200 41.24500
H  24.91500 -0.67700 41.90900
H  18.34000 -6.84200 42.03600
H  18.86700 -5.18800 42.40400
H  17.54800 -5.72800 43.33800
H  18.59000 -9.88400 46.50400
H  19.02800 -10.65100 44.94300
H  17.32500 -10.32900 45.35700
H  23.02500 -10.94500 46.30500
H  24.26000 -10.38800 48.83400
H  21.13700 -10.69000 48.44800
H  22.47400 -11.69500 48.94800
H  21.55000 -12.10400 47.46900
H  26.10200 -10.50700 46.51700
H  25.03400 -11.92000 46.65800
H  26.05300 -11.57900 49.18300
H  27.35500 -10.87700 48.26100
H  26.71500 -12.55500 47.91400
H  29.38000 -5.70800 48.16600
H  29.00000 -7.29400 47.43100
H  28.37200 -6.88400 49.00500
H  27.41000 -3.12500 43.89600
H  26.02500 0.77100 45.98900
H  26.08400 0.38900 47.61800
H  24.72100 -0.32000 46.62800
Mg 41.21700 41.10000 27.01700
C  40.34700 43.39700 29.47300
C  41.96300 38.88800 29.49300
C  42.21100 38.94200 24.60200
C  40.69500 43.53300 24.47000
N  41.24000 41.17900 29.19900
C  40.72800 42.15200 29.99300
C  40.59400 41.79000 31.51900
C  41.05000 40.32600 31.49000
C  41.46000 40.06100 29.95900
C  42.27100 39.92600 32.29400
C  39.14100 42.01400 32.16200
C  38.84500 42.87200 33.45400
H  38.15300 42.10400 34.61300
N  42.16400 39.20600 27.04400
C  42.32800 38.45600 28.18300
C  42.96000 37.20600 27.83500
C  42.91200 37.18400 26.38500
C  42.38100 38.51000 25.94400
C  43.51900 36.27500 28.77600
C  43.36800 36.08800 25.42500
O  43.18900 36.05700 24.16400
C  44.13700 34.90900 25.98100
N  41.32100 41.20500 24.77200
C  41.70000 40.10800 24.06200
C  41.69400 40.49300 22.50000
C  41.15300 41.99300 22.52700
C  41.07400 42.29300 24.01600
C  43.04300 40.39400 21.74700
C  39.79200 42.04300 21.87100
C  38.56800 41.49000 22.60000
N  40.73000 43.03300 26.94800
C  40.51900 43.95000 25.86000
C  40.15400 45.23300 26.32500
C  40.01400 45.03200 27.75600
C  40.41700 43.72200 28.06100
C  39.86100 46.47700 25.55200
C  39.61200 45.73200 29.03100
O  39.28000 46.89200 29.17500
C  39.86100 44.68100 30.17400
C  40.93200 45.12500 31.12700
O  42.04000 45.48900 30.81200
O  40.49100 45.25700 32.37000
C  41.33500 46.00400 33.26300
H  42.05000 38.18000 30.32000
H  42.57000 38.25800 23.83100
H  40.43900 44.35700 23.80100
H  41.35800 42.44700 31.93300
H  40.26300 39.60900 31.72100
H  42.11400 40.37200 33.27600
H  43.22200 40.19600 31.83700
H  42.27300 38.83600 32.29800
H  38.75000 41.03800 32.44800
H  38.56700 42.29400 31.27900
H  38.24100 43.72000 33.13200
H  39.75500 43.36800 33.79100
H  43.39200 35.20400 28.61700
H  43.03500 36.43000 29.74100
H  44.57700 36.53500 28.80600
H  44.46100 34.16600 25.25200
H  43.60800 34.28000 26.69700
H  45.12000 35.24400 26.31200
H  40.98400 39.82400 22.01500
H  41.84700 42.72300 22.10900
H  43.85800 40.54000 22.45600
H  43.04700 41.17600 20.98800
H  43.05500 39.42700 21.24400
H  39.94100 41.54500 20.91300
H  39.60800 43.10000 21.67400
H  38.37600 40.57100 22.04500
H  37.73000 42.15500 22.39100
H  38.71200 41.27600 23.65900
H  39.54600 46.27300 24.52900
H  40.67200 47.19600 25.66900
H  38.91400 46.81300 25.97600
H  38.98600 44.71300 30.82200
H  40.63900 46.22600 34.07100
H  41.97600 46.82300 32.93700
H  42.03500 45.31400 33.73400

