158

Mg 29.43400 57.71800 40.93700
C  26.83300 55.76100 39.53800
C  31.65100 55.80400 39.24700
C  31.86500 60.20500 41.38600
C  27.03000 60.05900 42.03600
N  29.22300 56.07500 39.57100
C  28.14700 55.37700 39.18200
C  28.49800 54.16700 38.26100
C  30.02400 54.06200 38.55600
C  30.33800 55.34600 39.12500
C  30.46700 52.89300 39.46200
C  28.10400 54.51200 36.78000
C  27.22400 53.48900 35.97000
H  26.33200 54.22200 34.86200
N  31.51000 57.87000 40.49700
C  32.22100 56.95500 39.80400
C  33.64600 57.34600 39.78300
C  33.70700 58.68300 40.44100
C  32.33000 58.94400 40.81200
C  34.68800 56.51300 38.94700
C  34.99600 59.51300 40.61800
O  36.06600 58.96200 40.35200
C  35.16800 60.90300 41.29200
N  29.50500 59.81800 41.70200
C  30.60200 60.60700 41.73000
C  30.29800 62.04400 42.19400
C  28.76200 61.86800 42.67400
C  28.37100 60.54000 42.05300
C  31.33500 62.61300 43.23600
C  27.88000 63.11900 42.26600
C  27.68500 63.94800 43.51400
N  27.36400 57.79300 41.02400
C  26.53200 58.83000 41.42700
C  25.18500 58.36800 41.27300
C  25.21900 57.19900 40.50600
C  26.59600 56.87800 40.32000
C  23.91000 59.06700 41.65400
C  24.44800 56.12300 39.86900
O  23.23800 55.90600 39.91300
C  25.43600 55.22600 39.19500
C  25.12800 53.82200 39.62800
O  25.11800 53.43000 40.80200
O  24.87300 52.98900 38.56800
C  24.57800 51.55300 38.74400
H  32.42600 55.17600 38.80200
H  32.72000 60.87100 41.52000
H  26.27600 60.74300 42.43100
H  28.00000 53.26000 38.60300
H  30.46600 53.94400 37.56700
H  31.09000 53.24800 40.28300
H  31.16400 52.26700 38.90500
H  29.70600 52.25900 39.91700
H  28.98500 54.56600 36.14100
H  27.53900 55.44300 36.73900
H  26.57600 52.94200 36.65400
H  27.90700 52.79000 35.48800
H  34.93900 56.94000 37.97600
H  34.26200 55.53800 38.71200
H  35.51800 56.33200 39.63000
H  34.56000 61.62800 40.75100
H  36.22200 61.15700 41.17500
H  34.91900 60.91800 42.35300
H  30.48900 62.71500 41.35700
H  28.77000 61.70800 43.75200
H  30.72300 63.13100 43.97400
H  31.97800 63.34900 42.75400
H  31.86100 61.82000 43.76900
H  26.86000 62.88100 41.96200
H  28.31100 63.73600 41.47700
H  28.57500 63.99400 44.14200
H  26.80200 63.74400 44.12000
H  27.46200 64.98100 43.24700
H  23.72500 58.98100 42.72500
H  22.98900 58.66700 41.22900
H  23.91500 60.10300 41.31700
H  25.24800 55.08500 38.13100
H  23.78900 51.35800 39.47000
H  25.44900 50.92900 38.94300
H  24.27600 51.11800 37.79100
Mg -5.56400 25.41700 26.33600
C  -4.31800 26.84000 29.20000
C  -7.40200 23.25600 28.17000
C  -6.63000 23.96200 23.42300
C  -3.23600 27.34200 24.52000
N  -5.73200 25.01300 28.39800
C  -5.26600 25.81500 29.46400
C  -5.98100 25.46300 30.79700
C  -6.62000 24.08900 30.45500
C  -6.61200 24.14200 28.93800
C  -5.83800 22.91900 31.07300
C  -7.01900 26.49900 31.32600
C  -7.24300 26.38400 32.85400
H  -6.88800 25.15100 33.71200
N  -6.88000 23.82000 25.90800
C  -7.56300 23.08200 26.79200
C  -8.38400 22.17700 26.03800
C  -8.10500 22.38100 24.61800
C  -7.12800 23.38000 24.58300
C  -9.30900 21.21200 26.79400
C  -8.73700 21.67400 23.45900
O  -8.38400 22.01000 22.30600
C  -9.58400 20.44300 23.64900
N  -4.99800 25.50900 24.28900
C  -5.63800 24.94900 23.23400
C  -4.96500 25.34000 21.85000
C  -4.03400 26.55400 22.23300
C  -4.10700 26.47500 23.79800
C  -4.33400 24.12100 21.18400
C  -4.44400 27.88400 21.60600
C  -3.59400 28.42100 20.47000
N  -4.11700 26.85300 26.69100
C  -3.22000 27.51300 25.91700
C  -2.56000 28.56100 26.62700
C  -2.96100 28.32100 27.94000
C  -3.88600 27.24200 27.95100
C  -1.66100 29.66700 26.00600
C  -2.86700 28.71600 29.30000
O  -2.22400 29.62000 29.92800
C  -3.73200 27.81000 30.19600
C  -2.85200 27.27400 31.27700
O  -1.89800 26.53300 31.02900
O  -3.12300 27.80900 32.45000
C  -2.36500 27.42700 33.62900
H  -8.19300 22.74100 28.71800
H  -6.86300 23.66400 22.39800
H  -2.59700 28.00400 23.93200
H  -5.14900 25.43500 31.50000
H  -7.64700 23.98800 30.80500
H  -4.79900 23.13600 31.32000
H  -5.77500 22.16500 30.28700
H  -6.29800 22.42400 31.92800
H  -8.01200 26.34500 30.90300
H  -6.72900 27.48100 30.95100
H  -8.30900 26.40500 33.08200
H  -6.82300 27.24900 33.36800
H  -8.86700 21.03500 27.77400
H  -9.55700 20.25600 26.33400
H  -10.23300 21.76100 26.97700
H  -8.99100 19.83800 24.33400
H  -9.58600 19.88200 22.71400
H  -10.58800 20.64800 24.02000
H  -5.72800 25.76900 21.20000
H  -2.99300 26.50800 21.91300
H  -3.24400 24.11800 21.20900
H  -4.61600 24.07700 20.13200
H  -4.71500 23.14100 21.47100
H  -4.42500 28.58900 22.43700
H  -5.48700 27.88300 21.29100
H  -4.37600 28.57300 19.72700
H  -2.84900 27.70400 20.12500
H  -3.11500 29.39600 20.57300
H  -1.14000 30.17400 26.81800
H  -2.15900 30.48100 25.48000
H  -0.78500 29.30500 25.46600
H  -4.41000 28.57800 30.56900
H  -2.94600 27.03200 34.46200
H  -1.80400 28.28300 34.00300
H  -1.56300 26.74200 33.35200

