158

Mg 17.28600 -2.43100 28.12500
C  16.54300 -0.40900 30.82300
C  19.37000 -4.42900 30.14000
C  18.54300 -3.95200 25.34000
C  15.52800 -0.22900 26.05400
N  17.84100 -2.40800 30.24600
C  17.32600 -1.53600 31.20200
C  17.91300 -1.88400 32.59500
C  18.92100 -3.00800 32.35600
C  18.68400 -3.38500 30.83100
C  20.39600 -2.77700 32.68900
C  16.70200 -2.15400 33.57200
C  16.90200 -1.46500 34.98200
H  18.23400 -0.83800 35.35800
N  18.71500 -4.03200 27.82900
C  19.45100 -4.69600 28.74500
C  20.24500 -5.72800 28.07600
C  20.10200 -5.53500 26.67800
C  19.02000 -4.50600 26.52900
C  20.93300 -6.79100 28.84500
C  20.86100 -6.27400 25.47800
O  20.43100 -6.20800 24.32900
C  22.03800 -7.06200 25.69500
N  17.12000 -2.02700 25.93800
C  17.73200 -2.86000 25.04400
C  17.32400 -2.32800 23.57100
C  16.11200 -1.41600 23.84500
C  16.28900 -1.22400 25.37000
C  18.47500 -1.82800 22.73600
C  14.77000 -2.00300 23.51500
C  13.80500 -1.08500 22.71600
N  16.34100 -0.63100 28.27300
C  15.57700 0.12100 27.37400
C  14.80400 1.16100 28.03600
C  15.25500 0.98200 29.39600
C  16.25300 -0.02900 29.45800
C  13.92200 2.18400 27.37000
C  15.05400 1.51000 30.68700
O  14.27100 2.35800 31.05400
C  15.83800 0.67500 31.69100
C  16.80900 1.59800 32.32300
O  17.91800 1.73200 31.88600
O  16.32600 2.05500 33.45200
C  17.22600 2.94000 34.21000
H  19.78500 -5.18500 30.80900
H  18.94400 -4.40700 24.43200
H  14.75800 0.32900 25.51600
H  18.39400 -0.92200 32.77600
H  18.64000 -3.78500 33.06600
H  20.99100 -3.06900 31.82400
H  20.76600 -3.28500 33.58000
H  20.63000 -1.73800 32.92500
H  16.66600 -3.22900 33.75100
H  15.76300 -1.85600 33.10400
H  16.63900 -2.24400 35.69700
H  16.13000 -0.69600 35.02700
H  20.92100 -7.73500 28.30000
H  20.32600 -7.02700 29.71900
H  21.94200 -6.43200 29.04700
H  22.91000 -6.41200 25.78100
H  22.22000 -7.57900 24.75300
H  21.91700 -7.81100 26.47800
H  16.96300 -3.24300 23.10200
H  16.28300 -0.37200 23.58100
H  18.35200 -0.93700 22.12100
H  18.80800 -2.54400 21.98500
H  19.28600 -1.48400 23.37700
H  14.06000 -2.12700 24.33200
H  14.86900 -2.95900 23.00200
H  12.81200 -0.86200 23.10500
H  13.60200 -1.64000 21.80100
H  14.39900 -0.19800 22.49400
H  13.30700 2.66600 28.13000
H  13.28800 1.71600 26.61700
H  14.44500 2.95700 26.80700
H  15.25000 0.19000 32.47000
H  16.77400 3.92800 34.30200
H  18.27200 3.03100 33.91700
H  17.27000 2.45200 35.18400
Mg -9.60700 39.87800 42.62000
C  -8.44900 36.69100 41.60600
C  -6.76200 41.12800 41.22800
C  -10.84500 42.84100 43.12100
C  -12.59400 38.34700 43.57200
N  -7.82100 38.99400 41.46300
C  -7.53800 37.66700 41.20600
C  -6.23000 37.47100 40.41000
C  -5.73100 38.96400 40.36000
C  -6.78900 39.75500 41.09200
C  -4.30500 39.08600 40.89100
C  -6.39300 36.84000 39.05100
C  -5.27500 35.77900 38.62800
H  -4.31500 36.20500 37.48400
N  -8.86000 41.80000 42.30200
C  -7.62000 42.11500 41.79100
C  -7.40000 43.49900 41.84100
C  -8.60900 44.11000 42.37800
C  -9.50100 42.92800 42.62800
C  -6.14700 44.13300 41.20100
C  -8.86200 45.60600 42.53400
O  -8.00900 46.47500 42.41300
C  -10.21600 46.13500 42.91300
N  -11.42500 40.51300 43.08200
C  -11.65900 41.75400 43.32300
C  -13.07600 41.98800 43.87100
C  -13.73300 40.54500 44.00700
C  -12.54400 39.72300 43.50600
C  -13.12100 42.86100 45.22900
C  -15.07800 40.28600 43.21200
C  -16.30000 40.64100 43.96200
N  -10.35500 37.91100 42.70600
C  -11.58800 37.45000 43.13500
C  -11.58100 36.01900 43.20000
C  -10.37300 35.66600 42.54800
C  -9.71100 36.90900 42.22000
C  -12.59600 35.15700 43.71200
C  -9.47300 34.50700 42.22300
O  -9.57900 33.31800 42.37600
C  -8.22400 35.21000 41.59300
C  -7.06400 34.85600 42.51000
O  -6.70800 35.49300 43.51700
O  -6.45800 33.73100 42.00400
C  -5.30300 33.14700 42.74000
H  -5.83400 41.62800 40.94100
H  -11.23500 43.81700 43.41700
H  -13.43800 37.77400 43.96000
H  -5.60300 36.74300 40.92600
H  -5.77300 39.28100 39.31800
H  -3.67700 39.42400 40.06700
H  -3.92000 38.10500 41.17000
H  -4.17800 39.86400 41.64400
H  -6.29600 37.60000 38.27600
H  -7.28200 36.29800 38.72900
H  -5.67000 34.79700 38.36700
H  -4.55000 35.60200 39.42300
H  -5.93200 43.62200 40.26200
H  -5.37700 44.13000 41.97100
H  -6.29200 45.20000 41.03100
H  -11.00900 45.67700 42.32100
H  -10.21300 47.20600 42.71400
H  -10.31500 45.93700 43.98000
H  -13.58100 42.59600 43.12200
H  -13.92200 40.22900 45.03300
H  -12.42800 43.70000 45.29200
H  -13.14600 42.14100 46.04800
H  -14.07200 43.38700 45.15400
H  -15.08900 39.25000 42.87200
H  -15.12000 40.86400 42.28900
H  -16.03900 40.96900 44.96900
H  -16.78900 39.66800 44.00600
H  -16.93700 41.38500 43.48400
H  -12.90900 35.68000 44.61500
H  -12.18300 34.17600 43.94700
H  -13.46400 35.19900 43.05400
H  -8.00900 34.75200 40.62700
H  -4.37500 33.67000 42.50700
H  -5.17800 32.09000 42.50400
H  -5.30100 33.17000 43.82900

