158

Mg 43.76400 3.77600 46.68100
C  41.50200 6.70500 46.48800
C  40.98700 1.78100 46.40100
C  45.80000 1.21400 46.14200
C  46.37700 6.01400 46.77100
N  41.52600 4.28800 46.36000
C  40.80500 5.48200 46.49200
C  39.31500 5.20100 46.61100
C  39.26100 3.63400 46.78300
C  40.70500 3.15400 46.51800
C  38.71900 3.00800 48.08100
C  38.38400 5.75200 45.43100
C  38.83700 5.25500 44.01300
H  39.17100 6.39500 42.96700
N  43.44000 1.71800 46.19900
C  42.23400 1.11200 46.14600
C  42.50600 -0.29800 45.99900
C  43.81600 -0.52400 45.72300
C  44.44300 0.82900 45.95500
C  41.37100 -1.38300 45.90000
C  44.47000 -1.85500 45.27000
O  43.81900 -2.89200 45.22100
C  45.91200 -1.93600 44.89400
N  45.84200 3.59600 46.25500
C  46.43000 2.39400 46.38700
C  47.97200 2.52200 46.70600
C  48.09100 4.12000 46.83400
C  46.71600 4.66600 46.60300
C  48.44200 1.77500 47.94400
C  49.16000 4.74400 46.08100
C  50.56100 4.99900 46.68500
N  43.96400 5.93700 46.47100
C  45.08100 6.65100 46.61700
C  44.78500 8.05500 46.56200
C  43.37100 8.15500 46.58500
C  42.91000 6.83000 46.44700
C  45.77800 9.15700 46.72300
C  42.21400 9.04900 46.60000
O  42.12100 10.30100 46.57300
C  40.91000 8.08900 46.64000
C  40.30900 8.31700 47.90200
O  40.65500 7.69400 48.91200
O  39.28300 9.23400 47.76700
C  38.51300 9.28900 49.04500
H  40.05900 1.20500 46.40100
H  46.56100 0.44800 45.98100
H  47.24800 6.65900 46.90800
H  39.03700 5.65600 47.56200
H  38.64200 3.29500 45.95200
H  38.22500 3.77700 48.67500
H  39.48700 2.53000 48.69100
H  37.96500 2.25900 47.84000
H  38.28200 6.83100 45.54500
H  37.37700 5.42200 45.68700
H  38.06600 4.57800 43.64400
H  39.70800 4.60500 44.09500
H  41.21500 -1.38900 44.82200
H  40.44100 -1.06400 46.37000
H  41.68200 -2.38400 46.20000
H  46.60600 -2.06200 45.72500
H  46.09500 -0.96100 44.44200
H  46.09500 -2.69900 44.13800
H  48.57000 2.25300 45.83500
H  48.38700 4.29900 47.86800
H  49.02300 0.90100 47.65100
H  47.56400 1.34000 48.42300
H  49.04300 2.33700 48.65900
H  48.70300 5.66600 45.72300
H  49.31900 4.14900 45.18100
H  50.78200 4.15800 47.34300
H  50.61300 5.88400 47.31900
H  51.36300 5.09900 45.95400
H  46.59500 9.04200 46.01000
H  46.27100 8.94200 47.67100
H  45.49000 10.19600 46.56100
H  40.40200 8.23900 45.68700
H  39.08300 9.23700 49.97200
H  37.69300 8.57400 49.11700
H  37.91800 10.19000 49.19300
Mg 47.96600 34.70600 26.95500
C  46.51800 33.34500 29.70200
C  48.01500 37.82300 28.60800
C  49.09300 36.05100 24.19800
C  47.33000 31.61900 25.21500
N  47.37800 35.43200 28.97300
C  46.84900 34.67400 29.94700
C  46.76500 35.40600 31.29700
C  46.98300 36.83800 30.81900
C  47.46400 36.72800 29.34500
C  45.87800 37.76000 31.02200
C  47.81400 34.88700 32.35900
C  47.41000 34.84200 33.83300
H  46.33200 35.89000 34.35900
N  48.66600 36.61800 26.48600
C  48.63100 37.74500 27.31600
C  49.35700 38.80600 26.59800
C  49.64000 38.31900 25.25000
C  49.11400 36.94700 25.24900
C  49.63400 40.09700 27.38900
C  50.32500 38.89700 24.06600
O  50.64100 38.27000 23.06000
C  50.71300 40.28800 24.13400
N  47.95700 34.02100 24.95300
C  48.61100 34.80300 24.02900
C  48.80200 34.05700 22.72000
C  48.30400 32.62700 23.05600
C  47.79300 32.74900 24.47400
C  48.13400 34.74900 21.42100
C  49.40300 31.56100 22.99200
C  50.64000 31.72200 24.01500
N  47.13300 32.86100 27.37200
C  46.90600 31.67500 26.53400
C  46.29600 30.67800 27.40400
C  46.00500 31.33400 28.61700
C  46.58900 32.60300 28.53900
C  45.94700 29.20700 27.11400
C  45.29600 31.19800 29.83700
O  44.62200 30.27500 30.28400
C  45.49700 32.52100 30.58300
C  45.65700 32.26700 32.01100
O  46.51200 31.48300 32.47300
O  44.57100 32.74700 32.70700
C  44.21000 32.35900 34.16000
H  48.20500 38.77000 29.11800
H  49.45800 36.36900 23.21900
H  47.30800 30.71200 24.60700
H  45.76300 35.32400 31.71700
H  47.85500 37.28300 31.29900
H  46.20600 38.72900 31.39600
H  45.07400 37.40400 31.66600
H  45.30900 37.94200 30.11000
H  48.78600 35.32700 32.13800
H  47.99900 33.85700 32.05500
H  48.34800 34.85600 34.38700
H  47.04000 33.87800 34.18300
H  50.24000 39.69100 28.19900
H  48.69400 40.53800 27.72000
H  50.21700 40.82600 26.82500
H  51.55400 40.30100 24.82800
H  49.86500 40.85600 24.51800
H  50.98000 40.68500 23.15500
H  49.87700 33.93700 22.59100
H  47.46900 32.38700 22.39800
H  48.86000 35.22600 20.76200
H  47.46200 35.57000 21.66900
H  47.54900 33.98400 20.91100
H  49.73200 31.52900 21.95300
H  48.92800 30.58900 23.11800
H  51.54900 31.67600 23.41600
H  50.96900 30.83100 24.55000
H  50.66700 32.58700 24.67800
H  46.19900 28.55300 27.94900
H  46.52400 28.92400 26.23300
H  44.94400 29.12100 26.69600
H  44.58300 33.11000 30.51400
H  43.17100 32.03200 34.10400
H  44.29700 33.27000 34.75200
H  44.92700 31.71700 34.67200

