158

Mg 2.40800 0.19100 45.21700
C  5.56000 1.70700 44.59400
C  1.07300 3.14800 43.96600
C  -0.40700 -1.42100 45.07000
C  4.16800 -2.96000 45.61700
N  3.24000 2.25100 44.40200
C  4.53000 2.55600 44.25100
C  4.71600 3.95900 43.82600
C  3.22700 4.51600 43.61600
C  2.47700 3.25500 44.06400
C  2.82500 5.89500 44.32000
C  5.43900 4.07500 42.44600
C  5.17300 3.01700 41.38900
H  5.73200 3.20300 40.03100
N  0.59100 0.75600 44.64100
C  0.15100 2.02700 44.19600
C  -1.23900 1.94000 43.85900
C  -1.69500 0.64000 44.30200
C  -0.43700 -0.06200 44.71900
C  -2.02800 3.14500 43.36100
C  -3.15200 0.19400 44.26000
O  -3.92200 0.88900 43.67700
C  -3.72300 -0.92700 45.05600
N  2.00200 -1.84200 45.36600
C  0.71300 -2.29000 45.30000
C  0.59700 -3.77900 45.27500
C  2.02600 -4.23000 45.37000
C  2.79200 -2.93400 45.42400
C  -0.33500 -4.36500 46.36500
C  2.44900 -5.30700 44.41200
C  2.99700 -6.65200 45.00700
N  4.41700 -0.49400 45.35900
C  4.96800 -1.79300 45.58800
C  6.40600 -1.70600 45.64800
C  6.65100 -0.38600 45.22200
C  5.43900 0.31900 45.01700
C  7.44600 -2.68800 45.88500
C  7.71200 0.68700 44.90600
O  8.95500 0.57200 44.96100
C  7.04100 2.03600 44.58000
C  7.38200 3.05000 45.48400
O  7.69000 4.24000 45.24100
O  7.07300 2.62700 46.68300
C  6.76100 3.60000 47.65100
H  0.50100 3.97200 43.53600
H  -1.35700 -1.95600 45.02000
H  4.69500 -3.90200 45.78700
H  5.18900 4.55300 44.60900
H  2.90300 4.66700 42.58600
H  1.91800 5.70000 44.89100
H  2.71700 6.73400 43.63300
H  3.68200 6.02600 44.98100
H  6.49200 4.35400 42.46700
H  4.96700 4.92600 41.95500
H  4.09600 3.05000 41.23100
H  5.54800 2.07600 41.79100
H  -3.05200 3.17200 43.73400
H  -1.95800 3.03100 42.27900
H  -1.58600 4.01300 43.85000
H  -3.33800 -0.96900 46.07500
H  -3.63000 -1.90900 44.59300
H  -4.78400 -0.77200 45.25000
H  0.19900 -4.01500 44.28700
H  2.17900 -4.62700 46.37300
H  -0.88200 -3.51000 46.76200
H  0.25400 -4.80100 47.17100
H  -0.99200 -5.12300 45.93800
H  3.18100 -4.83800 43.75300
H  1.59300 -5.54400 43.78000
H  2.87500 -6.77200 46.08300
H  4.05100 -6.72800 44.73800
H  2.44200 -7.45500 44.52200
H  8.13100 -2.10900 46.50500
H  7.93600 -2.92000 44.94000
H  7.12300 -3.62100 46.34600
H  7.35300 2.22900 43.55300
H  5.84000 4.07200 47.30900
H  7.37000 4.49200 47.80000
H  6.45700 3.20200 48.61900
Mg 24.82800 -6.79100 47.28300
C  27.23900 -4.51900 46.16600
C  22.74600 -5.61100 44.86700
C  22.99200 -9.51600 47.75800
C  27.40300 -8.33300 49.31600
N  25.04600 -5.37100 45.59400
C  26.02700 -4.43600 45.46600
C  25.73800 -3.41800 44.38000
C  24.22500 -3.54700 44.26800
C  23.98000 -4.90000 44.88600
C  23.40000 -2.47300 45.09500
C  26.44100 -3.72900 43.05800
C  27.33200 -2.70000 42.34300
H  27.06700 -2.32700 40.81400
N  23.05900 -7.44600 46.57200
C  22.35000 -6.79200 45.56200
C  21.05500 -7.43700 45.51600
C  21.06300 -8.58600 46.38500
C  22.39100 -8.56500 46.98100
C  19.87800 -6.95900 44.64100
C  19.91600 -9.47800 46.69400
O  18.76800 -9.27800 46.12600
C  20.04300 -10.43200 47.76900
N  25.06400 -8.48300 48.58500
C  24.11700 -9.53300 48.41600
C  24.37000 -10.59500 49.49200
C  25.81500 -10.27600 49.99000
C  26.13800 -8.97800 49.24100
C  23.26400 -10.62500 50.60900
C  26.79300 -11.50300 49.84100
C  28.04000 -11.47400 50.70800
N  26.90800 -6.42700 47.85100
C  27.77900 -7.13600 48.65000
C  29.05100 -6.50900 48.59700
C  28.83900 -5.45300 47.64200
C  27.56700 -5.45800 47.18700
C  30.27000 -6.78700 49.46600
C  29.53300 -4.36700 47.00800
O  30.63500 -3.90900 47.16000
C  28.51200 -3.72800 45.98300
C  28.35300 -2.30600 46.28800
O  27.63400 -1.87400 47.19400
O  28.83700 -1.63000 45.21900
C  28.50000 -0.19000 45.36900
H  22.03000 -5.12400 44.20300
H  22.61400 -10.54000 47.76000
H  28.28100 -8.78600 49.78000
H  26.01600 -2.40500 44.66900
H  23.83800 -3.42900 43.25600
H  23.00400 -2.92700 46.00400
H  22.52100 -2.14800 44.53800
H  23.95600 -1.58700 45.40300
H  25.61700 -4.06700 42.42900
H  27.20900 -4.48100 43.23800
H  28.35200 -3.08400 42.34700
H  27.34100 -1.77600 42.92200
H  19.78000 -7.70900 43.85600
H  20.06900 -5.96900 44.22700
H  18.96300 -6.76300 45.20000
H  20.65900 -11.24400 47.38100
H  19.06100 -10.87900 47.92500
H  20.41900 -9.92400 48.65600
H  24.18200 -11.56600 49.03400
H  25.90100 -10.00000 51.04100
H  22.39000 -10.08200 50.24700
H  23.58000 -10.26900 51.59000
H  22.93200 -11.61900 50.90700
H  27.18800 -11.38100 48.83200
H  26.32700 -12.48800 49.88800
H  28.94400 -11.38300 50.10700
H  28.00400 -12.31200 51.40500
H  27.96300 -10.58000 51.32600
H  30.97500 -5.97300 49.63700
H  30.85900 -7.61900 49.08000
H  30.05000 -7.12200 50.48000
H  29.14100 -3.81700 45.09700
H  27.45600 -0.03600 45.64200
H  28.57100 0.22200 44.36200
H  29.10400 0.32500 46.11600

