158

Mg 0.66700 8.03500 24.85800
C  1.59900 9.70600 27.92600
C  0.91700 5.11800 26.59300
C  0.21200 6.50800 21.93900
C  1.07700 11.02200 23.23100
N  1.23400 7.53600 27.05500
C  1.30600 8.33600 28.13100
C  1.28600 7.58000 29.44800
C  1.35600 6.08500 28.97900
C  1.21400 6.20400 27.43600
C  2.73700 5.33800 29.37100
C  -0.02800 7.92700 30.29000
C  -0.02600 7.83800 31.78800
H  1.18600 7.07400 32.46400
N  0.53700 6.10200 24.27100
C  0.76200 4.99500 25.12900
C  0.55500 3.79300 24.41500
C  0.10400 4.16000 23.10000
C  0.22700 5.64000 23.07700
C  0.79500 2.41300 25.08000
C  -0.22900 3.27000 21.88800
O  -0.58800 3.79500 20.83100
C  -0.03200 1.86200 21.92200
N  0.67400 8.69400 22.90000
C  0.36700 7.87000 21.85300
C  0.21500 8.57200 20.45400
C  0.32000 10.08700 20.93700
C  0.79000 9.93500 22.44100
C  1.12900 8.13600 19.26800
C  -1.03800 10.89400 20.80400
C  -2.44600 10.37200 21.12000
N  1.19400 9.99800 25.40000
C  1.33600 11.10000 24.57900
C  1.65200 12.29600 25.41400
C  1.80700 11.79300 26.69500
C  1.48400 10.37700 26.68600
C  1.69500 13.71500 24.84300
C  2.11300 12.16700 28.08300
O  2.41000 13.22100 28.65900
C  1.85700 10.87500 28.90400
C  2.92600 10.71500 29.84500
O  4.01200 10.14400 29.65100
O  2.64900 11.30500 31.04600
C  3.68500 11.47600 32.07300
H  0.79200 4.17700 27.13300
H  0.14900 5.99100 20.97900
H  0.98000 11.94700 22.65900
H  2.04200 8.04200 30.08300
H  0.55400 5.55300 29.49100
H  3.18800 5.04900 28.42200
H  2.66900 4.43000 29.97100
H  3.47000 5.99700 29.83700
H  -0.83000 7.21600 30.09500
H  -0.38000 8.87300 29.87900
H  -0.95700 7.33400 32.04700
H  0.03000 8.89200 32.05900
H  0.69000 1.63000 24.33000
H  0.04900 2.31700 25.87000
H  1.81100 2.41600 25.47500
H  -0.69700 1.34600 22.61600
H  1.02200 1.59500 22.00100
H  -0.25200 1.37000 20.97500
H  -0.75700 8.34400 20.01700
H  1.06600 10.62000 20.34800
H  1.20300 8.96700 18.56700
H  0.75400 7.18300 18.89600
H  2.13700 7.91900 19.62100
H  -1.09200 11.22000 19.76600
H  -0.95100 11.77400 21.44100
H  -2.91900 9.68900 20.41500
H  -3.09900 11.20700 21.37700
H  -2.33400 9.58700 21.86800
H  1.04800 13.79800 23.97000
H  2.66500 13.94600 24.40300
H  1.48900 14.45400 25.61700
H  0.98300 11.11100 29.50900
H  3.47500 10.66000 32.76400
H  3.60700 12.40400 32.63800
H  4.72700 11.38300 31.76800
Mg 8.94500 3.73200 27.07100
C  10.25700 2.16500 29.92700
C  7.00500 5.74300 29.07900
C  7.67200 5.29600 24.30600
C  10.43000 1.40500 25.09400
N  8.55700 3.80500 29.24900
C  9.34300 3.20700 30.24400
C  9.04600 3.74700 31.66300
C  8.11100 4.86600 31.35500
C  7.98000 4.92100 29.78700
C  6.68800 4.87000 32.09800
C  10.31500 4.22500 32.45400
C  9.96800 4.72900 33.85300
H  11.05100 4.47400 34.91600
N  7.46700 5.18500 26.73300
C  6.86200 5.92300 27.68600
C  5.96700 6.94900 27.07900
C  6.24800 6.93100 25.74200
C  7.16100 5.80400 25.48900
C  5.13800 7.94500 27.82200
C  5.81900 7.85600 24.61800
O  6.27000 7.74400 23.46500
C  4.90100 9.08200 24.92100
N  8.97400 3.36900 24.91000
C  8.46400 4.16600 24.01700
C  8.86400 3.74200 22.53900
C  9.61400 2.35300 22.86300
C  9.68200 2.37700 24.37700
C  7.87700 3.65100 21.34400
C  10.95500 2.14100 22.11900
C  10.84300 1.38000 20.76100
N  10.12400 2.15800 27.36100
C  10.67300 1.27500 26.47300
C  11.49200 0.30700 27.15300
C  11.45900 0.69000 28.50300
C  10.53200 1.75800 28.61500
C  12.10700 -0.86000 26.50300
C  11.92400 0.37000 29.86100
O  12.71100 -0.49300 30.24000
C  11.19500 1.30700 30.84300
C  10.50400 0.57100 31.85700
O  9.51700 -0.15000 31.74300
O  11.15900 0.84300 33.05700
C  10.53000 0.22100 34.25000
H  6.43800 6.41000 29.73300
H  7.46300 5.85800 23.39300
H  10.70000 0.54100 24.48400
H  8.58600 3.00600 32.31700
H  8.55900 5.81500 31.65300
H  5.95800 4.50500 31.37600
H  6.54600 5.89100 32.45100
H  6.52300 4.17400 32.92100
H  10.78300 5.00800 31.85700
H  11.09500 3.47000 32.36100
H  9.03000 4.26600 34.16100
H  9.75700 5.78300 33.67300
H  5.69500 8.88200 27.79600
H  4.96900 7.85000 28.89500
H  4.26400 8.14000 27.20100
H  5.28300 9.82300 25.62400
H  3.89400 8.80100 25.22700
H  4.87900 9.63200 23.98100
H  9.60200 4.47700 22.21700
H  8.90100 1.54500 22.70000
H  7.88800 2.61100 21.01600
H  8.17800 4.38300 20.59400
H  6.85700 3.92300 21.61500
H  11.67900 1.71300 22.81300
H  11.32800 3.15000 21.94300
H  11.59800 0.62900 20.52900
H  10.91300 2.18200 20.02600
H  9.82500 1.00200 20.67300
H  12.39500 -0.72300 25.46100
H  11.39200 -1.67800 26.41100
H  12.96700 -1.20600 27.07600
H  11.96300 1.95300 31.26800
H  9.49000 0.53100 34.35000
H  10.89700 0.75400 35.12700
H  10.66600 -0.84600 34.42300

