158

Mg 1.10000 7.43600 24.59000
C  1.65900 9.55600 27.44000
C  1.71900 4.70900 26.67100
C  0.77100 5.47100 21.95500
C  1.60800 10.22600 22.55300
N  1.89900 7.25800 26.80300
C  1.82600 8.19000 27.75400
C  1.78600 7.49900 29.07300
C  2.13600 6.01800 28.81600
C  1.94400 5.95600 27.31200
C  3.46000 5.49400 29.33700
C  0.54400 7.78500 29.94300
C  0.81300 7.75400 31.51600
H  1.93400 6.88100 32.12300
N  1.22100 5.37600 24.35100
C  1.40100 4.39200 25.27300
C  1.17900 3.03700 24.70600
C  0.82600 3.24900 23.33100
C  0.89400 4.75700 23.12600
C  1.18300 1.78600 25.52300
C  0.34600 2.16600 22.30700
O  0.22800 2.41400 21.10500
C  0.15900 0.77000 22.75900
N  1.16600 7.81400 22.60300
C  0.82200 6.86000 21.66200
C  0.85600 7.36900 20.22000
C  1.20400 8.90700 20.35400
C  1.35100 9.01600 21.92900
C  1.70400 6.56700 19.19300
C  0.14600 9.85200 19.78800
C  0.62900 10.79100 18.67200
N  1.38000 9.55900 24.90800
C  1.60300 10.59300 23.96400
C  1.70400 11.93500 24.64000
C  1.70500 11.53500 26.00400
C  1.53700 10.09000 26.10600
C  1.85900 13.27100 24.01900
C  1.83900 12.07500 27.36800
O  2.05900 13.24000 27.72800
C  1.74900 10.88200 28.36200
C  2.89400 10.89000 29.37600
O  4.02600 10.38400 29.26800
O  2.40400 11.20200 30.61300
C  3.18000 10.67600 31.77400
H  1.69600 3.81400 27.29700
H  0.83800 4.84000 21.06500
H  1.86900 11.05900 21.89700
H  2.55000 8.01300 29.65700
H  1.33200 5.46700 29.30400
H  3.97800 6.23000 29.95200
H  3.98800 5.14400 28.45000
H  3.33500 4.63500 29.99600
H  -0.26500 7.12600 29.62800
H  0.31800 8.83100 29.73600
H  -0.10000 7.29400 31.89400
H  0.95200 8.78600 31.83800
H  1.86300 2.07000 26.32700
H  1.53500 0.87000 25.05000
H  0.18400 1.63500 25.93200
H  -0.35900 0.73400 23.71700
H  1.20300 0.52100 22.94800
H  -0.29000 0.10500 22.02100
H  -0.18200 7.34100 19.88900
H  2.19400 9.06000 19.92500
H  2.37400 5.82300 19.62500
H  2.31100 7.14800 18.49900
H  0.97500 6.06600 18.55600
H  -0.25800 10.49400 20.57100
H  -0.66800 9.22000 19.43200
H  1.03000 11.68000 19.15900
H  -0.23100 11.13900 18.09900
H  1.35600 10.36200 17.98200
H  1.70800 13.20800 22.94200
H  2.91900 13.46000 24.19000
H  1.21300 14.00500 24.50200
H  0.88400 10.91100 29.02600
H  2.41100 10.49400 32.52500
H  3.78100 11.47300 32.21300
H  3.80500 9.80600 31.56900
Mg -5.78200 25.13700 25.39100
C  -4.02800 26.44400 28.09200
C  -7.20000 22.83400 27.60600
C  -7.13700 23.50700 22.69200
C  -3.97800 27.23400 23.28500
N  -5.58600 24.75900 27.59700
C  -4.88100 25.43300 28.51100
C  -5.28900 25.01200 29.88600
C  -5.92300 23.63200 29.65700
C  -6.28700 23.74200 28.18400
C  -5.18200 22.37100 30.10700
C  -6.17200 26.04100 30.55100
C  -6.19500 26.09100 32.11600
H  -5.51200 25.00600 32.98100
N  -7.09200 23.52700 25.19900
C  -7.59100 22.75800 26.20900
C  -8.51800 21.78500 25.71100
C  -8.54400 21.97700 24.27700
C  -7.54100 23.09100 23.94400
C  -9.04200 20.61100 26.49100
C  -9.35600 21.15800 23.26700
O  -9.42100 21.35400 22.05400
C  -10.30200 20.01400 23.72600
N  -5.44100 25.24000 23.32000
C  -6.20700 24.46300 22.42200
C  -5.90400 24.87200 21.01200
C  -5.05600 26.18400 21.14000
C  -4.76700 26.22600 22.63200
C  -5.22600 23.89800 20.01700
C  -5.84100 27.38900 20.50500
C  -7.02900 28.02600 21.13700
N  -4.34600 26.54900 25.66400
C  -3.64900 27.22500 24.67500
C  -2.79400 28.16400 25.25200
C  -2.83300 27.89800 26.63500
C  -3.84000 26.88400 26.82200
C  -1.96800 29.32700 24.65200
C  -2.34400 28.21400 27.93500
O  -1.53000 29.06600 28.24900
C  -3.13800 27.31900 28.97400
C  -2.16400 26.54000 29.85300
O  -1.38900 25.63600 29.51300
O  -2.41900 26.97300 31.14800
C  -1.59500 26.33300 32.18300
H  -7.51000 22.14300 28.39200
H  -7.49600 22.99200 21.79800
H  -3.33900 27.79700 22.60200
H  -4.41900 24.94000 30.53800
H  -6.82800 23.58900 30.26200
H  -5.08000 21.67000 29.27800
H  -5.77600 21.81800 30.83400
H  -4.25300 22.68100 30.58600
H  -7.19000 25.87200 30.19800
H  -5.82200 27.01800 30.21700
H  -7.21900 26.03100 32.48600
H  -5.84500 27.04400 32.51300
H  -8.71900 20.74500 27.52300
H  -8.73000 19.65500 26.07200
H  -10.13100 20.65500 26.53300
H  -11.13200 20.42300 24.30100
H  -9.62100 19.32300 24.22400
H  -10.68400 19.46800 22.86300
H  -6.83400 25.04000 20.46900
H  -4.21200 26.16400 20.45000
H  -5.51000 22.84600 20.03700
H  -4.15600 23.97600 20.21000
H  -5.63300 24.14400 19.03600
H  -6.00600 27.17300 19.44900
H  -5.04300 28.12800 20.42700
H  -6.80800 28.98300 21.60900
H  -7.45800 27.28400 21.81100
H  -7.85000 28.21600 20.44500
H  -0.94800 28.99100 24.46900
H  -1.97700 30.15200 25.36400
H  -2.44800 29.60700 23.71400
H  -3.78400 27.91900 29.61600
H  -1.72600 26.92900 33.08600
H  -0.55100 26.44100 31.89100
H  -1.72000 25.25400 32.28300

