158

Mg 0.68200 -0.57500 44.02100
C  4.12100 -0.44500 43.24300
C  0.23600 2.45800 42.31800
C  -2.50400 -1.25200 43.75800
C  1.33400 -3.84800 45.15500
N  1.96700 0.80000 43.02700
C  3.31900 0.70400 42.86000
C  3.87600 1.91100 42.02800
C  2.70000 2.94400 42.32000
C  1.55900 2.04500 42.62400
C  2.95300 4.10600 43.38600
C  4.10900 1.53400 40.50700
C  5.51900 1.85200 40.02500
H  5.59500 1.95200 38.46200
N  -0.92500 0.53600 43.31600
C  -0.93000 1.70900 42.58000
C  -2.27600 2.08400 42.29100
C  -3.12800 0.95500 42.59700
C  -2.11700 -0.00100 43.24100
C  -2.69700 3.33400 41.68600
C  -4.58900 0.86200 42.22100
O  -5.04200 1.68900 41.49300
C  -5.46800 -0.28600 42.55900
N  -0.48300 -2.43700 44.26000
C  -1.80500 -2.35700 44.21800
C  -2.37500 -3.67600 44.63200
C  -1.15300 -4.41500 45.39900
C  0.01900 -3.57200 44.84100
C  -3.66600 -3.57100 45.45000
C  -1.08300 -6.00100 44.93600
C  -0.75200 -6.92800 46.10300
N  2.37000 -1.89100 44.25800
C  2.47900 -3.11400 44.81300
C  3.83300 -3.54600 44.79200
C  4.54800 -2.51800 44.20600
C  3.61100 -1.54900 43.90200
C  4.42900 -4.95200 45.14000
C  5.86100 -2.10000 43.78900
O  7.00700 -2.55000 43.98500
C  5.60000 -0.64500 43.16100
C  6.36400 0.41500 43.80300
O  6.05200 1.03600 44.80400
O  7.53900 0.56700 43.21100
C  8.44400 1.64100 43.66900
H  0.09300 3.50800 42.05200
H  -3.56400 -1.47900 43.89100
H  1.52900 -4.81600 45.62200
H  4.73500 2.43900 42.44200
H  2.48200 3.47900 41.39600
H  3.22100 5.08000 42.97600
H  3.90100 3.85500 43.86100
H  2.18900 4.22900 44.15400
H  3.49600 2.10400 39.80900
H  3.91900 0.48300 40.28700
H  6.32000 1.21100 40.39400
H  5.83000 2.85800 40.30700
H  -2.87300 3.29900 40.61100
H  -1.97300 4.11700 41.91000
H  -3.57600 3.72700 42.19700
H  -6.47900 -0.05600 42.22300
H  -5.54800 -0.35400 43.64400
H  -5.13700 -1.23100 42.13000
H  -2.57600 -4.11500 43.65500
H  -1.17600 -4.28300 46.48100
H  -3.68300 -2.71000 46.11900
H  -3.81400 -4.44600 46.08400
H  -4.54500 -3.53000 44.80700
H  -0.18300 -6.14600 44.33900
H  -1.99800 -6.35100 44.45700
H  -1.64700 -7.40900 46.49700
H  -0.43800 -6.42400 47.01700
H  -0.05000 -7.71900 45.84000
H  3.52900 -5.56500 45.08700
H  4.77600 -5.03000 46.17000
H  5.33500 -5.17800 44.57800
H  5.84200 -0.67500 42.09900
H  7.87400 2.48400 44.06000
H  9.14400 1.89400 42.87300
H  9.02900 1.34800 44.54100
Mg 42.32300 41.39600 26.68400
C  41.42600 43.85000 29.21800
C  43.43600 39.36600 29.23700
C  43.75200 39.53700 24.34200
C  41.58400 43.92500 24.31200
N  42.46600 41.58700 28.93800
C  41.85800 42.60400 29.72800
C  41.81500 42.17600 31.20100
C  42.57300 40.76400 31.20600
C  42.85500 40.57000 29.74000
C  43.65000 40.52800 32.29900
C  40.42000 42.33500 31.91600
C  40.40300 41.67800 33.33000
H  39.76700 42.48500 34.48000
N  43.29800 39.58900 26.77600
C  43.69100 38.90500 27.89400
C  44.18300 37.60700 27.49300
C  44.21400 37.67600 26.08500
C  43.77300 38.97800 25.66700
C  44.45000 36.42000 28.47400
C  44.57600 36.58600 25.12400
O  44.63900 36.68200 23.91900
C  44.91600 35.18700 25.66400
N  42.72200 41.79200 24.76900
C  43.24700 40.76600 23.89000
C  43.12900 41.11300 22.45000
C  42.11000 42.24700 22.51300
C  42.21400 42.78000 23.93100
C  44.44900 41.35600 21.82900
C  40.72200 41.93900 21.91500
C  39.68900 41.28700 22.79900
N  41.56200 43.42400 26.71700
C  41.35800 44.25200 25.65100
C  40.98000 45.59600 26.15700
C  40.95800 45.43600 27.52600
C  41.37200 44.15300 27.82100
C  40.67400 46.77500 25.26800
C  40.71900 46.08800 28.71200
O  40.48500 47.30200 28.87400
C  40.93200 45.09200 29.87800
C  41.96800 45.64600 30.89200
O  43.20500 45.81600 30.73600
O  41.31000 45.80800 32.12200
C  42.00400 46.21800 33.31200
H  43.74100 38.64000 29.99400
H  44.02100 38.87700 23.51500
H  41.32600 44.65900 23.54600
H  42.44900 42.87000 31.75300
H  41.84600 39.98500 31.43600
H  44.54000 40.37200 31.68900
H  43.51600 39.60200 32.85700
H  43.94000 41.38800 32.90300
H  39.61800 41.92900 31.29900
H  40.35900 43.40700 32.10300
H  41.40700 41.39100 33.64500
H  39.79600 40.77700 33.24600
H  43.72100 35.61300 28.40300
H  44.55200 36.72000 29.51700
H  45.39900 35.91300 28.29500
H  45.84100 35.25200 26.23800
H  45.08600 34.42800 24.90100
H  43.99000 34.96000 26.19200
H  42.58200 40.32800 21.92900
H  42.58100 43.04600 21.94100
H  45.20400 40.95300 22.50300
H  44.61000 42.43100 21.74900
H  44.48700 40.78000 20.90400
H  40.81200 41.42300 20.95900
H  40.21700 42.89400 21.77700
H  39.43400 40.41500 22.19600
H  38.77300 41.82000 23.05300
H  40.05800 40.87900 23.74000
H  41.59400 47.31000 25.03600
H  40.01500 47.44200 25.82500
H  40.13700 46.33700 24.42700
H  39.97700 44.90100 30.36800
H  43.08700 46.30300 33.22500
H  41.79000 45.57800 34.16800
H  41.66300 47.20400 33.62600

