158

Mg 2.22900 -1.68200 44.48800
C  5.75600 -1.12600 44.28700
C  1.81700 0.93700 42.35700
C  -0.98000 -2.57100 44.20100
C  2.91500 -4.75500 46.04000
N  3.69400 -0.28700 43.47200
C  5.05600 -0.25200 43.50800
C  5.57600 0.74500 42.37100
C  4.23800 1.53800 41.92700
C  3.14700 0.64700 42.62200
C  4.16500 3.04700 42.43100
C  6.16800 -0.09500 41.16800
C  7.58600 0.25700 40.76400
H  7.91400 0.69200 39.36300
N  0.66700 -0.82200 43.62700
C  0.64500 0.16700 42.70300
C  -0.71900 0.47100 42.27800
C  -1.59100 -0.39100 42.92000
C  -0.65100 -1.30900 43.66600
C  -1.10300 1.64800 41.27900
C  -3.05000 -0.41200 42.84000
O  -3.58200 0.44500 42.15200
C  -3.96900 -1.36300 43.59800
N  1.16700 -3.48400 44.90500
C  -0.18200 -3.61800 44.76800
C  -0.75000 -5.03600 45.19800
C  0.49200 -5.61100 45.90700
C  1.57100 -4.57400 45.60900
C  -1.98600 -4.86800 46.15300
C  0.93600 -7.04300 45.41100
C  1.50700 -7.10500 44.05000
N  3.95200 -2.65300 45.17800
C  4.02400 -3.91600 45.78700
C  5.39300 -4.16300 46.10300
C  6.11000 -3.10000 45.53800
C  5.17300 -2.22400 45.00400
C  5.94300 -5.33000 46.82200
C  7.49200 -2.56100 45.42600
O  8.49100 -3.03500 45.92400
C  7.23900 -1.29500 44.46400
C  7.85500 -0.09900 45.17200
O  7.38100 0.50600 46.13200
O  9.03000 0.32800 44.49700
C  9.49000 1.69400 44.95400
H  1.62200 1.85300 41.79700
H  -1.99300 -2.97700 44.16500
H  3.04600 -5.64400 46.66100
H  6.31400 1.34500 42.90300
H  4.08500 1.44300 40.85200
H  3.26700 3.06100 43.04800
H  3.97800 3.70700 41.58400
H  5.02700 3.31300 43.04100
H  5.58300 0.08000 40.26500
H  6.03600 -1.14000 41.44900
H  8.16100 -0.66000 40.89500
H  7.95400 0.99600 41.47600
H  -1.78800 2.33200 41.77900
H  -1.69700 1.23900 40.46200
H  -0.20000 2.10900 40.87700
H  -3.70200 -1.25500 44.64900
H  -3.72000 -2.38400 43.30900
H  -5.00100 -1.25500 43.26500
H  -1.05100 -5.57200 44.29800
H  0.32900 -5.55000 46.98300
H  -1.85200 -5.35100 47.12100
H  -2.91800 -5.20800 45.70200
H  -2.01900 -3.79300 46.33100
H  0.03600 -7.65300 45.49600
H  1.75300 -7.29900 46.08600
H  2.59000 -7.18900 44.14900
H  1.38300 -6.21600 43.43200
H  1.09500 -7.91900 43.45400
H  6.45300 -6.06200 46.19600
H  5.13300 -5.80800 47.37200
H  6.56200 -5.03100 47.66800
H  7.76600 -1.45700 43.52300
H  10.26200 2.19000 44.36600
H  9.78800 1.64600 46.00200
H  8.66100 2.40100 45.00700
Mg 47.11300 16.58300 28.05500
C  44.88200 16.52700 30.68900
C  49.36200 18.41200 30.14600
C  48.78600 17.48900 25.28700
C  44.63100 15.18100 26.04800
N  47.04200 17.40000 30.14300
C  46.07100 17.18200 31.03900
C  46.44100 17.74400 32.38500
C  47.79300 18.57900 32.10200
C  48.14000 18.00100 30.75200
C  47.74200 20.14900 32.12300
C  46.63100 16.67300 33.45600
C  46.18000 16.90800 34.97900
H  45.79300 18.36500 35.38900
N  48.93200 17.60300 27.76800
C  49.64700 18.26300 28.71800
C  50.74400 18.90600 28.07700
C  50.62800 18.71400 26.65800
C  49.41700 17.89500 26.50400
C  51.89000 19.64800 28.87000
C  51.61400 19.08200 25.57600
O  51.39800 18.90100 24.38900
C  52.83900 19.93200 25.91600
N  46.83200 16.25700 26.03900
C  47.66800 16.70100 25.07000
C  47.17600 16.29800 23.64700
C  45.84000 15.50500 23.96200
C  45.85100 15.48300 25.47200
C  46.95400 17.59300 22.73100
C  45.65100 14.06300 23.37700
C  44.83300 13.98700 22.07900
N  45.15200 15.83600 28.30500
C  44.25200 15.31200 27.36200
C  42.93500 15.06300 27.95900
C  43.10300 15.48900 29.31100
C  44.50800 15.92100 29.45200
C  41.71400 14.38700 27.29700
C  42.46400 15.62000 30.54500
O  41.32600 15.35800 30.97000
C  43.61900 16.21000 31.45900
C  42.97500 17.49700 31.94400
O  42.65300 18.48900 31.31600
O  42.78800 17.40100 33.33100
C  42.11400 18.52700 34.00300
H  49.95700 19.14400 30.69600
H  49.34300 17.72800 24.37900
H  43.82700 14.87400 25.37700
H  45.72900 18.46600 32.78500
H  48.59900 18.32700 32.79100
H  46.84200 20.46200 32.65200
H  48.00100 20.58200 31.15700
H  48.54000 20.49600 32.77900
H  47.68700 16.44800 33.60200
H  46.14200 15.72800 33.22000
H  47.01300 16.67000 35.63900
H  45.37000 16.24000 35.27300
H  52.91500 19.51600 28.52400
H  51.92500 19.32100 29.90900
H  51.76700 20.72800 28.78000
H  53.59700 19.37500 26.46600
H  52.50100 20.74300 26.56200
H  53.05700 20.40400 24.95800
H  47.93100 15.58600 23.31300
H  44.94800 16.06000 23.67200
H  45.91300 17.76400 22.45800
H  47.49500 17.44000 21.79700
H  47.24500 18.51300 23.23900
H  45.21500 13.42800 24.14900
H  46.59500 13.54400 23.21600
H  43.91300 13.41100 22.18400
H  45.45200 13.57100 21.28400
H  44.53400 14.96200 21.69600
H  41.06400 15.11600 26.81400
H  41.26700 13.79900 28.09900
H  42.13200 13.64400 26.61800
H  44.00600 15.57400 32.25500
H  42.83500 19.34400 34.03500
H  42.06400 18.22100 35.04800
H  41.10300 18.80500 33.70400

