158

Mg 8.04300 2.40000 27.81400
C  9.94200 0.92000 30.52600
C  6.32900 4.20600 30.07500
C  6.43700 3.57800 25.20300
C  9.56200 -0.10000 25.78200
N  8.18800 2.44500 30.06600
C  9.10300 1.92800 30.97400
C  8.99400 2.58500 32.36700
C  7.64700 3.43800 32.14600
C  7.32800 3.38900 30.67200
C  6.48000 3.00400 32.97200
C  10.29200 3.32900 32.73000
C  10.97200 2.82700 34.03600
H  11.03000 3.81100 35.19300
N  6.58500 3.74600 27.65400
C  6.03100 4.43800 28.69700
C  5.03900 5.35300 28.09100
C  5.08700 5.21400 26.71200
C  6.04700 4.19900 26.45200
C  4.23900 6.28500 29.03900
C  4.38000 5.99100 25.60800
O  4.38700 5.67300 24.38400
C  3.68800 7.29300 25.99600
N  8.04700 1.84500 25.82600
C  7.20400 2.43200 24.89700
C  7.47700 1.93900 23.46000
C  8.61100 0.94600 23.72500
C  8.72600 0.85800 25.21200
C  6.17200 1.29100 22.80600
C  9.99600 1.23300 23.08100
C  10.89800 0.10500 22.57600
N  9.44700 0.66400 28.04300
C  9.91100 -0.16000 27.13600
C  10.84400 -0.98500 27.74300
C  10.93400 -0.63900 29.07300
C  9.98900 0.38800 29.24600
C  11.54200 -2.09700 27.01200
C  11.59100 -0.96200 30.42900
O  12.40000 -1.76400 30.77000
C  10.88700 0.10400 31.35400
C  10.23400 -0.55500 32.53600
O  9.13300 -1.02000 32.53400
O  11.01200 -0.39700 33.67400
C  10.35500 -0.76000 34.95600
H  5.76200 4.90900 30.68900
H  5.92800 3.91900 24.29900
H  10.18400 -0.69500 25.11100
H  8.90500 1.80300 33.12200
H  7.77100 4.51800 32.22600
H  5.92000 2.28200 32.37800
H  5.84000 3.84900 33.22500
H  6.73100 2.41700 33.85500
H  9.99500 4.37500 32.81200
H  11.05100 3.16100 31.96600
H  11.99900 2.53200 33.82400
H  10.52000 1.90700 34.40700
H  4.31700 6.03600 30.09800
H  3.24900 6.51300 28.64500
H  4.73900 7.24700 28.92500
H  2.80500 7.14300 26.61700
H  3.30100 7.68200 25.05300
H  4.39700 7.98300 26.45300
H  7.75800 2.78700 22.83500
H  8.32600 0.02100 23.22400
H  5.31900 1.71100 23.33900
H  6.01600 0.21300 22.83100
H  6.21100 1.77300 21.82900
H  10.53000 1.76700 23.86700
H  9.74500 1.91000 22.26400
H  11.76700 -0.07100 23.20900
H  11.35700 0.34600 21.61700
H  10.43400 -0.87300 22.45000
H  12.55100 -2.34700 27.34200
H  11.68400 -1.96900 25.93900
H  10.85200 -2.92700 27.16300
H  11.64400 0.73400 31.82100
H  10.41200 -1.82700 35.17100
H  9.30200 -0.47900 34.91200
H  10.97100 -0.17900 35.64200
Mg 40.55600 9.85100 30.12100
C  42.41000 10.79500 32.95100
C  38.26800 8.20200 32.22000
C  39.03600 8.54100 27.45600
C  43.09700 11.09700 28.13400
N  40.47600 9.47500 32.34900
C  41.24900 10.08500 33.32300
C  40.60200 10.07500 34.74500
C  39.29800 9.10700 34.47900
C  39.36500 8.90300 32.92300
C  39.14400 7.89600 35.34500
C  40.17100 11.54600 35.03800
C  39.49800 11.76000 36.34300
H  40.13400 12.46300 37.52600
N  38.85400 8.49300 29.82000
C  38.04800 8.00300 30.82000
C  36.91500 7.20700 30.21400
C  37.16500 7.19400 28.76100
C  38.36900 8.14000 28.59600
C  35.76200 6.72900 31.08800
C  36.51600 6.49300 27.65300
O  36.81000 6.60900 26.45300
C  35.45200 5.51100 27.91700
N  40.88200 9.96800 28.03300
C  40.11400 9.34100 27.14400
C  40.77100 9.38400 25.76900
C  42.02400 10.25200 25.93900
C  42.03400 10.49300 27.44100
C  41.03400 8.01900 25.16200
C  42.05200 11.58700 25.02800
C  43.15000 11.50700 24.00100
N  42.36400 10.72200 30.42000
C  43.29500 11.21800 29.48800
C  44.42400 11.87300 30.12600
C  44.11900 11.76600 31.50400
C  42.90800 10.99600 31.63900
C  45.60100 12.40100 29.41900
C  44.57500 11.99800 32.89500
O  45.48500 12.69900 33.32500
C  43.38700 11.41900 33.84600
C  44.05900 10.35400 34.76700
O  44.46100 9.25500 34.46600
O  43.87400 10.78500 36.09200
C  44.08800 9.82100 37.20100
H  37.41900 7.92300 32.84700
H  38.49700 8.11500 26.60700
H  43.83400 11.52300 27.45000
H  41.23700 9.67800 35.53700
H  38.41400 9.72700 34.62800
H  38.08200 7.66100 35.41000
H  39.54500 8.30900 36.27100
H  39.61400 7.01700 34.90500
H  39.55100 11.99300 34.26000
H  41.12700 12.06100 35.13000
H  39.19200 10.75400 36.62800
H  38.58600 12.34900 36.25000
H  35.79800 5.64100 31.13600
H  34.85400 7.13000 30.63700
H  35.75200 7.04700 32.13000
H  34.89300 5.10100 27.07600
H  34.77000 5.91800 28.66300
H  35.93700 4.61500 28.30600
H  40.06700 9.92900 25.14000
H  42.88500 9.64700 25.65300
H  40.59600 7.28100 25.83300
H  42.08900 7.75200 25.09700
H  40.58600 7.93300 24.17100
H  42.24600 12.38000 25.75000
H  41.04500 11.69400 24.62300
H  43.03700 10.48900 23.63100
H  44.14700 11.66200 24.41300
H  42.91500 12.30100 23.29200
H  46.45100 12.69300 30.03600
H  45.32200 13.23600 28.77700
H  46.03200 11.64600 28.76100
H  43.10200 12.28100 34.44900
H  43.38900 9.94500 38.02700
H  45.10000 9.99700 37.56800
H  43.99300 8.80100 36.82800

