158

Mg 42.83900 41.42100 26.47800
C  41.49500 43.64500 28.72000
C  43.60300 39.24000 29.02200
C  43.93800 39.29800 24.17100
C  41.80600 43.66500 23.94600
N  42.67600 41.48100 28.61600
C  42.07900 42.57000 29.35100
C  42.07600 42.18100 30.85000
C  42.82200 40.79200 30.94800
C  43.05100 40.45800 29.42600
C  44.18900 40.75600 31.74700
C  40.69300 42.12500 31.53600
C  40.44200 43.05500 32.74600
H  39.93400 42.43600 34.06900
N  43.65200 39.51100 26.58500
C  43.88500 38.77500 27.75200
C  44.42700 37.55300 27.36300
C  44.79100 37.54900 25.99600
C  44.09300 38.82700 25.51500
C  44.68100 36.52800 28.39400
C  45.53200 36.59500 25.01700
O  45.85000 36.83700 23.85900
C  45.84600 35.30600 25.58900
N  42.79700 41.49900 24.40700
C  43.33700 40.49300 23.66900
C  43.03800 40.62600 22.18200
C  42.42200 42.08200 22.01700
C  42.31900 42.46300 23.56600
C  44.22600 40.33700 21.26000
C  41.14400 42.38100 21.16300
C  41.22900 43.66400 20.24400
N  41.92500 43.30600 26.33700
C  41.63700 44.11000 25.28100
C  40.94400 45.31900 25.71800
C  40.88400 45.16000 27.08600
C  41.48000 43.89300 27.38700
C  40.42400 46.38200 24.86300
C  40.45400 45.82200 28.24500
O  39.83200 46.86500 28.38900
C  40.86600 44.87100 29.45100
C  41.65000 45.68900 30.39000
O  42.78700 46.08900 30.18200
O  40.94000 45.97200 31.51300
C  41.55800 46.52900 32.67100
H  44.04300 38.55600 29.75200
H  44.21900 38.50100 23.47900
H  41.58400 44.34600 23.12300
H  42.68700 42.88800 31.41200
H  42.13300 40.08500 31.41200
H  44.05500 39.92400 32.43900
H  44.27300 41.66600 32.34000
H  45.03600 40.70800 31.06300
H  40.47400 41.17600 32.02500
H  39.90800 42.26700 30.79300
H  39.65600 43.72000 32.38900
H  41.37700 43.53400 33.03700
H  44.77100 35.58700 27.85100
H  43.93400 36.42800 29.18200
H  45.66300 36.72100 28.82500
H  46.60700 35.53900 26.33400
H  46.35700 34.68200 24.85700
H  45.08100 34.62200 25.95700
H  42.24300 39.88600 22.09500
H  43.22400 42.73500 21.67300
H  44.99900 39.75000 21.75600
H  44.70400 41.26200 20.93700
H  43.91300 39.77100 20.38300
H  40.34300 42.49900 21.89300
H  40.80800 41.51700 20.59100
H  41.66900 43.44500 19.27100
H  41.97800 44.35300 20.63400
H  40.33800 44.29100 20.19900
H  40.81700 46.37600 23.84700
H  40.73500 47.28500 25.38800
H  39.34600 46.22200 24.87600
H  39.92800 44.66000 29.96500
H  42.47600 47.09700 32.52100
H  41.79800 45.76400 33.40900
H  40.91100 47.28600 33.11400
Mg -1.95500 34.31100 27.74300
C  -3.83400 32.42800 29.91800
C  -0.47200 35.91900 30.48400
C  -0.51400 36.44900 25.57200
C  -3.77100 32.88300 25.05200
N  -2.20000 34.23100 29.94800
C  -3.03900 33.33200 30.62600
C  -2.65500 33.23300 32.09600
C  -1.73900 34.45700 32.25700
C  -1.39900 34.88400 30.82800
C  -2.22600 35.67200 33.12400
C  -2.06400 31.86100 32.52200
C  -2.54700 31.27300 33.89000
H  -1.88200 31.84300 35.21900
N  -0.54600 35.83600 27.94900
C  -0.06500 36.38200 29.13000
C  0.90100 37.37300 28.76500
C  0.88000 37.51900 27.34000
C  -0.10500 36.56700 26.88300
C  1.72500 38.19800 29.76700
C  1.80400 38.44300 26.44700
O  1.79300 38.47300 25.20800
C  2.92200 39.18800 27.07400
N  -2.15800 34.57500 25.53800
C  -1.35800 35.52200 24.96900
C  -1.60500 35.53800 23.50800
C  -2.58000 34.31100 23.30700
C  -2.81600 33.82800 24.69300
C  -2.20100 36.81600 22.83400
C  -2.09800 33.20800 22.25900
C  -3.11900 32.85700 21.16200
N  -3.43600 32.96300 27.43800
C  -4.00300 32.42400 26.32200
C  -5.06100 31.45800 26.73400
C  -4.90500 31.39900 28.06400
C  -3.98000 32.33100 28.50300
C  -5.89200 30.60300 25.82200
C  -5.43700 30.64200 29.22800
O  -6.23300 29.69500 29.19100
C  -4.77200 31.35100 30.51200
C  -5.96700 31.82500 31.27800
O  -6.86200 32.40100 30.74800
O  -5.94500 31.47300 32.56500
C  -6.94300 31.93500 33.53600
H  0.00400 36.39600 31.34400
H  -0.08800 37.23400 24.94400
H  -4.38800 32.49700 24.23800
H  -3.56800 33.39600 32.66900
H  -0.70600 34.35300 32.58800
H  -1.76600 35.55400 34.10500
H  -3.31200 35.65200 33.21500
H  -1.92700 36.63000 32.69900
H  -0.99400 32.06600 32.54100
H  -2.23700 31.05100 31.81300
H  -2.56700 30.19200 33.74700
H  -3.58800 31.54800 34.05800
H  1.46100 38.13600 30.82300
H  1.64500 39.23900 29.45400
H  2.78900 37.98400 29.66200
H  2.51500 39.98400 27.69800
H  3.42300 39.79100 26.31700
H  3.53300 38.49500 27.65100
H  -0.62900 35.32600 23.07000
H  -3.57000 34.60300 22.95800
H  -2.69600 37.50600 23.51700
H  -3.03900 36.45400 22.23800
H  -1.48200 37.21400 22.11700
H  -1.79000 32.30200 22.78100
H  -1.24500 33.57500 21.68900
H  -3.18100 31.78000 21.00300
H  -2.79700 33.48300 20.33000
H  -4.09300 33.28400 21.40200
H  -5.14700 30.04300 25.25700
H  -6.45100 31.25200 25.14800
H  -6.51900 29.96100 26.44100
H  -4.22900 30.63500 31.12800
H  -6.54000 32.61900 34.28300
H  -7.16200 31.01800 34.08300
H  -7.83600 32.26300 33.00400

