158

Mg 8.84500 3.37900 27.08600
C  10.12000 1.55900 29.75600
C  7.44900 5.61100 29.16300
C  7.10900 4.48800 24.44500
C  10.16900 0.70500 24.94100
N  8.88100 3.53900 29.31000
C  9.37700 2.70800 30.18300
C  9.13700 3.18800 31.58900
C  8.21300 4.44300 31.33700
C  8.19100 4.59400 29.85600
C  6.87200 4.42800 32.01600
C  10.41400 3.50200 32.48500
C  10.24500 4.51200 33.64300
H  11.06800 4.30600 34.90100
N  7.45200 4.86800 26.80500
C  7.14100 5.78700 27.79600
C  6.27700 6.83200 27.28800
C  6.07300 6.43300 25.91800
C  6.85300 5.16000 25.63600
C  5.81600 8.07200 28.02900
C  5.31500 7.15700 24.78400
O  5.18500 6.79300 23.60900
C  4.71100 8.54800 25.00300
N  8.63900 2.68700 24.98000
C  7.87700 3.39900 24.09100
C  7.88200 2.69100 22.77400
C  8.98200 1.60400 22.96600
C  9.35000 1.73200 24.35000
C  6.48800 2.13800 22.42700
C  10.14200 1.73600 21.89900
C  10.37200 0.61600 20.88700
N  10.05900 1.54900 27.21600
C  10.50100 0.61700 26.29000
C  11.08200 -0.53800 27.00400
C  11.03700 -0.16600 28.36300
C  10.41300 1.12200 28.43900
C  11.53600 -1.80900 26.45400
C  11.36700 -0.49700 29.64000
O  12.00900 -1.46400 30.05400
C  10.76400 0.58800 30.63400
C  9.87600 -0.09000 31.52800
O  8.74300 -0.48700 31.28600
O  10.52100 -0.25500 32.77900
C  9.68400 -0.81300 33.86600
H  6.85900 6.22000 29.85300
H  6.58000 4.88800 23.57700
H  10.47300 -0.14900 24.33200
H  8.55600 2.47100 32.16900
H  8.71200 5.35900 31.65200
H  6.67300 5.47900 32.22900
H  6.85600 3.80500 32.91000
H  6.09800 3.93000 31.43100
H  11.27500 3.79400 31.88400
H  10.66500 2.56700 32.98500
H  9.19000 4.47000 33.91400
H  10.38100 5.52700 33.27000
H  6.08600 8.00000 29.08300
H  4.72700 8.03500 27.99600
H  6.22300 9.02000 27.67600
H  5.46000 9.34000 24.98200
H  4.11100 8.54300 25.91300
H  4.00000 8.66500 24.18500
H  8.16200 3.37200 21.97000
H  8.52100 0.61900 22.88700
H  6.17700 2.50800 21.45000
H  5.63500 2.31500 23.08200
H  6.60600 1.07300 22.22900
H  11.07100 1.87600 22.45000
H  10.04600 2.66100 21.33000
H  9.99600 1.09900 19.98600
H  9.71700 -0.23800 21.05800
H  11.37300 0.22300 20.70800
H  12.57400 -1.85000 26.12500
H  10.79900 -2.01200 25.67800
H  11.42600 -2.45100 27.32800
H  11.58700 1.07200 31.15900
H  8.61400 -0.62600 33.78500
H  10.01700 -0.50500 34.85700
H  9.87200 -1.88700 33.84700
Mg 40.74700 8.27300 29.02600
C  41.95900 9.77500 31.94300
C  38.55500 6.46200 31.09800
C  39.46900 6.64600 26.33100
C  43.26900 9.70300 27.18400
N  40.23700 8.28200 31.22300
C  40.84200 9.03800 32.17300
C  40.22200 8.76000 33.57800
C  39.27400 7.50300 33.31200
C  39.37700 7.34900 31.74500
C  39.60800 6.18000 33.90000
C  39.66400 10.07600 34.26700
C  39.76100 10.23400 35.82900
H  40.45200 11.38400 36.48500
N  39.17000 6.82100 28.73600
C  38.46100 6.22700 29.70900
C  37.47300 5.30800 29.12100
C  37.58800 5.47200 27.74200
C  38.74900 6.33400 27.50100
C  36.57800 4.31700 29.84900
C  36.75000 5.11800 26.58400
O  37.08500 5.31000 25.40400
C  35.44300 4.56500 26.84200
N  41.22500 8.10800 27.07700
C  40.62900 7.31900 26.11300
C  41.32600 7.50500 24.77600
C  42.33800 8.63600 25.07200
C  42.30300 8.82300 26.56700
C  42.09300 6.25500 24.20100
C  42.14900 9.97000 24.31100
C  41.17900 10.98100 24.91600
N  42.42300 9.33800 29.43500
C  43.33400 9.98000 28.56300
C  44.31000 10.74500 29.36700
C  43.84000 10.69200 30.70600
C  42.68700 9.85700 30.66200
C  45.43600 11.49900 28.76200
C  44.09200 11.06400 32.07700
O  44.97400 11.73600 32.61100
C  42.91800 10.45500 32.87900
C  43.35500 9.52100 33.94000
O  43.88600 8.41600 33.71600
O  43.10000 9.94700 35.20200
C  43.58800 8.96900 36.20800
H  37.90000 5.86300 31.73500
H  39.14800 6.08000 25.45400
H  44.07700 10.06700 26.54500
H  41.06400 8.40700 34.17300
H  38.25600 7.72200 33.63200
H  38.70700 5.87900 34.43500
H  40.41400 6.37500 34.60800
H  40.03800 5.45100 33.21400
H  38.59300 10.12300 34.06900
H  40.14100 10.96800 33.86100
H  40.24900 9.30400 36.11900
H  38.76000 10.14800 36.25200
H  36.74100 4.03900 30.89000
H  36.61700 3.37500 29.30200
H  35.54900 4.66400 29.75200
H  35.57900 3.60900 27.34900
H  34.74700 4.35200 26.03000
H  34.87100 5.17900 27.53700
H  40.59300 7.78500 24.01900
H  43.31400 8.21600 24.83000
H  41.74100 5.36400 24.72000
H  43.17400 6.30900 24.06700
H  41.68800 6.16600 23.19200
H  41.77000 9.78400 23.30600
H  43.17700 10.32800 24.25900
H  41.66900 11.77600 25.47800
H  40.57000 10.62800 25.74800
H  40.55200 11.40500 24.13200
H  45.63000 12.46900 29.22000
H  45.29000 11.81100 27.72800
H  46.31300 10.85700 28.84400
H  42.38100 11.27000 33.36500
H  44.65900 8.85300 36.04000
H  43.13000 8.00100 36.00300
H  43.26900 9.40900 37.15200

