158

Mg 47.91100 16.21800 28.25300
C  46.06400 16.04700 31.24000
C  50.34500 17.94900 29.98300
C  49.38300 16.85100 25.33500
C  45.19100 14.88400 26.61800
N  48.04900 17.18900 30.38800
C  47.29300 16.76600 31.42100
C  47.86200 17.32200 32.77300
C  49.19800 18.04500 32.28400
C  49.15300 17.82300 30.76300
C  49.22300 19.56900 32.64500
C  48.07800 16.32300 33.92900
C  47.43300 16.49600 35.28700
H  47.17300 17.88100 35.87700
N  49.61500 17.20700 27.71900
C  50.53100 17.73000 28.60700
C  51.70200 18.06700 27.82000
C  51.48900 17.82400 26.48100
C  50.08900 17.34800 26.46000
C  52.97900 18.38700 28.51300
C  52.38200 18.16600 25.33800
O  51.97300 18.05000 24.15200
C  53.76600 18.82000 25.54700
N  47.29300 15.89500 26.18800
C  48.17300 16.13100 25.18600
C  47.52600 15.74500 23.84900
C  46.10600 15.26000 24.23900
C  46.22800 15.26400 25.75000
C  47.64100 16.79800 22.69400
C  45.60800 13.87400 23.75400
C  44.62900 13.77900 22.61400
N  46.15200 15.42400 28.79500
C  45.14400 14.90600 28.02600
C  43.96700 14.58100 28.86400
C  44.32900 14.99500 30.14400
C  45.59400 15.50200 30.06600
C  42.63500 14.17100 28.35100
C  43.85100 15.02000 31.43100
O  42.86500 14.48800 31.88000
C  44.96900 15.68000 32.27000
C  44.44500 16.78200 33.13000
O  44.54100 17.91100 32.76800
O  43.80100 16.32400 34.23800
C  42.92800 17.31700 34.89800
H  51.18000 18.27900 30.60400
H  50.01100 16.74200 24.44800
H  44.36600 14.39700 26.09200
H  47.22600 18.17900 32.99200
H  50.11700 17.59400 32.65800
H  48.74000 20.25100 31.94600
H  50.19100 20.03200 32.83400
H  48.68200 19.79100 33.56500
H  49.14100 16.21700 34.14600
H  47.73500 15.37200 33.52100
H  48.15400 15.97500 35.91700
H  46.49100 15.94700 35.28600
H  53.67500 17.69000 28.04500
H  52.95000 18.08100 29.55900
H  53.15200 19.45300 28.37100
H  54.16500 19.13300 24.58200
H  54.47300 18.05400 25.86700
H  53.65000 19.63700 26.25900
H  48.03200 14.82700 23.55100
H  45.51100 16.08200 23.84300
H  47.96200 16.25300 21.80600
H  48.42200 17.51500 22.94800
H  46.72700 17.38100 22.59200
H  45.18200 13.36300 24.61700
H  46.52900 13.38700 23.43200
H  45.20600 13.42100 21.76100
H  44.15100 14.74800 22.47800
H  43.92000 12.97700 22.82300
H  42.45900 13.10200 28.46700
H  42.41400 14.53800 27.34900
H  41.81300 14.68100 28.85200
H  45.31900 14.98700 33.03500
H  42.62000 18.12800 34.23800
H  43.47700 17.68200 35.76600
H  41.98300 16.82900 35.13600
Mg 48.47700 34.96600 27.42000
C  46.29500 33.50400 29.74900
C  48.83900 37.68800 29.33800
C  49.89900 36.53400 24.78500
C  47.81900 32.20100 25.30300
N  47.65700 35.51300 29.30400
C  46.94200 34.68800 30.22900
C  47.09200 35.27300 31.60800
C  47.63600 36.74600 31.30400
C  48.14200 36.61300 29.90000
C  46.51000 37.80200 31.50700
C  48.10000 34.32400 32.44500
C  48.18200 34.39700 33.96900
H  47.20100 35.33400 34.68000
N  49.11800 36.90100 27.14500
C  49.20900 37.87500 28.02400
C  49.71200 39.02600 27.46000
C  50.06900 38.71100 26.12300
C  49.69700 37.32500 25.95500
C  49.83600 40.35700 28.20000
C  50.73600 39.69400 25.19400
O  50.92000 39.39200 23.99400
C  51.40200 41.04200 25.73300
N  48.88200 34.49100 25.35900
C  49.49400 35.28300 24.48700
C  49.83600 34.58700 23.15400
C  49.04500 33.21800 23.27700
C  48.58100 33.24500 24.73200
C  49.58900 35.31700 21.89400
C  49.85200 31.93100 22.89500
C  49.40400 31.05700 21.63400
N  47.39000 33.16800 27.51500
C  47.18600 32.15900 26.56800
C  46.20000 31.20000 27.01800
C  45.91000 31.58700 28.29400
C  46.56600 32.84200 28.51900
C  45.76100 29.90700 26.36500
C  45.08100 31.29600 29.44800
O  44.34200 30.40200 29.73600
C  45.21500 32.60900 30.39600
C  45.47000 32.13100 31.76600
O  46.29400 31.27300 32.16200
O  44.58300 32.65600 32.58800
C  44.51600 32.06700 33.89600
H  49.05500 38.50300 30.03200
H  50.53100 37.04600 24.05600
H  47.70800 31.34600 24.63300
H  46.09800 35.23800 32.05400
H  48.39300 36.95500 32.06000
H  45.60600 37.36100 31.92600
H  46.39000 38.48500 30.66500
H  46.88200 38.51500 32.24400
H  49.09000 34.44400 32.00600
H  47.98800 33.31400 32.05000
H  49.17600 34.72300 34.27600
H  47.92100 33.43300 34.40400
H  49.50800 41.25000 27.66700
H  50.89400 40.43700 28.44800
H  49.29000 40.44000 29.13900
H  52.19100 41.33000 25.03800
H  51.96500 40.81000 26.63700
H  50.74100 41.90000 25.85800
H  50.90400 34.37200 23.11900
H  48.14400 33.22400 22.66500
H  48.97200 34.68500 21.25600
H  50.49600 35.48100 21.31200
H  49.07500 36.26100 22.07200
H  50.04200 31.27700 23.74600
H  50.86800 32.23400 22.64200
H  49.37500 30.04100 22.03000
H  50.14200 31.16700 20.84000
H  48.43000 31.34700 21.24100
H  46.01600 29.02500 26.95200
H  46.00600 30.07800 25.31700
H  44.67300 29.84300 26.37800
H  44.22700 33.06800 30.42700
H  44.74500 31.00600 33.80300
H  43.55800 32.19100 34.40100
H  45.31000 32.57500 34.44400

