158

Mg 24.22700 -5.43000 46.22900
C  26.40800 -2.96800 44.59400
C  21.70800 -4.20400 44.13600
C  22.59100 -8.06200 46.82200
C  27.07700 -6.59200 47.78800
N  24.12300 -3.74000 44.65600
C  25.05100 -2.85600 44.16000
C  24.45700 -1.84800 43.13800
C  22.91800 -2.08200 43.37500
C  22.86700 -3.40800 44.09700
C  22.23700 -0.99500 44.18800
C  25.00800 -2.23200 41.69800
C  25.46800 -1.03600 40.87100
H  24.98000 -0.87400 39.44800
N  22.33000 -6.00500 45.70200
C  21.47200 -5.41000 44.83100
C  20.25400 -6.19300 44.70100
C  20.39200 -7.37100 45.49900
C  21.78900 -7.22800 46.06300
C  19.21400 -5.80800 43.70900
C  19.31400 -8.40000 45.80300
O  18.18600 -8.34100 45.24500
C  19.50700 -9.67200 46.67700
N  24.76800 -7.08300 47.08800
C  23.82200 -8.00800 47.39000
C  24.40000 -9.11600 48.22100
C  25.73600 -8.46900 48.77000
C  25.90100 -7.29800 47.81100
C  23.45400 -9.79200 49.31800
C  26.87800 -9.39700 48.94400
C  27.45900 -9.62800 50.34000
N  26.29800 -4.92500 46.19500
C  27.31800 -5.45300 47.01500
C  28.56700 -4.79900 46.76200
C  28.26500 -3.77600 45.79100
C  26.87500 -3.99300 45.50400
C  29.89600 -5.04000 47.51700
C  28.72300 -2.68700 45.00600
O  29.85200 -2.26300 44.91000
C  27.54800 -2.11700 44.13800
C  27.54400 -0.64900 44.48000
O  27.65400 -0.16800 45.60100
O  27.53600 0.16100 43.33700
C  27.91500 1.59700 43.58300
H  20.99300 -3.58600 43.58900
H  22.00900 -8.91800 47.17000
H  27.92200 -6.93500 48.38800
H  24.77100 -0.81900 43.31400
H  22.42400 -2.25400 42.41900
H  21.46100 -0.48100 43.62000
H  22.92700 -0.21100 44.49700
H  21.68500 -1.36100 45.05300
H  24.17000 -2.64400 41.13700
H  25.86800 -2.89800 41.63100
H  26.55000 -1.15900 40.91900
H  25.16600 -0.13700 41.40800
H  19.60200 -5.09800 42.97900
H  18.42600 -5.35000 44.30800
H  18.72700 -6.68200 43.27600
H  20.00900 -9.36700 47.59500
H  20.05400 -10.49200 46.21200
H  18.48100 -9.92700 46.94100
H  24.50700 -9.97800 47.56300
H  25.54200 -8.03100 49.74900
H  23.50000 -10.87900 49.25100
H  22.40900 -9.49600 49.23200
H  23.76200 -9.68400 50.35800
H  27.69900 -9.15700 48.26900
H  26.56800 -10.42700 48.76800
H  26.58600 -9.63300 50.99200
H  27.98900 -8.71400 50.60800
H  28.07000 -10.53100 50.31100
H  30.29100 -4.09800 47.89700
H  30.63500 -5.55800 46.90400
H  29.66200 -5.72900 48.32900
H  27.80000 -2.14900 43.07800
H  28.59400 1.70800 44.42800
H  26.99000 2.11200 43.84200
H  28.37000 2.04000 42.69700
Mg 43.34500 41.70500 26.10700
C  42.70100 44.10500 28.47600
C  44.13200 39.52400 28.90900
C  44.37600 39.37900 23.99900
C  43.10900 44.02900 23.61800
N  43.31100 41.81100 28.50000
C  43.00900 42.91500 29.20000
C  43.04900 42.67100 30.67000
C  43.58300 41.16400 30.79100
C  43.70700 40.77600 29.36400
C  44.79200 40.80500 31.74200
C  41.65900 43.04800 31.33300
C  41.02600 42.20000 32.52600
H  40.43200 42.82500 33.79000
N  44.06000 39.70500 26.34700
C  44.29900 39.03200 27.59200
C  44.79900 37.69600 27.19600
C  44.79200 37.54800 25.76900
C  44.39900 38.90600 25.34600
C  45.29500 36.69800 28.20600
C  44.98400 36.26500 24.95200
O  44.93200 36.32500 23.68500
C  45.18300 34.91200 25.52800
N  43.63500 41.76200 24.16500
C  43.96100 40.58900 23.52500
C  43.87300 40.79600 21.94600
C  43.61400 42.31800 21.80600
C  43.39000 42.75500 23.26300
C  45.00700 40.32600 21.08900
C  42.42200 42.67500 20.88300
C  42.69700 42.74800 19.38900
N  43.01400 43.59800 26.06100
C  42.88400 44.47200 24.96000
C  42.43900 45.76600 25.42500
C  42.35300 45.65700 26.76300
C  42.74600 44.35800 27.11900
C  42.08700 46.93300 24.63400
C  41.98400 46.40600 27.99900
O  41.59500 47.51800 28.21700
C  42.32900 45.41200 29.12800
C  43.35600 46.13400 30.03300
O  44.51000 46.40000 29.61700
O  42.79300 46.52800 31.23200
C  43.80300 46.95000 32.25400
H  44.24500 38.86300 29.77000
H  44.82300 38.75600 23.22100
H  42.94700 44.72900 22.79600
H  43.75800 43.38200 31.09300
H  42.84800 40.51800 31.27100
H  45.63900 40.41200 31.18000
H  44.48400 40.07100 32.48700
H  45.17900 41.70800 32.21500
H  40.92900 43.02100 30.52400
H  41.71500 44.05800 31.74000
H  41.60300 41.29800 32.72900
H  40.15300 41.91200 31.94000
H  46.34600 36.54000 27.96500
H  44.81300 35.73000 28.06400
H  45.26900 36.99100 29.25500
H  46.16000 34.94300 26.01200
H  45.24600 34.16600 24.73600
H  44.42000 34.61400 26.24700
H  42.95600 40.27100 21.67700
H  44.49200 42.85800 21.45300
H  44.80200 39.29900 20.78600
H  45.92200 40.52700 21.64700
H  45.15800 40.94500 20.20500
H  41.93600 43.62600 21.10100
H  41.65600 41.90400 20.97200
H  42.63200 43.73500 18.93100
H  42.06300 42.07100 18.81700
H  43.72100 42.37500 19.38200
H  41.88000 47.83200 25.21400
H  41.32000 46.76100 23.87900
H  43.00100 47.15300 24.08200
H  41.33800 45.25700 29.55400
H  44.68300 47.43500 31.83200
H  44.12000 46.13000 32.89900
H  43.30400 47.73900 32.81600

