158

Mg 25.90500 50.69000 26.03500
C  23.81300 51.79300 28.61800
C  28.03800 49.32800 28.42000
C  28.20600 50.14300 23.64700
C  23.62600 51.94000 23.83800
N  25.90900 50.58300 28.30800
C  24.95500 51.11400 29.17600
C  25.23500 50.92900 30.63300
C  26.60500 50.17200 30.48700
C  26.95100 50.01400 28.98300
C  27.82700 50.78700 31.26800
C  24.08300 50.16500 31.38700
C  24.41900 49.42000 32.73200
H  23.57600 49.80100 33.97400
N  27.81700 49.82200 26.03300
C  28.49500 49.29700 27.05300
C  29.77000 48.64300 26.58300
C  29.85900 48.87800 25.25100
C  28.61900 49.70000 24.89600
C  30.65000 47.80700 27.47000
C  30.87700 48.28800 24.32000
O  30.93400 48.70000 23.20100
C  31.96100 47.30300 24.71800
N  25.99600 51.08100 24.07600
C  26.98100 50.64700 23.26200
C  26.53800 50.87000 21.75600
C  25.05800 51.29700 21.77000
C  24.84600 51.38100 23.34300
C  27.39100 51.81200 21.01000
C  23.99000 50.19800 21.12800
C  23.65300 50.55900 19.68300
N  24.04300 51.55800 26.11200
C  23.20400 51.99600 25.14900
C  22.00000 52.47700 25.63600
C  22.23700 52.54900 26.99500
C  23.47400 51.91500 27.26100
C  20.72100 52.94900 24.86900
C  21.68600 53.02000 28.24800
O  20.64900 53.71400 28.44400
C  22.65800 52.45200 29.38300
C  23.09500 53.53600 30.33900
O  24.16300 54.12300 30.30400
O  22.13500 53.69500 31.28700
C  22.28200 54.62900 32.42000
H  28.55200 48.97500 29.31600
H  29.00200 50.08100 22.90200
H  22.87200 52.22200 23.10100
H  25.33900 51.90900 31.09800
H  26.44500 49.16900 30.88200
H  27.62100 51.52700 32.04100
H  28.63900 51.14500 30.63500
H  28.35500 49.98600 31.78500
H  23.93600 49.30800 30.72900
H  23.12300 50.67700 31.45200
H  25.44800 49.57700 33.05600
H  24.16400 48.36100 32.69900
H  30.52200 46.72900 27.37500
H  30.52400 48.06300 28.52200
H  31.67900 48.13700 27.32300
H  31.53500 46.35600 25.04900
H  32.33400 47.92200 25.53400
H  32.71600 47.14400 23.94800
H  26.69400 49.91400 21.25600
H  24.88400 52.28700 21.34900
H  28.16200 52.21900 21.66500
H  26.80500 52.58000 20.50500
H  27.91700 51.17600 20.29800
H  23.07800 50.30600 21.71400
H  24.62700 49.31600 21.20000
H  22.56800 50.66200 19.66800
H  24.02100 49.76100 19.03800
H  24.04500 51.51400 19.33500
H  20.78400 54.02300 24.69400
H  19.85900 52.84300 25.52700
H  20.60600 52.40900 23.93000
H  21.99900 51.70800 29.82900
H  21.40400 55.26400 32.30000
H  23.13200 55.30700 32.33900
H  22.37900 54.15300 33.39600
Mg -0.25500 43.28800 24.61100
C  2.02800 42.98700 27.33600
C  -2.73300 42.34800 26.84200
C  -2.33900 43.30800 22.05700
C  2.54400 43.58300 22.42200
N  -0.33500 42.83500 26.87500
C  0.71900 42.82500 27.75000
C  0.28000 42.60300 29.19400
C  -1.27300 42.15100 29.00100
C  -1.49400 42.48300 27.51500
C  -1.66100 40.67400 29.33300
C  0.55400 43.91200 30.05400
C  1.05200 43.63700 31.44100
H  0.80100 42.25400 32.04000
N  -2.27300 43.07600 24.45300
C  -3.05700 42.65400 25.48000
C  -4.38500 42.61700 24.84200
C  -4.40700 42.83200 23.51400
C  -2.92400 43.06500 23.27700
C  -5.56600 42.19500 25.64500
C  -5.54200 42.90400 22.44700
O  -5.35900 43.20800 21.27100
C  -6.92800 42.63800 22.89600
N  0.04600 43.36900 22.55200
C  -0.96400 43.42400 21.68000
C  -0.54900 43.76100 20.19600
C  1.01000 43.91400 20.43000
C  1.21100 43.65700 21.90800
C  -1.05800 42.72700 19.15800
C  1.42100 45.31100 19.90200
C  0.97200 46.51400 20.67700
N  1.85600 43.22100 24.78600
C  2.85400 43.35900 23.80300
C  4.08900 43.38400 24.44400
C  3.85000 43.13000 25.80600
C  2.43800 42.98400 25.97500
C  5.39400 43.46000 23.84400
C  4.48400 42.95700 27.13200
O  5.68100 43.00800 27.46800
C  3.26800 42.97400 28.13700
C  3.49800 41.76300 28.93800
O  2.98800 40.64100 28.71900
O  4.28100 42.17600 30.00000
C  4.65500 41.07200 30.85200
H  -3.50300 42.03500 27.55000
H  -3.03000 43.29500 21.21200
H  3.40800 43.89400 21.83200
H  0.73100 41.66600 29.51900
H  -1.85300 42.93700 29.48300
H  -2.26200 40.70800 30.24200
H  -0.85600 39.99400 29.61300
H  -2.30300 40.24400 28.56500
H  -0.39000 44.45200 30.13500
H  1.17800 44.61000 29.49500
H  0.53500 44.37600 32.05200
H  2.12800 43.78200 31.34400
H  -6.12400 41.44000 25.09200
H  -6.21100 43.06200 25.78700
H  -5.23800 41.82600 26.61700
H  -7.16500 41.57500 22.94300
H  -7.50500 43.10600 22.09900
H  -7.23600 43.23000 23.75800
H  -0.95300 44.75400 20.00400
H  1.55300 43.15700 19.86400
H  -0.22100 42.15400 18.76000
H  -1.52300 43.24900 18.32100
H  -1.75100 41.98900 19.56300
H  1.01200 45.41100 18.89600
H  2.50900 45.33900 19.83800
H  1.85100 46.98700 21.11300
H  0.43400 46.22100 21.57800
H  0.46600 47.23800 20.03900
H  6.05800 43.37600 24.70400
H  5.55500 44.36400 23.25600
H  5.58200 42.70700 23.07800
H  3.30500 43.86800 28.75900
H  5.69200 41.24900 31.13600
H  4.65900 40.03900 30.50400
H  4.05700 41.03100 31.76300

