158

Mg 25.01600 -6.90900 46.87000
C  27.55100 -4.73900 46.10900
C  22.88100 -5.17600 44.70800
C  22.95700 -9.58600 46.89800
C  27.34200 -8.81800 48.73300
N  25.30500 -5.24300 45.52000
C  26.44400 -4.45300 45.30400
C  26.29200 -3.49100 44.20900
C  24.63600 -3.42300 43.97400
C  24.21100 -4.68700 44.83100
C  24.01900 -2.09200 44.41100
C  27.05300 -3.84300 42.94900
C  27.78400 -2.59400 42.34900
H  27.48800 -2.23600 40.86800
N  23.15100 -7.33200 45.93200
C  22.40200 -6.43200 45.27700
C  21.09700 -7.05900 44.96700
C  21.16300 -8.37700 45.43000
C  22.43200 -8.49800 46.14200
C  19.93700 -6.34700 44.28400
C  19.98100 -9.36300 45.29100
O  19.04400 -9.07400 44.50600
C  19.89300 -10.69300 45.97400
N  25.10100 -8.99300 47.72800
C  24.05100 -9.80100 47.72000
C  24.27600 -11.17400 48.37400
C  25.63000 -10.76300 49.11000
C  26.07000 -9.45500 48.48000
C  23.13600 -11.67700 49.25900
C  26.75200 -11.78700 49.05100
C  27.38900 -12.20800 50.38100
N  27.02300 -6.77800 47.47600
C  27.78300 -7.62500 48.24600
C  29.12400 -6.98700 48.44700
C  28.99600 -5.83000 47.64400
C  27.72100 -5.73100 47.09200
C  30.29300 -7.55500 49.28600
C  29.76100 -4.71800 47.17900
O  30.96900 -4.51000 47.39400
C  28.89200 -3.97300 46.11800
C  28.72300 -2.61800 46.53500
O  28.01100 -2.26900 47.48700
O  29.32400 -1.84000 45.63300
C  28.89600 -0.40200 45.57200
H  22.18800 -4.62600 44.06700
H  22.32800 -10.47900 46.89000
H  28.12800 -9.30800 49.31000
H  26.56000 -2.48900 44.54400
H  24.45400 -3.52100 42.90300
H  24.61400 -1.22300 44.69200
H  23.24400 -2.15600 45.17500
H  23.51000 -1.75900 43.50700
H  26.40600 -4.27400 42.18500
H  27.80000 -4.59800 43.19400
H  28.81400 -2.88500 42.55500
H  27.82100 -1.74900 43.03600
H  19.87200 -6.90400 43.34900
H  20.02000 -5.30400 43.97900
H  19.01900 -6.60000 44.81300
H  19.98100 -10.65600 47.06000
H  20.73900 -11.25900 45.58400
H  19.01900 -11.26300 45.66100
H  24.52700 -11.98200 47.68600
H  25.25700 -10.48400 50.09600
H  23.25600 -11.45900 50.32000
H  23.03300 -12.74900 49.09200
H  22.17100 -11.19800 49.09700
H  27.58100 -11.44900 48.43000
H  26.42700 -12.75000 48.65700
H  27.33900 -13.29000 50.50400
H  26.93300 -11.59900 51.16200
H  28.42600 -11.87600 50.41000
H  29.76400 -8.15500 50.02700
H  30.77900 -6.69000 49.73600
H  30.94100 -8.11300 48.60900
H  29.22900 -4.03600 45.08300
H  29.27300 0.00000 44.63200
H  29.24100 0.18600 46.42200
H  27.80800 -0.39200 45.51000
Mg -10.17700 18.42500 42.75500
C  -6.77000 17.47600 42.92900
C  -9.11200 21.60400 42.18000
C  -13.29200 19.31800 42.69700
C  -11.05000 14.93500 43.06700
N  -8.11500 19.35600 42.56500
C  -6.88700 18.83300 42.73600
C  -5.78700 19.86200 42.45900
C  -6.53400 21.23000 42.53400
C  -8.04500 20.70600 42.45600
C  -6.36800 22.09400 43.85200
C  -4.80000 19.56500 41.21300
C  -5.34600 18.62600 40.08900
H  -5.23800 19.10900 38.62000
N  -11.09100 20.26500 42.38500
C  -10.47600 21.44400 42.16100
C  -11.51400 22.48300 42.05700
C  -12.80400 21.77300 42.11400
C  -12.47400 20.42600 42.43600
C  -11.10700 23.99000 41.68300
C  -14.17800 22.40600 41.74700
O  -14.36400 23.61900 41.55400
C  -15.40300 21.58500 41.60700
N  -11.94500 17.22800 42.55400
C  -13.14700 17.91000 42.76500
C  -14.28700 16.87700 42.90100
C  -13.56500 15.53000 42.73100
C  -12.09100 15.81900 42.68800
C  -15.16700 17.06200 44.25900
C  -14.08000 14.75900 41.54100
C  -15.20900 13.78500 41.86700
N  -9.17600 16.53800 42.90500
C  -9.65600 15.20800 43.06300
C  -8.52800 14.30500 43.11200
C  -7.39100 15.13300 43.03900
C  -7.79300 16.45600 42.96900
C  -8.72200 12.76300 43.31200
C  -5.94600 15.20400 43.05800
O  -5.13400 14.28100 42.93500
C  -5.49800 16.68500 43.21200
C  -5.11300 16.80300 44.61100
O  -5.94000 16.83700 45.51600
O  -3.75900 16.66500 44.79200
C  -3.18200 16.38000 46.06900
H  -8.90300 22.66800 42.04700
H  -14.36000 19.48500 42.85500
H  -11.29600 13.88500 43.23500
H  -5.16100 19.84600 43.35200
H  -6.39700 21.87100 41.66300
H  -7.07900 21.70800 44.58200
H  -6.63300 23.11900 43.59200
H  -5.37000 22.01100 44.28200
H  -3.94100 19.06300 41.65800
H  -4.37300 20.50600 40.86500
H  -6.35300 18.27900 40.32400
H  -4.65100 17.78700 40.11300
H  -11.94000 24.68100 41.81000
H  -10.46900 24.09300 40.80500
H  -10.50300 24.32300 42.52700
H  -15.93400 21.59100 42.55900
H  -15.22000 20.53900 41.35900
H  -16.09700 21.98800 40.87000
H  -14.99500 17.07000 42.09600
H  -13.81400 14.88300 43.57200
H  -14.98900 18.02200 44.74400
H  -14.96400 16.34000 45.04900
H  -16.20700 17.15600 43.94500
H  -13.29900 14.16100 41.07200
H  -14.53500 15.29600 40.70900
H  -15.95100 13.97900 41.09300
H  -15.60600 13.82100 42.88200
H  -14.86700 12.77100 41.65900
H  -9.12000 12.54400 44.30200
H  -7.73100 12.31100 43.36600
H  -9.20200 12.38300 42.41000
H  -4.68500 16.95000 42.53600
H  -2.45900 15.57100 45.96100
H  -3.95200 16.12400 46.79700
H  -2.68300 17.24800 46.49900

