158

Mg 26.04400 50.30300 27.10700
C  24.09600 51.43400 29.84400
C  28.46200 49.32300 29.45300
C  27.95500 49.21600 24.56400
C  23.62900 51.44300 24.96300
N  26.26200 50.29300 29.40100
C  25.27000 50.83700 30.26200
C  25.63900 50.36500 31.72100
C  27.09100 49.82200 31.57400
C  27.28600 49.80900 30.05600
C  28.23500 50.51200 32.39700
C  24.52700 49.35400 32.39700
C  23.88700 49.82900 33.71100
H  24.93400 50.15800 34.87500
N  27.89000 49.47200 26.96500
C  28.77900 49.26800 28.05400
C  30.04700 48.71500 27.55500
C  29.95300 48.62500 26.08900
C  28.55000 49.07700 25.85400
C  31.11500 48.29200 28.48100
C  30.99500 48.12000 25.12900
O  30.70500 48.02900 23.92400
C  32.38700 47.73700 25.61300
N  25.90900 50.38100 25.06000
C  26.76500 49.76600 24.18900
C  26.36100 50.01300 22.68200
C  24.84600 50.22000 22.92400
C  24.70300 50.71300 24.43700
C  27.19200 51.13600 21.95000
C  23.91400 49.00400 22.61000
C  23.31200 48.09500 23.75200
N  24.32200 51.33600 27.27400
C  23.42500 51.70700 26.27800
C  22.26900 52.34100 26.85600
C  22.51600 52.28800 28.28300
C  23.76800 51.65600 28.47800
C  21.07500 52.97300 26.17100
C  21.98300 52.63200 29.59900
O  20.86500 53.10500 29.89400
C  23.00600 52.08600 30.69500
C  23.42200 53.10900 31.58900
O  24.54200 53.64900 31.58300
O  22.46400 53.33200 32.61100
C  22.82200 54.22800 33.75600
H  29.24900 48.99600 30.13500
H  28.50300 48.83800 23.69800
H  22.83200 51.54600 24.22400
H  25.64900 51.32600 32.23500
H  27.08500 48.78800 31.91800
H  28.83100 49.65200 32.70100
H  27.86200 51.00800 33.29300
H  28.90500 51.05100 31.72700
H  25.03100 48.44300 32.71800
H  23.79100 49.17000 31.61500
H  23.40300 48.97000 34.17700
H  23.16600 50.63600 33.57800
H  30.93900 47.25300 28.76200
H  31.13300 48.79800 29.44600
H  32.10100 48.32300 28.01700
H  32.80700 48.62900 26.07800
H  33.07600 47.57100 24.78500
H  32.26700 46.87000 26.26200
H  26.50700 49.05100 22.19200
H  24.41800 51.01400 22.31100
H  28.03900 51.61700 22.43900
H  26.43200 51.82900 21.58900
H  27.52300 50.57200 21.07800
H  24.28400 48.38500 21.79300
H  23.03100 49.40300 22.11100
H  23.75100 47.09800 23.70900
H  22.24500 47.95300 23.58400
H  23.43900 48.46300 24.77000
H  21.02100 52.54500 25.17000
H  21.12300 54.06100 26.21700
H  20.17400 52.66300 26.70000
H  22.42800 51.48400 31.39600
H  22.61800 55.27900 33.54900
H  23.89200 54.14400 33.94700
H  22.13400 54.04800 34.58200
Mg -6.59900 25.08300 25.11800
C  -5.08100 26.50600 27.96700
C  -8.29000 22.99200 27.24500
C  -7.54400 23.24900 22.42400
C  -5.03300 27.40100 23.22700
N  -6.51900 24.70100 27.30200
C  -5.93500 25.47900 28.30700
C  -6.46200 25.02600 29.74600
C  -7.15000 23.69700 29.38300
C  -7.34200 23.75500 27.88000
C  -6.36500 22.45300 29.90400
C  -7.62400 26.11200 30.23200
C  -7.37200 26.70600 31.68500
H  -6.85800 25.67600 32.73400
N  -7.72900 23.33200 24.86900
C  -8.46800 22.75400 25.88000
C  -9.33400 21.73100 25.30400
C  -9.03400 21.69700 23.85400
C  -8.04900 22.77600 23.59600
C  -10.17800 20.88000 26.20400
C  -9.67700 20.89700 22.76100
O  -9.45400 21.15300 21.59000
C  -10.74100 19.90000 23.05500
N  -6.54400 25.38900 23.09700
C  -6.94000 24.49200 22.17400
C  -6.38500 24.93400 20.85000
C  -6.04700 26.39000 21.07100
C  -5.81600 26.44400 22.55100
C  -5.24000 24.04600 20.37800
C  -7.09100 27.45700 20.49600
C  -6.46700 28.31500 19.40100
N  -5.33100 26.71800 25.41900
C  -4.75500 27.56200 24.58700
C  -3.94300 28.56900 25.33800
C  -4.06800 28.12800 26.71600
C  -4.93500 26.99100 26.66900
C  -3.20400 29.74300 24.84700
C  -3.66800 28.51100 28.05700
O  -2.89700 29.33000 28.50200
C  -4.34800 27.34100 28.96900
C  -3.31000 26.62800 29.63800
O  -2.42400 25.94000 29.21100
O  -3.21100 27.10200 30.93200
C  -2.29700 26.54700 31.97300
H  -8.97400 22.45800 27.90800
H  -7.89300 22.78100 21.50100
H  -4.58000 28.09600 22.51700
H  -5.66600 24.92000 30.48300
H  -8.11300 23.56600 29.87600
H  -5.41000 22.70100 30.36700
H  -6.16500 21.78000 29.07100
H  -7.02900 21.90600 30.57300
H  -8.60900 25.64700 30.28500
H  -7.69200 26.96400 29.55500
H  -8.27100 27.07600 32.17700
H  -6.81700 27.64200 31.62200
H  -10.95700 20.36800 25.63800
H  -10.67100 21.43800 27.00000
H  -9.42500 20.24400 26.66800
H  -10.38300 19.16200 23.77300
H  -11.12000 19.47500 22.12700
H  -11.56800 20.52500 23.39200
H  -6.94700 24.84100 19.92100
H  -5.07200 26.57200 20.61800
H  -4.53300 24.69000 19.85400
H  -5.58600 23.40600 19.56700
H  -4.63900 23.51100 21.11300
H  -7.34400 28.14200 21.30500
H  -8.03700 27.01900 20.17900
H  -6.82900 28.05700 18.40600
H  -5.37800 28.34000 19.35600
H  -6.71400 29.37500 19.46000
H  -3.64600 29.98500 23.88000
H  -2.14500 29.48700 24.84900
H  -3.29100 30.59000 25.52700
H  -4.89600 27.76800 29.80900
H  -1.31000 26.48200 31.51400
H  -2.72500 25.60600 32.32000
H  -2.20600 27.27400 32.78000

