158

Mg 24.20700 -4.70600 45.63700
C  26.00800 -2.04500 44.43500
C  21.37000 -3.71400 43.82500
C  22.76600 -7.56300 46.45200
C  27.14100 -5.73400 47.37700
N  23.89900 -3.28200 44.01500
C  24.77500 -2.25200 43.79400
C  24.16500 -1.33600 42.72100
C  22.65200 -1.64700 42.88900
C  22.61500 -2.94000 43.63800
C  21.99200 -0.54300 43.70200
C  24.62400 -1.77100 41.32300
C  25.60100 -0.91500 40.46200
H  26.66300 -1.61900 39.59400
N  22.30800 -5.46900 45.24200
C  21.24000 -4.87200 44.57700
C  20.10300 -5.76700 44.74700
C  20.47400 -6.95100 45.45000
C  21.91200 -6.69000 45.71900
C  18.79000 -5.43100 44.10200
C  19.61700 -8.20900 45.68900
O  18.39100 -8.24000 45.40400
C  20.05800 -9.46800 46.41500
N  24.82600 -6.33400 46.73000
C  24.01800 -7.38200 46.95800
C  24.62600 -8.54200 47.84600
C  25.92600 -7.84000 48.32900
C  26.01200 -6.55100 47.40900
C  23.74900 -9.09800 48.99700
C  27.17900 -8.72900 48.19600
C  27.99300 -8.88800 49.48900
N  26.19800 -4.07400 45.92500
C  27.25600 -4.52600 46.70300
C  28.42600 -3.65700 46.52300
C  27.96700 -2.68400 45.61300
C  26.62300 -2.93800 45.36500
C  29.78500 -3.88100 47.22000
C  28.35800 -1.46300 44.96400
O  29.39800 -0.81400 44.98900
C  27.09900 -1.00200 44.07400
C  26.66900 0.33400 44.55600
O  26.28500 0.59900 45.67400
O  26.93100 1.25800 43.62200
C  26.88100 2.66900 43.97900
H  20.44800 -3.31400 43.39900
H  22.43400 -8.56800 46.71900
H  27.98700 -6.16900 47.91200
H  24.36600 -0.29100 42.95300
H  22.14600 -1.85300 41.94600
H  22.61700 -0.18400 44.52000
H  20.99600 -0.78300 44.07400
H  21.95200 0.43400 43.22100
H  23.72400 -1.95300 40.73600
H  25.14600 -2.70500 41.52900
H  26.04000 -0.13300 41.08200
H  24.89700 -0.39100 39.81600
H  18.36300 -6.24600 43.51800
H  18.80200 -4.60900 43.38600
H  18.16200 -5.05200 44.90900
H  20.32000 -9.11700 47.41300
H  20.93300 -9.77600 45.84300
H  19.20200 -10.13700 46.32600
H  24.94200 -9.30300 47.13200
H  25.83600 -7.49300 49.35900
H  23.58600 -10.14600 48.74300
H  22.80000 -8.56900 49.07900
H  24.24400 -9.00600 49.96400
H  27.91900 -8.33200 47.50200
H  26.89200 -9.76800 48.03500
H  29.06400 -9.01400 49.32900
H  27.64500 -9.73500 50.08000
H  27.91500 -7.95800 50.05400
H  30.01900 -4.91600 46.97200
H  29.72400 -3.78300 48.30400
H  30.46400 -3.15200 46.77800
H  27.28300 -1.05900 43.00100
H  27.77700 3.00400 44.50200
H  25.99700 2.85500 44.59000
H  26.73500 3.21000 43.04400
Mg 54.20100 24.02700 45.35600
C  51.84100 26.33100 44.30500
C  52.33700 21.41700 44.33900
C  56.86800 22.15100 45.77500
C  56.24000 26.92300 46.23800
N  52.36200 23.86900 44.25500
C  51.49900 24.99200 43.96800
C  50.15600 24.40200 43.42700
C  50.20600 22.90000 43.88100
C  51.73400 22.73400 44.19300
C  49.37900 22.62900 45.12500
C  50.12800 24.53400 41.87800
C  48.78100 24.68700 41.24100
H  48.40400 23.73400 40.09800
N  54.59600 22.08300 44.90400
C  53.66700 21.11900 44.58100
C  54.31700 19.86600 44.63800
C  55.69400 20.06700 45.02300
C  55.81200 21.48800 45.25200
C  53.61300 18.54500 44.43200
C  56.62700 18.94800 45.37800
O  56.31600 17.77800 45.15600
C  57.97200 19.11700 46.05900
N  56.32000 24.45900 45.78600
C  57.21200 23.47000 46.01600
C  58.48400 23.95200 46.63900
C  58.34900 25.52600 46.62300
C  56.89400 25.69600 46.10400
C  58.68200 23.39700 48.10300
C  59.30600 26.28900 45.71000
C  60.63700 26.70500 46.35300
N  53.98300 26.19100 45.48200
C  54.88000 27.20400 45.89500
C  54.20800 28.47500 45.93600
C  52.93700 28.14800 45.29200
C  52.99000 26.79500 44.92400
C  54.59800 29.74400 46.57300
C  51.62700 28.68700 44.82000
O  51.08900 29.81300 44.80700
C  50.90900 27.46000 44.17700
C  50.62700 27.73600 42.78500
O  51.34000 28.18100 41.90500
O  49.28200 27.87400 42.67800
C  48.77800 28.59800 41.46900
H  51.64000 20.57800 44.30000
H  57.74800 21.53900 45.98300
H  56.70100 27.81500 46.66700
H  49.34000 24.99200 43.84400
H  49.84500 22.24700 43.08700
H  48.90200 23.48100 45.60800
H  50.08400 22.20100 45.83800
H  48.57000 21.91500 44.97600
H  50.50300 23.60000 41.45900
H  50.79900 25.30200 41.49400
H  48.65000 25.73400 40.97100
H  48.12100 24.34400 42.03700
H  54.20800 18.06700 43.65400
H  52.54400 18.46000 44.23700
H  53.78000 17.97400 45.34500
H  58.50300 18.19300 46.28700
H  57.82000 19.66100 46.99200
H  58.74100 19.61300 45.46600
H  59.32500 23.66700 46.00800
H  58.61000 25.91100 47.60900
H  59.66100 23.59700 48.53900
H  58.71500 22.30800 48.13200
H  57.86500 23.65200 48.77700
H  58.64200 27.13100 45.51300
H  59.39500 25.69700 44.79900
H  61.44100 26.67600 45.61800
H  60.91100 26.33500 47.34100
H  60.48900 27.75600 46.60100
H  55.64200 30.04500 46.48500
H  54.40800 29.50400 47.61900
H  53.87600 30.52600 46.34000
H  50.10100 27.15800 44.84400
H  47.81300 28.17900 41.18400
H  49.41500 28.62100 40.58500
H  48.64300 29.64600 41.73500

