158

Mg 17.81500 -2.34400 28.08600
C  16.61100 -0.10000 30.39900
C  19.80700 -3.67500 30.54600
C  19.08400 -4.32100 25.72600
C  15.96900 -0.53900 25.48800
N  18.03600 -2.03200 30.28200
C  17.48800 -1.06800 31.00800
C  17.80300 -1.15100 32.49900
C  18.90700 -2.23000 32.50100
C  18.95300 -2.74600 31.01200
C  20.31000 -1.72300 32.90100
C  16.57700 -1.53400 33.37600
C  16.47000 -0.91400 34.80700
H  17.64200 -0.11500 35.37600
N  19.22600 -3.88200 28.14600
C  19.92300 -4.28300 29.27700
C  20.72000 -5.38600 28.90100
C  20.50600 -5.60800 27.48500
C  19.54300 -4.64100 27.02300
C  21.61200 -6.06000 29.90600
C  21.23000 -6.74500 26.64200
O  20.83200 -6.99800 25.46500
C  22.20900 -7.59800 27.27700
N  17.56900 -2.37600 26.03200
C  18.22900 -3.36400 25.30300
C  17.95300 -3.21600 23.85500
C  17.05500 -1.99700 23.69800
C  16.82300 -1.61800 25.16100
C  19.23000 -3.06300 23.04500
C  15.79400 -2.23500 22.81600
C  15.25200 -1.05500 22.14400
N  16.51900 -0.69000 27.91200
C  15.78600 -0.07900 26.85200
C  15.00200 1.04800 27.31700
C  15.26400 1.05900 28.71200
C  16.18700 0.00700 29.02900
C  14.04800 1.92700 26.66700
C  14.91600 1.67600 29.95000
O  14.08400 2.55100 30.14300
C  15.81400 0.95200 31.06500
C  16.69700 1.98700 31.73900
O  17.81400 2.29100 31.53400
O  15.94200 2.62900 32.69100
C  16.49700 3.92700 33.22200
H  20.38500 -4.17200 31.32700
H  19.47700 -5.02800 24.99300
H  15.60300 0.08900 24.67300
H  18.17800 -0.19900 32.87500
H  18.74000 -3.04300 33.20700
H  21.15100 -2.16100 32.36300
H  20.59900 -1.93700 33.93000
H  20.39200 -0.65500 32.69700
H  16.74300 -2.61000 33.43900
H  15.68200 -1.27300 32.81200
H  16.27900 -1.78100 35.44000
H  15.63200 -0.21900 34.75100
H  21.82500 -5.49900 30.81600
H  22.57900 -6.17300 29.41500
H  21.17700 -7.01000 30.21700
H  21.93000 -8.09900 28.20400
H  23.10100 -7.02500 27.53000
H  22.44900 -8.34200 26.51800
H  17.37600 -4.12100 23.66500
H  17.61300 -1.18000 23.23900
H  19.92900 -3.89900 23.07500
H  19.85400 -2.21700 23.33600
H  18.89000 -3.09300 22.01000
H  15.05900 -2.75100 23.43400
H  16.05500 -2.93100 22.01900
H  14.17400 -0.90300 22.18500
H  15.49300 -1.17600 21.08800
H  15.70500 -0.11400 22.45500
H  13.30300 1.39800 26.07300
H  14.66600 2.50000 25.97600
H  13.53400 2.60300 27.35100
H  15.04100 0.65600 31.77500
H  17.16300 3.62000 34.02800
H  15.81500 4.70000 33.57600
H  17.11500 4.39400 32.45500
Mg 47.71100 44.26000 42.69000
C  44.08500 43.63300 42.83900
C  48.09300 40.80600 42.23200
C  50.94400 44.76200 42.66600
C  46.99600 47.62400 42.85800
N  46.27800 42.42700 42.59100
C  44.84900 42.48000 42.58700
C  44.36200 41.03200 42.51200
C  45.58800 40.09600 42.33300
C  46.74600 41.15700 42.41900
C  45.77900 38.92600 43.42400
C  43.46600 40.90000 41.22500
C  43.95100 41.61200 39.91400
H  44.35000 40.79000 38.78000
N  49.35200 42.97300 42.40000
C  49.26400 41.60500 42.30500
C  50.65800 41.16500 42.03600
C  51.57100 42.26500 42.28100
C  50.67100 43.42900 42.51800
C  51.04100 39.70700 41.69300
C  53.07700 42.16800 42.21400
O  53.71900 41.12100 41.95100
C  53.86000 43.43200 42.53400
N  48.83400 45.93000 42.57900
C  50.17200 45.93800 42.70600
C  50.70800 47.35800 42.79400
C  49.43000 48.26800 42.65800
C  48.37300 47.21900 42.67900
C  51.77000 47.64500 43.97200
C  49.25700 49.11200 41.36700
C  49.82300 50.52600 41.46100
N  45.90600 45.41400 42.78200
C  45.84000 46.81400 42.95000
C  44.47200 47.17200 43.12100
C  43.78300 45.93600 43.01100
C  44.68200 44.86300 42.92600
C  43.73700 48.45300 43.32400
C  42.46600 45.39600 43.22200
O  41.35200 45.86300 43.41600
C  42.57800 43.86800 43.02400
C  41.88700 43.23200 44.14900
O  40.95000 42.45200 44.02100
O  42.43600 43.64100 45.40200
C  41.78100 43.12300 46.60000
H  48.33700 39.76700 42.00200
H  51.99300 45.04000 42.78900
H  46.74400 48.66900 43.05200
H  43.62400 40.97700 43.31200
H  45.75900 39.67500 41.34200
H  44.84800 38.76600 43.96900
H  46.50800 39.34700 44.11600
H  46.16900 37.95300 43.12400
H  42.46500 41.26200 41.45900
H  43.34000 39.84900 40.96500
H  44.80100 42.24800 40.16200
H  43.05600 42.21600 39.77000
H  50.14600 39.14300 41.42800
H  51.60200 39.27400 42.52100
H  51.78900 39.72100 40.90000
H  53.65800 44.11500 41.70900
H  54.94500 43.37500 42.45400
H  53.51400 43.86300 43.47400
H  51.29700 47.61400 41.91400
H  49.19500 48.82100 43.56700
H  52.79400 47.61900 43.60000
H  51.68900 46.83800 44.70000
H  51.53600 48.56800 44.50300
H  48.21800 49.20000 41.04900
H  49.85700 48.58500 40.62600
H  50.70000 50.61100 40.81900
H  50.19500 50.76100 42.45800
H  49.13900 51.33200 41.19400
H  43.17000 48.42500 44.25400
H  43.14200 48.50400 42.41200
H  44.54300 49.18000 43.43000
H  41.97900 43.51000 42.18700
H  40.78000 42.72900 46.42200
H  41.81900 43.81900 47.43800
H  42.44200 42.29400 46.85200

