158

Mg 30.59000 60.16600 39.12600
C  27.73200 58.41700 38.07600
C  32.48700 57.37800 38.40600
C  33.41800 62.01900 39.50100
C  28.57800 63.01800 39.36500
N  30.16200 58.13900 38.19400
C  28.94000 57.70400 37.85700
C  29.12500 56.30700 37.32400
C  30.52200 55.91700 37.82700
C  31.10700 57.25600 38.10900
C  30.72800 54.94800 39.06000
C  28.96900 56.14200 35.67800
C  28.42600 54.84200 35.10700
H  27.08200 55.13200 34.40000
N  32.70400 59.70100 38.98000
C  33.26200 58.49200 38.78700
C  34.67500 58.52900 39.03500
C  35.01500 59.95500 39.22500
C  33.70700 60.63400 39.22900
C  35.60200 57.30300 38.87200
C  36.40100 60.51600 39.50100
O  37.36400 59.73400 39.51500
C  36.71200 62.01700 39.87000
N  30.99400 62.20500 39.33100
C  32.24700 62.76300 39.54500
C  32.20600 64.30600 39.77500
C  30.65400 64.50900 39.83100
C  30.00200 63.19400 39.45500
C  32.99300 64.97600 40.96800
C  30.16400 65.77300 39.09400
C  29.19300 66.68000 39.88500
N  28.53600 60.62500 38.99900
C  27.88100 61.79900 39.19400
C  26.48700 61.66300 38.96100
C  26.38100 60.37300 38.52600
C  27.64400 59.78700 38.54700
C  25.36900 62.59900 38.96700
C  25.46300 59.33000 38.10800
O  24.26800 59.34300 37.89800
C  26.30600 58.07200 37.76600
C  25.79500 56.89400 38.55600
O  25.40000 56.87600 39.72100
O  25.68400 55.84700 37.72900
C  25.35100 54.52200 38.22900
H  33.00800 56.44000 38.20400
H  34.23600 62.70400 39.73500
H  27.97900 63.92700 39.45300
H  28.35200 55.67600 37.76300
H  31.01800 55.43800 36.98200
H  31.56500 54.26500 38.92000
H  29.86900 54.27900 39.11300
H  30.88800 55.50500 39.98400
H  29.93300 56.34600 35.21100
H  28.37200 56.96900 35.29400
H  28.09500 54.14900 35.88000
H  29.12100 54.30700 34.45900
H  35.13000 56.56100 38.22700
H  35.75900 56.85900 39.85500
H  36.55600 57.60500 38.44200
H  37.78000 62.05400 40.08500
H  36.18700 62.23100 40.80100
H  36.41000 62.72300 39.09700
H  32.57200 64.68100 38.81900
H  30.45500 64.48600 40.90200
H  33.67800 64.26700 41.43300
H  32.39200 65.43400 41.75400
H  33.73300 65.68700 40.60100
H  29.48700 65.50700 38.28200
H  30.95100 66.40000 38.67600
H  28.68600 66.07300 40.63400
H  28.42100 67.09200 39.23400
H  29.60800 67.60800 40.28000
H  24.39900 62.10300 39.01300
H  25.42600 63.09000 37.99500
H  25.48900 63.27300 39.81400
H  26.20400 57.83600 36.70700
H  25.25000 53.85300 37.37500
H  24.38900 54.51100 38.74300
H  26.02100 54.06500 38.95700
Mg 6.25900 54.42900 40.79100
C  5.79800 51.15000 40.99200
C  9.41900 53.72100 39.15200
C  6.53100 57.68000 39.79700
C  2.92200 55.00100 41.68800
N  7.42400 52.55300 39.91000
C  6.99700 51.37000 40.25600
C  8.08900 50.35300 39.93200
C  9.41900 51.18300 39.84800
C  8.72000 52.56400 39.63100
C  10.45800 51.30300 41.01900
C  7.70700 49.45200 38.63100
C  6.95800 50.12600 37.49400
H  6.21900 49.13200 36.52700
N  7.85300 55.56800 39.77500
C  8.96000 55.09600 39.14900
C  9.71500 56.28900 38.66600
C  8.95400 57.43300 38.98100
C  7.69800 56.88700 39.47800
C  11.04300 56.29000 37.95400
C  9.39100 58.92300 38.67100
O  10.39300 59.11900 37.93700
C  8.64900 60.12700 39.22800
N  4.71500 56.04400 40.42700
C  5.25400 57.32100 40.29400
C  4.07300 58.29500 40.62800
C  2.79900 57.37300 40.88300
C  3.56000 56.04400 41.07100
C  4.44600 59.13100 41.90800
C  1.77400 57.36500 39.67300
C  2.30200 57.21600 38.29800
N  4.62800 53.34200 41.23000
C  3.36900 53.67200 41.70400
C  2.74400 52.45700 42.17400
C  3.66500 51.50300 41.96200
C  4.74600 52.06500 41.34000
C  1.43800 52.38200 42.86200
C  3.91700 50.12500 42.15400
O  3.21400 49.26100 42.68300
C  5.28300 49.85400 41.50700
C  4.96600 48.90800 40.40500
O  4.61200 49.29600 39.33200
O  5.32800 47.61900 40.82000
C  5.20700 46.48400 39.84200
H  10.43800 53.58400 38.78200
H  6.62700 58.75700 39.64200
H  1.89600 55.16600 42.02400
H  8.07700 49.55700 40.67600
H  10.01300 51.05800 38.94300
H  11.46900 51.06300 40.69000
H  10.17800 50.79400 41.94200
H  10.51100 52.36200 41.26900
H  7.14000 48.59100 38.98500
H  8.61500 49.05300 38.17900
H  7.72100 50.67500 36.94300
H  6.05400 50.62500 37.84300
H  11.00900 56.83500 37.01000
H  11.49000 55.31900 37.74200
H  11.77300 56.79300 38.58800
H  8.20500 59.84600 40.18300
H  7.91200 60.45800 38.49700
H  9.31400 60.98900 39.27000
H  3.97600 58.96000 39.77000
H  2.33300 57.70900 41.80900
H  4.13500 58.74500 42.87800
H  3.97200 60.11000 41.84400
H  5.51300 59.34300 41.98300
H  1.21100 58.29400 39.75800
H  1.09000 56.53300 39.84000
H  1.60800 56.59000 37.73800
H  3.25800 56.70100 38.21100
H  2.34800 58.21000 37.85300
H  1.05300 51.37700 42.69300
H  0.66500 53.06800 42.51600
H  1.67200 52.36100 43.92600
H  6.01000 49.34000 42.13600
H  6.21000 46.27700 39.46900
H  4.44700 46.80700 39.13100
H  4.98600 45.60000 40.43900

