158

Mg 9.60900 4.87800 27.58500
C  10.73200 3.24500 30.53000
C  7.50100 6.78700 29.59600
C  8.26500 6.26400 24.82300
C  11.35900 2.58700 25.67800
N  9.19400 5.01800 29.78500
C  9.86200 4.36600 30.78000
C  9.65700 4.97600 32.18900
C  8.64400 6.13200 31.85600
C  8.37700 5.97400 30.36200
C  7.39200 6.03200 32.75600
C  10.96400 5.43500 32.79100
C  11.34700 4.79900 34.08100
H  11.67300 5.67400 35.32500
N  8.01500 6.23900 27.30300
C  7.31300 6.94900 28.20500
C  6.47500 7.99000 27.50200
C  6.67900 7.82700 26.12900
C  7.69300 6.72600 25.99500
C  5.50500 9.00500 28.17700
C  6.08900 8.66500 25.01800
O  6.29100 8.50500 23.80100
C  5.14300 9.80300 25.30100
N  9.70300 4.39500 25.47200
C  9.16300 5.24500 24.56700
C  9.79600 4.91200 23.12400
C  10.58100 3.57700 23.43500
C  10.63000 3.57600 25.00600
C  8.81200 4.84400 21.90400
C  11.90500 3.50500 22.77000
C  12.12200 2.48000 21.56900
N  10.83700 3.25400 27.99800
C  11.42300 2.35300 27.09400
C  12.13000 1.27900 27.78400
C  11.94400 1.71200 29.11900
C  11.04100 2.79200 29.23700
C  12.84300 0.08500 27.25900
C  12.34900 1.31800 30.45300
O  13.09300 0.41200 30.84300
C  11.58500 2.31100 31.44900
C  10.79400 1.58100 32.49500
O  9.62300 1.26300 32.38300
O  11.63200 1.11100 33.53300
C  10.88900 0.70300 34.63800
H  6.85800 7.45700 30.17000
H  7.88100 6.67200 23.88500
H  11.92100 1.90500 25.03700
H  9.10000 4.23100 32.75700
H  9.22100 7.05100 31.96500
H  6.46200 5.83600 32.22300
H  7.33400 7.06400 33.10200
H  7.48400 5.50200 33.70400
H  10.94800 6.51300 32.95000
H  11.76400 5.26200 32.07100
H  12.28500 4.35100 33.75300
H  10.65900 3.99800 34.34900
H  5.51900 8.77200 29.24200
H  4.49900 9.06100 27.76200
H  5.84400 10.04100 28.21000
H  4.19200 9.46500 25.71400
H  4.96600 10.34000 24.36900
H  5.64400 10.39300 26.06800
H  10.48500 5.73900 22.95100
H  9.91000 2.76900 23.14400
H  7.84200 4.53100 22.29000
H  9.23400 4.13200 21.19400
H  8.88500 5.87500 21.55900
H  12.65300 3.23800 23.51700
H  12.26600 4.44100 22.34400
H  13.11900 2.15900 21.26600
H  11.75100 2.82800 20.60500
H  11.47100 1.64400 21.82600
H  12.94100 0.01700 26.17600
H  12.24500 -0.72300 27.68000
H  13.84000 0.22600 27.67800
H  12.40400 2.80200 31.97400
H  10.06400 1.40200 34.77400
H  11.54800 0.64700 35.50500
H  10.48000 -0.28500 34.42800
Mg 50.51900 45.14700 42.19100
C  47.49700 46.14000 40.70400
C  49.87600 42.02200 40.99700
C  53.85900 44.44900 42.67000
C  51.34200 48.56300 42.80200
N  48.84800 44.17500 40.95600
C  47.69700 44.78500 40.52800
C  46.73400 43.77200 39.93600
C  47.45800 42.34500 40.15800
C  48.81000 42.87100 40.72800
C  46.71700 41.26400 41.01300
C  46.19200 44.02000 38.51300
C  44.75300 44.28900 38.40100
H  43.93400 43.35600 37.58000
N  51.63800 43.47700 41.95500
C  51.17800 42.28700 41.42900
C  52.26400 41.28900 41.56100
C  53.41200 41.99900 42.03400
C  52.98300 43.33500 42.27000
C  52.11600 39.86500 40.91900
C  54.82100 41.35900 42.23700
O  54.90900 40.20400 41.99600
C  56.00500 42.11300 42.66000
N  52.37800 46.40600 42.57800
C  53.57400 45.81100 42.78600
C  54.61900 46.91200 43.26800
C  53.78500 48.18800 43.33400
C  52.37400 47.69700 42.98200
C  55.36400 46.53900 44.54700
C  54.34600 49.33400 42.37400
C  54.41800 48.94600 40.87000
N  49.56900 46.93400 42.00600
C  49.98700 48.22400 42.28200
C  48.88000 49.10100 42.02900
C  47.93600 48.38100 41.35300
C  48.40300 47.01800 41.36600
C  48.88000 50.56900 42.13300
C  46.62700 48.38800 40.71100
O  45.82600 49.31100 40.60300
C  46.24800 46.98900 40.29800
C  44.95600 46.56500 41.03200
O  44.96400 46.32200 42.23700
O  43.85300 46.58900 40.14400
C  42.51600 46.64600 40.71900
H  49.68600 40.98000 40.73000
H  54.91700 44.33900 42.91800
H  51.57800 49.60600 43.02500
H  45.86200 43.72200 40.58800
H  47.68000 41.79900 39.24100
H  45.63700 41.30100 40.87200
H  46.96100 41.43300 42.06100
H  47.04000 40.27800 40.67900
H  46.40200 43.11800 37.93800
H  46.75400 44.83900 38.06400
H  44.61900 45.31000 38.04500
H  44.24400 44.25800 39.36500
H  51.51800 39.92000 40.00900
H  51.61200 39.23900 41.65500
H  53.08700 39.46300 40.62800
H  55.83100 42.52500 43.65400
H  56.23500 42.79500 41.84100
H  56.88600 41.47300 42.71600
H  55.35400 47.06100 42.47700
H  53.84200 48.55600 44.35900
H  55.23300 45.47400 44.74300
H  55.11000 47.15100 45.41200
H  56.43100 46.69600 44.38800
H  55.27500 49.80300 42.69700
H  53.61500 50.13800 42.45700
H  54.11000 47.92000 40.66600
H  55.36900 49.30000 40.47200
H  53.57700 49.49200 40.44300
H  47.98200 50.95500 41.65100
H  49.72400 51.02100 41.61100
H  49.00100 51.04600 43.10600
H  45.99000 47.02000 39.23900
H  42.51600 46.95900 41.76300
H  42.02900 45.67700 40.60400
H  41.88500 47.37400 40.20800

