158

Mg 1.04200 7.69600 25.88500
C  1.84600 9.98600 28.52600
C  1.26300 5.14200 28.11800
C  0.21700 5.67700 23.41000
C  1.44500 10.39300 23.72700
N  1.34600 7.66300 28.11700
C  1.67900 8.64400 29.02900
C  1.75700 8.11800 30.46300
C  1.66300 6.57800 30.28100
C  1.39900 6.40400 28.73700
C  3.03500 5.87200 30.56200
C  0.65300 8.78800 31.31800
C  0.86300 8.70400 32.84400
H  2.12300 8.00800 33.39000
N  0.82300 5.65600 25.79800
C  0.84600 4.80000 26.84400
C  0.56500 3.46500 26.38800
C  0.29900 3.60200 24.94900
C  0.40500 5.05300 24.65400
C  0.68200 2.20700 27.33100
C  -0.08700 2.52700 23.93100
O  0.02100 2.64700 22.70300
C  -0.38500 1.21400 24.42300
N  1.07300 7.96500 23.80400
C  0.47900 7.02200 23.06900
C  0.47000 7.46300 21.54700
C  0.81300 8.99600 21.68600
C  1.04800 9.17100 23.16800
C  1.38500 6.56100 20.65000
C  -0.31400 9.97300 21.10700
C  -1.67500 9.97300 21.77900
N  1.43400 9.85500 26.04000
C  1.59300 10.75000 25.06000
C  1.82400 12.05100 25.63300
C  2.02300 11.79000 26.97100
C  1.73900 10.41400 27.19800
C  2.04500 13.35900 24.89100
C  2.39500 12.42200 28.22600
O  2.79200 13.54800 28.55700
C  2.24300 11.25000 29.29800
C  3.58400 10.99500 29.93600
O  4.52900 10.48700 29.38300
O  3.58400 11.40700 31.21700
C  4.87500 11.33800 31.96700
H  1.41500 4.30500 28.80300
H  -0.08700 5.06700 22.55700
H  1.55100 11.18900 22.98700
H  2.69800 8.34600 30.96300
H  0.80000 6.20600 30.83300
H  3.50300 5.51600 29.64400
H  2.95100 4.95900 31.15300
H  3.72400 6.46600 31.16200
H  -0.32300 8.34600 31.11500
H  0.41100 9.80800 31.01900
H  0.02000 8.12200 33.21400
H  0.67400 9.71200 33.21400
H  -0.33400 1.91900 27.60300
H  1.06200 2.38400 28.33700
H  1.28700 1.42400 26.87400
H  0.49300 0.69200 24.80300
H  -0.93300 0.58300 23.72200
H  -1.10100 1.40000 25.22300
H  -0.55100 7.33100 21.19000
H  1.75900 9.28800 21.23100
H  1.73500 5.67600 21.18200
H  2.26500 7.13900 20.36600
H  0.81500 6.21600 19.78800
H  -0.52500 9.71600 20.06800
H  -0.04500 11.02900 21.13500
H  -1.69300 10.75100 22.54200
H  -1.75900 9.04900 22.35100
H  -2.45700 9.97900 21.01900
H  2.42500 13.44400 23.87200
H  2.70600 13.95600 25.52000
H  1.05700 13.82000 24.90100
H  1.45800 11.54100 29.99600
H  4.78700 12.10600 32.73500
H  5.64900 11.66100 31.27100
H  5.10800 10.33200 32.31700
Mg -2.18100 35.01600 26.14300
C  -3.44300 33.07000 28.60300
C  -0.78500 37.04400 28.47700
C  -0.68300 36.84000 23.51700
C  -3.67800 32.93700 23.76400
N  -2.05300 34.94400 28.32200
C  -2.73900 34.07200 29.11500
C  -2.31400 34.25000 30.61100
C  -1.57300 35.64200 30.55700
C  -1.42100 35.87500 29.05200
C  -2.35300 36.88300 31.25600
C  -1.55400 33.08100 31.28200
C  -1.92100 32.96100 32.85200
H  -0.72800 33.15100 33.87600
N  -0.97800 36.74300 26.04800
C  -0.56900 37.47000 27.13100
C  0.17500 38.63000 26.67600
C  0.32800 38.54100 25.28900
C  -0.41400 37.30900 24.88500
C  0.85700 39.60100 27.59500
C  1.08600 39.45700 24.30500
O  1.18400 39.17800 23.13500
C  1.51500 40.81000 24.71800
N  -2.28200 35.01200 23.92600
C  -1.48800 35.74000 23.12500
C  -1.59200 35.23600 21.62600
C  -2.32400 33.88900 21.89300
C  -2.78500 33.92600 23.26300
C  -2.44600 36.24900 20.82300
C  -1.42500 32.63000 21.61000
C  -0.01800 32.82500 22.30800
N  -3.51000 33.56200 26.10000
C  -4.03200 32.74500 25.09400
C  -4.78800 31.70500 25.72100
C  -4.54800 31.73000 27.06700
C  -3.76600 32.91200 27.25300
C  -5.41600 30.54300 24.92000
C  -4.85400 31.07700 28.21900
O  -5.41100 29.99800 28.36800
C  -4.13500 31.89600 29.31000
C  -5.04600 32.42400 30.35200
O  -5.72900 33.43000 30.20700
O  -4.95900 31.65700 31.45600
C  -5.52800 32.22100 32.66100
H  -0.39300 37.80900 29.15100
H  -0.09500 37.26400 22.70100
H  -4.03000 32.22400 23.01700
H  -3.24100 34.34300 31.17700
H  -0.54900 35.62100 30.93200
H  -2.81700 37.45200 30.45100
H  -1.62500 37.54500 31.72400
H  -3.10200 36.51200 31.95600
H  -0.50100 33.34500 31.18400
H  -1.72500 32.10900 30.81800
H  -2.38300 32.00100 33.08100
H  -2.67500 33.65600 33.22200
H  1.05700 39.17500 28.57900
H  0.23300 40.48900 27.70300
H  1.83400 39.92900 27.24000
H  1.60000 41.42300 23.82100
H  2.49000 40.53300 25.11800
H  0.82600 41.20100 25.46700
H  -0.54700 35.21500 21.31600
H  -3.17600 33.76700 21.22400
H  -2.52300 37.15400 21.42500
H  -3.44000 35.82300 20.68400
H  -1.93400 36.55900 19.91300
H  -1.30700 32.63900 20.52700
H  -1.92600 31.69000 21.84100
H  0.09200 33.64400 23.01900
H  0.65400 32.89100 21.45200
H  0.10100 31.84200 22.76300
H  -4.58100 30.10100 24.37500
H  -6.19900 30.93500 24.27100
H  -5.72700 29.76800 25.62000
H  -3.36100 31.18900 29.61100
H  -5.48600 33.30900 32.69200
H  -4.85000 31.82300 33.41600
H  -6.56500 31.90500 32.76800

