158

Mg 24.30600 -4.58600 45.51800
C  26.43500 -2.45100 43.64900
C  21.56900 -3.68200 43.35500
C  22.76300 -7.43400 46.24500
C  27.21800 -5.67900 47.24100
N  24.06800 -3.19300 43.75800
C  25.06200 -2.40800 43.23500
C  24.47700 -1.55100 42.07600
C  22.97800 -1.79300 42.22100
C  22.87100 -2.98400 43.14300
C  22.15700 -0.49700 42.75800
C  25.14800 -2.15300 40.73900
C  25.84600 -1.26400 39.72500
H  25.38900 -1.35900 38.25500
N  22.32100 -5.41800 44.94200
C  21.34900 -4.88800 44.11200
C  20.20200 -5.77600 44.15400
C  20.56800 -6.90900 44.88800
C  21.98700 -6.62400 45.40400
C  18.90400 -5.46700 43.49700
C  19.59700 -8.07500 45.13700
O  18.45700 -8.08500 44.64500
C  20.02800 -9.19300 45.94000
N  24.81900 -6.23400 46.65100
C  23.98500 -7.22300 46.87000
C  24.64000 -8.33300 47.76000
C  25.95300 -7.68900 48.25500
C  26.05300 -6.45800 47.37300
C  23.71300 -8.95200 48.83000
C  27.28000 -8.66600 48.07700
C  28.29600 -8.63200 49.18400
N  26.42400 -4.13800 45.59200
C  27.42400 -4.70100 46.32800
C  28.69900 -4.00200 45.98400
C  28.33000 -3.20300 44.87400
C  26.94100 -3.26200 44.71600
C  30.04000 -4.32100 46.53200
C  28.87000 -2.25800 43.93100
O  29.97300 -1.89900 43.83300
C  27.60500 -1.70800 43.09400
C  27.58500 -0.13600 43.32200
O  27.48600 0.41000 44.39900
O  27.67700 0.58800 42.11800
C  27.52300 2.03200 42.10300
H  20.73500 -3.29800 42.76200
H  22.31500 -8.40000 46.48700
H  28.11700 -5.88000 47.82700
H  24.80300 -0.51100 42.10700
H  22.48900 -2.10400 41.29800
H  22.65600 0.41700 42.43900
H  22.22400 -0.50200 43.84600
H  21.13000 -0.50200 42.39300
H  24.43700 -2.81000 40.23900
H  25.86900 -2.93100 40.99200
H  26.87700 -1.61600 39.70200
H  25.95000 -0.20300 39.95000
H  18.46600 -6.24600 42.87300
H  19.07000 -4.51700 42.98900
H  18.18800 -5.27500 44.29700
H  20.80100 -9.70500 45.36700
H  19.20100 -9.89700 46.04000
H  20.44400 -8.77000 46.85400
H  24.91600 -9.18500 47.13900
H  25.91700 -7.34900 49.29000
H  22.67600 -8.61600 48.85700
H  24.18600 -8.79900 49.80000
H  23.60600 -10.03500 48.76900
H  27.67700 -8.31400 47.12500
H  27.01200 -9.70100 47.86600
H  28.36400 -9.64200 49.58800
H  28.06300 -7.99300 50.03600
H  29.15200 -8.47600 48.52700
H  29.90700 -5.40200 46.47400
H  30.26100 -4.15300 47.58600
H  30.86100 -3.85200 45.99000
H  27.79500 -1.83600 42.02900
H  27.46700 2.28000 43.16300
H  26.63400 2.27900 41.52200
H  28.35000 2.59300 41.66900
Mg 9.79300 47.61600 26.29600
C  7.89600 47.79700 29.21700
C  12.39400 49.18200 27.88000
C  11.61800 47.45700 23.58200
C  6.95500 46.44800 24.58500
N  10.00300 48.49200 28.28500
C  9.18300 48.34800 29.38100
C  9.86800 48.97700 30.66200
C  11.03800 49.80700 29.98300
C  11.20900 49.08400 28.65800
C  10.74500 51.32500 29.76800
C  10.30300 47.91100 31.66600
C  9.54700 47.97900 32.98900
H  9.82000 46.72200 33.86200
N  11.81500 48.19600 25.81100
C  12.68900 48.78600 26.59000
C  13.94500 48.83500 25.93500
C  13.76000 48.31600 24.61500
C  12.36200 47.95800 24.65700
C  15.29200 49.31500 26.65700
C  14.72200 48.20700 23.46300
O  14.52200 47.57800 22.41600
C  16.07200 48.84700 23.67800
N  9.35000 47.17800 24.38500
C  10.31200 47.07700 23.39700
C  9.75300 46.68700 22.02600
C  8.36600 46.14100 22.49100
C  8.21100 46.67500 23.89700
C  9.80700 47.82700 21.00600
C  8.06300 44.66400 22.31300
C  9.02800 43.55400 22.92700
N  7.78600 47.28700 26.79000
C  6.74900 46.85500 25.93600
C  5.55100 46.98000 26.74200
C  5.98900 47.24800 28.05100
C  7.33100 47.37400 28.00300
C  4.22100 46.82100 26.11800
C  5.57700 47.41400 29.42300
O  4.43700 47.34200 29.94400
C  6.81600 47.68100 30.22600
C  6.91400 46.40800 31.06500
O  7.37000 45.39800 30.65800
O  6.37200 46.61500 32.28000
C  6.61600 45.54200 33.27800
H  13.14100 49.79700 28.38600
H  12.17900 47.40900 22.64700
H  6.01200 46.13700 24.13100
H  9.23900 49.77500 31.05900
H  11.79000 49.75900 30.77000
H  11.59100 51.76700 29.24200
H  10.67100 51.67300 30.79800
H  9.75600 51.51700 29.35100
H  11.33400 48.13200 31.94400
H  10.31000 46.91700 31.22000
H  8.47600 48.18100 32.96300
H  10.05200 48.79900 33.49700
H  15.11700 49.19600 27.72600
H  15.38000 50.36300 26.37000
H  16.17400 48.73100 26.39500
H  16.63800 48.11100 24.24900
H  15.92300 49.84200 24.09800
H  16.42200 49.07600 22.67200
H  10.29200 45.82000 21.64300
H  7.66400 46.72300 21.89500
H  10.37700 48.65600 21.42500
H  8.80100 48.18200 20.78200
H  10.25600 47.47100 20.07800
H  8.08800 44.50000 21.23600
H  7.08400 44.33600 22.66100
H  10.08700 43.70400 22.71700
H  8.74900 42.60800 22.46200
H  8.86200 43.53200 24.00400
H  3.56700 46.73000 26.98500
H  4.01500 45.90100 25.57100
H  4.03800 47.73400 25.55000
H  6.74500 48.52600 30.91100
H  7.25000 45.84300 34.11100
H  6.91500 44.54700 32.94800
H  5.70300 45.34000 33.83900

