158

Mg 25.48400 -0.73000 29.49300
C  27.76000 -0.81200 32.26100
C  22.96400 -0.48600 31.65100
C  23.49400 -0.65400 26.81900
C  28.24300 -1.43300 27.48200
N  25.51700 -0.73500 31.74400
C  26.50900 -0.49600 32.61800
C  25.90700 -0.30700 34.02600
C  24.34600 -0.29800 33.75200
C  24.24700 -0.57300 32.27700
C  23.53600 -1.39500 34.58200
C  26.38600 1.01900 34.71100
C  26.14900 1.07800 36.23900
H  27.33100 1.02600 37.19800
N  23.48400 -0.55400 29.28900
C  22.59900 -0.50000 30.28000
C  21.26500 -0.31500 29.72000
C  21.45300 -0.35600 28.27700
C  22.90200 -0.61500 28.06700
C  20.07900 -0.21300 30.65300
C  20.41700 -0.35500 27.14700
O  20.67500 -0.43700 25.97800
C  18.96700 -0.28300 27.62400
N  25.79600 -1.23300 27.38700
C  24.83400 -0.98000 26.46600
C  25.42200 -0.97500 25.06600
C  26.89600 -1.15600 25.26000
C  27.04200 -1.24800 26.81300
C  24.72800 -2.03600 24.09300
C  27.82100 -0.03700 24.61700
C  29.06800 -0.43100 23.89900
N  27.57100 -1.20400 29.80600
C  28.56000 -1.49900 28.82900
C  29.83700 -1.65100 29.48500
C  29.56300 -1.43700 30.86100
C  28.17300 -1.11200 30.98000
C  31.11100 -1.90600 28.84700
C  30.10900 -1.37400 32.19800
O  31.22900 -1.60500 32.61300
C  28.97400 -0.94400 33.15400
C  28.79900 -1.94200 34.20400
O  28.12600 -3.01700 34.03000
O  29.28700 -1.46000 35.44700
C  28.82500 -2.36500 36.57900
H  22.12300 -0.35700 32.33600
H  22.91500 -0.42300 25.92200
H  28.99400 -1.55200 26.69800
H  26.13200 -1.11600 34.72000
H  23.91200 0.68100 33.95800
H  23.99900 -1.71900 35.51400
H  23.42800 -2.35200 34.07100
H  22.49800 -1.07100 34.66000
H  25.83800 1.89800 34.36900
H  27.43200 1.08900 34.41500
H  25.47000 0.27200 36.51800
H  25.44900 1.89600 36.40500
H  19.22600 0.34000 30.26000
H  20.33500 0.32200 31.56800
H  19.80600 -1.22600 30.94900
H  18.28500 -0.47000 26.79400
H  18.68900 0.61600 28.17400
H  18.93700 -1.08400 28.36300
H  25.24600 -0.02400 24.56200
H  27.17500 -2.16000 24.94200
H  25.49400 -2.77100 23.84400
H  24.24700 -1.66000 23.19000
H  23.93900 -2.69100 24.46300
H  28.18200 0.58100 25.44000
H  27.25700 0.55700 23.89800
H  29.00400 -1.41000 23.42400
H  29.88900 -0.35200 24.61100
H  29.26700 0.27700 23.09400
H  30.96200 -1.80700 27.77200
H  31.46700 -2.91800 29.04500
H  31.89700 -1.24900 29.21900
H  29.24700 -0.01100 33.64700
H  29.22400 -1.94100 37.50100
H  29.25500 -3.36300 36.49300
H  27.75800 -2.58600 36.62300
Mg 41.17200 41.73100 27.21800
C  39.85200 43.94600 29.75200
C  42.02700 39.56600 29.71800
C  42.01300 39.70200 24.90300
C  40.18500 44.19600 24.86500
N  41.10300 41.87900 29.48600
C  40.39800 42.75100 30.27100
C  40.33800 42.32300 31.76900
C  41.13400 40.98400 31.67100
C  41.46100 40.80200 30.18300
C  42.40300 40.82900 32.60100
C  38.86900 42.27100 32.21800
C  38.59400 41.55900 33.49600
H  37.96000 42.44700 34.63200
N  42.05600 39.89700 27.32700
C  42.33900 39.16000 28.43400
C  42.91200 37.91700 28.01900
C  42.94300 37.95100 26.55400
C  42.36800 39.23100 26.18100
C  43.42800 36.89300 28.99500
C  43.51600 36.88600 25.65800
O  43.51100 36.98300 24.40000
C  44.07800 35.66200 26.25400
N  41.11000 41.91300 25.16900
C  41.47300 40.87400 24.41500
C  41.11800 41.10600 23.01400
C  40.26700 42.48000 22.99400
C  40.47900 42.88300 24.43800
C  42.32500 40.97400 22.00600
C  38.75900 42.29700 22.60400
C  37.88000 41.47100 23.46400
N  40.32300 43.70700 27.25400
C  40.04200 44.58000 26.23900
C  39.52500 45.86300 26.78200
C  39.39700 45.61100 28.14800
C  39.88900 44.33500 28.40200
C  39.17200 47.01300 25.93800
C  39.02100 46.25800 29.37500
O  38.56500 47.39000 29.57900
C  39.32400 45.14300 30.42400
C  40.34200 45.71800 31.31700
O  41.46800 46.10800 31.05200
O  39.88300 45.90100 32.59100
C  40.84900 46.65400 33.47400
H  42.31200 38.85000 30.49200
H  42.14800 38.98100 24.09400
H  39.82000 44.84500 24.06700
H  40.86400 43.05900 32.37800
H  40.48300 40.14100 31.90000
H  42.81700 41.76800 32.96900
H  43.16300 40.40000 31.94700
H  42.36600 40.11200 33.42100
H  38.36100 41.72800 31.42200
H  38.51200 43.29700 32.31500
H  39.53300 41.33800 34.00300
H  37.93400 40.71500 33.29800
H  42.90800 35.97300 28.72800
H  43.23600 37.13100 30.04100
H  44.49000 36.83800 28.75800
H  44.96400 35.90300 26.84100
H  44.36300 35.06000 25.39100
H  43.28800 35.28000 26.89900
H  40.39100 40.31900 22.81500
H  40.79300 43.17500 22.34000
H  42.19900 40.00700 21.51900
H  43.23200 40.86500 22.60100
H  42.38000 41.83400 21.33900
H  38.85900 41.84900 21.61500
H  38.35800 43.24900 22.25800
H  38.25300 41.02500 24.38600
H  37.59300 40.62000 22.84700
H  37.10600 42.21900 23.63400
H  38.97900 47.91300 26.52100
H  38.31500 46.72400 25.32900
H  39.96500 47.26300 25.23300
H  38.41400 44.93100 30.98500
H  41.82300 46.90200 33.05300
H  40.96100 46.10000 34.40700
H  40.39000 47.63500 33.58900

