158

Mg 1.22900 8.66400 27.11300
C  1.85700 10.75400 29.82000
C  1.47900 5.95500 29.47700
C  1.28800 6.47000 24.60800
C  1.62600 11.22600 25.01000
N  1.51700 8.43900 29.31000
C  1.64400 9.42100 30.24900
C  1.69500 8.93800 31.67100
C  1.90500 7.44200 31.52200
C  1.53700 7.23200 30.03200
C  3.33000 6.82500 31.90400
C  0.33200 9.27500 32.41200
C  0.14500 8.97800 33.91900
H  1.38800 8.51000 34.65800
N  1.23600 6.49600 27.05400
C  1.35000 5.55500 28.10300
C  1.39500 4.23300 27.53500
C  1.55700 4.41000 26.11500
C  1.32800 5.82400 25.84400
C  1.42400 3.00700 28.41600
C  1.82400 3.38000 25.04400
O  1.99200 3.64100 23.84800
C  1.94300 1.91300 25.49400
N  1.23700 8.82800 25.24700
C  1.22700 7.84000 24.32000
C  1.12900 8.35900 22.91300
C  0.93000 9.85300 23.09800
C  1.33100 9.98900 24.52800
C  2.12300 7.83200 21.84800
C  -0.45700 10.49300 22.83300
C  -0.52200 11.53800 21.72700
N  1.54100 10.69300 27.31400
C  1.67300 11.66300 26.36300
C  2.14000 12.86300 27.06700
C  2.15500 12.60100 28.40800
C  1.75300 11.29600 28.55300
C  2.41100 14.16600 26.38000
C  2.32800 13.17500 29.70800
O  2.59800 14.31600 30.08000
C  2.11700 11.97100 30.66500
C  3.32400 11.84200 31.47500
O  4.40000 11.32800 31.14700
O  3.09800 12.32600 32.74000
C  4.23900 12.26600 33.73100
H  1.69000 5.20300 30.24000
H  1.57000 5.84600 23.75700
H  1.66800 12.10100 24.35800
H  2.54000 9.43900 32.14300
H  1.20000 6.90500 32.15600
H  3.27500 5.98500 32.59700
H  3.83800 7.64500 32.41100
H  3.73300 6.50200 30.94400
H  -0.31500 8.59200 31.86300
H  0.03900 10.29700 32.16900
H  -0.59500 8.18400 34.02100
H  -0.25500 9.83400 34.46200
H  0.56100 2.43600 28.07200
H  1.26600 3.29100 29.45700
H  2.33200 2.47300 28.13700
H  2.46900 1.33200 24.73600
H  1.02300 1.36200 25.69100
H  2.68300 1.67300 26.25800
H  0.11600 8.05500 22.65000
H  1.68300 10.36500 22.49900
H  2.63900 8.71900 21.48000
H  1.55700 7.31800 21.07100
H  2.85800 7.12300 22.22900
H  -0.79100 10.98700 23.74500
H  -1.16800 9.70600 22.58200
H  -0.05200 12.45400 22.08400
H  -1.53400 11.79200 21.41100
H  -0.04000 11.26800 20.78700
H  1.60800 14.42500 25.69000
H  3.41300 14.22900 25.95500
H  2.34700 14.90100 27.18200
H  1.30400 12.11900 31.37600
H  5.03500 12.96600 33.47500
H  4.78100 11.32200 33.78000
H  3.82000 12.43400 34.72300
Mg 41.23400 41.16300 26.88000
C  40.27200 43.58400 29.12100
C  42.06300 38.97500 29.36200
C  42.25200 38.75300 24.59100
C  40.71000 43.42900 24.26800
N  41.13700 41.28900 28.94100
C  40.61700 42.34300 29.70200
C  40.66900 41.92700 31.24500
C  41.40100 40.57100 31.30500
C  41.55600 40.25800 29.77200
C  42.65700 40.28800 32.17200
C  39.32000 42.05100 32.01300
C  39.44200 42.66900 33.38900
H  38.65200 42.11900 34.65000
N  41.96800 39.07900 26.95100
C  42.27400 38.45800 28.08900
C  42.66800 37.12000 27.73400
C  42.77600 37.00300 26.32500
C  42.29700 38.27300 25.86900
C  43.14500 36.21800 28.80000
C  43.29300 35.85200 25.48300
O  43.36800 35.91800 24.27700
C  43.75000 34.56400 26.10400
N  41.54100 41.17100 24.76900
C  41.81500 39.98900 24.09000
C  41.78700 40.29700 22.48200
C  41.21300 41.73400 22.46200
C  41.16200 42.16600 23.94600
C  43.17900 40.17700 21.88300
C  39.84900 41.82400 21.68400
C  38.60300 41.39000 22.54100
N  40.69800 43.17700 26.65200
C  40.49300 43.94800 25.54700
C  40.10800 45.30900 25.89200
C  39.97100 45.22000 27.34000
C  40.40700 43.92800 27.74800
C  39.91900 46.47300 24.94400
C  39.59400 45.91000 28.61600
O  39.14200 47.02100 28.85700
C  39.75600 44.87200 29.75500
C  40.78000 45.41200 30.59300
O  41.88200 45.92700 30.27900
O  40.19200 45.50000 31.82500
C  41.01600 46.32700 32.75700
H  42.31100 38.32900 30.20700
H  42.51600 38.13200 23.73200
H  40.23600 44.03500 23.49300
H  41.35700 42.65200 31.68000
H  40.65600 39.84400 31.62900
H  42.64200 40.93100 33.05300
H  43.61800 40.45800 31.68700
H  42.51200 39.32800 32.66700
H  38.94200 41.05100 32.22500
H  38.55600 42.48500 31.36800
H  39.12800 43.71300 33.39000
H  40.48900 42.64200 33.69200
H  43.18800 36.63400 29.80700
H  44.14200 35.85000 28.55900
H  42.41300 35.41100 28.83000
H  43.01400 33.97200 26.65000
H  44.71600 34.75600 26.57200
H  44.17100 34.01000 25.26500
H  41.17900 39.51900 22.02000
H  41.93600 42.40800 22.00100
H  43.38200 40.98900 21.18500
H  43.26700 39.23300 21.34600
H  43.92800 40.06900 22.66900
H  39.81600 41.24000 20.76400
H  39.74100 42.87700 21.42300
H  38.78000 41.19600 23.59900
H  38.20300 40.46200 22.13400
H  37.92100 42.23400 22.43400
H  38.88300 46.62400 24.64300
H  40.50900 46.34200 24.03600
H  40.37900 47.33800 25.42200
H  38.84100 44.71100 30.32500
H  42.08500 46.43700 32.57000
H  40.80200 46.08400 33.79800
H  40.67200 47.36100 32.73200

