158

Mg 44.72400 3.75300 47.97600
C  42.44800 6.53600 47.81900
C  41.86400 1.79100 47.35800
C  46.76300 1.10200 47.21300
C  47.35700 5.90900 47.50400
N  42.35900 4.16300 47.57100
C  41.69300 5.33300 47.72100
C  40.19300 5.17600 47.57600
C  40.02100 3.63500 47.63600
C  41.50600 3.16600 47.46800
C  39.33700 3.13600 48.86500
C  39.56200 5.94300 46.34300
C  39.58600 5.17800 45.00000
H  39.82800 6.07900 43.80500
N  44.38000 1.69100 47.44900
C  43.12600 1.06300 47.29100
C  43.31800 -0.27800 47.00300
C  44.75500 -0.57800 47.05700
C  45.37100 0.77900 47.24900
C  42.23200 -1.27300 47.08700
C  45.38500 -1.90500 46.86200
O  44.73400 -2.94700 46.64800
C  46.90400 -2.12000 46.86100
N  46.76700 3.55400 47.36500
C  47.37500 2.32200 47.26100
C  48.82800 2.50200 46.69400
C  49.05400 4.00300 47.21300
C  47.62700 4.52400 47.34700
C  49.98400 1.62800 47.26000
C  50.06600 4.76000 46.23100
C  51.50800 4.99700 46.69600
N  44.96700 5.80800 47.90900
C  46.09900 6.52600 47.70800
C  45.78500 8.00600 47.82300
C  44.36900 8.02600 47.79100
C  43.87900 6.64000 47.88100
C  46.70100 9.17300 47.88000
C  43.22400 8.87500 47.79500
O  43.17600 10.08800 47.89800
C  41.97500 7.94000 47.68800
C  41.01600 8.40000 48.75800
O  41.16900 8.24100 49.94300
O  39.86300 8.71900 48.15100
C  38.62600 8.85000 48.87400
H  41.02900 1.09600 47.24400
H  47.45400 0.30100 46.94200
H  48.21500 6.57800 47.41200
H  39.92900 5.54500 48.56700
H  39.59400 3.19900 46.73300
H  38.92500 2.17000 48.57400
H  38.47900 3.73300 49.17500
H  40.01600 2.91500 49.68900
H  40.22800 6.76400 46.07600
H  38.67200 6.52400 46.58800
H  38.59100 4.73600 44.95100
H  40.43000 4.49000 45.04800
H  41.27800 -0.81500 47.35000
H  42.50800 -2.03900 47.81200
H  42.12500 -1.89000 46.19600
H  47.32400 -1.50200 47.65400
H  47.35300 -1.70900 45.95600
H  47.12600 -3.16800 47.05900
H  48.80200 2.28800 45.62600
H  49.51800 3.91500 48.19500
H  50.79400 2.22700 47.67700
H  50.35700 0.87700 46.56400
H  49.79900 0.98200 48.11800
H  49.74500 5.70900 45.80300
H  50.17400 4.16900 45.32200
H  52.11200 4.59600 45.88300
H  51.81400 4.56600 47.64900
H  51.78300 6.05100 46.65200
H  47.65100 8.96900 47.38700
H  46.79600 9.48600 48.92000
H  46.10200 9.97300 47.44500
H  41.58900 8.20600 46.70300
H  37.76100 8.65100 48.24300
H  38.49500 9.88100 49.20400
H  38.52200 8.12200 49.67800
Mg 6.74900 53.04300 41.60800
C  6.30900 49.47300 41.22200
C  9.92900 52.58700 40.19600
C  6.90700 56.19100 41.32700
C  3.35800 53.09900 42.43000
N  7.83300 51.23400 40.64800
C  7.51700 49.95200 40.71800
C  8.69800 49.05700 40.24800
C  9.93300 49.99200 40.14700
C  9.21800 51.34300 40.41200
C  11.16500 49.66900 41.08900
C  8.52400 48.40400 38.80800
C  8.42800 49.34400 37.56500
H  7.31400 49.07400 36.61900
N  8.23100 54.33900 40.82600
C  9.48200 53.91500 40.40000
C  10.23800 55.15700 40.18200
C  9.37900 56.29600 40.52300
C  8.16600 55.60800 40.98200
C  11.60900 55.31300 39.51200
C  9.59900 57.74900 40.22700
O  10.57900 58.05300 39.54300
C  8.67100 58.87300 40.68500
N  5.27700 54.44400 41.76400
C  5.62100 55.73200 41.66400
C  4.51400 56.64700 42.00900
C  3.32600 55.63700 42.13900
C  4.00100 54.29800 42.14500
C  4.70200 57.52400 43.27200
C  2.30200 55.65200 40.91000
C  0.79100 55.67200 41.34800
N  5.15900 51.63700 41.91800
C  3.90100 51.83700 42.29600
C  3.25000 50.55600 42.59800
C  4.16400 49.62600 42.16000
C  5.29500 50.33400 41.73700
C  1.84100 50.40000 43.03400
C  4.36100 48.26500 41.92700
O  3.62500 47.24700 42.11400
C  5.78100 48.04100 41.41500
C  5.55400 47.35600 40.11100
O  4.91600 47.76700 39.16000
O  6.32100 46.16900 40.14100
C  6.05900 45.17900 39.07700
H  10.98700 52.46500 39.95200
H  6.89200 57.28300 41.32300
H  2.30400 53.03800 42.70900
H  8.88200 48.15600 40.83300
H  10.39600 49.89600 39.16500
H  12.09400 49.65700 40.52000
H  11.07300 48.64400 41.44900
H  11.18500 50.38300 41.91200
H  7.57200 47.87200 38.80700
H  9.29500 47.64200 38.69300
H  9.33600 49.18100 36.98300
H  8.27300 50.40600 37.75900
H  11.58900 55.95000 38.62800
H  12.07200 54.33600 39.37000
H  12.16300 55.80700 40.31000
H  8.52100 58.87600 41.76500
H  7.71600 58.79900 40.16400
H  9.10200 59.85300 40.48000
H  4.18700 57.38100 41.27300
H  2.80100 55.83000 43.07500
H  4.10500 57.24000 44.13900
H  4.35000 58.53800 43.08000
H  5.76000 57.49100 43.53300
H  2.43200 54.85100 40.18200
H  2.27600 56.60400 40.37900
H  0.46500 56.71200 41.31000
H  0.69000 55.26700 42.35500
H  0.10100 55.09400 40.73400
H  1.69900 50.19300 44.09500
H  1.41100 49.53400 42.53000
H  1.19500 51.16300 42.60100
H  6.43200 47.56200 42.14600
H  5.10400 44.72300 39.34000
H  6.76400 44.35600 39.19000
H  6.08600 45.67700 38.10800

