158

Mg 47.05600 24.40000 28.26000
C  47.66700 26.80000 30.95200
C  46.26400 22.14200 30.73200
C  46.76900 22.17100 25.83000
C  48.49500 26.71700 26.17400
N  46.85800 24.51400 30.59200
C  47.05800 25.62000 31.41500
C  46.79400 25.14900 32.82300
C  46.56700 23.61400 32.73600
C  46.61900 23.39500 31.25800
C  47.63000 22.82100 33.54500
C  45.69600 25.95700 33.65700
C  46.16600 26.54500 35.05100
H  46.45900 25.61200 36.18300
N  46.54800 22.43600 28.26500
C  46.14300 21.72100 29.37800
C  45.64100 20.40000 28.96500
C  45.79300 20.35800 27.53000
C  46.34800 21.68000 27.12400
C  45.21200 19.38100 29.89000
C  45.30300 19.31200 26.51600
O  45.35500 19.46800 25.29300
C  44.56500 18.14700 27.02500
N  47.52300 24.47600 26.31000
C  47.30900 23.41600 25.45300
C  47.57800 23.76700 23.98700
C  48.06100 25.21200 24.10800
C  47.99100 25.52800 25.60100
C  48.63600 22.83100 23.39500
C  47.11400 26.14500 23.26700
C  45.63200 26.15000 23.71400
N  47.82900 26.38400 28.43300
C  48.43900 27.16500 27.46900
C  48.81300 28.36400 28.04200
C  48.57500 28.29300 29.43800
C  47.92000 27.05500 29.61700
C  49.40100 29.53100 27.27300
C  48.61000 29.09900 30.68900
O  48.91500 30.24200 30.78700
C  48.07800 28.05100 31.71700
C  49.18000 27.73900 32.72400
O  50.05000 26.95400 32.50100
O  49.06000 28.48500 33.87900
C  50.02800 28.19700 34.98900
H  46.01600 21.39000 31.48300
H  46.48500 21.55500 24.97400
H  48.88300 27.40400 25.42000
H  47.77500 25.27900 33.27900
H  45.61700 23.37500 33.21300
H  47.87500 21.92200 32.97900
H  47.23700 22.62600 34.54300
H  48.57900 23.32900 33.71600
H  44.78400 25.37500 33.79400
H  45.30000 26.73700 33.00700
H  45.35900 27.23100 35.30800
H  47.06400 27.14600 34.90700
H  46.09500 18.74500 29.95600
H  44.26700 18.95000 29.56000
H  45.09600 19.71600 30.92100
H  44.23800 17.48700 26.22200
H  43.69500 18.55000 27.54200
H  45.36600 17.69500 27.61100
H  46.60200 23.63800 23.51800
H  49.12600 25.37300 23.94000
H  49.00800 22.02500 24.02700
H  49.51700 23.43900 23.18800
H  48.32200 22.37800 22.45500
H  47.24600 25.86400 22.22200
H  47.46000 27.17700 23.32400
H  45.18100 27.13800 23.81000
H  45.53600 25.63400 24.66900
H  44.94900 25.62800 23.04400
H  48.59600 30.12700 26.84500
H  49.92000 29.09500 26.41900
H  50.07500 30.14700 27.86800
H  47.20000 28.44700 32.22600
H  49.60300 27.52200 35.73200
H  50.26500 29.13700 35.48700
H  50.98300 27.81200 34.63200
Mg 26.05800 50.40000 27.29600
C  24.03300 51.43300 29.91200
C  28.66600 49.79300 29.61700
C  28.09200 49.75600 24.83700
C  23.68900 51.72400 25.07900
N  26.23200 50.41900 29.46500
C  25.22500 50.89400 30.35600
C  25.63600 50.53000 31.81100
C  27.19100 50.23500 31.67900
C  27.39300 50.12700 30.17200
C  28.17700 51.25900 32.20200
C  24.83600 49.34400 32.35800
C  24.55100 49.14000 33.84600
H  25.17000 50.09500 34.91600
N  28.09000 49.70300 27.21800
C  28.97300 49.53300 28.26800
C  30.24500 49.13800 27.68900
C  30.09600 49.08200 26.30100
C  28.69600 49.47000 26.06400
C  31.46500 48.93900 28.58000
C  31.12500 48.86300 25.20200
O  30.79900 48.76800 24.02300
C  32.60900 48.74500 25.49700
N  25.97800 50.81000 25.19900
C  26.90000 50.36000 24.35000
C  26.34000 50.22600 22.92800
C  24.84700 50.64500 23.08300
C  24.82700 51.07000 24.56900
C  27.12200 51.05900 21.80600
C  23.74000 49.58100 22.79900
C  22.44400 50.14000 22.09700
N  24.34000 51.53000 27.38500
C  23.49000 52.04900 26.43700
C  22.32000 52.65400 27.08200
C  22.49700 52.37500 28.44000
C  23.72900 51.76300 28.56200
C  21.17000 53.26800 26.39500
C  21.86700 52.48400 29.71600
O  20.76900 52.90200 30.11800
C  22.89400 51.89300 30.73800
C  23.30200 52.91700 31.75300
O  24.23000 53.67500 31.62500
O  22.62900 52.74200 32.95100
C  23.04900 53.55400 34.10900
H  29.47000 49.80400 30.35600
H  28.67500 49.46000 23.96300
H  22.83500 51.71800 24.39800
H  25.41200 51.45700 32.33700
H  27.52000 49.32300 32.17700
H  28.88100 50.76800 32.87400
H  27.62600 52.04100 32.72500
H  28.68700 51.67200 31.33200
H  25.38100 48.46700 32.00800
H  23.93200 49.21700 31.76200
H  25.15500 48.25100 34.03000
H  23.52800 48.84300 34.07700
H  31.50600 49.82600 29.21200
H  32.42800 48.94300 28.07000
H  31.37400 47.95900 29.04800
H  33.15000 48.60100 24.56100
H  32.76400 47.98600 26.26400
H  32.96700 49.72300 25.81700
H  26.31400 49.16700 22.67100
H  24.65100 51.56800 22.53600
H  27.77100 51.65500 22.44900
H  26.51400 51.79600 21.28100
H  27.70700 50.41900 21.14600
H  23.45000 49.09300 23.73000
H  24.18700 48.89900 22.07600
H  22.40000 49.75100 21.08000
H  22.57400 51.21800 22.00000
H  21.54000 49.91000 22.66000
H  21.21200 52.92400 25.36100
H  21.33400 54.33900 26.51000
H  20.21100 53.08100 26.87800
H  22.47100 51.01200 31.22200
H  23.28700 54.59700 33.90100
H  23.95700 53.05100 34.44200
H  22.26300 53.46400 34.85900

