158

Mg 39.97600 9.51400 29.45100
C  41.72900 10.73300 32.43500
C  37.80900 8.06000 31.47300
C  38.67200 8.69400 26.73500
C  42.85100 10.92900 27.63000
N  40.00700 9.23600 31.70700
C  40.56200 9.96700 32.70700
C  39.92500 9.73500 34.02000
C  38.59300 8.90200 33.67200
C  38.79900 8.69700 32.19200
C  38.46000 7.58400 34.45600
C  39.62200 10.96300 34.81600
C  39.97700 10.82400 36.34700
H  40.75000 11.94000 37.02500
N  38.43800 8.47400 29.18900
C  37.61600 7.91200 30.07800
C  36.56600 7.25100 29.34500
C  36.76400 7.51000 28.00700
C  38.00100 8.28000 27.93300
C  35.47300 6.46000 30.03000
C  35.86900 7.12100 26.83400
O  36.04500 7.52900 25.68600
C  34.63500 6.21400 27.03800
N  40.72400 9.76400 27.48300
C  39.91000 9.29300 26.51200
C  40.42700 9.68100 25.10900
C  41.77800 10.43300 25.35800
C  41.73100 10.47400 26.96800
C  40.37900 8.65000 23.91100
C  42.06800 11.69400 24.67200
C  41.20800 12.87100 25.09200
N  41.98200 10.51400 29.87300
C  42.92600 11.05800 29.05500
C  43.92900 11.71200 29.80900
C  43.47700 11.65400 31.08700
C  42.27800 10.88300 31.11800
C  45.15100 12.35500 29.34400
C  43.80500 12.02400 32.43400
O  44.72300 12.65600 32.84600
C  42.72800 11.48300 33.36000
C  43.51600 10.53900 34.27400
O  43.92500 9.43500 33.94500
O  43.65600 11.13800 35.51200
C  44.61800 10.44900 36.43300
H  37.05300 7.56100 32.08200
H  38.22100 8.41400 25.78100
H  43.77500 11.24100 27.13900
H  40.69000 9.19100 34.57300
H  37.66200 9.46800 33.66400
H  39.11000 7.48400 35.32500
H  38.67800 6.73100 33.81300
H  37.48300 7.49200 34.92900
H  38.57100 11.23700 34.72200
H  40.18500 11.76700 34.34200
H  40.55400 9.94200 36.62400
H  38.96600 10.77700 36.75100
H  34.51400 6.92300 29.80100
H  35.51100 6.51300 31.11800
H  35.61000 5.43200 29.69200
H  34.90000 5.22300 27.40500
H  34.08400 6.13500 26.10100
H  33.96500 6.77300 27.69200
H  39.66800 10.38900 24.77700
H  42.61200 9.75400 25.18300
H  40.57900 7.62100 24.20800
H  40.99400 8.95100 23.06300
H  39.30500 8.67400 23.72700
H  41.84200 11.50800 23.62200
H  43.09900 12.04500 24.72100
H  40.81900 12.74300 26.10200
H  40.40500 12.99000 24.36500
H  41.90100 13.71000 25.02900
H  45.98000 11.77800 29.75300
H  45.23200 13.37200 29.72800
H  45.30600 12.43500 28.26800
H  42.37800 12.35600 33.91000
H  44.07300 10.30600 37.36600
H  45.53200 10.99700 36.66300
H  44.94700 9.46500 36.10100
Mg 36.88800 49.45900 25.19900
C  37.03500 47.79500 28.20500
C  35.41000 52.11900 27.02100
C  36.49000 51.03100 22.27500
C  38.06800 46.73900 23.48900
N  36.12300 49.85400 27.32700
C  36.42300 49.04000 28.40700
C  35.91500 49.61200 29.72500
C  35.25900 50.95100 29.27100
C  35.62200 50.99500 27.80400
C  33.75500 51.13400 29.52700
C  37.16700 49.84100 30.64600
C  37.15300 49.24800 32.06900
H  35.82900 49.24900 32.86900
N  36.12600 51.31700 24.75500
C  35.55100 52.24200 25.61600
C  35.00300 53.32400 24.80300
C  35.39300 53.08200 23.46700
C  36.04200 51.76500 23.42600
C  34.23200 54.50900 25.38700
C  35.11700 53.98500 22.29500
O  35.45600 53.68100 21.10700
C  34.58200 55.39200 22.48500
N  37.37100 48.97100 23.15700
C  37.08000 49.76400 22.13500
C  37.43200 49.19100 20.79100
C  38.14600 47.86300 21.22500
C  37.95000 47.86500 22.70200
C  36.25900 49.02200 19.83600
C  39.67100 47.92400 20.96100
C  40.18800 47.72800 19.52300
N  37.45600 47.57600 25.70800
C  37.89200 46.56300 24.87200
C  38.28000 45.50300 25.77000
C  37.99100 45.89000 27.06700
C  37.41800 47.15600 26.99500
C  38.93000 44.23900 25.28100
C  38.07500 45.55300 28.47400
O  38.54500 44.56200 28.99300
C  37.28700 46.73600 29.29300
C  36.07300 46.11100 29.99400
O  34.88800 46.22100 29.68400
O  36.54200 45.50300 31.15300
C  35.59000 44.87800 32.13500
H  35.14800 53.04200 27.54300
H  36.37800 51.63300 21.37100
H  38.35200 45.87200 22.89000
H  35.32500 48.79500 30.14100
H  35.70000 51.80600 29.78200
H  33.30500 50.35100 30.13700
H  33.23300 51.26400 28.57900
H  33.61700 52.05800 30.08900
H  37.38000 50.90800 30.70600
H  38.04600 49.45000 30.13300
H  37.69200 50.01500 32.62500
H  37.64700 48.28000 32.14900
H  34.06000 54.33500 26.44900
H  33.26900 54.71700 24.92000
H  34.88900 55.37400 25.30100
H  35.13100 55.87400 23.29400
H  33.51800 55.43400 22.71900
H  34.74400 55.91400 21.54200
H  38.20900 49.78200 20.30800
H  37.76200 46.93900 20.79500
H  36.59000 49.47000 18.89900
H  35.40100 49.56400 20.23400
H  35.92600 48.03700 19.50700
H  40.03600 47.13200 21.61500
H  40.07500 48.87200 21.31500
H  40.75300 48.61300 19.23200
H  39.42500 47.31900 18.86100
H  40.87800 46.92200 19.77500
H  40.01000 44.27700 25.13900
H  38.48400 43.87200 24.35700
H  38.78700 43.54900 26.11300
H  37.92400 47.09400 30.10200
H  35.86200 43.84200 32.33700
H  34.56200 44.91800 31.77500
H  35.70200 45.41600 33.07700

