158

Mg 8.60500 4.23400 27.47600
C  9.74900 2.44700 30.57800
C  6.66500 6.16300 29.61600
C  7.62300 5.63900 24.81000
C  10.29600 1.89500 25.60900
N  8.21800 4.10700 29.88100
C  8.78300 3.39100 30.90900
C  8.25600 3.92400 32.27500
C  7.31600 5.09100 31.89300
C  7.38700 5.14200 30.33100
C  5.87800 4.91700 32.42300
C  9.43300 4.35100 33.28000
C  8.94100 5.04700 34.55600
H  10.08700 5.27100 35.52700
N  7.39800 5.79300 27.25300
C  6.62800 6.38200 28.21300
C  5.89000 7.44300 27.54000
C  6.22100 7.38700 26.15700
C  7.03700 6.18900 25.96500
C  5.00500 8.46900 28.29000
C  5.70200 8.34900 24.96000
O  6.04700 8.14600 23.79800
C  4.95400 9.52200 25.32400
N  8.75000 3.73900 25.50800
C  8.31900 4.50400 24.55700
C  8.44800 3.89700 23.11400
C  9.57300 2.82000 23.38800
C  9.56300 2.79400 24.96200
C  7.13900 3.38900 22.45200
C  10.94200 3.15300 22.74800
C  11.90000 2.11600 22.26000
N  9.81100 2.52700 27.90800
C  10.50300 1.76300 26.95900
C  11.30600 0.84700 27.69000
C  11.05700 1.07700 29.08300
C  10.12000 2.11500 29.16100
C  12.30300 -0.22000 27.20400
C  11.43100 0.64900 30.43800
O  12.29200 -0.12700 30.82900
C  10.52800 1.61600 31.45300
C  9.67800 0.79500 32.33700
O  8.94400 -0.07100 32.00100
O  10.20500 0.93000 33.60100
C  9.63800 -0.00900 34.69300
H  6.07500 6.79000 30.28900
H  7.26300 6.23200 23.96700
H  10.86200 1.11100 25.10200
H  7.70800 3.02800 32.56900
H  7.62000 6.06300 32.28200
H  5.14800 4.73800 31.63300
H  5.61300 5.91400 32.77500
H  5.90000 4.13900 33.18500
H  9.95500 5.08200 32.66400
H  10.10600 3.53000 33.53000
H  8.22600 4.37200 35.02600
H  8.57500 6.04900 34.33300
H  4.00200 8.51100 27.86600
H  5.48400 9.44600 28.34600
H  4.65900 8.13500 29.26800
H  5.59000 9.95000 26.09900
H  4.06100 9.16800 25.83900
H  4.82000 10.24700 24.52200
H  8.82300 4.65300 22.42400
H  9.28300 1.78900 23.18700
H  7.23200 2.34900 22.13900
H  6.94200 3.93300 21.52900
H  6.21900 3.52600 23.02000
H  11.48900 3.76600 23.46400
H  10.70600 3.77900 21.88700
H  12.00800 2.19500 21.17800
H  11.63000 1.07800 22.45500
H  12.87500 2.39900 22.65700
H  12.71200 -0.75400 28.06200
H  13.08800 0.26700 26.62500
H  11.81200 -0.95200 26.56300
H  11.19300 2.21100 32.07800
H  9.32100 -0.98700 34.33100
H  8.74700 0.45600 35.11400
H  10.37000 -0.20800 35.47500
Mg 9.11000 48.41300 25.96500
C  7.00800 48.86600 28.65700
C  11.81300 49.70600 27.76700
C  11.04400 48.01100 23.22300
C  6.23700 47.72000 24.03400
N  9.35600 49.26700 27.87600
C  8.36400 49.14800 28.88900
C  9.06400 49.48700 30.26600
C  10.37900 50.15700 29.82600
C  10.54500 49.70000 28.40900
C  10.43300 51.66600 30.09700
C  9.43300 48.22300 31.12000
C  9.55200 48.37200 32.67900
H  8.95600 47.35600 33.66900
N  11.14900 48.73500 25.60200
C  12.08300 49.22600 26.43800
C  13.36600 49.06600 25.79800
C  13.16700 48.56900 24.52700
C  11.76500 48.45000 24.36400
C  14.64400 49.51300 26.51300
C  14.16000 48.33300 23.43800
O  13.85600 48.14200 22.26600
C  15.72100 48.39200 23.77700
N  8.71100 48.03400 23.92600
C  9.63800 47.83200 22.97000
C  9.03900 47.45500 21.65500
C  7.54500 47.39700 21.98200
C  7.48800 47.69500 23.39600
C  9.42400 48.34500 20.41600
C  7.00200 45.98900 21.57400
C  5.81600 46.16700 20.61400
N  6.98100 48.42500 26.20900
C  5.96400 48.08400 25.36600
C  4.73500 48.10400 26.07200
C  5.13900 48.44500 27.38700
C  6.48600 48.63500 27.40500
C  3.40600 47.72800 25.60400
C  4.57700 48.60800 28.68700
O  3.43200 48.54800 29.11200
C  5.83400 48.93900 29.56300
C  5.81400 47.89200 30.61900
O  6.23200 46.80900 30.43100
O  5.29800 48.34800 31.82400
C  5.08100 47.27800 32.78300
H  12.64900 50.05700 28.37500
H  11.51300 47.93000 22.24000
H  5.37000 47.35900 23.47700
H  8.53500 50.20700 30.89000
H  11.22400 49.77000 30.39500
H  10.61300 52.07700 29.10400
H  11.28400 51.86400 30.74900
H  9.50400 52.01000 30.55300
H  10.38900 47.77100 30.85300
H  8.73900 47.43900 30.81600
H  9.08700 49.34100 32.86400
H  10.59700 48.52800 32.94700
H  14.42900 49.69800 27.56500
H  15.08400 50.41300 26.08300
H  15.43700 48.76600 26.47800
H  16.17100 47.51200 24.23500
H  15.89100 49.37400 24.22000
H  16.17900 48.44000 22.78900
H  9.62000 46.55200 21.46500
H  7.07100 48.18600 21.39800
H  9.86700 49.25200 20.82500
H  8.57800 48.58000 19.77000
H  10.09000 47.72000 19.82100
H  6.69500 45.56000 22.52800
H  7.76600 45.29600 21.22100
H  5.15300 45.30200 20.62600
H  5.98600 46.45200 19.57600
H  5.18900 46.98100 20.98000
H  3.54600 46.91300 24.89400
H  2.92900 48.52600 25.03500
H  2.63600 47.50900 26.34400
H  5.59900 49.82200 30.15700
H  5.62200 47.54100 33.69300
H  5.30400 46.24600 32.51400
H  4.00300 47.41100 32.87200

