158

Mg 30.78800 57.73700 40.36400
C  27.88200 56.03000 39.40700
C  32.60500 55.20200 39.13200
C  33.40900 59.82600 40.55900
C  28.70500 60.63800 40.94900
N  30.30600 55.81900 39.55700
C  29.07100 55.25700 39.35500
C  29.18600 53.76300 38.93900
C  30.68100 53.53800 38.77800
C  31.26100 54.95000 39.29100
C  31.27400 52.34100 39.52800
C  28.36900 53.41500 37.63600
C  28.42800 54.51600 36.58700
H  28.90200 54.18600 35.16800
N  32.74000 57.50100 40.00400
C  33.33300 56.40200 39.41000
C  34.70300 56.63000 39.11300
C  34.92700 57.94300 39.59600
C  33.63100 58.47600 40.10600
C  35.61600 55.56300 38.48400
C  36.35000 58.58400 39.61200
O  37.24600 58.03200 38.95500
C  36.83500 59.96500 40.25800
N  31.05200 59.92300 40.74900
C  32.23700 60.50100 40.77200
C  32.15300 62.00800 41.10400
C  30.61600 62.27600 41.40500
C  30.06700 60.87300 41.04200
C  33.26300 62.70400 41.89500
C  30.03700 63.48300 40.67200
C  29.06900 64.32700 41.52800
N  28.75400 58.33900 40.05800
C  28.07800 59.44100 40.46100
C  26.70500 59.25200 40.23800
C  26.52100 57.91900 39.88900
C  27.81000 57.38100 39.70400
C  25.57500 60.19800 40.38300
C  25.57100 56.85700 39.61300
O  24.36800 56.84200 39.61100
C  26.38400 55.60800 39.22500
C  26.06200 54.54100 40.23400
O  26.60400 54.57100 41.32700
O  25.29700 53.50300 39.67300
C  25.09400 52.34200 40.56000
H  33.19500 54.38400 38.71500
H  34.35100 60.36100 40.69800
H  27.97100 61.36300 41.30700
H  28.78200 53.18600 39.77100
H  30.91600 53.28400 37.74400
H  32.16200 52.64300 40.08300
H  31.72400 51.57300 38.89800
H  30.59200 51.84500 40.21900
H  27.34000 53.23200 37.94400
H  28.71600 52.46700 37.22600
H  29.08100 55.34000 36.87600
H  27.41300 54.88400 36.43500
H  35.06400 54.71200 38.08600
H  36.33900 55.22900 39.22800
H  36.19800 55.93000 37.63800
H  36.54800 59.76000 41.28900
H  36.13800 60.69900 39.85400
H  37.89200 60.21100 40.15100
H  32.37200 62.33400 40.08700
H  30.50200 62.35100 42.48600
H  32.79000 63.23100 42.72400
H  33.67300 63.44800 41.21200
H  33.99200 62.00600 42.30800
H  29.61300 62.99600 39.79300
H  30.91400 64.09800 40.47000
H  28.67200 63.72600 42.34600
H  28.21700 64.69000 40.95300
H  29.68800 65.13400 41.92100
H  25.25800 59.95800 41.39700
H  24.87100 60.03500 39.56600
H  25.86700 61.24600 40.31400
H  26.16800 55.20800 38.23400
H  26.10700 51.97000 40.71300
H  24.49200 51.60600 40.02900
H  24.76200 52.67100 41.54400
Mg 36.39300 49.62600 24.38200
C  36.49500 48.09600 27.50400
C  35.10000 52.42800 26.17000
C  35.60600 51.01400 21.52200
C  37.15500 46.62300 22.89700
N  35.83700 50.15400 26.58200
C  36.05500 49.39600 27.66300
C  35.78400 50.09600 29.02600
C  35.32000 51.56600 28.48600
C  35.38900 51.37000 26.99900
C  33.82200 51.90300 28.98700
C  37.01500 50.21000 29.92100
C  36.72800 49.69300 31.35600
H  35.27400 49.68800 31.95300
N  35.69100 51.56700 23.83700
C  35.27300 52.54200 24.73900
C  34.88900 53.71400 23.98900
C  34.99900 53.40200 22.58200
C  35.44700 51.93900 22.56800
C  34.27200 54.92700 24.66700
C  34.62700 54.17400 21.33300
O  34.68200 53.69500 20.16100
C  34.16900 55.53600 21.42400
N  36.26800 48.91600 22.49900
C  36.04100 49.71400 21.45400
C  36.32100 48.94500 20.13200
C  36.95600 47.62900 20.66800
C  36.76600 47.73200 22.14100
C  35.02300 48.76900 19.26200
C  38.40300 47.46800 20.18200
C  39.45500 48.52500 20.75100
N  36.87300 47.78300 24.96000
C  37.25200 46.62000 24.32700
C  37.73900 45.65000 25.20900
C  37.42300 46.18900 26.43900
C  36.89400 47.47400 26.29100
C  38.09600 44.22000 24.91000
C  37.36700 45.78000 27.87100
O  37.73000 44.74900 28.43700
C  36.85600 47.10200 28.59200
C  35.57800 46.64500 29.15800
O  34.47800 46.71100 28.62000
O  35.82300 45.90900 30.31100
C  34.64100 45.45900 30.98000
H  34.81100 53.28800 26.77800
H  35.33500 51.51800 20.59200
H  37.47100 45.74700 22.32700
H  34.93100 49.54900 29.42700
H  35.96400 52.35600 28.87400
H  33.41100 51.20500 29.71600
H  33.04300 51.96100 28.22700
H  33.87400 52.93500 29.33400
H  37.27400 51.25900 30.06100
H  37.89500 49.67000 29.57200
H  37.27600 50.25700 32.11200
H  37.09400 48.66600 31.37700
H  33.75200 54.55800 25.55100
H  33.59500 55.50300 24.03500
H  35.13000 55.50000 25.02000
H  34.82100 56.04400 22.13500
H  33.09900 55.52500 21.62900
H  34.16500 55.97200 20.42500
H  36.95700 49.63700 19.57900
H  36.40100 46.79500 20.23700
H  34.18000 49.40500 19.53000
H  34.75400 47.71900 19.15000
H  35.24800 49.04400 18.23200
H  38.50700 47.36800 19.10200
H  38.70100 46.44100 20.39300
H  40.02000 48.02100 21.53500
H  39.04100 49.50300 20.99900
H  40.14400 48.72900 19.93100
H  38.56000 44.16700 23.92500
H  37.17100 43.65200 24.81400
H  38.69500 43.72200 25.67300
H  37.45700 47.47800 29.41900
H  34.09200 44.70500 30.41600
H  33.99400 46.31100 31.19100
H  34.94500 45.13600 31.97600

