158

Mg 1.54300 -2.91900 45.56700
C  4.77800 -2.11300 44.57400
C  0.33000 -0.61100 43.37700
C  -1.47000 -4.38700 45.94800
C  2.92800 -5.62700 47.29400
N  2.46100 -1.62600 43.99900
C  3.74200 -1.37600 43.88000
C  4.02800 -0.19700 42.90000
C  2.61500 0.36800 42.57300
C  1.70700 -0.62700 43.41000
C  2.28900 1.83000 42.75800
C  4.79000 -0.81500 41.70000
C  6.16200 -0.19500 41.30700
H  6.09100 0.78300 40.04000
N  -0.31900 -2.60600 44.72400
C  -0.59100 -1.55700 43.88800
C  -1.99300 -1.59700 43.49500
C  -2.52100 -2.65000 44.26000
C  -1.42400 -3.31800 44.98900
C  -2.69100 -0.56600 42.61700
C  -4.05300 -2.91900 44.18600
O  -4.75700 -2.29300 43.45600
C  -4.53700 -3.95600 45.12100
N  0.82700 -4.80400 46.44800
C  -0.45400 -5.10600 46.54800
C  -0.69900 -6.45300 47.26800
C  0.73400 -6.85000 47.74900
C  1.55000 -5.69000 47.18700
C  -1.70800 -6.50900 48.46500
C  1.16900 -8.28000 47.42900
C  1.57500 -8.56100 46.03500
N  3.49200 -3.70400 46.00300
C  3.87500 -4.76200 46.74300
C  5.31300 -4.70100 46.91500
C  5.76500 -3.60100 46.14600
C  4.57200 -3.11900 45.54700
C  6.12700 -5.64000 47.67000
C  6.89700 -2.82200 45.66100
O  8.07000 -2.89200 45.94400
C  6.25400 -1.82200 44.62300
C  6.52800 -0.50900 45.32100
O  6.04600 -0.03200 46.36100
O  7.39700 0.09500 44.56600
C  7.69900 1.47700 44.78600
H  -0.00000 0.11700 42.63400
H  -2.39700 -4.93400 46.12900
H  3.40400 -6.44300 47.84100
H  4.62500 0.51700 43.46800
H  2.28400 0.00400 41.60000
H  1.69700 2.16300 41.90600
H  3.18300 2.42200 42.95400
H  1.74700 1.95500 43.69600
H  4.15200 -0.87900 40.81800
H  5.13600 -1.83800 41.84700
H  6.88500 -0.99600 41.14800
H  6.56400 0.33000 42.17300
H  -3.08200 -0.98400 41.68900
H  -1.95700 0.14600 42.24100
H  -3.43500 0.00500 43.17200
H  -4.14000 -4.92000 44.80600
H  -5.62300 -3.94100 45.02500
H  -4.21500 -3.73300 46.13800
H  -1.07800 -7.15300 46.52400
H  0.79200 -6.73900 48.83100
H  -2.68700 -6.77200 48.06500
H  -1.92500 -5.55200 48.94000
H  -1.44000 -7.18600 49.27600
H  0.42300 -9.00000 47.76700
H  2.03400 -8.49500 48.05800
H  1.81100 -7.61900 45.53900
H  0.72100 -8.97400 45.49900
H  2.50500 -9.11700 45.91800
H  7.14800 -5.28100 47.80100
H  6.18100 -6.62900 47.21600
H  5.67300 -5.74300 48.65600
H  6.80000 -1.83500 43.68000
H  6.80800 2.10500 44.78300
H  8.27000 1.82000 43.92400
H  8.37700 1.71200 45.60700
Mg 9.96900 47.78400 26.05000
C  8.20900 47.67400 28.88500
C  12.48400 49.30700 27.76400
C  11.85000 47.74500 23.21100
C  7.30800 46.49300 24.27500
N  10.17000 48.46600 28.04200
C  9.42500 48.21800 29.09200
C  9.92800 48.77200 30.38700
C  11.06500 49.65200 29.87600
C  11.29200 49.08000 28.45000
C  10.82000 51.21100 29.86200
C  10.36700 47.74500 31.49500
C  9.79100 47.72400 32.90900
H  9.77200 46.36800 33.65100
N  11.89500 48.37500 25.55700
C  12.83500 48.85600 26.42500
C  14.07600 48.94500 25.77000
C  13.98000 48.35700 24.45300
C  12.53000 48.13400 24.34700
C  15.38900 49.46800 26.43900
C  15.03300 48.06300 23.28000
O  14.71700 47.74600 22.15100
C  16.45900 48.29400 23.51900
N  9.50400 47.59600 23.96100
C  10.47300 47.46800 23.04700
C  9.94100 47.28400 21.59700
C  8.59600 46.51200 21.93400
C  8.42500 46.82700 23.47700
C  9.77800 48.61500 20.87600
C  8.75400 45.06500 21.50200
C  9.94200 44.34500 22.21100
N  8.07700 47.33700 26.44200
C  7.09400 46.82300 25.64000
C  5.87400 46.66000 26.29700
C  6.24400 46.93300 27.65500
C  7.60300 47.30300 27.65400
C  4.51400 46.24800 25.84400
C  5.79500 47.05300 29.03100
O  4.67100 46.94500 29.53400
C  7.11400 47.35000 29.89200
C  7.39800 46.06100 30.59600
O  8.12600 45.19000 30.16500
O  6.75600 46.01200 31.83700
C  6.89500 44.77300 32.57000
H  13.21500 49.81200 28.39800
H  12.42000 47.69900 22.28100
H  6.50800 45.99800 23.72000
H  9.13700 49.39200 30.81000
H  12.00200 49.44700 30.39300
H  9.89000 51.39600 30.40000
H  10.76900 51.61000 28.84900
H  11.64400 51.72200 30.36000
H  11.45300 47.76200 31.58300
H  10.17000 46.82300 30.94700
H  8.83600 48.25000 32.92700
H  10.48800 48.32200 33.49600
H  15.10600 49.67500 27.47100
H  15.85200 50.31200 25.92800
H  16.11100 48.65200 26.47900
H  17.07100 48.36900 22.62000
H  16.85400 47.54200 24.20200
H  16.47900 49.26800 24.00800
H  10.60300 46.68800 20.97000
H  7.68800 46.93300 21.50100
H  10.29700 49.36700 21.47000
H  8.76000 48.96600 20.70600
H  10.22900 48.52100 19.88800
H  8.98900 45.00300 20.43900
H  7.81900 44.56500 21.75500
H  10.42100 43.62300 21.55000
H  9.50100 43.79200 23.04000
H  10.75000 44.97900 22.57700
H  3.73900 46.76000 26.41400
H  4.37100 45.18100 26.02000
H  4.38000 46.50400 24.79300
H  6.89200 48.14400 30.60600
H  7.01600 45.04100 33.61900
H  7.67000 44.08400 32.23200
H  5.92700 44.32000 32.35500

