158

Mg 35.46800 1.42000 29.67400
C  33.12900 2.79500 31.96300
C  37.80000 1.55900 32.31000
C  37.80400 0.90000 27.48000
C  33.14500 2.03300 27.09000
N  35.48300 2.23100 31.83800
C  34.37000 2.55700 32.59000
C  34.64200 2.55100 34.08300
C  36.17000 2.37500 34.07800
C  36.49300 2.02400 32.68600
C  37.07600 3.60500 34.39800
C  33.79900 1.29900 34.69400
C  33.33400 1.41200 36.11600
H  34.05200 2.45400 37.05000
N  37.53600 1.23000 29.85700
C  38.32200 1.17300 30.93900
C  39.70700 0.83400 30.59800
C  39.68900 0.56600 29.23200
C  38.32500 0.92900 28.78100
C  40.76300 0.60700 31.63800
C  40.75700 -0.01900 28.34800
O  40.63900 -0.04100 27.11900
C  41.94700 -0.66000 28.89900
N  35.43500 1.34700 27.60000
C  36.51700 1.06100 26.94100
C  36.22200 1.00300 25.39000
C  34.64900 0.97300 25.35400
C  34.33900 1.49400 26.76800
C  36.94200 1.94400 24.41300
C  33.86900 -0.36500 24.95900
C  33.58900 -0.52300 23.44300
N  33.52600 2.02200 29.52300
C  32.71500 2.36400 28.40000
C  31.38400 2.76000 28.79700
C  31.55000 2.86100 30.22300
C  32.82900 2.54600 30.57100
C  30.23200 3.13000 27.89400
C  30.79700 3.32400 31.32300
O  29.66300 3.74900 31.40900
C  31.75600 3.22700 32.52800
C  31.61600 4.45500 33.33600
O  31.97000 5.60200 33.06900
O  31.03000 4.04900 34.49700
C  30.97800 5.06800 35.62400
H  38.51200 1.77000 33.11200
H  38.53000 0.71700 26.68400
H  32.44800 2.13500 26.25500
H  34.24900 3.47300 34.51100
H  36.41600 1.59200 34.79600
H  38.07900 3.24400 34.62400
H  36.59200 4.11900 35.22800
H  37.09900 4.29100 33.55100
H  34.53200 0.49300 34.65000
H  32.90100 1.15700 34.09400
H  33.35300 0.42800 36.58300
H  32.33100 1.83100 36.04100
H  40.86900 -0.47600 31.69800
H  40.45700 1.11900 32.55000
H  41.74300 0.99000 31.35300
H  42.51900 -1.15800 28.11600
H  41.65100 -1.42200 29.62000
H  42.61400 0.05300 29.38300
H  36.43200 -0.01400 25.05900
H  34.26800 1.73700 24.67700
H  37.93900 1.51900 24.29600
H  37.03400 2.96500 24.78400
H  36.40800 1.91700 23.46300
H  32.91800 -0.27000 25.48100
H  34.35200 -1.26700 25.33600
H  32.74700 0.10400 23.15300
H  33.13700 -1.49700 23.25400
H  34.52100 -0.28900 22.92800
H  30.63500 3.21800 26.88500
H  29.76800 4.01900 28.32200
H  29.43800 2.38400 27.90300
H  31.41300 2.32800 33.04000
H  31.18200 6.11700 35.40800
H  31.74400 4.78300 36.34600
H  30.01800 4.81000 36.07000
Mg 5.96400 54.82500 42.01200
C  5.80300 51.26800 41.57500
C  9.01400 54.76900 40.47700
C  5.76000 58.12800 41.82300
C  2.74900 54.63700 43.42700
N  7.08300 53.19900 40.91200
C  6.92900 51.78000 40.96600
C  8.12500 51.04900 40.33500
C  9.17800 52.23900 40.18700
C  8.43100 53.48500 40.61600
C  10.49700 51.97700 40.93100
C  7.84700 50.30000 39.04200
C  6.91000 50.96900 38.06400
H  7.02100 50.51600 36.58500
N  7.18900 56.31000 41.22800
C  8.45000 56.06100 40.67500
C  8.98800 57.38700 40.30100
C  8.04800 58.40300 40.64700
C  6.92800 57.60200 41.23300
C  10.28800 57.52900 39.62600
C  8.30800 59.88200 40.50200
O  9.43200 60.29100 40.19400
C  7.25900 60.96300 40.81500
N  4.44200 56.12100 42.50500
C  4.68200 57.49900 42.49800
C  3.64900 58.33300 43.28600
C  2.69300 57.17900 43.76900
C  3.32200 55.86700 43.15300
C  4.20200 59.27300 44.38700
C  1.12700 57.31100 43.57600
C  0.34300 56.76900 42.33800
N  4.54800 53.28000 42.49800
C  3.30000 53.38200 43.10500
C  2.91400 52.10400 43.46700
C  3.74600 51.15300 42.80600
C  4.74700 51.97900 42.22000
C  1.77800 51.74800 44.35900
C  4.17200 49.76400 42.65500
O  3.74000 48.68900 43.01800
C  5.41600 49.80300 41.78300
C  5.20800 49.05900 40.46200
O  4.30100 49.40400 39.68200
O  5.98800 47.91400 40.29300
C  5.83600 47.10900 39.07200
H  10.07500 54.63600 40.25500
H  5.69700 59.21800 41.83900
H  1.88600 54.71900 44.09100
H  8.45400 50.34000 41.09500
H  9.32700 52.35700 39.11300
H  11.36200 51.96000 40.26800
H  10.56500 50.99100 41.39000
H  10.65400 52.66700 41.76000
H  7.54500 49.29100 39.32200
H  8.79800 50.08700 38.55400
H  6.99800 52.05600 38.08500
H  5.95400 50.63300 38.46400
H  10.21600 57.87600 38.59500
H  10.80900 56.57300 39.58700
H  10.90600 58.19400 40.23000
H  6.46200 60.74200 40.10400
H  7.66800 61.96400 40.67300
H  7.05500 60.88200 41.88300
H  3.15500 59.05300 42.63400
H  2.89200 57.04100 44.83200
H  5.28600 59.16800 44.40700
H  3.81000 58.90100 45.33300
H  3.92300 60.30400 44.16700
H  0.98100 58.38700 43.47400
H  0.64600 56.98800 44.50000
H  -0.43400 56.10200 42.71000
H  1.02400 56.28000 41.64100
H  -0.17100 57.54500 41.77100
H  1.86400 52.39200 45.23400
H  1.86900 50.72900 44.73700
H  0.87500 51.89700 43.76700
H  6.20900 49.31500 42.35000
H  6.65600 46.39300 39.13000
H  5.83700 47.76400 38.20100
H  4.88000 46.58500 39.05200

