158

Mg -0.02400 7.19600 26.29400
C  0.88900 9.15100 29.02800
C  0.11600 4.33200 28.22300
C  -0.32700 5.41400 23.47200
C  0.49600 10.03400 24.31700
N  0.49700 6.84100 28.32200
C  0.64600 7.77800 29.32500
C  0.59800 7.14900 30.66100
C  0.28200 5.65400 30.42500
C  0.25100 5.61000 28.89000
C  1.25100 4.54100 31.06200
C  -0.56300 7.84900 31.54500
C  -0.19200 8.13200 33.01700
H  1.01500 7.27500 33.53700
N  -0.05000 5.10400 25.91500
C  0.05400 4.10200 26.82500
C  -0.15400 2.87400 26.10500
C  -0.35000 3.19100 24.74500
C  -0.21700 4.60100 24.63500
C  -0.32700 1.52900 26.80800
C  -0.58100 2.23100 23.55600
O  -0.71300 2.55600 22.36300
C  -0.87300 0.79400 23.86300
N  0.02200 7.68600 24.27500
C  -0.20500 6.78600 23.30100
C  -0.17300 7.39600 21.88800
C  -0.24700 8.91700 22.21600
C  0.17800 8.89100 23.65300
C  0.99400 7.05500 20.93900
C  -1.59800 9.66800 21.86300
C  -2.92900 9.08800 22.40100
N  0.46900 9.25100 26.62400
C  0.63500 10.22900 25.71900
C  1.12400 11.49300 26.31700
C  1.12600 11.11100 27.68600
C  0.83400 9.71600 27.77600
C  1.45600 12.76600 25.72500
C  1.39600 11.70700 28.96600
O  1.73500 12.82000 29.35700
C  1.22200 10.41000 29.92300
C  2.35700 10.22400 30.85900
O  3.38400 9.71000 30.41300
O  2.09400 10.75600 32.11200
C  3.36100 11.10400 32.77800
H  -0.01200 3.39000 28.76100
H  -0.29700 4.96800 22.47600
H  0.61800 10.95700 23.74700
H  1.49800 7.51300 31.15700
H  -0.72200 5.45200 30.79800
H  1.83400 3.99200 30.32200
H  0.82200 3.70600 31.61600
H  2.03000 5.03300 31.64400
H  -1.45800 7.23200 31.61400
H  -0.87300 8.78500 31.08000
H  -1.10300 8.02300 33.60600
H  0.05500 9.18600 33.15200
H  -1.27400 1.22200 26.36200
H  -0.52300 1.61500 27.87700
H  0.52100 0.90400 26.53000
H  -1.71900 0.58700 24.51900
H  -0.00100 0.26900 24.25200
H  -1.05400 0.26700 22.92600
H  -1.16100 7.13700 21.50800
H  0.53500 9.45500 21.68100
H  1.44600 7.92900 20.47000
H  0.73500 6.35100 20.14800
H  1.76500 6.65700 21.59900
H  -1.77000 9.93000 20.81900
H  -1.63900 10.53900 22.51800
H  -3.60800 9.11900 21.55000
H  -3.41900 9.62600 23.21300
H  -2.95200 8.04200 22.70800
H  2.05300 12.52200 24.84700
H  1.99400 13.47100 26.35800
H  0.53200 13.25200 25.41200
H  0.44800 10.67500 30.64400
H  3.51200 10.46200 33.64500
H  3.16100 12.12600 33.10000
H  4.29000 11.07400 32.20900
Mg 16.64700 51.31400 27.09700
C  18.74300 50.15300 29.74200
C  14.39100 52.16300 29.31900
C  14.88500 52.36000 24.49200
C  19.15200 50.19100 24.88900
N  16.63200 51.25000 29.22600
C  17.56000 50.77800 30.16900
C  17.20900 51.05900 31.61600
C  15.70600 51.43800 31.48400
C  15.49900 51.61900 29.91400
C  14.64900 50.56000 32.16900
C  18.04500 52.23900 32.17800
C  18.37200 52.26600 33.67000
H  17.19600 51.79100 34.56300
N  14.89400 52.22500 26.89700
C  14.08100 52.50400 27.98000
C  12.98700 53.27900 27.55400
C  13.00400 53.33300 26.08500
C  14.27500 52.61300 25.75300
C  12.01600 53.96400 28.44700
C  12.02100 53.83400 25.01600
O  12.21100 53.77200 23.81000
C  10.80700 54.67500 25.52700
N  17.00800 51.21100 24.91900
C  16.09400 51.81400 24.04100
C  16.59700 51.86700 22.62900
C  17.98100 51.15800 22.75600
C  18.13400 50.92200 24.27400
C  15.66800 51.19300 21.59900
C  19.22800 51.87100 22.15900
C  19.68800 51.27100 20.80900
N  18.45600 50.29500 27.22200
C  19.31200 49.81600 26.26800
C  20.33800 49.05700 26.82900
C  20.20500 49.22800 28.22000
C  19.07600 49.99600 28.38100
C  21.45400 48.48600 26.02500
C  20.81100 48.89900 29.53500
O  21.81200 48.25100 29.74000
C  19.85200 49.53000 30.59300
C  19.32000 48.50700 31.53300
O  18.44000 47.70400 31.31700
O  20.07200 48.53300 32.71100
C  19.76700 47.43000 33.65600
H  13.62900 52.39200 30.06600
H  14.30700 52.83500 23.69600
H  19.96400 49.93700 24.20400
H  17.39500 50.18200 32.23600
H  15.66000 52.43900 31.91200
H  14.06800 50.01100 31.42800
H  13.96700 51.19200 32.73800
H  15.22000 49.89700 32.81900
H  17.53900 53.19900 32.07400
H  18.94700 52.32300 31.57200
H  18.59700 53.31100 33.88000
H  19.27200 51.67600 33.84100
H  11.10000 53.38000 28.53900
H  11.81200 55.00300 28.18900
H  12.39000 53.97200 29.47100
H  11.17700 55.60600 25.95500
H  10.27300 54.13800 26.31100
H  10.15800 54.88200 24.67700
H  16.76200 52.88700 22.28100
H  17.87400 50.16300 22.32300
H  15.00300 51.94300 21.17200
H  15.12800 50.48000 22.22200
H  16.15700 50.53000 20.88500
H  20.05900 51.74100 22.85200
H  19.23900 52.95700 22.06600
H  20.17600 52.08900 20.27900
H  18.87200 50.88100 20.20000
H  20.45900 50.52900 21.01500
H  21.08100 48.10500 25.07400
H  21.92800 47.70100 26.61400
H  22.09400 49.35800 25.88700
H  20.33200 50.21700 31.29000
H  20.13500 46.50500 33.21400
H  18.68600 47.36300 33.78100
H  20.32000 47.78400 34.52600

