158

Mg 34.98100 3.33800 29.48900
C  32.82200 4.22600 32.17200
C  37.59400 3.51000 31.67400
C  37.02700 2.68400 26.87400
C  32.35300 3.46500 27.35000
N  35.17400 3.73700 31.74400
C  34.16600 4.03500 32.60900
C  34.75100 4.12000 34.01400
C  36.26800 4.18900 33.75800
C  36.39800 3.69600 32.35800
C  36.93300 5.53700 34.00100
C  34.25500 2.86600 34.82200
C  33.94400 3.23100 36.29600
H  34.66400 4.33100 36.89000
N  37.02000 3.09700 29.29800
C  37.97500 3.29500 30.26400
C  39.27800 2.95500 29.85400
C  39.13800 2.66100 28.49200
C  37.68700 2.81700 28.11500
C  40.45600 2.95600 30.79800
C  40.16800 2.22300 27.42700
O  39.94100 2.18000 26.23100
C  41.48700 1.75700 27.94600
N  34.75900 3.13400 27.35700
C  35.71500 2.82100 26.51500
C  35.16200 2.62900 25.10000
C  33.62200 2.92600 25.20400
C  33.55800 3.22100 26.76700
C  36.02600 3.44400 24.09100
C  32.63200 1.79100 24.85900
C  31.51200 2.18300 23.87100
N  33.05800 3.70800 29.67500
C  32.04900 3.82800 28.68000
C  30.76300 4.10500 29.25700
C  31.11100 4.25800 30.61600
C  32.48900 4.01100 30.84600
C  29.51900 4.23700 28.53300
C  30.46600 4.53400 31.90200
O  29.28900 4.69400 32.12800
C  31.58600 4.50600 32.98800
C  31.69000 5.84900 33.62000
O  32.43500 6.72700 33.21700
O  30.88900 5.88800 34.75000
C  31.33800 6.87500 35.75800
H  38.42100 3.54600 32.38700
H  37.77600 2.48200 26.10500
H  31.48100 3.51000 26.69500
H  34.50800 5.08000 34.47000
H  36.82000 3.49400 34.39000
H  37.16300 6.10400 33.09900
H  37.88200 5.36000 34.50600
H  36.40900 6.15200 34.73300
H  34.98900 2.06600 34.91300
H  33.35400 2.52400 34.31200
H  33.97100 2.35600 36.94600
H  32.91200 3.56900 36.20000
H  40.35600 3.90000 31.33400
H  41.40100 2.89500 30.25800
H  40.32000 2.16800 31.53800
H  41.90200 1.11300 27.17100
H  41.35000 1.26800 28.91100
H  42.17300 2.60000 28.03200
H  35.21600 1.57100 24.84200
H  33.37600 3.77100 24.56100
H  36.46800 4.30300 24.59500
H  35.42100 3.76200 23.24200
H  36.83700 2.78700 23.77600
H  32.08000 1.38100 25.70500
H  33.19500 1.03800 24.30700
H  31.42700 3.26900 23.82700
H  30.53400 1.74800 24.07800
H  31.77900 1.78000 22.89400
H  28.77900 4.72000 29.17100
H  29.13500 3.26300 28.22800
H  29.67000 4.81000 27.61800
H  31.51000 3.71000 33.73000
H  30.57700 7.64600 35.87500
H  32.22200 7.44900 35.47900
H  31.56600 6.27900 36.64200
Mg -12.34000 17.33200 40.88300
C  -9.16100 15.70000 40.45300
C  -10.81700 20.21000 39.99100
C  -15.41300 18.70700 40.93000
C  -13.82100 14.13900 41.40200
N  -10.19700 17.75600 40.31600
C  -9.08700 17.05600 40.20700
C  -7.87600 17.83300 39.76000
C  -8.37600 19.28200 39.77800
C  -9.90000 19.10400 40.04900
C  -7.77200 20.34400 40.76600
C  -7.25900 17.28700 38.43200
C  -5.75200 17.02100 38.46400
H  -5.31100 15.71900 37.70300
N  -13.00900 19.15000 40.43100
C  -12.24200 20.25700 40.03800
C  -13.10700 21.40300 39.84600
C  -14.40000 20.99600 40.15300
C  -14.34500 19.56600 40.57100
C  -12.52400 22.76000 39.44200
C  -15.61000 21.91100 40.05000
O  -15.43500 23.12000 39.80700
C  -17.06600 21.47700 40.19400
N  -14.38300 16.56300 41.15500
C  -15.43500 17.35100 41.24500
C  -16.72700 16.57100 41.58900
C  -16.22000 15.11600 41.50500
C  -14.70000 15.24600 41.29200
C  -17.50300 16.94700 42.88200
C  -16.97900 14.03400 40.65400
C  -17.74800 12.89600 41.30600
N  -11.73900 15.37200 40.95500
C  -12.40300 14.19200 41.24600
C  -11.50500 13.08000 41.17400
C  -10.27000 13.64100 40.87100
C  -10.42300 15.02300 40.79500
C  -11.90800 11.59300 41.36200
C  -8.88400 13.27700 40.60000
O  -8.36400 12.14500 40.56500
C  -8.11400 14.56100 40.30400
C  -6.96900 14.77800 41.20500
O  -7.01600 15.49200 42.25600
O  -5.87200 14.04700 40.83700
C  -4.63600 14.47600 41.56300
H  -10.47600 21.23400 39.82100
H  -16.40000 19.17000 40.98800
H  -14.33800 13.17900 41.34500
H  -7.16500 17.69300 40.57500
H  -8.29200 19.69700 38.77300
H  -6.88100 20.08200 41.33600
H  -8.63300 20.66700 41.35200
H  -7.58200 21.23400 40.16600
H  -7.32100 18.00300 37.61300
H  -7.87300 16.46100 38.07400
H  -5.34500 16.97200 39.47400
H  -5.29100 17.91500 38.04600
H  -11.90800 22.79000 38.54300
H  -11.76700 23.00000 40.18800
H  -13.15700 23.64700 39.46000
H  -17.25300 20.55100 39.64900
H  -17.76900 22.18700 39.75900
H  -17.27900 21.38300 41.25800
H  -17.30800 16.88900 40.72300
H  -16.13900 14.81800 42.55000
H  -17.41400 16.25300 43.71900
H  -18.58500 17.00800 42.76700
H  -17.12800 17.88000 43.30400
H  -16.39300 13.63400 39.82700
H  -17.82200 14.55500 40.20000
H  -17.10000 12.03800 41.12500
H  -18.61100 12.56100 40.73100
H  -18.04600 12.87900 42.35400
H  -12.96100 11.51400 41.63500
H  -11.31300 10.98600 42.04300
H  -11.87300 11.07400 40.40400
H  -7.75400 14.45900 39.28000
H  -4.56900 15.56200 41.63700
H  -3.81700 14.11400 40.94300
H  -4.53400 14.01700 42.54600

