158

Mg 0.56000 42.21200 26.33900
C  1.79400 42.24800 29.79600
C  -2.38000 41.10600 27.64500
C  -0.33400 41.26300 23.18700
C  3.87600 42.81600 25.25100
N  -0.14500 41.66100 28.45600
C  0.42000 41.95400 29.65500
C  -0.50500 41.73600 30.79000
C  -1.81600 41.33900 30.15500
C  -1.41100 41.34200 28.64000
C  -2.30600 39.96200 30.66700
C  -0.63700 42.94600 31.70600
C  -0.25900 42.84400 33.23100
H  -0.59700 41.49200 33.93900
N  -1.26700 41.43800 25.43600
C  -2.31600 41.11800 26.22200
C  -3.37600 40.82200 25.26100
C  -2.75700 40.73600 23.88800
C  -1.36100 41.09500 24.14800
C  -4.86700 40.80400 25.64300
C  -3.45100 40.43700 22.51600
O  -2.86700 40.49200 21.43300
C  -4.89200 39.87100 22.49600
N  1.59900 42.17800 24.53500
C  0.95600 41.79900 23.33100
C  1.90900 41.88400 22.17700
C  3.10500 42.68800 22.81100
C  2.81700 42.65600 24.30700
C  2.38500 40.53700 21.56300
C  3.17300 44.15600 22.28000
C  4.12800 44.24600 21.12700
N  2.51400 42.44200 27.24800
C  3.77200 42.69400 26.66300
C  4.70900 42.80100 27.79400
C  3.98400 42.68500 28.98300
C  2.69000 42.43800 28.63100
C  6.18100 43.11000 27.56100
C  4.21600 42.56700 30.39000
O  5.22800 42.55000 31.02800
C  2.69200 42.37600 31.02100
C  2.75000 41.15400 31.92100
O  2.58900 39.98800 31.56600
O  3.11800 41.51200 33.20400
C  3.05500 40.52100 34.30000
H  -3.34800 40.88200 28.09800
H  -0.56500 40.90800 22.18000
H  4.87400 42.90500 24.81900
H  -0.05700 40.87200 31.28100
H  -2.64000 42.01600 30.37600
H  -3.30000 40.11700 31.08700
H  -1.73300 39.44500 31.43700
H  -2.36100 39.30200 29.80100
H  -1.68700 43.21100 31.83300
H  0.00400 43.74700 31.33700
H  -0.71600 43.69200 33.74100
H  0.80100 43.08300 33.31900
H  -5.34100 41.57600 25.03700
H  -5.04400 41.12500 26.66900
H  -5.40600 39.89200 25.38600
H  -5.06200 39.22900 21.63200
H  -5.69300 40.57900 22.70800
H  -4.83600 39.19700 23.35100
H  1.55200 42.48400 21.34000
H  4.05100 42.18200 22.62400
H  2.24100 40.53200 20.48300
H  1.65400 39.80300 21.90200
H  3.36400 40.22100 21.92500
H  3.55100 44.83500 23.04500
H  2.13200 44.35500 22.02500
H  4.80800 45.02000 21.48400
H  3.69700 44.60600 20.19200
H  4.74900 43.37400 20.92500
H  6.42700 42.14600 27.11800
H  6.64900 43.36100 28.51300
H  6.46300 43.82300 26.78600
H  2.40500 43.28400 31.55200
H  4.06500 40.46100 34.70600
H  2.62600 39.59300 33.92300
H  2.40200 40.93800 35.06700
Mg -2.00500 33.50300 27.37400
C  -3.74800 31.49800 29.48000
C  -0.79400 35.29300 30.15900
C  -0.29800 35.77300 25.34500
C  -3.32900 32.16500 24.63700
N  -2.45000 33.56600 29.59600
C  -3.09800 32.54600 30.20000
C  -2.93400 32.65800 31.75200
C  -1.83500 33.72200 31.98600
C  -1.76300 34.32800 30.54600
C  -2.18000 35.02000 32.87900
C  -2.64900 31.27800 32.50900
C  -3.41000 30.96200 33.75500
H  -2.58300 30.76100 35.02500
N  -0.78400 35.34700 27.75600
C  -0.37300 35.84500 28.91500
C  0.52800 36.93400 28.70600
C  0.74600 37.10400 27.30700
C  -0.12400 36.07900 26.73100
C  1.05700 37.83400 29.82500
C  1.70400 38.13300 26.60700
O  1.84000 38.14700 25.41000
C  2.56300 39.01800 27.37400
N  -1.93500 33.99800 25.34000
C  -1.16300 34.89200 24.69900
C  -1.16600 34.77800 23.16100
C  -1.97000 33.42600 22.96100
C  -2.44700 33.21000 24.39200
C  -1.83700 35.96000 22.47700
C  -1.11800 32.24400 22.43200
C  -1.46100 31.77800 21.05300
N  -3.39600 32.15500 27.07100
C  -3.81400 31.60100 25.89900
C  -4.78700 30.55900 26.15900
C  -4.78700 30.40500 27.58300
C  -3.90000 31.40500 28.09500
C  -5.44200 29.76300 25.13700
C  -5.26300 29.68400 28.70600
O  -6.05200 28.71100 28.70500
C  -4.66400 30.35200 29.94400
C  -5.74800 30.78300 30.90700
O  -6.51400 31.79200 30.87500
O  -5.81100 29.73000 31.81200
C  -6.94300 29.62400 32.73200
H  -0.26700 35.70100 31.02300
H  0.17200 36.51500 24.69600
H  -3.51800 31.52900 23.76900
H  -3.87500 33.07000 32.11800
H  -0.94500 33.23200 32.37800
H  -2.61200 35.83700 32.30200
H  -1.29100 35.37700 33.39700
H  -2.84000 34.60400 33.64100
H  -1.57700 31.24700 32.69900
H  -2.79200 30.45300 31.81100
H  -3.86700 30.00100 33.51600
H  -4.32400 31.55300 33.81700
H  2.09800 37.58100 30.02800
H  0.42900 37.55400 30.67100
H  1.03500 38.89900 29.59200
H  2.04100 39.74900 27.99100
H  3.21000 39.51000 26.64700
H  3.21100 38.35800 27.95000
H  -0.12600 34.68700 22.84800
H  -2.89800 33.68000 22.44800
H  -2.59100 36.32700 23.17400
H  -2.44600 35.73500 21.60200
H  -1.09000 36.73200 22.29000
H  -1.13200 31.41000 23.13400
H  -0.09300 32.61100 22.37600
H  -1.87800 30.77900 20.93400
H  -0.55600 31.74600 20.44600
H  -2.11500 32.47500 20.52900
H  -6.29700 30.34900 24.79700
H  -5.76600 28.79100 25.50800
H  -4.72600 29.64700 24.32300
H  -4.03200 29.59600 30.41100
H  -6.50200 29.65000 33.72800
H  -7.40100 28.63800 32.65900
H  -7.71500 30.38200 32.59400

