158

Mg 45.02300 5.90300 48.02400
C  42.75200 8.58500 47.17700
C  42.47000 3.66100 46.91900
C  47.17600 3.41100 48.13300
C  47.59900 8.18900 47.97000
N  42.83500 6.14400 47.21000
C  42.13800 7.33800 47.02400
C  40.63100 7.00700 46.69600
C  40.63000 5.41100 46.63300
C  42.03900 5.02100 46.89500
C  39.71200 4.75900 47.70500
C  40.00000 7.69000 45.49300
C  40.84800 8.16000 44.39100
H  40.38200 7.95700 42.96300
N  44.81400 3.81700 47.81200
C  43.78100 3.12500 47.30100
C  44.08500 1.75900 47.38400
C  45.41800 1.59000 47.88300
C  45.88300 2.96500 47.97600
C  43.11900 0.69900 46.90600
C  46.12700 0.23200 48.10500
O  45.57500 -0.82600 47.84600
C  47.59700 0.15800 48.64000
N  47.21600 5.75500 47.65500
C  47.80600 4.63000 48.03000
C  49.26400 4.82400 48.13900
C  49.39500 6.35800 48.36000
C  47.97700 6.82700 47.94400
C  50.02300 3.98900 49.17900
C  50.53600 7.13200 47.52000
C  51.45700 8.11300 48.26900
N  45.16700 7.90300 47.77000
C  46.29300 8.73300 47.83200
C  45.96100 10.13900 47.67100
C  44.55800 10.11100 47.55000
C  44.14000 8.75500 47.48800
C  46.97800 11.28600 47.71000
C  43.40000 10.99500 47.41800
O  43.38100 12.23300 47.34700
C  42.16600 10.03900 47.18700
C  41.12800 10.27500 48.30900
O  41.06800 9.59100 49.34700
O  40.17000 11.20000 47.93700
C  39.04400 11.24700 48.86700
H  41.62400 2.99200 46.74900
H  47.91300 2.64900 48.39600
H  48.42100 8.85500 48.23700
H  40.10600 7.41000 47.56200
H  40.43000 5.22800 45.57800
H  39.03400 5.45600 48.19700
H  40.34500 4.32200 48.47800
H  39.05500 4.04200 47.21300
H  39.53300 8.53400 46.00000
H  39.28800 7.02000 45.01100
H  41.88100 7.89700 44.61900
H  40.64500 9.22900 44.45700
H  42.16500 1.11200 46.57700
H  42.94400 0.06400 47.77400
H  43.56700 0.02500 46.17500
H  47.60400 -0.81200 49.13600
H  47.84300 0.93400 49.36500
H  48.29100 0.13100 47.80000
H  49.59200 4.48600 47.15600
H  49.58900 6.49800 49.42300
H  50.40300 3.15200 48.59300
H  49.27500 3.56500 49.84800
H  50.84200 4.52600 49.65700
H  50.04600 7.66100 46.70300
H  51.00900 6.32100 46.96600
H  52.46300 7.69700 48.20500
H  51.21900 7.99400 49.32600
H  51.47900 9.18400 48.06700
H  46.44200 12.22700 47.58700
H  47.56200 11.09400 46.81100
H  47.73900 11.26800 48.49000
H  41.69400 10.24600 46.22700
H  38.43100 12.14100 48.75400
H  39.36300 11.21600 49.90900
H  38.52700 10.33800 48.56100
Mg 47.79600 16.21500 28.53300
C  45.96400 15.78400 31.49500
C  50.09100 18.08500 30.42900
C  49.26300 17.04100 25.67100
C  45.44400 14.37900 26.79400
N  47.99200 16.85200 30.73300
C  47.21100 16.44200 31.72900
C  47.70400 17.00000 33.10500
C  48.86100 17.94500 32.69700
C  49.02100 17.57000 31.18400
C  48.49100 19.39600 33.05500
C  48.04300 15.73800 34.06100
C  47.77600 15.89700 35.58800
H  47.64600 17.28200 36.23400
N  49.52100 17.34200 28.10900
C  50.27400 18.01100 28.97300
C  51.34500 18.66100 28.24500
C  51.21500 18.30600 26.88700
C  49.95300 17.55000 26.81800
C  52.47700 19.35100 28.87500
C  52.04700 18.80700 25.69900
O  51.79700 18.37300 24.56000
C  53.12300 19.87000 25.88200
N  47.50100 15.60100 26.53500
C  48.22100 16.14800 25.52000
C  47.79300 15.62600 24.14000
C  46.70300 14.60800 24.56800
C  46.54300 14.82000 26.03300
C  47.26500 16.79800 23.21700
C  46.85900 13.14000 24.23200
C  45.71800 12.55400 23.43800
N  46.05600 15.35900 29.01700
C  45.23500 14.55500 28.18300
C  44.02600 14.30300 28.84400
C  44.27900 14.64800 30.16000
C  45.53500 15.29200 30.22300
C  42.74300 13.82900 28.29300
C  43.72100 14.62800 31.51300
O  42.71600 14.13000 31.90900
C  44.82300 15.39200 32.45800
C  44.30200 16.52300 33.24900
O  43.94900 17.61300 32.80700
O  44.15000 16.17900 34.57800
C  43.41600 17.19500 35.40500
H  50.65200 18.80100 31.03300
H  49.66300 17.24800 24.67500
H  44.69900 13.70000 26.37500
H  46.89900 17.48600 33.65700
H  49.83600 17.69200 33.11400
H  48.74100 19.52000 34.10900
H  47.40400 19.46900 33.01100
H  49.01400 20.10100 32.40900
H  49.08400 15.47500 33.87500
H  47.41600 14.89000 33.78500
H  48.68300 15.40700 35.94300
H  46.94600 15.26400 35.89900
H  52.34000 20.42800 28.77600
H  53.42700 19.03600 28.44400
H  52.56200 19.02000 29.91000
H  53.40100 20.42200 24.98400
H  54.07100 19.47600 26.24900
H  52.63700 20.61200 26.51600
H  48.62600 15.16200 23.61200
H  45.81700 15.18100 24.29300
H  46.31700 16.40700 22.84700
H  47.87800 16.90600 22.32200
H  47.05700 17.73800 23.72900
H  46.94500 12.59900 25.17400
H  47.79300 12.92100 23.71300
H  46.13200 11.78500 22.78600
H  45.13300 13.24200 22.82800
H  45.04100 12.17500 24.20400
H  42.34000 14.38200 27.44400
H  41.95700 13.89200 29.04500
H  42.61500 12.77300 28.05600
H  45.20400 14.64200 33.15100
H  42.34200 17.33200 35.28100
H  43.89800 18.17300 35.40600
H  43.51500 16.85500 36.43600

