158

Mg 17.46100 -1.45700 26.76400
C  16.47200 0.69500 29.48400
C  19.42300 -3.09300 28.96700
C  18.58700 -3.01900 24.25300
C  15.91900 1.01900 24.74100
N  17.87100 -1.19800 28.89800
C  17.38700 -0.29600 29.84700
C  17.93700 -0.48100 31.23700
C  19.01900 -1.49500 30.93400
C  18.80000 -2.01700 29.53200
C  20.49400 -0.97800 31.18800
C  16.73400 -0.96300 32.13800
C  16.79700 -0.69200 33.62900
H  18.18900 -0.35100 34.15600
N  18.62500 -3.01900 26.64000
C  19.33500 -3.62200 27.62900
C  20.08400 -4.74500 27.07000
C  19.72200 -4.83700 25.67100
C  18.88600 -3.62000 25.44200
C  20.93800 -5.76300 27.85400
C  20.11000 -5.88800 24.56300
O  19.84800 -5.90000 23.37600
C  20.94000 -7.05800 25.16600
N  17.29400 -0.99700 24.81600
C  17.92700 -1.82500 23.93600
C  17.82600 -1.25700 22.48700
C  16.90300 -0.05500 22.66500
C  16.68600 0.03900 24.14800
C  19.17100 -0.88900 21.79600
C  15.61900 0.03600 21.78900
C  14.52000 -0.92500 22.27700
N  16.23200 0.31000 27.02900
C  15.69000 1.21100 26.11800
C  14.86900 2.18900 26.73100
C  15.10500 1.96400 28.07000
C  15.99800 0.87900 28.19800
C  13.81400 3.12700 26.10300
C  14.67100 2.41500 29.32300
O  13.82700 3.19100 29.70800
C  15.65400 1.69900 30.38700
C  16.38200 2.72400 31.10900
O  17.43900 3.21900 30.81600
O  15.67200 3.03100 32.16800
C  16.07800 4.26800 32.92000
H  20.06600 -3.54400 29.72600
H  18.71300 -3.59400 23.33300
H  15.64500 1.82600 24.05900
H  18.28500 0.48800 31.59500
H  18.84200 -2.34900 31.58700
H  20.56300 0.06300 31.50300
H  20.98100 -0.88000 30.21700
H  21.15300 -1.61600 31.77700
H  16.47000 -1.99100 31.88700
H  15.79400 -0.44300 31.95100
H  16.65200 -1.63000 34.16300
H  16.07600 0.06200 33.94400
H  21.98000 -5.69500 27.54100
H  20.70000 -6.82700 27.86800
H  20.83900 -5.50200 28.90800
H  20.35100 -7.48500 25.97800
H  21.90700 -6.67500 25.49300
H  21.16000 -7.80600 24.40500
H  17.42700 -2.07100 21.88200
H  17.42400 0.85600 22.37400
H  19.20000 0.17000 21.54100
H  19.23300 -1.34100 20.80600
H  20.08200 -1.12600 22.34600
H  15.90400 -0.32000 20.80000
H  15.19200 1.03900 21.80300
H  13.75700 -0.33100 22.78000
H  14.95700 -1.61700 22.99600
H  14.18900 -1.35100 21.33000
H  14.04800 3.19500 25.04000
H  13.94900 4.14500 26.46900
H  12.78400 2.78000 26.18600
H  14.98200 1.14400 31.04300
H  16.57500 4.98900 32.27100
H  16.63000 3.88700 33.77900
H  15.20400 4.83400 33.24100
Mg 47.58800 25.23200 29.67600
C  48.18400 27.68800 32.07000
C  46.14900 23.22200 31.97300
C  46.95800 23.03900 27.20800
C  49.32100 27.24600 27.36000
N  47.24600 25.48200 31.80500
C  47.49900 26.55600 32.57300
C  47.01500 26.31700 34.03500
C  46.65800 24.79300 33.96600
C  46.67100 24.45900 32.49000
C  47.51700 23.87400 34.86200
C  45.80700 27.26700 34.34600
C  45.03700 27.05800 35.63100
H  45.74000 26.96900 37.02100
N  46.70100 23.44500 29.62600
C  46.23400 22.70500 30.64900
C  45.67800 21.43100 30.20500
C  45.91800 21.36800 28.78800
C  46.52400 22.66200 28.47100
C  45.08700 20.46800 31.10500
C  45.56800 20.26700 27.86500
O  45.85200 20.23100 26.67700
C  44.74800 19.16900 28.29100
N  48.13600 25.08000 27.54900
C  47.58900 24.16900 26.75100
C  47.99500 24.40000 25.28000
C  48.62300 25.85600 25.36600
C  48.66600 26.14900 26.86700
C  49.06300 23.35100 24.82000
C  47.77100 26.88500 24.49400
C  48.57400 27.71800 23.54000
N  48.45200 27.11600 29.62400
C  49.21400 27.76500 28.63300
C  49.66500 29.04200 29.10200
C  49.30600 29.04000 30.52000
C  48.61200 27.84500 30.72000
C  50.46900 30.08600 28.30100
C  49.29000 29.79600 31.75300
O  49.70500 30.94000 31.93800
C  48.54900 28.99400 32.83600
C  49.38400 28.71400 34.05200
O  50.46000 28.21000 34.02500
O  48.84000 29.43300 35.03500
C  49.67000 29.68000 36.26600
H  45.80900 22.66800 32.85100
H  46.72200 22.30500 26.43500
H  49.80600 27.90800 26.64000
H  47.86600 26.43800 34.70500
H  45.65200 24.66300 34.36400
H  47.91400 24.42200 35.71700
H  48.20500 23.29000 34.25100
H  46.84900 23.12200 35.28200
H  45.13900 27.11000 33.49900
H  46.07700 28.31400 34.21300
H  44.50800 26.12300 35.44600
H  44.21600 27.75700 35.79200
H  44.02400 20.25300 31.00400
H  45.20800 20.71000 32.16000
H  45.60500 19.51200 31.03000
H  45.27500 18.41000 28.87000
H  44.30500 18.66100 27.43400
H  43.95800 19.62300 28.88900
H  47.11200 24.51000 24.64900
H  49.66200 25.83600 25.03700
H  50.00700 23.65700 25.27200
H  49.17000 23.27900 23.73800
H  48.86200 22.32100 25.11400
H  47.28800 27.49000 25.26200
H  46.98100 26.31500 24.00600
H  48.06000 27.79600 22.58200
H  49.61200 27.39300 23.47500
H  48.71500 28.68600 24.02200
H  51.30100 29.67300 27.73100
H  50.80700 30.82100 29.03200
H  49.76300 30.50300 27.58300
H  47.71700 29.61000 33.17700
H  50.73600 29.46500 36.19800
H  49.26100 29.22500 37.16900
H  49.59500 30.76400 36.34900

