158

Mg 50.32000 47.18400 42.79000
C  47.11300 48.17400 41.59400
C  49.75700 44.06500 41.03000
C  53.58200 46.49600 42.92800
C  50.86600 50.56300 43.61400
N  48.60500 46.20400 41.54600
C  47.43100 46.83300 41.24500
C  46.63600 45.95500 40.29100
C  47.30000 44.50600 40.53100
C  48.65800 44.95300 41.00700
C  46.63700 43.73900 41.62300
C  46.52500 46.37700 38.75100
C  45.16100 46.07500 38.11300
H  45.28700 44.96800 37.05300
N  51.50600 45.51700 42.14500
C  51.09900 44.28200 41.51100
C  52.21200 43.41300 41.30800
C  53.26900 44.02000 42.09100
C  52.81000 45.41600 42.42800
C  52.18400 42.07800 40.62200
C  54.64100 43.38700 42.31000
O  54.90200 42.26200 41.95700
C  55.80300 44.10400 42.94500
N  51.98900 48.32600 43.09700
C  53.26200 47.81200 43.14500
C  54.31200 48.86100 43.55100
C  53.40900 50.12300 43.81500
C  52.01300 49.66200 43.50700
C  55.24900 48.47700 44.72400
C  53.72400 51.45100 43.05600
C  55.19200 51.89300 43.03400
N  49.30600 49.03900 42.72600
C  49.56300 50.27100 43.14200
C  48.52000 51.13900 42.95200
C  47.48600 50.36700 42.40400
C  48.01700 49.06400 42.26400
C  48.47900 52.59600 43.25800
C  46.14300 50.32900 41.78000
O  45.36500 51.21700 41.56900
C  45.87600 48.89700 41.24000
C  44.55300 48.45100 41.86600
O  44.38500 47.89600 42.93500
O  43.53700 48.53000 40.98600
C  42.19300 48.47100 41.51800
H  49.54900 43.05600 40.66800
H  54.65600 46.31600 43.01000
H  51.05700 51.53400 44.07600
H  45.60100 45.83800 40.61400
H  47.23100 43.97000 39.58400
H  47.39000 43.37300 42.32100
H  46.12500 42.86100 41.22900
H  45.88200 44.33200 42.13900
H  47.24400 45.79200 38.17600
H  46.82400 47.42400 38.70800
H  44.81700 46.93600 37.53900
H  44.38100 45.85100 38.84100
H  52.63000 42.23600 39.64000
H  51.17200 41.67400 40.64600
H  52.70900 41.25700 41.11100
H  55.38400 44.60500 43.81700
H  56.08000 44.83300 42.18400
H  56.50000 43.33800 43.28600
H  54.89300 49.10700 42.66200
H  53.44800 50.31900 44.88600
H  55.00700 48.91800 45.69100
H  56.25000 48.81900 44.46100
H  55.28300 47.41900 44.98400
H  53.11300 52.18400 43.58500
H  53.43500 51.35200 42.01000
H  55.50400 51.93800 41.99100
H  55.80900 51.24800 43.66000
H  55.08500 52.89400 43.45400
H  48.50500 52.70400 44.34200
H  47.59900 53.15700 42.94500
H  49.35100 53.12000 42.86500
H  45.78600 48.95400 40.15500
H  42.05500 48.85800 42.52800
H  41.88300 47.42900 41.60100
H  41.51600 49.05200 40.89200
Mg 28.16600 56.05300 40.60500
C  25.77900 53.60400 39.83700
C  30.69300 54.04900 39.38400
C  30.19300 58.78200 40.30000
C  25.41800 58.28900 41.18600
N  28.20000 54.14200 39.53500
C  27.12800 53.29000 39.50700
C  27.55100 51.91900 38.97800
C  29.10100 51.93300 39.15700
C  29.38400 53.42200 39.37200
C  29.62600 51.05700 40.27700
C  26.99200 51.59600 37.57500
C  26.66300 52.76300 36.67000
H  27.37000 52.85400 35.28000
N  30.20000 56.30000 40.06500
C  31.06400 55.36400 39.65900
C  32.44300 56.00700 39.59500
C  32.26300 57.31800 39.97300
C  30.82400 57.50400 40.16300
C  33.69600 55.29600 39.08300
C  33.42100 58.34400 40.10100
O  34.56000 57.93500 39.89000
C  33.27100 59.82600 40.42500
N  27.79100 58.17600 40.62800
C  28.83700 59.06300 40.48200
C  28.30100 60.49600 40.43400
C  26.80500 60.35100 40.72200
C  26.65500 58.83500 40.87000
C  29.07300 61.43000 41.40800
C  25.85300 61.06700 39.75300
C  24.61100 61.82100 40.33600
N  26.02200 55.94200 40.72600
C  25.00500 56.93300 40.98500
C  23.67700 56.32100 41.06700
C  23.95200 54.99800 40.61300
C  25.35800 54.79800 40.40500
C  22.34400 56.97100 41.33200
C  23.38700 53.63300 40.28500
O  22.28000 53.16600 40.37800
C  24.52800 52.69200 39.78400
C  24.49500 51.41200 40.49500
O  24.28600 50.27100 40.02600
O  25.02500 51.60000 41.75100
C  25.19000 50.38100 42.50800
H  31.55500 53.47700 39.03500
H  30.86200 59.64600 40.30500
H  24.60200 58.98900 41.37600
H  27.21100 51.21600 39.73900
H  29.61300 51.57700 38.26200
H  28.92600 51.05000 41.11200
H  30.57500 51.49500 40.58400
H  29.84500 50.02200 40.01500
H  26.13100 50.93300 37.65800
H  27.84300 50.99500 37.25500
H  27.00700 53.74400 36.99800
H  25.63200 52.85400 36.32900
H  33.89500 55.59400 38.05300
H  33.43500 54.24200 39.17000
H  34.61600 55.44800 39.64900
H  32.74500 60.00200 41.36300
H  32.82700 60.32000 39.56100
H  34.29200 60.17600 40.57300
H  28.41900 60.75400 39.38100
H  26.52900 60.71500 41.71100
H  29.74300 62.04300 40.80600
H  29.65900 60.87100 42.13800
H  28.36700 62.09300 41.90900
H  25.41400 60.37700 39.03200
H  26.47600 61.77900 39.21200
H  24.82400 62.89000 40.36100
H  24.48900 61.35500 41.31400
H  23.66100 61.61900 39.84100
H  21.89900 57.05700 40.34000
H  22.33100 57.91800 41.87100
H  21.79900 56.27100 41.96600
H  24.28500 52.49900 38.73900
H  25.77200 50.66700 43.38400
H  25.78400 49.63100 41.98400
H  24.27900 49.98400 42.95500

