158

Mg 47.91100 44.99200 42.43800
C  44.50700 44.25800 42.47700
C  48.55900 41.44500 42.15600
C  51.13000 45.60800 41.61500
C  47.14900 48.37400 42.09300
N  46.68600 43.02200 42.52400
C  45.26700 43.04100 42.29000
C  44.68800 41.63000 42.06400
C  46.01400 40.77300 42.10600
C  47.14300 41.78400 42.21500
C  46.01200 39.64300 43.22100
C  43.87400 41.43800 40.78300
C  44.29300 42.10200 39.43200
H  44.21400 41.36400 38.09900
N  49.62100 43.72900 42.11400
C  49.65800 42.37700 42.01100
C  50.98400 41.91000 41.79800
C  51.73600 43.10600 41.46100
C  50.84600 44.24700 41.79900
C  51.45600 40.42000 41.64100
C  53.19200 43.16800 40.85900
O  53.89200 42.13600 40.80300
C  53.76800 44.44600 40.49100
N  48.97200 46.64200 41.86300
C  50.25400 46.71300 41.54200
C  50.83800 48.11400 41.46900
C  49.56700 48.96400 41.64900
C  48.46700 47.96800 41.95100
C  51.94600 48.42500 42.53300
C  49.34300 49.79400 40.36400
C  48.94100 51.31600 40.59500
N  46.16200 46.22800 42.51800
C  46.03600 47.55100 42.30100
C  44.56000 47.83200 42.10900
C  43.92600 46.58600 42.25300
C  44.96200 45.66200 42.49100
C  43.92700 49.16200 41.81600
C  42.64600 45.87700 42.14100
O  41.51900 46.19400 41.91800
C  43.03000 44.41600 42.22500
C  42.25200 43.92400 43.39900
O  41.23500 43.24100 43.27200
O  42.73700 44.44200 44.59600
C  41.88800 44.36500 45.77400
H  48.75300 40.37900 42.01600
H  52.14700 45.96300 41.43500
H  46.81700 49.41000 41.99200
H  43.99800 41.32200 42.85000
H  46.10000 40.22100 41.17000
H  46.04400 38.66100 42.75000
H  45.13300 39.80700 43.84600
H  46.92600 39.68100 43.81400
H  42.82300 41.60300 41.02200
H  43.85200 40.37400 40.54600
H  45.34200 42.33100 39.61900
H  43.83800 43.08800 39.34100
H  51.60900 40.18700 40.58800
H  50.78000 39.63400 41.98000
H  52.40300 40.24700 42.15200
H  53.03000 44.91100 39.83800
H  54.67900 44.30600 39.90800
H  54.06400 44.87400 41.44900
H  51.31900 48.17800 40.49300
H  49.70600 49.70500 42.43700
H  52.35000 47.50700 42.95900
H  51.51600 48.98900 43.36100
H  52.69600 49.01500 42.00600
H  48.46200 49.37800 39.87500
H  50.15900 49.73400 39.64400
H  48.06600 51.63000 40.02600
H  49.76700 51.94500 40.26400
H  49.03400 51.61500 41.63900
H  42.94000 49.07900 41.36200
H  44.57100 49.68300 41.10700
H  43.84900 49.77500 42.71400
H  42.73900 44.03500 41.24700
H  41.44300 43.37000 45.79400
H  41.13000 45.12100 45.57100
H  42.41300 44.55500 46.71000
Mg 35.46700 48.84100 24.85700
C  35.57800 47.04200 27.80400
C  34.36000 51.45400 26.64700
C  35.16000 50.40900 21.99300
C  36.23600 45.89100 23.10000
N  35.14800 49.21900 26.94700
C  35.24200 48.41100 27.96200
C  34.91200 49.06000 29.31200
C  34.24400 50.39600 28.91600
C  34.62300 50.37800 27.40800
C  32.74900 50.67800 29.08800
C  36.28100 49.16900 30.09500
C  36.14200 48.96600 31.62600
H  34.71000 48.86100 32.19800
N  34.85000 50.67800 24.36400
C  34.36700 51.58700 25.29600
C  33.93100 52.76100 24.50900
C  34.19300 52.50400 23.15900
C  34.73000 51.15800 23.12100
C  33.32600 53.98600 25.11900
C  33.85300 53.34800 21.95000
O  34.13800 52.97200 20.83600
C  33.08600 54.72900 22.08500
N  35.64400 48.16100 22.80400
C  35.42600 49.07400 21.81200
C  35.43500 48.39500 20.43200
C  36.03800 46.99600 20.78500
C  35.95500 47.00500 22.36000
C  33.93000 48.38200 19.96900
C  37.42800 46.83900 20.16900
C  38.59100 47.58800 20.81800
N  35.85400 46.83200 25.32700
C  36.13000 45.76200 24.53400
C  36.33800 44.58600 25.36100
C  36.16500 45.04600 26.65100
C  35.89200 46.42800 26.56600
C  36.79200 43.29800 25.01400
C  36.26300 44.75000 28.06800
O  36.57800 43.69100 28.62900
C  35.77700 45.96100 28.90300
C  34.56500 45.55400 29.65200
O  33.40700 45.64000 29.25600
O  34.87800 45.12500 30.91600
C  33.69000 44.51200 31.56000
H  34.08500 52.38000 27.15700
H  34.99900 50.89500 21.02800
H  36.64800 45.07900 22.49700
H  34.13200 48.42800 29.73600
H  34.72000 51.16400 29.52700
H  32.24900 49.81100 29.52000
H  32.14300 50.82500 28.19400
H  32.57500 51.48400 29.80100
H  36.65600 50.17300 29.89600
H  37.02200 48.48100 29.68800
H  36.76700 49.77400 32.00600
H  36.68300 48.04200 31.83000
H  33.33900 53.86500 26.20200
H  32.30300 54.16600 24.79000
H  34.02500 54.79600 24.90700
H  32.06200 54.51400 22.39000
H  32.96100 55.16100 21.09300
H  33.70400 55.35700 22.72700
H  36.06900 48.94900 19.74000
H  35.44000 46.20700 20.33000
H  33.35300 47.49200 20.21900
H  33.88100 48.52700 18.89000
H  33.34000 49.09300 20.54700
H  37.35200 46.94100 19.08600
H  37.61600 45.76800 20.22900
H  38.26600 48.34200 21.53600
H  39.20200 48.13800 20.10200
H  39.26900 46.98500 21.42100
H  36.02200 42.65700 24.58500
H  37.19800 42.83900 25.91500
H  37.62600 43.56300 24.36400
H  36.60700 46.11600 29.59200
H  32.97400 43.93100 30.97800
H  33.06800 45.34000 31.89900
H  33.96100 44.13200 32.54500

