158

Mg 24.26500 -5.95900 45.88700
C  26.38300 -3.48600 44.35000
C  21.68700 -4.73300 43.92900
C  22.48400 -8.55000 46.86000
C  26.99700 -7.08300 47.72900
N  24.07400 -4.25600 44.38400
C  25.07400 -3.37800 43.89800
C  24.46700 -2.40200 42.87400
C  22.92000 -2.67200 42.98100
C  22.87300 -3.98200 43.76100
C  22.09900 -1.62000 43.73700
C  25.02200 -2.64000 41.45100
C  25.51300 -1.41200 40.66200
H  25.36400 -1.41000 39.08600
N  22.33100 -6.63500 45.31600
C  21.47900 -5.96700 44.52300
C  20.24300 -6.75800 44.59900
C  20.34700 -7.73500 45.58400
C  21.74500 -7.71300 45.95200
C  19.00600 -6.31400 43.72100
C  19.22000 -8.66200 46.09300
O  18.14300 -8.57300 45.50800
C  19.31000 -9.59500 47.29400
N  24.77700 -7.73100 46.89900
C  23.81300 -8.61800 47.24500
C  24.45500 -9.70300 48.19000
C  25.69500 -8.91600 48.83700
C  25.84400 -7.90900 47.76800
C  23.58300 -10.35900 49.26000
C  26.94100 -9.74200 49.13200
C  27.76300 -9.27300 50.33300
N  26.31500 -5.38700 46.13800
C  27.31600 -5.96900 46.86900
C  28.55200 -5.17800 46.65800
C  28.19100 -4.26600 45.70500
C  26.83500 -4.42300 45.34200
C  29.80200 -5.46400 47.39700
C  28.72500 -3.21300 44.87000
O  29.89900 -2.89300 44.76900
C  27.58000 -2.71600 43.94600
C  27.40300 -1.27600 44.18800
O  26.92600 -0.80100 45.24200
O  27.68800 -0.50100 43.07400
C  27.42900 0.95800 43.08200
H  20.87000 -4.18800 43.45100
H  21.83600 -9.33800 47.25000
H  27.81400 -7.28900 48.42400
H  24.69700 -1.42100 43.29200
H  22.41200 -2.91700 42.04800
H  22.79100 -0.80000 43.92900
H  21.63100 -1.92400 44.67300
H  21.23400 -1.28700 43.16400
H  24.18300 -2.98800 40.84700
H  25.89000 -3.29600 41.38400
H  26.52400 -1.06000 40.87100
H  24.84100 -0.70400 41.14700
H  18.58500 -7.04100 43.02600
H  19.28600 -5.45900 43.10600
H  18.20500 -5.96700 44.37400
H  19.70000 -10.52200 46.87300
H  18.30800 -9.62000 47.72200
H  19.91100 -9.10900 48.06200
H  24.83700 -10.49700 47.54800
H  25.29900 -8.37200 49.69400
H  24.06400 -10.68500 50.18200
H  23.20100 -11.33300 48.95300
H  22.83700 -9.63000 49.57500
H  27.50600 -9.93700 48.22000
H  26.45100 -10.67000 49.42900
H  28.33400 -10.12400 50.70400
H  27.03100 -8.83900 51.01300
H  28.43500 -8.47300 50.02100
H  30.57900 -4.76100 47.09800
H  30.15700 -6.48800 47.28200
H  29.72200 -5.17100 48.44400
H  27.66900 -2.87600 42.87100
H  28.04400 1.45300 42.33000
H  27.78400 1.37300 44.02600
H  26.35800 1.03000 42.89500
Mg 45.58200 5.04000 48.15400
C  43.21700 7.48700 47.22200
C  43.03400 2.70100 47.72900
C  47.94300 2.61800 48.18500
C  48.14500 7.39500 47.87000
N  43.37700 5.16800 47.76400
C  42.67200 6.25000 47.23300
C  41.26300 5.83900 46.74300
C  41.11200 4.38200 47.32600
C  42.59600 4.02700 47.61800
C  40.23200 4.18600 48.63200
C  40.99000 6.07100 45.22100
C  39.65600 6.77000 44.92100
H  39.54800 7.61800 43.65500
N  45.48900 2.94700 48.15700
C  44.36200 2.18900 47.96000
C  44.75400 0.81200 48.04900
C  46.19300 0.68300 48.14100
C  46.57900 2.09900 48.16200
C  43.72200 -0.33800 48.01000
C  46.92700 -0.62700 48.23300
O  46.32900 -1.70900 48.30900
C  48.47500 -0.69900 48.25800
N  47.76100 5.04100 48.07000
C  48.43600 3.89100 48.17500
C  50.00000 4.17700 48.33000
C  50.01400 5.74100 48.38400
C  48.60000 6.10500 48.07000
C  50.75700 3.47000 49.45200
C  51.05900 6.39400 47.49900
C  52.42900 5.79900 47.40800
N  45.69400 7.05000 47.71500
C  46.79700 7.85900 47.65900
C  46.33800 9.23100 47.36200
C  44.95300 9.08900 47.35000
C  44.58400 7.75800 47.45700
C  47.25400 10.44000 47.02500
C  43.73600 9.87500 47.07000
O  43.60200 11.05000 46.93700
C  42.54800 8.79600 47.02400
C  41.53100 9.16500 48.11800
O  41.23900 8.50600 49.08700
O  40.94200 10.26100 47.69500
C  39.72300 10.60300 48.43500
H  42.24900 1.98200 47.48800
H  48.69200 1.83800 48.33000
H  48.94300 8.13900 47.81100
H  40.51300 6.45700 47.23500
H  40.71100 3.74400 46.53800
H  39.47900 3.43800 48.38600
H  39.64200 5.09600 48.74700
H  40.78300 3.84600 49.50900
H  40.92800 5.07900 44.77500
H  41.79200 6.54900 44.65800
H  39.31200 7.35700 45.77200
H  38.91200 5.97700 44.84700
H  44.04100 -1.06000 48.76200
H  43.70700 -0.76500 47.00700
H  42.71500 -0.01500 48.27100
H  48.77000 -1.73200 48.07000
H  48.75500 -0.32400 49.24200
H  48.88600 -0.13600 47.42000
H  50.29700 3.82500 47.34200
H  50.05200 6.14500 49.39600
H  51.43500 4.08200 50.04600
H  51.29800 2.64900 48.98100
H  49.99400 3.03400 50.09700
H  51.26100 7.37000 47.94100
H  50.81300 6.62200 46.46200
H  52.48900 4.87500 47.98300
H  53.16400 6.46100 47.86600
H  52.71900 5.54900 46.38800
H  47.75400 10.33900 46.06100
H  47.97700 10.57000 47.83100
H  46.60500 11.31500 46.99900
H  42.06000 8.78500 46.04900
H  39.75000 10.57100 49.52400
H  38.80000 10.22600 47.99500
H  39.68000 11.67600 48.25300

