158

Mg 47.29900 35.95700 28.98600
C  45.78800 34.06700 31.41900
C  47.72400 38.54100 31.43900
C  48.11000 38.13500 26.56300
C  46.37800 33.50800 26.58300
N  46.91600 36.24300 31.15000
C  46.32300 35.26100 31.92200
C  46.46800 35.60200 33.42900
C  46.49000 37.19800 33.29200
C  47.04500 37.42600 31.86300
C  45.07900 37.77800 33.56400
C  47.78700 35.08400 34.01100
C  47.82300 34.67000 35.47400
H  47.00400 35.39200 36.47900
N  48.05000 37.98400 28.97400
C  48.14500 38.86500 30.05800
C  48.76100 40.08700 29.68100
C  48.91500 39.98200 28.25500
C  48.44200 38.64800 27.87400
C  48.94100 41.25500 30.64700
C  49.54000 40.93600 27.24100
O  49.97600 40.55600 26.19200
C  49.84000 42.36600 27.62900
N  47.22000 35.88200 26.94900
C  47.65600 36.89000 26.13700
C  47.48100 36.57200 24.64800
C  46.94400 35.06400 24.68400
C  46.93900 34.73100 26.18400
C  46.42500 37.50500 24.01100
C  47.84100 34.12900 23.83700
C  47.10900 33.01600 23.17300
N  46.25500 34.18000 28.95500
C  46.05700 33.23000 27.96300
C  45.43500 32.04800 28.51600
C  45.24200 32.35200 29.89300
C  45.86200 33.62200 30.06400
C  45.12300 30.75400 27.76800
C  44.72200 31.84200 31.12600
O  44.20100 30.78800 31.50500
C  44.94600 33.01000 32.10500
C  45.46500 32.45900 33.43700
O  46.58100 32.07400 33.61900
O  44.45300 32.30300 34.27700
C  44.68000 31.50000 35.46000
H  47.69600 39.35900 32.16200
H  48.15300 38.89400 25.77900
H  46.07400 32.73500 25.87400
H  45.61000 35.24800 34.00100
H  47.15500 37.66100 34.02100
H  45.18200 38.31000 34.50900
H  44.31500 37.00400 33.63700
H  44.82700 38.48000 32.76900
H  48.62900 35.74100 33.79400
H  47.99200 34.21800 33.38100
H  48.87100 34.64300 35.77200
H  47.33900 33.69700 35.55600
H  48.25200 41.34400 31.48600
H  48.84100 42.20500 30.12200
H  49.93000 41.22500 31.10300
H  50.71300 42.27400 28.27500
H  48.91100 42.69800 28.09100
H  49.91700 43.08000 26.80900
H  48.43300 36.61100 24.11900
H  45.89400 35.10200 24.39400
H  45.98800 38.09100 24.82000
H  45.68100 37.00800 23.38700
H  46.96100 38.18600 23.35000
H  48.52800 33.60500 24.50100
H  48.28400 34.69400 23.01700
H  47.11000 33.17500 22.09400
H  46.04400 32.94400 23.39200
H  47.57300 32.04600 23.35500
H  44.99700 29.86600 28.38800
H  45.90500 30.42800 27.08200
H  44.20700 30.92900 27.20400
H  44.00500 33.53200 32.28100
H  45.45900 30.75000 35.31800
H  43.72600 31.02400 35.68800
H  44.99500 32.07900 36.32800
Mg 26.12700 50.54000 26.41100
C  23.90700 51.38200 29.01600
C  28.48600 49.75100 28.95200
C  28.47800 50.33600 24.14700
C  23.87400 51.74200 24.11800
N  26.08700 50.47600 28.73500
C  25.08100 50.93500 29.56000
C  25.39500 50.75300 31.11000
C  26.97800 50.40400 31.03200
C  27.23200 50.13300 29.45600
C  27.92400 51.53200 31.69700
C  24.49800 49.77800 31.81200
C  23.84300 50.16200 33.15700
H  24.67200 50.66400 34.32300
N  28.17600 50.03200 26.49800
C  28.90700 49.62500 27.59800
C  30.19700 49.25100 27.27500
C  30.34100 49.53500 25.89100
C  28.97200 49.99800 25.40600
C  31.20200 48.64700 28.19000
C  31.49400 49.47000 24.90600
O  31.49700 49.92100 23.76000
C  32.76800 48.90900 25.45600
N  26.15900 50.93000 24.40600
C  27.26600 50.68400 23.59600
C  26.97700 50.96400 22.07000
C  25.45100 51.33300 22.14000
C  25.12700 51.35300 23.59500
C  27.94000 51.88600 21.30800
C  24.54700 50.46900 21.26300
C  24.33900 49.03800 21.85600
N  24.25200 51.28800 26.48300
C  23.46600 51.72600 25.47600
C  22.17300 52.17300 25.95000
C  22.32900 52.10300 27.34000
C  23.57200 51.51400 27.62000
C  21.02600 52.64800 25.12200
C  21.71400 52.46100 28.54000
O  20.61700 53.09500 28.67000
C  22.68200 51.98100 29.71600
C  23.05000 53.10400 30.59100
O  24.09500 53.78700 30.52500
O  22.11700 53.26300 31.50400
C  22.23200 54.39600 32.44200
H  29.18700 49.50300 29.75200
H  29.23100 50.19100 23.36900
H  23.19900 52.01400 23.30400
H  25.27300 51.75500 31.52000
H  27.18900 49.46600 31.54500
H  28.25200 52.24700 30.94200
H  28.73300 50.90400 32.07000
H  27.40100 52.07600 32.48300
H  25.02900 48.86900 32.09300
H  23.72200 49.52500 31.08900
H  23.33500 49.25700 33.48700
H  23.06700 50.92700 33.12200
H  31.52000 47.66400 27.84100
H  30.88100 48.48400 29.21900
H  32.00400 49.37200 28.05300
H  32.62300 47.99000 26.02300
H  33.05700 49.60400 26.24500
H  33.59900 48.79000 24.76000
H  27.01200 49.99900 21.56400
H  25.35700 52.40100 21.94200
H  28.57300 52.48100 21.96500
H  27.33600 52.59000 20.73500
H  28.47900 51.25600 20.60000
H  24.61400 50.42900 20.17500
H  23.65100 51.08800 21.20900
H  25.07000 48.71700 22.59800
H  24.13800 48.29300 21.08600
H  23.35500 49.10200 22.32000
H  20.07600 52.53600 25.64500
H  20.90600 52.05500 24.21400
H  21.03700 53.71400 24.89500
H  22.15200 51.17600 30.22400
H  22.29700 54.08800 33.48500
H  21.27300 54.89500 32.30300
H  22.94100 55.19700 32.23100

