158

Mg 25.43400 2.41700 29.64400
C  27.59800 2.28900 32.41100
C  22.77100 2.42200 31.88900
C  23.47800 2.44500 27.01500
C  28.17000 1.47600 27.59800
N  25.25100 2.48800 31.88900
C  26.28900 2.58300 32.79100
C  25.79500 2.78400 34.22300
C  24.20900 2.71500 34.06000
C  24.03300 2.57900 32.50800
C  23.63200 1.48200 34.89500
C  26.44700 4.08900 34.84000
C  27.14400 3.96500 36.23100
H  26.70500 4.75700 37.54300
N  23.42300 2.51600 29.44400
C  22.50700 2.40600 30.42800
C  21.17700 2.32100 29.85800
C  21.31700 2.35300 28.46900
C  22.79500 2.47500 28.23400
C  19.93600 2.22100 30.70100
C  20.29700 2.22600 27.32500
O  20.56100 2.04100 26.17200
C  18.87300 2.25800 27.59500
N  25.70800 1.75300 27.58300
C  24.78400 2.18900 26.68900
C  25.33800 2.17900 25.28700
C  26.86200 1.92200 25.45900
C  26.91800 1.74400 26.98400
C  24.53200 1.07600 24.47900
C  27.74300 3.13200 24.86400
C  27.93000 4.42500 25.83900
N  27.43000 1.84700 29.93700
C  28.37100 1.47500 28.96800
C  29.63500 1.28500 29.69200
C  29.35600 1.66900 31.03700
C  28.01800 1.91700 31.10300
C  30.89200 0.71200 29.15500
C  29.85900 1.76500 32.37500
O  31.03100 1.58600 32.80000
C  28.71700 2.12400 33.30200
C  28.67400 1.02200 34.22000
O  28.17200 -0.06200 34.03700
O  29.15400 1.40300 35.43300
C  28.82000 0.52700 36.62600
H  21.88000 2.55600 32.50500
H  22.79400 2.62400 26.18300
H  28.88800 1.34800 26.78500
H  26.16100 1.87400 34.69900
H  23.71300 3.60800 34.43900
H  22.64600 1.21400 34.51400
H  23.56000 1.90900 35.89500
H  24.38500 0.70800 34.74100
H  25.73200 4.88800 35.03900
H  27.08500 4.60300 34.12200
H  28.20100 4.20800 36.11700
H  27.22100 2.91000 36.49300
H  20.14000 2.13000 31.76700
H  19.45600 1.29100 30.39700
H  19.28100 3.09100 30.64100
H  18.47500 1.33500 28.01700
H  18.41400 2.39800 26.61600
H  18.77700 3.06200 28.32400
H  25.15400 3.18800 24.91800
H  27.11000 0.97400 24.98100
H  23.85600 0.52200 25.13000
H  25.12300 0.33900 23.93400
H  23.96300 1.62100 23.72600
H  27.28500 3.47500 23.93600
H  28.60500 2.62700 24.42700
H  28.08100 4.15800 26.88500
H  27.00400 4.99800 25.78400
H  28.81800 4.98400 25.54400
H  30.49900 -0.07100 28.50500
H  31.56300 0.23200 29.86600
H  31.40300 1.47000 28.56200
H  28.93900 2.98800 33.92900
H  27.77200 0.46700 36.92000
H  29.45700 0.78000 37.47400
H  29.23100 -0.45100 36.37500
Mg 48.10600 17.13800 29.45300
C  45.80700 17.06100 32.01800
C  50.21700 19.11300 31.23900
C  50.04800 17.46900 26.72900
C  45.42900 15.84800 27.32000
N  48.10800 17.76200 31.48000
C  47.03500 17.69100 32.33600
C  47.49100 18.16500 33.79400
C  48.92600 18.80200 33.50700
C  49.16700 18.55800 31.96200
C  49.12700 20.22700 33.96200
C  47.43200 16.94500 34.80100
C  47.36300 17.21800 36.34200
H  47.44100 18.61600 37.02100
N  49.90800 18.21100 29.02100
C  50.58900 18.93100 29.93600
C  51.87700 19.30500 29.35700
C  51.87700 18.84000 28.01500
C  50.58900 18.13600 27.82500
C  52.91700 20.07500 30.03000
C  52.85600 19.06000 26.91900
O  52.74400 18.74500 25.73700
C  54.20100 19.64100 27.31300
N  47.77900 16.65200 27.38600
C  48.80800 16.89800 26.46000
C  48.41000 16.39700 25.07500
C  47.02100 15.66300 25.27700
C  46.71900 16.02700 26.74000
C  48.23300 17.44500 23.92800
C  47.16400 14.17300 25.06000
C  45.86000 13.38500 25.06400
N  46.08300 16.40200 29.61900
C  45.12000 16.07400 28.68600
C  43.86900 15.74800 29.28500
C  44.08100 16.17800 30.63000
C  45.46900 16.60500 30.76900
C  42.60300 15.29700 28.67400
C  43.46700 16.40900 31.82000
O  42.32300 16.13600 32.15000
C  44.50900 16.80800 32.82200
C  43.91500 17.92200 33.65200
O  43.89800 19.12000 33.38400
O  43.51000 17.36600 34.82800
C  42.86100 18.24200 35.77000
H  50.86100 19.71100 31.88700
H  50.67500 17.61000 25.84600
H  44.65100 15.32100 26.76300
H  46.91400 18.99100 34.21100
H  49.76700 18.34700 34.03100
H  49.20900 20.84800 33.07000
H  49.99200 20.41000 34.59800
H  48.25300 20.55700 34.52400
H  48.29600 16.31000 34.60100
H  46.66700 16.22400 34.51300
H  48.12700 16.55000 36.73800
H  46.41800 16.80000 36.68900
H  53.29600 20.99500 29.58500
H  53.72900 19.41100 30.32600
H  52.60700 20.40700 31.02000
H  54.33500 20.63500 27.74000
H  54.76500 19.63900 26.38000
H  54.76900 18.98500 27.97200
H  49.14700 15.72300 24.63900
H  46.24800 16.04600 24.61100
H  49.16100 17.40100 23.35800
H  48.19500 18.45000 24.34800
H  47.38900 17.28200 23.25800
H  47.66800 13.77300 25.94000
H  47.69200 13.90600 24.14400
H  44.95200 13.96500 24.90000
H  45.75500 12.92600 26.04700
H  45.91600 12.63900 24.27100
H  42.90000 14.50500 27.98700
H  42.15900 16.15400 28.16800
H  41.83200 14.81200 29.27200
H  44.71400 16.02300 33.55100
H  41.79500 18.22200 35.54200
H  43.07700 19.31000 35.79300
H  42.93700 17.87500 36.79400

