158

Mg -1.43900 17.51600 26.68300
C  -1.70600 15.35800 29.41800
C  -2.11300 20.18100 28.88400
C  -1.34700 19.55600 24.00900
C  -1.56900 14.75800 24.56600
N  -1.85400 17.73400 28.93200
C  -1.75000 16.69400 29.81600
C  -1.91900 17.27000 31.30200
C  -2.07500 18.87200 31.05900
C  -2.10300 18.95700 29.54500
C  -3.28300 19.49200 31.90500
C  -0.74800 16.86900 32.34200
C  -0.44200 17.65000 33.64900
H  -0.22800 16.90700 34.99800
N  -1.78200 19.56400 26.44600
C  -2.07400 20.52800 27.45400
C  -1.98300 21.83700 26.84800
C  -1.69100 21.62900 25.45000
C  -1.54300 20.20000 25.26900
C  -2.07100 23.11300 27.73900
C  -1.50100 22.68200 24.28600
O  -1.02800 22.44100 23.16200
C  -1.79500 24.09700 24.56400
N  -1.55900 17.19800 24.59500
C  -1.24000 18.20700 23.70800
C  -0.97700 17.74300 22.26100
C  -0.95200 16.20700 22.47100
C  -1.37200 15.98600 23.94100
C  -2.04000 18.21800 21.20600
C  0.42200 15.55300 22.20600
C  1.63000 16.05200 22.96600
N  -1.51600 15.51800 26.92500
C  -1.69300 14.48600 25.94100
C  -1.87500 13.24300 26.62500
C  -1.89100 13.53300 27.96700
C  -1.72300 14.92200 28.10200
C  -1.96400 11.96300 25.90600
C  -1.97200 12.86400 29.28000
O  -2.06000 11.65000 29.52900
C  -1.81400 14.09300 30.26800
C  -0.62600 13.92100 31.09400
O  0.43000 14.36200 30.82700
O  -0.89300 13.19100 32.21100
C  0.31800 13.01800 33.11700
H  -2.09100 21.03300 29.56600
H  -1.03700 20.19000 23.17500
H  -1.30100 13.95600 23.87500
H  -2.83100 16.82800 31.70300
H  -1.18400 19.41400 31.37500
H  -2.98100 20.31500 32.55300
H  -3.66600 18.77000 32.62700
H  -4.06800 19.93700 31.29400
H  0.17600 16.77500 31.77100
H  -0.92600 15.88100 32.76600
H  -1.19600 18.41400 33.83600
H  0.44500 18.25800 33.47600
H  -2.47500 22.96900 28.74100
H  -2.77700 23.79900 27.26900
H  -1.04500 23.48100 27.75900
H  -2.58400 24.15500 25.31300
H  -2.09000 24.54400 23.61500
H  -0.97800 24.74000 24.89200
H  -0.02000 18.11300 21.89300
H  -1.67400 15.69900 21.83100
H  -2.80100 18.87500 21.62600
H  -2.75300 17.43100 20.96100
H  -1.62400 18.73600 20.34200
H  0.63600 15.79800 21.16500
H  0.39000 14.46500 22.26200
H  1.60100 16.89000 23.66300
H  2.38300 16.35700 22.23900
H  2.11100 15.15100 23.34700
H  -1.04800 11.42400 26.14700
H  -1.81600 12.08500 24.83300
H  -2.89600 11.45100 26.14700
H  -2.66500 14.18900 30.94200
H  0.02800 13.29200 34.13100
H  1.24300 13.58000 32.98200
H  0.65300 11.98100 33.08900
Mg 9.59300 48.60200 26.43800
C  7.58900 48.61600 29.26200
C  12.18000 49.78800 28.25600
C  11.32700 48.68200 23.60700
C  6.58000 48.15900 24.37900
N  9.77600 49.27200 28.52500
C  8.88300 49.10400 29.51100
C  9.57500 49.40700 30.91600
C  10.83100 50.27200 30.48300
C  10.99000 49.74300 29.01100
C  10.62600 51.81200 30.51500
C  9.96200 48.08200 31.60800
C  9.44800 47.85700 33.01300
H  9.80500 46.62200 33.71700
N  11.53800 48.96500 26.02300
C  12.50400 49.37900 26.94800
C  13.78300 49.38700 26.30800
C  13.60200 48.97800 24.94300
C  12.11500 48.87900 24.81400
C  15.11500 49.63000 27.07100
C  14.64400 48.82300 23.88200
O  14.28400 48.71300 22.74200
C  16.08400 48.91900 24.16600
N  8.99300 48.64300 24.28200
C  9.93700 48.61000 23.34900
C  9.31200 48.29500 21.91800
C  7.86100 47.89700 22.19900
C  7.79600 48.21100 23.71900
C  9.55200 49.49900 20.94200
C  7.59900 46.40900 21.95800
C  7.56100 46.10100 20.43600
N  7.44900 48.53900 26.68800
C  6.42800 48.20100 25.80500
C  5.26600 47.90400 26.58900
C  5.66200 48.04500 27.90300
C  7.02000 48.43000 27.95300
C  3.86400 47.59500 26.09600
C  5.18300 47.99000 29.28800
O  4.06200 47.78800 29.74600
C  6.45900 48.27400 30.22100
C  6.65000 47.03200 30.95800
O  7.31100 46.09600 30.57500
O  5.81500 46.94500 32.05300
C  5.77200 45.75800 32.89100
H  12.90800 50.37500 28.81900
H  11.94300 48.52700 22.71900
H  5.78300 47.85700 23.69600
H  8.86000 49.96700 31.51900
H  11.72800 49.98600 31.03300
H  11.52100 52.33500 30.85000
H  9.80700 52.06200 31.18900
H  10.42800 52.32200 29.57200
H  11.03800 47.92400 31.68400
H  9.63400 47.27100 30.95900
H  8.37700 47.72900 32.86000
H  9.42000 48.77900 33.59400
H  14.86900 49.70300 28.13000
H  15.55300 50.60600 26.86000
H  15.80900 48.81000 26.89000
H  16.65400 48.97000 23.23800
H  16.23200 47.96800 24.67700
H  16.36400 49.77600 24.77800
H  9.83200 47.44400 21.47900
H  7.05300 48.43800 21.70700
H  10.20500 49.16900 20.13400
H  9.99100 50.35700 21.45200
H  8.60500 49.85200 20.53300
H  6.65000 46.11700 22.40700
H  8.43500 45.84100 22.36700
H  7.34700 47.00400 19.86500
H  6.81200 45.31300 20.35200
H  8.45900 45.56900 20.12100
H  3.13200 48.09300 26.73100
H  3.52900 46.55900 26.05300
H  3.75100 47.96100 25.07500
H  6.16400 49.11700 30.84400
H  6.17500 45.94700 33.88600
H  6.35000 44.89500 32.56300
H  4.70800 45.52200 32.91700

