158

Mg 46.33400 25.45900 28.04100
C  47.62300 27.64200 30.64500
C  46.55700 22.91900 30.34700
C  45.83800 23.34400 25.45100
C  47.24700 27.89700 25.74200
N  47.07200 25.31700 30.27800
C  47.36600 26.30700 31.15500
C  47.52200 25.85200 32.57900
C  47.33300 24.30700 32.45100
C  46.97400 24.11000 30.96900
C  48.50200 23.27300 32.89600
C  46.68900 26.51500 33.66300
C  46.50700 25.88800 35.06500
H  46.82600 26.68600 36.37400
N  45.93100 23.47800 27.95400
C  46.13000 22.59600 28.99300
C  45.91300 21.21600 28.47300
C  45.48700 21.39200 27.11100
C  45.69400 22.75400 26.73600
C  45.98000 19.92000 29.30400
C  45.24800 20.26300 26.09100
O  44.83000 20.52500 24.96300
C  45.33500 18.79800 26.40500
N  46.36900 25.67300 25.87500
C  46.15000 24.62700 25.06800
C  46.44300 24.96100 23.59500
C  46.63100 26.50600 23.72700
C  46.78600 26.73000 25.21300
C  47.70100 24.20700 23.13300
C  45.39500 27.37000 23.23100
C  45.83700 28.52500 22.38900
N  47.14800 27.44300 28.10700
C  47.46100 28.26300 27.10000
C  47.91500 29.46500 27.67300
C  47.98000 29.30800 29.03000
C  47.55600 28.02100 29.29800
C  48.35500 30.72200 26.97100
C  48.39700 29.89900 30.24100
O  48.79900 31.01900 30.46800
C  48.07200 28.91700 31.36800
C  49.25000 28.82900 32.37900
O  50.24900 28.10600 32.31900
O  49.02100 29.64300 33.45200
C  49.87500 29.58400 34.61200
H  46.53700 22.07300 31.03700
H  45.65800 22.74200 24.55800
H  47.50400 28.66200 25.00600
H  48.51600 26.10100 32.95100
H  46.38800 24.01600 32.90800
H  49.04200 22.85900 32.04400
H  47.95000 22.44300 33.33600
H  49.18000 23.66700 33.65300
H  45.74000 26.62900 33.13900
H  46.96900 27.56700 33.72400
H  47.01200 24.93000 35.19100
H  45.42000 25.81400 35.02800
H  46.15700 20.28900 30.31400
H  46.68500 19.17400 28.93700
H  44.96600 19.53900 29.18000
H  45.09900 18.26000 25.48700
H  44.66100 18.62800 27.24500
H  46.38400 18.66700 26.67400
H  45.53400 24.73700 23.03700
H  47.58700 26.75900 23.27000
H  47.71400 23.24900 23.65200
H  48.62300 24.77200 23.26600
H  47.61000 23.96700 22.07400
H  44.84600 27.79000 24.07400
H  44.69900 26.70000 22.72700
H  45.71000 28.35400 21.32100
H  46.80700 28.89500 22.72100
H  45.19200 29.39800 22.49500
H  47.82600 30.81300 26.02300
H  49.43400 30.69200 26.81800
H  48.18400 31.65700 27.50500
H  47.22200 29.38800 31.86300
H  49.48300 28.96000 35.41400
H  50.16900 30.56700 34.98100
H  50.88700 29.27200 34.35300
Mg 48.57600 45.23800 43.35600
C  45.39400 45.60200 41.81000
C  49.13000 42.61800 41.11900
C  51.94600 45.32000 43.90200
C  48.16100 48.47300 44.61700
N  47.39700 44.33300 41.63500
C  46.14800 44.60000 41.20200
C  45.69500 43.65700 40.12300
C  46.74200 42.51800 40.14500
C  47.88700 43.18400 41.02600
C  46.31500 41.15600 40.65900
C  45.47500 44.28400 38.65200
C  44.10100 43.90700 37.98900
H  44.24300 43.18000 36.65900
N  50.23100 43.95200 42.83300
C  50.20700 42.98300 41.94300
C  51.50200 42.28200 41.95200
C  52.36300 43.04100 42.80300
C  51.51700 44.15400 43.27900
C  51.78100 41.06000 41.16100
C  53.84500 42.73000 43.06700
O  54.36600 41.77100 42.52700
C  54.71100 43.63100 43.99100
N  49.87000 46.63500 44.16700
C  51.22200 46.43700 44.40000
C  51.83100 47.58300 45.07100
C  50.59300 48.59100 45.37500
C  49.49400 47.87400 44.63100
C  52.75700 47.37400 46.26000
C  50.84100 50.09400 45.10900
C  51.98700 50.68900 45.85800
N  47.03200 46.67700 43.46600
C  47.00300 47.92600 44.01000
C  45.62800 48.41000 44.04000
C  44.94900 47.51600 43.16300
C  45.84300 46.47400 42.84500
C  45.18300 49.61700 44.82500
C  43.72300 47.23200 42.60100
O  42.68500 47.84200 42.65300
C  43.93100 46.01400 41.67200
C  42.90400 45.03100 42.06800
O  41.77900 44.86700 41.50600
O  43.23600 44.49700 43.34800
C  42.19800 43.85700 44.17500
H  49.18800 41.77500 40.42700
H  52.99800 45.30800 44.19200
H  47.99000 49.49800 44.95400
H  44.74500 43.31400 40.53300
H  47.09600 42.39900 39.12100
H  46.32400 40.38300 39.89100
H  45.25300 41.20200 40.90000
H  46.82200 40.75900 41.53900
H  46.30800 44.26200 37.94900
H  45.42200 45.36000 38.82000
H  43.56800 44.82200 37.73100
H  43.45200 43.28300 38.60400
H  50.94000 40.54400 40.69700
H  52.24200 40.34300 41.83900
H  52.55300 41.35600 40.45100
H  54.25000 43.74000 44.97300
H  54.86800 44.60300 43.52400
H  55.64600 43.08200 44.10400
H  52.42500 47.98400 44.25000
H  50.35300 48.48400 46.43200
H  53.49200 48.17800 46.28900
H  53.48500 46.56400 46.21200
H  52.27700 47.42200 47.23700
H  49.99700 50.75600 45.30400
H  51.02500 50.23100 44.04300
H  51.72200 51.71100 46.12900
H  52.89000 50.92400 45.29400
H  52.32100 50.03600 46.66400
H  45.93500 49.86600 45.57400
H  44.22200 49.37100 45.27500
H  45.09200 50.50900 44.20500
H  43.67900 46.33800 40.66200
H  42.51200 42.83700 44.39500
H  41.20200 43.82200 43.73500
H  42.11100 44.43400 45.09600

