158

Mg 1.76700 -2.04700 44.86000
C  4.87100 -1.10200 43.88300
C  0.39100 0.44900 42.77600
C  -1.42000 -3.31900 45.48300
C  3.02000 -5.07800 46.14600
N  2.54100 -0.60100 43.43100
C  3.88600 -0.35800 43.22600
C  4.15200 0.84200 42.31100
C  2.66900 1.37200 42.13300
C  1.75300 0.30400 42.76100
C  2.40500 2.85200 42.68500
C  4.74300 0.44200 40.90100
C  6.12100 1.03700 40.60600
H  6.28300 1.81700 39.23100
N  -0.19800 -1.53000 44.21900
C  -0.52900 -0.47800 43.39600
C  -1.97500 -0.34400 43.39300
C  -2.54100 -1.34400 44.18600
C  -1.35800 -2.14600 44.65900
C  -2.75000 0.74200 42.61000
C  -3.95500 -1.46100 44.52200
O  -4.74600 -0.68900 44.02500
C  -4.48000 -2.40300 45.51700
N  0.87900 -4.11100 45.45100
C  -0.38800 -4.22400 45.85400
C  -0.70400 -5.55400 46.49900
C  0.74400 -6.12200 46.78500
C  1.64600 -5.07400 46.06000
C  -1.74400 -5.51200 47.71500
C  1.02500 -7.50900 46.21100
C  -0.19000 -8.48700 46.30400
N  3.52500 -2.93700 45.01100
C  3.95600 -4.16300 45.56300
C  5.42400 -4.20600 45.48400
C  5.81300 -3.05500 44.84300
C  4.61900 -2.27500 44.61200
C  6.23600 -5.27800 46.13400
C  6.94200 -2.24600 44.49400
O  8.12400 -2.58300 44.53900
C  6.34700 -0.94600 43.83900
C  6.84100 0.29100 44.46600
O  7.35800 1.18700 43.83500
O  6.60500 0.34400 45.80400
C  6.81300 1.66200 46.50700
H  -0.09800 1.32100 42.33600
H  -2.37200 -3.65900 45.89500
H  3.49300 -5.86200 46.74100
H  4.69800 1.65100 42.79600
H  2.39500 1.53600 41.09100
H  2.08400 3.58000 41.94000
H  3.24200 3.22700 43.27400
H  1.56400 2.72900 43.36800
H  4.12200 0.42100 40.00600
H  4.96000 -0.61800 41.03500
H  6.72900 0.13800 40.50700
H  6.38000 1.72900 41.40800
H  -2.18400 1.67000 42.54000
H  -3.70900 1.01300 43.05200
H  -2.96500 0.33700 41.62100
H  -3.90900 -2.44900 46.44400
H  -4.59800 -3.40300 45.10100
H  -5.43500 -1.97300 45.81800
H  -1.29900 -6.05900 45.73800
H  0.99100 -5.98100 47.83700
H  -2.79200 -5.65000 47.44900
H  -1.74400 -4.53200 48.19200
H  -1.40300 -6.25400 48.43700
H  1.84300 -7.95700 46.77500
H  1.30900 -7.56000 45.16000
H  -0.66200 -8.77900 45.36600
H  -0.88100 -8.04500 47.02200
H  0.14200 -9.43700 46.72200
H  7.24200 -4.88700 46.28600
H  6.22000 -6.12800 45.45200
H  5.86400 -5.63100 47.09600
H  6.65400 -0.94800 42.79300
H  6.06100 1.71200 47.29400
H  6.58500 2.49600 45.84300
H  7.80300 1.71600 46.95900
Mg -10.81100 16.57200 42.55000
C  -7.80100 15.04100 42.50500
C  -9.46900 19.35200 41.07200
C  -14.06200 17.90700 42.14600
C  -12.38000 13.58000 43.54200
N  -8.83100 17.05500 41.70700
C  -7.72000 16.34100 42.06700
C  -6.47600 17.14600 41.65900
C  -7.02300 18.60700 41.53600
C  -8.53800 18.33800 41.39400
C  -6.60600 19.67200 42.58200
C  -5.80600 16.65900 40.32800
C  -4.36000 16.07200 40.41300
H  -4.19900 14.89100 39.44100
N  -11.64700 18.43800 41.85100
C  -10.87700 19.34300 41.18900
C  -11.79500 20.39100 40.71600
C  -13.09600 20.12300 41.14100
C  -12.99300 18.81000 41.78300
C  -11.30300 21.57600 39.94600
C  -14.28100 20.98000 40.98300
O  -14.16800 22.15200 40.54900
C  -15.69500 20.60300 41.36700
N  -12.95100 15.81400 42.92500
C  -14.05800 16.60400 42.67400
C  -15.34300 15.86600 42.92500
C  -14.82800 14.54700 43.63900
C  -13.34500 14.59300 43.32300
C  -16.47300 16.49500 43.66200
C  -15.44100 13.23400 43.18900
C  -15.77000 12.21800 44.22300
N  -10.29400 14.69900 42.83700
C  -10.98400 13.57500 43.28600
C  -10.03700 12.50300 43.53400
C  -8.81700 13.07000 43.29200
C  -8.99700 14.36600 42.87300
C  -10.35800 11.07700 43.99900
C  -7.38100 12.74000 43.25800
O  -6.88200 11.66000 43.57800
C  -6.62700 14.05900 42.78500
C  -5.80700 14.52900 43.95400
O  -6.16500 15.07400 44.97800
O  -4.52200 14.29000 43.62600
C  -3.54800 14.84500 44.59500
H  -8.88600 20.16900 40.64100
H  -15.06900 18.12000 41.78000
H  -12.79700 12.66400 43.96600
H  -5.71500 17.08900 42.43700
H  -6.73800 19.01000 40.56400
H  -7.49100 20.11000 43.04400
H  -6.06500 20.44300 42.03200
H  -5.85200 19.35400 43.30200
H  -5.89300 17.46400 39.59900
H  -6.47400 16.00100 39.77300
H  -4.04300 15.68600 41.38200
H  -3.66600 16.88300 40.19200
H  -11.31900 22.41700 40.64000
H  -11.93100 21.81800 39.08900
H  -10.28500 21.54900 39.55800
H  -16.33600 21.43000 41.06400
H  -15.73300 20.44000 42.44400
H  -16.01000 19.76200 40.74800
H  -15.75500 15.58600 41.95500
H  -14.95800 14.55800 44.72100
H  -17.36000 16.59000 43.03500
H  -16.15600 17.48700 43.98000
H  -16.68600 15.85200 44.51500
H  -14.84400 12.66800 42.47400
H  -16.27400 13.45500 42.52200
H  -16.85900 12.18700 44.26100
H  -15.38000 12.47200 45.20900
H  -15.51300 11.16900 44.07000
H  -10.55900 10.46400 43.12000
H  -11.21500 11.02200 44.67000
H  -9.42900 10.78400 44.48600
H  -5.99400 13.84400 41.92500
H  -3.07400 15.77200 44.27200
H  -2.65500 14.23400 44.71900
H  -3.93500 15.17500 45.56000

