158

Mg 47.50100 14.76600 27.52200
C  45.53400 14.86600 30.49500
C  49.48600 17.28000 28.81100
C  49.10700 14.84300 24.61000
C  45.06000 12.64700 26.22800
N  47.48400 15.87600 29.42300
C  46.71800 15.68000 30.58600
C  47.23100 16.40700 31.77900
C  48.44800 17.28300 31.23200
C  48.48000 16.85700 29.71800
C  48.39200 18.83000 31.49500
C  47.57700 15.44700 32.86400
C  47.31400 15.94000 34.26700
H  48.38400 15.71100 35.36000
N  49.16300 15.90500 26.79000
C  49.79000 16.93300 27.44400
C  50.75400 17.57400 26.53200
C  50.81100 16.65700 25.34900
C  49.66600 15.75700 25.52100
C  51.61800 18.82200 26.83100
C  51.76200 16.76700 24.15200
O  51.67000 16.01700 23.14900
C  52.92700 17.79400 24.15700
N  47.11400 13.85800 25.69700
C  47.92600 14.02200 24.65700
C  47.57100 13.06000 23.51100
C  46.36000 12.25900 24.09000
C  46.17700 12.89400 25.44800
C  47.21600 13.84200 22.16400
C  46.71700 10.66600 24.24400
C  47.28900 9.95300 22.99000
N  45.55600 13.99700 28.14800
C  44.74400 13.14800 27.47100
C  43.54500 12.97200 28.33100
C  43.89300 13.56600 29.54000
C  45.12100 14.18900 29.35700
C  42.28800 12.15400 27.99200
C  43.36700 13.84300 30.85700
O  42.31200 13.53400 31.37000
C  44.38300 14.68000 31.55400
C  43.77100 15.96000 31.94900
O  43.48100 16.87100 31.23500
O  43.56000 15.91900 33.27700
C  42.81700 16.99300 33.90400
H  50.15000 18.04100 29.22600
H  49.71900 14.65000 23.72600
H  44.39500 11.95000 25.71300
H  46.45200 17.06100 32.17100
H  49.34800 16.79800 31.61000
H  48.49900 19.37900 30.56000
H  49.20800 19.03500 32.18800
H  47.48000 19.22300 31.94500
H  48.61400 15.13500 32.74400
H  47.12600 14.45600 32.80700
H  46.37700 15.53400 34.64900
H  47.18800 17.02200 34.29500
H  51.26500 19.59300 26.14500
H  52.70500 18.78200 26.76200
H  51.50900 19.22200 27.83900
H  53.26200 17.76500 23.12000
H  53.72100 17.37300 24.77300
H  52.48100 18.76000 24.39400
H  48.46400 12.50000 23.23400
H  45.47800 12.53100 23.51100
H  47.92300 14.55600 21.74200
H  46.21900 14.27300 22.25100
H  47.01100 13.13100 21.36400
H  45.81100 10.21600 24.64900
H  47.40100 10.33900 25.02700
H  46.75000 9.06700 22.65500
H  48.26800 9.51300 23.17600
H  47.23500 10.61800 22.12800
H  42.56200 11.19000 27.56300
H  41.84600 12.70100 27.16000
H  41.65800 12.15400 28.88100
H  44.85500 14.18900 32.40500
H  43.46100 17.42300 34.67200
H  41.87700 16.68400 34.36000
H  42.66000 17.84500 33.24300
Mg -8.81100 18.18200 43.35600
C  -5.35300 17.65100 43.30800
C  -8.28100 21.43100 42.54200
C  -12.03600 18.43200 42.63300
C  -9.17400 14.53000 43.70000
N  -7.01200 19.28400 42.71700
C  -5.69900 18.87000 42.79200
C  -4.72500 20.09400 42.68200
C  -5.72900 21.25800 42.83300
C  -7.09200 20.64500 42.58500
C  -5.68100 22.01000 44.22300
C  -3.94300 20.08600 41.38000
C  -4.31700 19.12500 40.16400
H  -3.79000 19.47600 38.71500
N  -10.02400 19.71400 42.83200
C  -9.62300 20.97600 42.57500
C  -10.77500 21.80900 42.28200
C  -11.84700 20.99900 42.08200
C  -11.37300 19.66100 42.51900
C  -10.66700 23.30700 42.11600
C  -13.18800 21.34900 41.63800
O  -13.41100 22.54700 41.46800
C  -14.33700 20.40900 41.46900
N  -10.44500 16.63100 43.18300
C  -11.69500 17.08400 42.96000
C  -12.60700 15.86900 43.14700
C  -11.74800 14.55400 43.34900
C  -10.36800 15.30200 43.41600
C  -13.64000 16.10400 44.23900
C  -11.72700 13.48000 42.15900
C  -11.85600 12.04900 42.66900
N  -7.54200 16.48300 43.49200
C  -7.84900 15.07700 43.77400
C  -6.59700 14.39800 44.03100
C  -5.57000 15.36700 43.77800
C  -6.20300 16.62800 43.55200
C  -6.48800 12.91700 44.32800
C  -4.16700 15.59300 43.78200
O  -3.24100 14.85400 43.96000
C  -3.94800 17.15900 43.57700
C  -3.20200 17.89100 44.64100
O  -2.02700 18.28500 44.54500
O  -4.00300 18.09100 45.77700
C  -3.65400 19.23600 46.59900
H  -7.96000 22.46600 42.40700
H  -13.08400 18.60700 42.37800
H  -9.25700 13.49300 44.03100
H  -4.02100 20.13600 43.51200
H  -5.63400 21.98200 42.02300
H  -6.53000 22.64400 44.47800
H  -4.82900 22.68600 44.16500
H  -5.56300 21.29200 45.03500
H  -2.92400 19.82700 41.66800
H  -3.74000 21.08200 40.98800
H  -5.39900 19.00200 40.12400
H  -3.88400 18.13700 40.31800
H  -11.12500 23.57300 41.16400
H  -9.61500 23.59400 42.13700
H  -11.32900 23.75300 42.85800
H  -14.65100 20.04600 42.44800
H  -14.17200 19.54800 40.82100
H  -15.19000 20.99900 41.13600
H  -13.16600 15.71900 42.22300
H  -11.89100 14.15900 44.35500
H  -13.16300 16.09400 45.21900
H  -14.34300 15.27200 44.23400
H  -14.34300 16.92100 44.07500
H  -10.82700 13.54300 41.54800
H  -12.56100 13.68100 41.48600
H  -12.84200 11.67800 42.39200
H  -11.84500 11.89000 43.74700
H  -11.10700 11.43300 42.17100
H  -5.58100 12.77200 44.91600
H  -6.28700 12.40500 43.38700
H  -7.35400 12.51500 44.85400
H  -3.41600 17.24100 42.63000
H  -3.35200 20.13700 46.06400
H  -2.78000 18.99000 47.20100
H  -4.52000 19.46700 47.21800

