158

Mg 8.95900 47.37200 24.82700
C  6.86300 47.59100 27.59100
C  11.51600 48.45600 26.79600
C  10.90700 47.48500 22.12700
C  6.13400 47.17600 22.81500
N  9.22100 47.90900 26.93400
C  8.25100 47.84500 27.89600
C  8.74900 48.30200 29.31400
C  10.08500 49.05500 28.91000
C  10.33000 48.42300 27.47400
C  9.92400 50.62400 28.72800
C  8.87100 47.19700 30.41100
C  8.15600 47.67900 31.74700
H  8.14300 46.62000 32.87900
N  10.92600 47.80200 24.50400
C  11.85800 48.14900 25.48700
C  13.18300 48.24200 24.90100
C  13.02900 47.88200 23.59300
C  11.61200 47.65300 23.33800
C  14.45800 48.55700 25.73400
C  14.07300 47.71400 22.58200
O  13.79300 47.45300 21.40500
C  15.51500 47.72100 22.98300
N  8.53600 47.58300 22.71600
C  9.54000 47.51100 21.81800
C  8.99300 47.23200 20.36500
C  7.43500 47.24300 20.58000
C  7.33500 47.33200 22.16200
C  9.43200 48.30400 19.25300
C  6.74200 46.05600 19.81700
C  5.44700 46.41000 19.07000
N  6.91800 47.19900 25.06200
C  5.90200 47.05200 24.21600
C  4.66800 47.04200 24.94700
C  4.98100 47.09000 26.27000
C  6.36400 47.31700 26.30600
C  3.35700 47.09200 24.35900
C  4.47800 47.22900 27.61500
O  3.36600 47.22000 28.13900
C  5.65600 47.58900 28.44900
C  5.67300 46.49600 29.51000
O  6.08300 45.36300 29.36000
O  4.99500 46.89900 30.59900
C  4.62900 45.97100 31.61800
H  12.34900 48.76700 27.43000
H  11.40300 47.39000 21.15900
H  5.21300 47.04300 22.24300
H  8.05400 49.11200 29.53700
H  10.84800 48.80000 29.64500
H  9.01800 51.05900 29.14900
H  9.93000 50.82100 27.65500
H  10.70000 51.26000 29.15500
H  9.94400 47.03700 30.51600
H  8.38500 46.26900 30.11000
H  7.11500 47.92600 31.53700
H  8.61500 48.60100 32.10500
H  14.20500 48.91500 26.73200
H  15.14800 49.23200 25.22900
H  14.98100 47.60900 25.86600
H  15.78500 48.76300 23.15300
H  16.05300 47.30200 22.13300
H  15.60700 46.98100 23.77800
H  9.47300 46.27900 20.14300
H  6.94600 48.14100 20.20100
H  8.52400 48.68000 18.78200
H  10.17000 47.92400 18.54700
H  9.78000 49.19100 19.78300
H  6.54300 45.34900 20.62200
H  7.43200 45.68500 19.05900
H  4.97700 47.38100 19.22800
H  4.72800 45.67800 19.43800
H  5.54400 46.33400 17.98700
H  3.09000 48.14700 24.29600
H  2.70300 46.51800 25.01500
H  3.19100 46.72500 23.34600
H  5.39700 48.55300 28.88600
H  3.67300 46.31700 32.01000
H  5.38300 45.92000 32.40300
H  4.41000 44.97200 31.24100
Mg -10.10800 18.15600 42.96300
C  -6.82500 16.91800 42.75500
C  -8.91500 21.22000 41.80400
C  -13.19900 19.05800 42.62300
C  -11.15000 14.76300 43.38900
N  -8.12200 18.99100 42.36100
C  -6.93500 18.26700 42.44400
C  -5.75100 19.16300 42.05100
C  -6.43400 20.55900 42.09400
C  -7.89800 20.25800 42.00500
C  -6.05100 21.45000 43.25100
C  -5.03900 18.76200 40.72800
C  -5.75800 18.27800 39.49400
H  -5.39200 18.74400 38.06900
N  -10.99300 19.96200 42.30800
C  -10.32100 21.09800 41.96000
C  -11.27600 22.16100 41.83800
C  -12.59300 21.60100 41.92000
C  -12.31800 20.13900 42.27300
C  -10.86600 23.52300 41.54000
C  -13.90100 22.32600 41.76300
O  -13.95200 23.54300 41.60100
C  -15.13600 21.52300 41.89900
N  -11.89100 16.95700 42.70200
C  -13.02600 17.63700 42.83900
C  -14.21100 16.68200 43.00300
C  -13.57700 15.29200 43.16300
C  -12.11300 15.64800 43.02800
C  -15.16200 17.14400 44.19300
C  -14.04400 14.13000 42.17400
C  -14.74100 12.97900 43.00700
N  -9.25000 16.18500 43.09200
C  -9.75100 14.93600 43.30800
C  -8.69800 13.93000 43.38400
C  -7.48600 14.64100 43.15500
C  -7.90400 15.99500 42.98200
C  -8.92000 12.38200 43.68300
C  -6.05200 14.56000 43.06700
O  -5.34100 13.62200 43.22200
C  -5.58400 16.04000 42.73800
C  -4.38400 16.46400 43.56200
O  -3.22200 16.17400 43.34000
O  -4.83300 17.15600 44.68400
C  -3.78400 17.34900 45.71800
H  -8.52100 22.23700 41.76000
H  -14.27300 19.24700 42.68900
H  -11.52600 13.77600 43.66500
H  -5.04300 19.04500 42.87100
H  -6.14600 21.20700 41.26600
H  -5.39100 20.85100 43.87800
H  -6.91700 21.61700 43.89100
H  -5.64400 22.43600 43.02500
H  -4.48500 17.88900 41.07300
H  -4.35900 19.57700 40.47900
H  -6.81400 18.53500 39.58300
H  -5.59800 17.20000 39.52500
H  -9.99900 23.78900 42.14400
H  -11.59900 24.32600 41.61200
H  -10.45900 23.47500 40.53000
H  -15.52200 21.45800 42.91700
H  -15.05100 20.58400 41.35300
H  -15.86200 22.11400 41.34100
H  -14.85500 16.64900 42.12400
H  -13.87800 14.98200 44.16300
H  -14.77800 18.07100 44.61800
H  -15.27600 16.43000 45.00900
H  -16.15100 17.37100 43.79500
H  -13.19700 13.69700 41.64300
H  -14.84500 14.45100 41.50800
H  -15.64300 12.72300 42.45100
H  -15.00300 13.07400 44.06100
H  -14.11500 12.08900 42.93600
H  -9.52500 12.25300 44.58100
H  -7.99900 11.80800 43.79000
H  -9.42600 12.01500 42.79000
H  -5.10100 15.95500 41.76500
H  -2.85600 17.84000 45.42800
H  -3.57100 16.40600 46.22100
H  -4.22900 18.03900 46.43400

