158

Mg 1.68500 8.10300 27.91200
C  2.35500 10.57100 30.46400
C  1.58500 5.76700 30.27000
C  1.15900 5.99600 25.42200
C  2.21100 10.74400 25.60300
N  2.01500 8.17400 30.12600
C  2.04400 9.26800 30.94200
C  1.64600 8.87500 32.43100
C  1.83200 7.30300 32.31500
C  1.72900 7.03900 30.83200
C  3.07000 6.79200 32.90700
C  0.15400 9.28000 32.87600
C  -0.14500 9.50000 34.28000
H  0.97800 9.11100 35.29500
N  1.54500 6.15900 27.85400
C  1.60700 5.32100 28.92600
C  1.58100 3.96100 28.51700
C  1.29300 3.98500 27.09900
C  1.34400 5.40600 26.72800
C  1.84700 2.78100 29.38900
C  1.06100 2.83200 26.11800
O  1.10300 3.05300 24.92700
C  1.05800 1.41200 26.62200
N  1.57500 8.37800 25.85300
C  1.38300 7.32900 25.00800
C  1.22900 7.79100 23.55500
C  1.67800 9.35000 23.60200
C  1.87900 9.49300 25.13400
C  2.03100 7.00600 22.51700
C  0.73900 10.23600 22.80700
C  -0.77900 10.24800 23.36900
N  2.19600 10.29000 27.94500
C  2.38500 11.16400 26.98200
C  2.72200 12.49700 27.56800
C  2.64100 12.30800 28.93500
C  2.39000 10.94500 29.10800
C  2.87900 13.69400 26.83100
C  2.75800 12.96000 30.25600
O  3.08600 14.08800 30.57000
C  2.48100 11.79500 31.28900
C  3.39900 11.67400 32.39300
O  4.61200 11.38400 32.35100
O  2.64700 12.02900 33.50000
C  3.41800 12.11800 34.70900
H  1.50000 5.03000 31.07100
H  0.87900 5.33200 24.60100
H  2.48700 11.45600 24.82200
H  2.43200 9.31600 33.04300
H  0.96900 6.79100 32.74000
H  3.72600 7.55900 33.32000
H  3.64800 6.17600 32.21800
H  2.74800 6.08200 33.66900
H  -0.40300 8.42500 32.49500
H  -0.15400 10.17200 32.33100
H  -0.99800 8.86700 34.52400
H  -0.42200 10.54200 34.44200
H  2.56600 2.20700 28.80500
H  0.97400 2.13300 29.46300
H  2.32100 3.00700 30.34400
H  0.48600 0.85200 25.88200
H  0.45600 1.45500 27.52900
H  2.11700 1.20300 26.77900
H  0.18300 7.59300 23.32000
H  2.69800 9.50700 23.25300
H  2.43800 6.10100 22.96700
H  2.77300 7.61100 21.99500
H  1.39500 6.65400 21.70500
H  0.74000 9.88300 21.77600
H  1.06000 11.27500 22.73000
H  -1.45100 9.89200 22.58800
H  -0.99900 11.25600 23.72000
H  -0.86600 9.59100 24.23500
H  2.10700 13.70800 26.06200
H  3.90100 13.66800 26.45400
H  2.62700 14.58500 27.40700
H  1.47600 11.90100 31.69700
H  2.86000 12.38100 35.60800
H  4.20100 12.86300 34.56900
H  3.89300 11.14700 34.84900
Mg 40.75900 40.14600 27.45100
C  40.16900 42.66300 29.84500
C  41.93900 38.10500 30.01700
C  41.39000 37.85000 25.08800
C  40.04200 42.55400 24.92400
N  41.01200 40.39200 29.71300
C  40.61300 41.47100 30.45600
C  40.65100 41.14800 31.98100
C  41.35000 39.70700 31.94800
C  41.44500 39.36000 30.44400
C  42.68600 39.72100 32.70900
C  39.23800 41.23300 32.74000
C  39.23100 42.07700 33.97700
H  38.67100 41.40200 35.26200
N  41.51400 38.21300 27.61800
C  41.96800 37.56000 28.71400
C  42.40400 36.21500 28.31400
C  42.27700 36.08700 26.95000
C  41.69900 37.39300 26.46700
C  42.96800 35.25000 29.30200
C  42.78800 35.05000 26.01200
O  42.76200 35.18700 24.81300
C  43.46600 33.78000 26.52300
N  40.93000 40.32600 25.31400
C  41.06100 39.17000 24.54500
C  40.73400 39.39700 23.02200
C  39.98500 40.80400 23.07700
C  40.27100 41.26000 24.53500
C  41.90000 39.36400 22.12800
C  38.51100 40.64500 22.70400
C  37.69700 39.81100 23.65400
N  40.22500 42.19400 27.36000
C  40.00200 43.06400 26.27100
C  39.52500 44.29300 26.75300
C  39.66400 44.24900 28.14400
C  40.10000 42.93600 28.47400
C  39.04400 45.45700 25.93200
C  39.54200 44.98900 29.30300
O  39.24000 46.21600 29.32600
C  39.78200 43.92700 30.54900
C  40.86100 44.44900 31.38000
O  41.94300 44.69000 30.89700
O  40.43500 44.76800 32.69100
C  41.28800 45.61700 33.49400
H  42.22400 37.59500 30.93900
H  41.36300 37.09000 24.30400
H  39.65500 43.18800 24.12300
H  41.34600 41.88600 32.38200
H  40.76300 38.85600 32.29400
H  42.87700 38.67500 32.95000
H  42.43600 40.23600 33.63700
H  43.49700 40.27100 32.23200
H  39.06400 40.18700 32.99400
H  38.42800 41.52400 32.07100
H  38.49300 42.86300 33.81700
H  40.18800 42.55500 34.18500
H  44.02800 35.03000 29.17600
H  42.42700 34.31300 29.16900
H  42.82300 35.52000 30.34800
H  44.46500 34.08900 26.83100
H  43.65800 33.08700 25.70400
H  42.86900 33.31000 27.30400
H  39.97500 38.67600 22.71800
H  40.55700 41.44900 22.40900
H  42.66400 38.70100 22.53500
H  42.21500 40.32600 21.72500
H  41.55000 38.84700 21.23400
H  38.52700 40.23900 21.69200
H  38.17700 41.68200 22.72500
H  38.20300 39.37300 24.51500
H  37.29000 39.04900 22.99000
H  36.77600 40.25800 24.02700
H  38.84500 45.11700 24.91600
H  39.92000 46.08600 25.77200
H  38.24400 45.94900 26.48600
H  38.87200 43.79200 31.13300
H  41.50600 45.03800 34.39100
H  40.71700 46.48400 33.82700
H  42.16800 45.82700 32.88600

