158

Mg 6.32800 53.50000 41.66200
C  5.59000 49.97400 41.18400
C  9.53400 52.76400 40.52000
C  6.76000 56.65900 41.20200
C  2.84700 53.99500 41.99100
N  7.40500 51.61500 40.84500
C  6.85900 50.27800 40.73500
C  7.94300 49.32600 40.27700
C  9.27700 50.18100 40.60500
C  8.73200 51.62200 40.65800
C  10.06200 49.64400 41.85100
C  7.82200 49.00700 38.76500
C  7.24900 50.12000 37.81400
H  6.70500 49.86000 36.39400
N  7.97700 54.63600 41.13000
C  9.16900 54.14700 40.72600
C  10.06300 55.29100 40.49700
C  9.24000 56.48600 40.62300
C  7.93900 55.97200 41.02000
C  11.53700 55.05400 40.09000
C  9.74000 57.96300 40.37000
O  10.88300 58.17700 39.97000
C  8.81600 59.13600 40.47300
N  4.94100 55.09100 41.58800
C  5.39200 56.35400 41.36300
C  4.38500 57.46200 41.60300
C  3.12100 56.57600 41.63600
C  3.60000 55.15200 41.86800
C  4.67700 58.35300 42.89100
C  2.25400 56.71500 40.32300
C  1.02200 57.66700 40.54900
N  4.55700 52.32100 41.71800
C  3.25100 52.62400 41.93100
C  2.43200 51.39100 42.22300
C  3.36700 50.39800 41.88300
C  4.65200 50.92800 41.54900
C  0.96800 51.37200 42.71800
C  3.49900 48.91100 41.77500
O  2.65100 48.01500 41.89300
C  4.95400 48.55900 41.24200
C  4.84500 47.82600 39.93900
O  4.27400 48.24900 38.89500
O  5.58100 46.67700 40.01800
C  5.43800 45.75100 38.89600
H  10.56500 52.51400 40.25800
H  6.89700 57.74000 41.27600
H  1.76300 54.10300 42.06000
H  7.96800 48.38200 40.82200
H  10.10500 50.08000 39.90300
H  11.07200 49.37500 41.54100
H  9.51200 48.80600 42.27800
H  10.03400 50.49600 42.53100
H  7.24200 48.08600 38.69900
H  8.85700 48.95500 38.42500
H  8.09900 50.75100 37.55500
H  6.50200 50.78400 38.25000
H  11.66700 55.16100 39.01300
H  11.88700 54.13000 40.55200
H  12.04800 55.82400 40.66800
H  9.38500 60.02500 40.20100
H  8.25600 59.23600 41.40200
H  8.09600 58.96200 39.67400
H  4.35700 58.15700 40.76400
H  2.44000 56.77500 42.46300
H  5.02500 59.27700 42.43000
H  5.44400 57.87800 43.50300
H  3.73800 58.49900 43.42500
H  1.83300 55.74100 40.07500
H  2.82000 56.84000 39.40100
H  0.98900 58.44000 39.78100
H  1.12700 58.11700 41.53600
H  0.10100 57.08400 40.59200
H  0.52800 52.36900 42.76100
H  0.88500 50.89900 43.69700
H  0.43600 50.75900 41.99100
H  5.45400 47.82300 41.87100
H  4.44900 45.29700 38.95600
H  6.21700 44.99300 38.81900
H  5.42300 46.37100 38.00000
Mg -13.04900 16.00000 42.37300
C  -9.99200 14.47500 41.69500
C  -11.75400 18.82500 40.45200
C  -16.13200 17.30200 41.92500
C  -14.40300 12.90100 43.18200
N  -11.15200 16.53700 41.16700
C  -10.00700 15.73500 41.12000
C  -8.82300 16.49600 40.38100
C  -9.40900 17.94300 40.21100
C  -10.89600 17.73600 40.59200
C  -8.73600 19.06500 41.06400
C  -8.30700 15.93400 39.01100
C  -6.78400 16.26300 38.91400
H  -6.39300 16.88400 37.66300
N  -13.82800 17.85900 41.61000
C  -13.08300 18.84200 40.88000
C  -14.08800 19.88500 40.42800
C  -15.39200 19.30400 40.46100
C  -15.17100 18.09700 41.34800
C  -13.77900 21.21000 39.86700
C  -16.65000 19.95700 40.01200
O  -16.60900 20.99200 39.39200
C  -17.94900 19.33500 40.28700
N  -14.96600 15.15800 42.37800
C  -16.04800 15.97400 42.39200
C  -17.30000 15.16000 42.77300
C  -16.82600 13.64600 42.81000
C  -15.31600 13.87700 42.80200
C  -17.83900 15.65900 44.13200
C  -17.41800 12.75800 41.67100
C  -18.03700 11.41300 42.19500
N  -12.33600 14.06700 42.75700
C  -12.94800 12.98000 43.12400
C  -11.96000 11.98200 43.27500
C  -10.77300 12.48200 42.74500
C  -11.05900 13.76100 42.38700
C  -12.19700 10.56000 43.66600
C  -9.38200 12.27100 42.47200
O  -8.69500 11.26400 42.61900
C  -8.83200 13.58300 41.76500
C  -7.72500 14.05700 42.60900
O  -7.79200 14.19700 43.82200
O  -6.63400 14.23600 41.75100
C  -5.29300 14.66900 42.31300
H  -11.51100 19.76200 39.94600
H  -17.08900 17.82600 41.96500
H  -14.81900 11.95500 43.53500
H  -8.03600 16.56400 41.13200
H  -9.42000 18.20900 39.15400
H  -7.93700 18.69400 41.70500
H  -9.40400 19.51200 41.80000
H  -8.38000 19.75200 40.29600
H  -8.84700 16.37600 38.17300
H  -8.45800 14.85900 39.11300
H  -6.17600 15.38100 39.11400
H  -6.55500 17.01400 39.67000
H  -14.18400 22.04900 40.43300
H  -14.13400 21.16600 38.83700
H  -12.72400 21.45000 39.73300
H  -18.02200 18.26800 40.07600
H  -18.63700 19.87800 39.63900
H  -18.26800 19.52200 41.31300
H  -17.91000 15.45200 41.91800
H  -17.02600 13.26700 43.81100
H  -17.01600 16.16400 44.63800
H  -17.92200 14.80800 44.80700
H  -18.75200 16.23700 43.99000
H  -16.54000 12.37400 41.15200
H  -18.05800 13.24800 40.93600
H  -19.12600 11.43800 42.16200
H  -17.86600 11.23900 43.25700
H  -17.69200 10.49000 41.73000
H  -12.89600 10.19300 42.91400
H  -12.70700 10.53500 44.62800
H  -11.30800 9.93000 43.69100
H  -8.64200 13.26300 40.74000
H  -4.61200 14.78400 41.46900
H  -4.88200 13.93400 43.00500
H  -5.40300 15.63400 42.80800

