158

Mg 29.04300 58.14100 42.00000
C  26.85800 56.07000 40.31300
C  31.67900 56.52400 40.21600
C  31.18900 60.59700 42.91500
C  26.32300 59.89000 43.19600
N  29.17100 56.68900 40.18000
C  28.13700 55.93400 39.76000
C  28.53900 54.76300 38.77100
C  30.07200 54.74100 39.24200
C  30.32800 56.03200 39.94800
C  30.53800 53.47900 40.00400
C  28.29800 55.14400 37.33800
C  27.34500 54.20900 36.60000
H  27.22800 54.14200 35.12100
N  31.13700 58.53000 41.66300
C  32.02100 57.73200 40.95500
C  33.37100 58.19400 41.21900
C  33.20900 59.41500 42.02100
C  31.78900 59.56300 42.20800
C  34.61900 57.41700 40.73800
C  34.39900 60.26500 42.48000
O  35.54900 59.89700 42.21400
C  34.23900 61.53800 43.35900
N  28.81600 59.92200 42.87000
C  29.86600 60.78600 43.23200
C  29.28700 62.09400 43.76100
C  27.80300 61.71000 44.06600
C  27.62400 60.45400 43.25800
C  30.05000 62.78400 44.93700
C  26.75300 62.86700 43.75700
C  25.61500 62.99000 44.76000
N  26.90100 57.92200 42.08400
C  25.94400 58.69800 42.55500
C  24.63300 58.06700 42.24100
C  24.97000 56.99600 41.43700
C  26.37800 56.96600 41.30400
C  23.31200 58.64900 42.65300
C  24.36300 55.94700 40.61800
O  23.19500 55.66100 40.50900
C  25.60700 55.27200 39.94900
C  25.66900 53.88000 40.50400
O  26.40100 53.46300 41.38300
O  24.66600 53.14900 39.89700
C  24.65100 51.74800 40.40200
H  32.49300 55.93100 39.79400
H  31.92800 61.32200 43.26500
H  25.42200 60.44900 43.45900
H  28.04000 53.84000 39.06600
H  30.70100 54.69200 38.35300
H  30.52800 53.76900 41.05400
H  31.51600 53.13700 39.66400
H  29.79500 52.70700 39.80500
H  29.24500 55.05700 36.80500
H  27.98100 56.17400 37.17300
H  26.33900 54.39300 36.97700
H  27.57700 53.18600 36.89800
H  34.42800 56.46200 40.24900
H  35.28300 57.07300 41.53100
H  35.15600 58.01800 40.00500
H  33.81500 62.26500 42.66600
H  35.23400 61.77900 43.73400
H  33.69400 61.10600 44.19800
H  29.30000 62.81900 42.94700
H  27.69400 61.40500 45.10600
H  29.42300 62.94100 45.81500
H  30.36900 63.75900 44.57100
H  30.99300 62.35600 45.27700
H  26.37500 62.64100 42.76000
H  27.27100 63.82000 43.64900
H  25.55400 64.01900 45.11300
H  25.67900 62.36200 45.64800
H  24.68600 62.79500 44.22500
H  23.35000 59.62900 42.17800
H  23.20400 58.84100 43.72100
H  22.53200 58.02600 42.21500
H  25.35500 55.25400 38.88900
H  24.46700 51.76300 41.47600
H  25.58300 51.22000 40.20200
H  23.79800 51.31000 39.88400
Mg 35.83100 49.16900 25.98500
C  36.30200 47.27900 28.98600
C  34.54800 51.66300 27.88900
C  35.36700 50.83300 23.11100
C  36.63200 46.25200 24.10200
N  35.52400 49.36200 28.20300
C  35.80300 48.52700 29.26300
C  35.57100 49.14000 30.65400
C  34.86600 50.49500 30.24100
C  34.91700 50.51400 28.65200
C  33.39700 50.71700 30.85900
C  36.90200 49.40100 31.43100
C  36.72400 49.49300 32.95800
H  35.32900 49.30000 33.61800
N  35.01300 50.99100 25.51300
C  34.54000 51.90300 26.42300
C  34.18100 53.14300 25.76200
C  34.35000 52.86600 24.36100
C  34.92600 51.50900 24.28000
C  33.71100 54.35900 26.45300
C  34.24100 53.79500 23.21700
O  34.48500 53.48400 22.02200
C  33.73800 55.17700 23.43700
N  35.76900 48.53000 23.85300
C  35.72800 49.50700 22.87000
C  35.89500 48.86000 21.44200
C  36.54800 47.47300 21.74400
C  36.43100 47.39600 23.34300
C  34.49100 48.84000 20.69600
C  37.95500 47.31100 21.13600
C  39.20100 47.63000 22.05400
N  36.48700 47.23100 26.41200
C  36.68200 46.14600 25.57200
C  37.14600 45.01400 26.41400
C  36.96800 45.37400 27.74600
C  36.51500 46.73200 27.66900
C  37.89300 43.81200 25.87000
C  37.13300 44.91200 29.08600
O  37.61500 43.83600 29.46000
C  36.61400 46.14100 29.97000
C  35.51600 45.67400 30.82400
O  34.32500 45.77700 30.59200
O  36.10000 45.18300 32.00100
C  35.19800 44.61800 33.01200
H  34.21100 52.51500 28.48400
H  35.11400 51.39700 22.21100
H  37.19000 45.51900 23.51600
H  34.96800 48.51400 31.31300
H  35.39900 51.41800 30.46900
H  33.23900 50.00400 31.66900
H  32.59400 50.31100 30.24400
H  33.14100 51.75300 31.08100
H  37.26900 50.36700 31.08400
H  37.62500 48.60300 31.26200
H  37.31400 50.35900 33.25800
H  37.14600 48.64900 33.50400
H  33.51300 54.21800 27.51600
H  32.73700 54.71300 26.11500
H  34.41200 55.19200 26.41200
H  32.87700 55.27800 24.09800
H  33.48000 55.66900 22.49900
H  34.59200 55.69300 23.87400
H  36.56800 49.50300 20.87400
H  36.07000 46.62700 21.25000
H  34.15100 47.81500 20.54700
H  34.59900 49.28700 19.70800
H  33.75100 49.29500 21.35400
H  37.96600 47.86200 20.19500
H  38.03400 46.25100 20.89300
H  38.97800 48.13100 22.99500
H  40.04700 48.11500 21.56800
H  39.62000 46.64500 22.25800
H  38.69100 43.64500 26.59300
H  38.26300 43.95200 24.85400
H  37.26900 42.92300 25.77900
H  37.47600 46.38600 30.59000
H  35.69900 43.72900 33.39400
H  34.23400 44.41200 32.54700
H  35.17400 45.45500 33.70900

