158

Mg 36.13400 1.50700 30.40000
C  33.57200 2.68500 32.57000
C  38.13400 1.09800 33.06400
C  38.51800 0.45100 28.25100
C  33.89700 1.82400 27.77900
N  35.85800 1.94400 32.57800
C  34.78000 2.48700 33.26700
C  34.96900 2.40600 34.75200
C  36.57100 2.18500 34.85700
C  36.82900 1.62300 33.39200
C  37.42600 3.47000 35.08900
C  34.06600 1.34200 35.48100
C  33.52000 1.82200 36.83900
H  34.24300 2.91900 37.60800
N  38.06100 0.83400 30.64600
C  38.63100 0.61400 31.82900
C  39.92100 -0.00800 31.58600
C  39.99100 -0.26100 30.21100
C  38.81400 0.28600 29.63700
C  40.93600 -0.33800 32.72500
C  40.97200 -1.02600 29.36600
O  40.73200 -1.45200 28.23000
C  42.25700 -1.55800 29.96700
N  36.28100 1.33900 28.25000
C  37.34100 0.95000 27.54400
C  37.00600 0.85200 26.04600
C  35.53400 1.25400 25.93300
C  35.20100 1.53000 27.41300
C  37.89800 1.63200 25.00000
C  34.57100 0.21100 25.33900
C  34.00900 0.56000 23.96500
N  34.15800 2.10600 30.13000
C  33.40800 2.23700 29.02100
C  32.13500 2.75400 29.34200
C  32.10800 2.94300 30.74700
C  33.37400 2.52800 31.20100
C  31.07800 3.09200 28.34200
C  31.31800 3.45400 31.85500
O  30.20900 3.93900 31.92500
C  32.21500 3.22900 33.12100
C  32.38500 4.53900 33.86700
O  33.14100 5.40000 33.60200
O  31.50900 4.61600 34.89500
C  31.51800 5.84400 35.67500
H  38.88300 1.01400 33.85300
H  39.23700 0.22500 27.46000
H  33.19800 1.90000 26.94300
H  34.77300 3.40400 35.14400
H  36.81800 1.50400 35.67100
H  37.11900 3.99700 35.99200
H  37.35300 4.11500 34.21400
H  38.51300 3.42700 35.14900
H  34.65000 0.45500 35.72400
H  33.21400 1.09100 34.85000
H  33.42200 0.91900 37.44100
H  32.50100 2.14100 36.62000
H  41.19600 -1.39300 32.80400
H  40.42500 -0.18600 33.67600
H  41.84700 0.22300 32.51700
H  42.22000 -2.04400 30.94200
H  42.98200 -0.75900 29.81100
H  42.73600 -2.34600 29.38700
H  37.22800 -0.20000 25.86600
H  35.32500 2.26000 25.56700
H  38.71100 2.20600 25.44500
H  37.31100 2.33800 24.41300
H  38.38600 0.87600 24.38500
H  33.72900 -0.04800 25.98000
H  35.02200 -0.75600 25.11300
H  32.92100 0.55900 24.03400
H  34.26200 -0.11600 23.14800
H  34.30400 1.57900 23.71400
H  31.39100 3.17400 27.30100
H  30.55500 4.01100 28.60600
H  30.37600 2.25900 28.33700
H  31.67500 2.48300 33.70500
H  31.71800 6.66400 34.98600
H  32.19600 5.72300 36.52000
H  30.44900 5.94000 35.86700
Mg 53.41100 24.01800 45.87300
C  50.86000 26.02900 44.49400
C  51.92500 21.26700 44.47300
C  56.42100 22.43900 46.18100
C  54.76700 27.00100 47.07100
N  51.66800 23.70900 44.64700
C  50.77900 24.62500 44.31400
C  49.49300 23.99200 43.69900
C  49.72300 22.45400 44.13100
C  51.18500 22.43500 44.47100
C  48.83000 22.01900 45.43200
C  49.45200 24.16900 42.15300
C  48.02400 24.17100 41.54500
H  47.84500 24.15500 40.04000
N  54.03600 22.09900 45.52500
C  53.25300 21.13800 44.87800
C  53.97800 19.84500 44.81300
C  55.33600 20.21100 45.27700
C  55.33600 21.61100 45.59900
C  53.54300 18.57200 44.13800
C  56.61700 19.25700 45.17500
O  56.44700 18.07900 44.88800
C  58.07800 19.57200 45.55500
N  55.40200 24.76100 46.26200
C  56.40200 23.78700 46.57300
C  57.66900 24.46900 47.28100
C  57.09100 25.90300 47.54600
C  55.65300 25.87700 47.00500
C  58.26900 23.67700 48.49800
C  57.86300 27.16400 47.10700
C  58.03700 28.29500 48.09400
N  52.95700 26.15000 45.81900
C  53.51700 27.20300 46.51800
C  52.73600 28.41100 46.27900
C  51.68800 28.00900 45.47000
C  51.87200 26.63500 45.24700
C  53.07300 29.72100 46.95100
C  50.41400 28.41100 44.87200
O  49.94900 29.50200 44.81700
C  49.79300 27.12700 44.22800
C  49.60700 27.46400 42.81200
O  50.42800 27.71400 41.92400
O  48.22400 27.44400 42.55900
C  47.84900 27.90200 41.17800
H  51.47400 20.34800 44.09300
H  57.39000 21.96500 46.35200
H  55.21300 27.86600 47.56600
H  48.56400 24.43400 44.06000
H  49.57400 21.77100 43.29500
H  48.10000 21.40200 44.90800
H  48.43100 22.97000 45.78500
H  49.32000 21.41700 46.19700
H  49.95400 23.28900 41.75100
H  49.91700 25.10500 41.84300
H  47.57400 25.06200 41.98200
H  47.42700 23.33200 41.90100
H  53.69600 17.74900 44.83700
H  54.13900 18.38500 43.24500
H  52.50100 18.39600 43.87400
H  58.34300 20.28800 44.77700
H  58.70100 18.70300 45.34100
H  58.24000 19.83000 46.60100
H  58.45000 24.43900 46.52200
H  56.92300 26.01000 48.61800
H  59.33900 23.54600 48.34200
H  57.84300 22.68000 48.61000
H  58.00500 24.26400 49.37900
H  57.41100 27.42600 46.15100
H  58.86500 26.91900 46.75500
H  57.53600 29.16600 47.67100
H  59.07800 28.47900 48.35900
H  57.46200 28.19800 49.01600
H  52.67900 29.65900 47.96500
H  52.69200 30.58100 46.40000
H  54.14800 29.90200 46.94200
H  48.87300 26.79900 44.71200
H  47.70200 28.96800 41.00400
H  46.88300 27.41000 41.07000
H  48.46400 27.42100 40.41800

