158

Mg 44.57600 5.53200 48.44400
C  42.80100 8.51800 47.85900
C  41.69000 3.77000 47.45400
C  46.32900 2.62500 48.44600
C  47.43900 7.34600 48.46700
N  42.49500 6.10600 47.79800
C  42.00200 7.39500 47.55700
C  40.58800 7.38300 47.01100
C  40.17800 5.83400 47.14800
C  41.51200 5.17800 47.52200
C  39.06400 5.47100 48.17100
C  40.50800 8.07800 45.61500
C  39.03200 8.40200 45.21700
H  38.48400 7.86300 43.94900
N  44.04800 3.43500 48.09300
C  42.87700 2.94500 47.67000
C  42.96400 1.44500 47.71200
C  44.30900 1.15000 48.11700
C  44.98500 2.42600 48.34300
C  41.84600 0.53400 47.23600
C  44.80500 -0.24100 48.28900
O  44.17600 -1.25000 47.91100
C  46.19800 -0.51700 48.76800
N  46.53000 5.05300 48.69600
C  46.99500 3.79900 48.59500
C  48.54800 3.78900 48.39800
C  48.93000 5.30300 48.65000
C  47.57400 5.95200 48.58100
C  49.31900 2.76300 49.31600
C  49.88200 5.82300 47.50100
C  51.34300 6.07500 47.90400
N  45.09900 7.59700 48.43200
C  46.31400 8.19900 48.43000
C  46.16000 9.62800 48.34500
C  44.73700 9.83100 48.16100
C  44.19100 8.55300 48.12300
C  47.15800 10.66900 48.43400
C  43.64400 10.78100 48.03900
O  43.67300 12.01800 48.18000
C  42.38700 9.95100 47.91600
C  41.30400 10.24700 48.88500
O  41.17300 9.73400 50.02500
O  40.40000 11.11200 48.27900
C  39.20500 11.39300 48.97100
H  40.80700 3.15600 47.26900
H  46.93200 1.73000 48.28000
H  48.33000 7.97600 48.51500
H  39.94600 7.95100 47.68300
H  39.88100 5.35000 46.21800
H  38.25600 4.92000 47.69000
H  38.61400 6.40600 48.50800
H  39.30100 5.01300 49.13100
H  41.20100 7.58700 44.93100
H  40.95200 9.06900 45.52300
H  38.88100 9.48200 45.21600
H  38.42700 7.92900 45.99100
H  40.89800 1.07000 47.27300
H  41.69100 -0.35000 47.85500
H  42.07100 0.19200 46.22600
H  46.44700 -1.53500 49.06800
H  46.40000 0.10200 49.64200
H  46.81000 -0.35000 47.88200
H  48.56800 3.38300 47.38700
H  49.38200 5.45500 49.63100
H  48.66300 1.95600 49.64200
H  49.71400 3.26400 50.20000
H  50.15300 2.29300 48.79600
H  49.48700 6.68800 46.96700
H  49.86000 5.08800 46.69700
H  51.93100 5.18800 47.67000
H  51.54100 6.17000 48.97200
H  51.72300 6.95000 47.37700
H  47.86500 10.61700 47.60700
H  47.60000 10.72800 49.42900
H  46.69700 11.64200 48.26700
H  42.10800 10.29300 46.91900
H  38.48700 11.91900 48.34100
H  39.47300 12.12900 49.73000
H  38.79300 10.49200 49.42700
Mg 47.39700 25.27800 28.66400
C  48.67800 27.41600 31.12100
C  46.70300 23.00800 30.99200
C  47.04000 23.00400 26.18800
C  48.84400 27.44900 26.21300
N  47.62700 25.24100 30.74400
C  47.97300 26.30600 31.56200
C  47.58000 26.05800 33.00400
C  47.10600 24.59900 33.04900
C  47.11100 24.24000 31.54400
C  47.93600 23.61800 33.86100
C  46.42600 27.04900 33.41300
C  46.76300 27.93100 34.67800
H  45.77900 27.82100 35.90900
N  46.84700 23.29800 28.61100
C  46.61300 22.54200 29.66900
C  46.21800 21.16400 29.24800
C  46.20400 21.16700 27.85100
C  46.74700 22.53300 27.50100
C  45.93900 20.03300 30.27800
C  45.86300 20.09400 26.89400
O  46.04500 20.22300 25.69100
C  45.30700 18.76000 27.24000
N  47.82800 25.30300 26.51500
C  47.38800 24.28000 25.66500
C  47.69200 24.58000 24.18200
C  48.29300 25.98000 24.28400
C  48.22300 26.30900 25.75800
C  48.70700 23.56900 23.64400
C  47.54700 27.08200 23.49400
C  48.38600 28.19100 22.78800
N  48.47800 27.09000 28.63400
C  48.94400 27.82500 27.55700
C  49.64200 28.96000 28.09600
C  49.46900 28.92900 29.50800
C  48.83100 27.67700 29.76400
C  50.52700 29.90600 27.31900
C  49.82100 29.58500 30.75800
O  50.47200 30.57800 30.98400
C  49.19400 28.69000 31.88300
C  50.20800 28.28900 32.99400
O  50.73000 27.15900 33.05800
O  50.45700 29.29500 33.78900
C  51.41800 28.89400 34.90400
H  46.47300 22.23300 31.72700
H  46.89400 22.43400 25.26800
H  49.32700 28.07800 25.46300
H  48.40000 26.25200 33.69500
H  46.06600 24.42800 33.32800
H  48.93900 23.52800 33.44400
H  47.52400 22.61200 33.94100
H  47.96100 24.10100 34.83800
H  45.53200 26.44700 33.57700
H  46.24500 27.75400 32.60200
H  46.77700 28.88500 34.15200
H  47.73900 27.65100 35.07500
H  45.68500 19.04000 29.90700
H  45.09600 20.43100 30.84300
H  46.74900 19.95100 31.00300
H  46.07000 18.23700 27.81600
H  45.11500 18.19600 26.32700
H  44.42800 18.90600 27.86800
H  46.82600 24.63500 23.52200
H  49.36300 26.02000 24.08000
H  49.37700 23.90700 22.85400
H  48.11200 22.74400 23.25300
H  49.36300 23.33300 24.48200
H  46.96000 27.65500 24.21100
H  46.90700 26.59000 22.76200
H  48.35000 28.11600 21.70100
H  49.45400 28.03300 22.94100
H  48.22900 29.23800 23.04900
H  50.18400 30.23700 26.33900
H  51.46800 29.41200 27.07500
H  50.67100 30.75100 27.99200
H  48.33000 29.19000 32.32000
H  50.94100 28.06700 35.43100
H  51.54900 29.76600 35.54500
H  52.38400 28.53000 34.55400

