158

Mg 24.12900 -6.35100 46.16600
C  26.66300 -4.29900 44.51600
C  21.99200 -5.14800 43.85400
C  22.47300 -8.97700 46.59200
C  26.90200 -7.70300 48.01600
N  24.36900 -4.86900 44.33500
C  25.44600 -4.18300 43.90800
C  25.04200 -3.13000 42.96000
C  23.46900 -3.27600 42.79300
C  23.22400 -4.42600 43.79100
C  22.64400 -1.98100 43.12600
C  25.85100 -3.14600 41.58600
C  26.11600 -1.77500 41.00000
H  25.53700 -1.56300 39.68200
N  22.32100 -6.88800 45.47100
C  21.60100 -6.28200 44.53100
C  20.28700 -6.87500 44.37200
C  20.39800 -8.08300 45.24000
C  21.76500 -8.03600 45.81000
C  19.19400 -6.30500 43.45100
C  19.23500 -9.08800 45.37400
O  18.21300 -8.88500 44.76500
C  19.34900 -10.18600 46.41000
N  24.63700 -8.04900 47.20600
C  23.71700 -9.00500 47.20900
C  24.29000 -10.27400 48.06000
C  25.68500 -9.83600 48.60400
C  25.73300 -8.46400 47.98000
C  23.26600 -10.89900 49.13200
C  26.86200 -10.80600 48.22000
C  27.71700 -11.21900 49.39900
N  26.26500 -5.92500 46.44800
C  27.21600 -6.57300 47.25400
C  28.54500 -5.96400 47.15000
C  28.33900 -5.09800 46.07400
C  26.94800 -5.05900 45.70100
C  29.86100 -6.26300 47.95500
C  28.98600 -4.14600 45.25300
O  30.16800 -3.91800 45.21200
C  27.96600 -3.54600 44.29100
C  27.76100 -2.12100 44.57000
O  27.19400 -1.74400 45.55700
O  28.10300 -1.30900 43.53800
C  27.74800 0.06400 43.54500
H  21.28200 -4.72200 43.14300
H  21.98500 -9.95200 46.64500
H  27.71700 -8.20500 48.54200
H  25.30500 -2.19100 43.44600
H  23.25700 -3.78100 41.85000
H  22.40700 -1.47800 42.18800
H  23.21300 -1.32500 43.78600
H  21.74400 -2.39900 43.57600
H  25.37000 -3.78400 40.84500
H  26.84800 -3.58500 41.63800
H  27.19800 -1.65900 40.94300
H  25.68700 -0.93700 41.55000
H  18.43400 -7.05200 43.22500
H  19.71600 -6.09600 42.51700
H  18.70900 -5.39900 43.81400
H  18.38700 -10.45800 46.84600
H  19.93800 -9.78800 47.23700
H  19.87200 -10.98000 45.87800
H  24.53900 -10.91600 47.21600
H  25.65700 -9.77800 49.69200
H  23.32000 -11.98100 49.00800
H  22.29600 -10.40900 49.03700
H  23.65700 -10.70300 50.13000
H  27.60400 -10.30500 47.59800
H  26.38400 -11.70800 47.83600
H  28.75500 -11.06800 49.10200
H  27.56200 -12.25900 49.68500
H  27.45200 -10.63200 50.27700
H  30.35600 -7.21400 47.75500
H  29.56200 -6.32700 49.00100
H  30.37800 -5.30900 47.85400
H  28.36800 -3.56600 43.27800
H  27.24100 0.37600 44.45800
H  27.11500 0.19000 42.66600
H  28.64600 0.67600 43.45600
Mg 48.31000 35.23400 27.62900
C  45.93500 33.87900 29.92100
C  48.55100 37.96400 29.68900
C  49.74600 36.78500 25.16400
C  47.45500 32.61800 25.42400
N  47.18600 35.91000 29.45700
C  46.37800 35.12500 30.27300
C  46.23400 35.75300 31.67300
C  46.72500 37.22200 31.44900
C  47.62800 36.95900 30.15500
C  45.56900 38.11800 31.15100
C  46.97500 34.88400 32.75200
C  48.03500 35.50700 33.81500
H  47.55800 35.94000 35.17900
N  49.12900 37.08400 27.44300
C  49.16400 38.02700 28.44600
C  50.13900 39.05300 27.97000
C  50.50000 38.70500 26.69800
C  49.75700 37.55600 26.35500
C  50.46800 40.21800 28.80900
C  51.44300 39.44900 25.70900
O  51.77100 39.03900 24.63500
C  52.08300 40.80100 26.13400
N  48.25000 34.89500 25.53000
C  49.10300 35.67800 24.78500
C  49.15900 35.12800 23.31300
C  48.67500 33.66700 23.55000
C  48.09100 33.72200 24.90000
C  48.12800 35.86600 22.44900
C  49.64900 32.47900 23.35100
C  49.21100 31.38300 22.32500
N  47.09700 33.56700 27.71000
C  46.91500 32.53700 26.74800
C  46.00600 31.52000 27.34300
C  45.55900 32.05100 28.51400
C  46.24400 33.27300 28.72900
C  45.71200 30.21500 26.71600
C  44.70400 31.80600 29.59200
O  43.97000 30.85500 29.90300
C  44.87200 33.06900 30.45900
C  44.93800 32.59700 31.87600
O  45.77700 31.85500 32.39500
O  43.78400 33.04500 32.52700
C  43.49700 32.72500 33.95400
H  48.73600 38.67000 30.50100
H  50.40900 37.23400 24.42100
H  47.44300 31.73200 24.78500
H  45.19400 35.68600 31.99400
H  47.29000 37.70400 32.24800
H  44.68400 37.60500 31.52600
H  45.43900 38.16400 30.07000
H  45.74200 39.11400 31.55900
H  47.42200 34.01000 32.27900
H  46.13500 34.59500 33.38300
H  48.60100 36.30600 33.33600
H  48.70900 34.66700 33.98200
H  49.96500 41.01700 28.26500
H  51.54000 40.38700 28.91000
H  49.90800 40.17800 29.74400
H  51.31000 41.43100 26.57600
H  52.57800 41.31500 25.31100
H  52.74000 40.56000 26.97000
H  50.16800 35.20100 22.90900
H  47.79600 33.45600 22.94000
H  48.57900 35.98200 21.46400
H  47.87200 36.80600 22.93800
H  47.15700 35.37400 22.38100
H  49.81800 31.88500 24.25000
H  50.62000 32.87100 23.04800
H  48.23500 31.60200 21.89200
H  49.31500 30.42200 22.82700
H  49.94700 31.55600 21.53900
H  46.68600 29.73000 26.65100
H  45.24500 30.40000 25.74900
H  44.96600 29.67100 27.29600
H  43.87300 33.50400 30.48400
H  44.19000 31.90300 34.13500
H  42.47500 32.48400 34.24500
H  43.84200 33.60500 34.49700

