158

Mg 46.90700 16.42300 28.39900
C  44.59000 16.03300 30.95700
C  48.89600 18.23200 30.37700
C  48.96000 16.80800 25.81000
C  44.56700 14.80100 26.17600
N  46.76900 17.13000 30.39600
C  45.82800 16.72600 31.32600
C  46.23200 17.08200 32.74500
C  47.39600 18.05300 32.45900
C  47.69200 17.80800 30.98300
C  47.13000 19.53400 32.93900
C  46.60400 15.80900 33.57600
C  47.18700 16.09400 34.99800
H  47.09400 17.48100 35.64500
N  48.69300 17.35300 28.14100
C  49.41800 18.02600 29.11000
C  50.63900 18.62800 28.53400
C  50.69900 18.11400 27.17800
C  49.38800 17.31800 27.01500
C  51.59500 19.53700 29.38600
C  51.84000 18.26300 26.17800
O  51.90100 17.80200 25.04400
C  53.05400 19.05300 26.47200
N  46.63400 16.04500 26.24000
C  47.71800 16.27200 25.42900
C  47.32400 15.94500 23.97800
C  46.24400 14.82400 24.21700
C  45.77100 15.23300 25.61200
C  46.77100 17.25700 23.35700
C  46.78000 13.36400 24.18300
C  46.03600 12.47300 23.17800
N  45.00400 15.56900 28.47700
C  44.20000 14.96900 27.52500
C  43.00700 14.43500 28.22500
C  43.09500 14.81200 29.55500
C  44.34000 15.60400 29.58200
C  41.96500 13.57500 27.52000
C  42.43400 14.79000 30.84000
O  41.28900 14.39900 31.11500
C  43.37300 15.51800 31.72600
C  42.70000 16.53800 32.54300
O  41.78500 17.22600 32.09900
O  43.14900 16.49700 33.84800
C  42.69500 17.56900 34.74100
H  49.50200 18.82500 31.06600
H  49.67500 17.02500 25.01400
H  43.90400 14.15700 25.59500
H  45.50200 17.64400 33.32600
H  48.29800 17.72500 32.97500
H  47.05100 20.23500 32.10800
H  48.02100 19.93400 33.42300
H  46.34600 19.59300 33.69300
H  47.24200 15.24700 32.89400
H  45.74100 15.15900 33.72300
H  48.24000 15.87500 34.82200
H  46.86100 15.41900 35.78900
H  51.18400 19.72000 30.37900
H  51.68700 20.47300 28.83600
H  52.59900 19.11400 29.41300
H  52.85200 20.08300 26.76700
H  53.74400 18.86300 25.65000
H  53.71300 18.78600 27.29800
H  48.25600 15.58700 23.54100
H  45.33600 15.03600 23.65300
H  45.82200 17.47300 23.84800
H  46.72700 17.16800 22.27200
H  47.41600 18.08000 23.66500
H  46.70400 12.90200 25.16700
H  47.84100 13.44600 23.95100
H  45.45500 11.70300 23.68500
H  46.74700 11.87800 22.60300
H  45.31800 13.06800 22.61400
H  41.00200 13.93600 27.88100
H  42.14800 12.56300 27.88200
H  42.03100 13.77000 26.45000
H  43.74800 14.79300 32.44900
H  42.65600 17.17700 35.75700
H  41.67700 17.85800 34.47800
H  43.42800 18.37200 34.66400
Mg 26.81500 51.64200 26.59900
C  25.13400 52.49100 29.42400
C  29.38600 50.37400 28.45700
C  28.63700 50.89400 23.67500
C  24.74300 53.56300 24.75300
N  27.19500 51.51300 28.77400
C  26.29200 51.82400 29.75600
C  26.84400 51.54800 31.13700
C  28.29800 50.86800 30.77400
C  28.35400 50.96600 29.25600
C  29.43100 51.66500 31.36200
C  25.92900 50.68100 32.08300
C  26.52300 50.28700 33.38600
H  26.19600 51.12300 34.63600
N  28.73000 50.68800 26.20100
C  29.65300 50.27800 27.04700
C  30.77300 49.71100 26.41100
C  30.45600 49.70000 25.01900
C  29.22100 50.41300 24.91100
C  32.01700 49.08100 27.13900
C  31.26300 49.14100 23.88000
O  30.90800 49.22400 22.74000
C  32.54800 48.47800 24.10900
N  26.77300 52.18900 24.50900
C  27.58800 51.75200 23.52600
C  27.18800 52.30600 22.12600
C  25.88900 53.19500 22.52800
C  25.76200 52.90600 24.02300
C  28.27900 53.16500 21.32500
C  24.62300 53.08200 21.64300
C  23.80900 51.81100 21.83200
N  25.21500 52.75400 26.97100
C  24.35700 53.39700 26.09400
C  23.25500 53.98800 26.83600
C  23.53600 53.70000 28.18700
C  24.72100 52.92600 28.19500
C  22.11100 54.74100 26.29100
C  23.02900 53.82800 29.52200
O  22.05000 54.41300 29.96800
C  24.05900 53.06100 30.38700
C  24.51300 54.06000 31.40300
O  25.26400 55.00900 31.17400
O  23.78200 53.91600 32.54700
C  23.98800 54.91300 33.61900
H  30.14200 49.92000 29.10100
H  29.11900 50.58000 22.74700
H  23.93000 53.96500 24.14600
H  26.93300 52.57500 31.49100
H  28.31100 49.82500 31.09100
H  29.17800 52.03700 32.35500
H  29.68000 52.52400 30.73900
H  30.21500 50.93600 31.56700
H  25.57800 49.83400 31.49200
H  25.11200 51.38900 32.22500
H  27.60800 50.37400 33.33200
H  26.27700 49.23100 33.49100
H  31.93900 47.99500 27.19900
H  32.00100 49.53800 28.12800
H  32.96800 49.37600 26.69400
H  33.28800 49.03900 24.68000
H  32.94100 48.30600 23.10600
H  32.49200 47.44100 24.44000
H  26.83100 51.41900 21.60300
H  26.14600 54.25300 22.58200
H  29.31500 52.99800 21.61800
H  27.97800 54.16400 21.00800
H  28.28600 52.54500 20.42800
H  25.03700 53.03300 20.63600
H  24.00700 53.96600 21.80600
H  22.83300 52.07700 22.23900
H  24.15800 51.17900 22.64900
H  23.72400 51.21700 20.92200
H  21.52400 54.11000 25.62400
H  22.53300 55.44700 25.57700
H  21.39800 55.09900 27.03400
H  23.53600 52.25000 30.89500
H  23.76800 54.40900 34.56100
H  23.19600 55.65400 33.51000
H  24.97300 55.36400 33.73400

