158

Mg 48.11800 34.96600 27.86000
C  46.08400 33.25500 30.28700
C  48.43800 37.42100 30.07200
C  49.37200 36.70300 25.42900
C  47.42400 32.18800 25.67700
N  47.44000 35.23800 29.90800
C  46.73600 34.35600 30.76000
C  46.73100 34.87000 32.19400
C  47.10300 36.34500 31.96100
C  47.73800 36.33500 30.58600
C  45.87900 37.40000 32.04600
C  47.71300 34.10300 33.21300
C  47.69600 34.45100 34.66400
H  47.01500 35.64600 35.16200
N  48.88400 36.86400 27.81300
C  49.04600 37.74100 28.83600
C  49.58700 38.89400 28.31400
C  49.78200 38.78000 26.95100
C  49.30400 37.40900 26.62600
C  49.76100 40.17100 29.23000
C  50.32900 39.80200 25.94300
O  50.45800 39.55300 24.73500
C  50.99900 41.07800 26.38900
N  48.28900 34.53000 25.85800
C  48.97200 35.44500 25.07200
C  49.11400 34.93700 23.60400
C  48.52000 33.42800 23.66100
C  48.09300 33.33600 25.16900
C  48.46600 35.83700 22.50600
C  49.54600 32.24000 23.39300
C  49.06300 31.02000 22.60400
N  47.01500 33.04800 27.86200
C  46.81700 32.03900 26.91900
C  46.03500 30.95100 27.51000
C  45.69800 31.43600 28.79600
C  46.37400 32.71600 29.00000
C  45.68700 29.57500 26.92300
C  44.89400 31.08200 29.95000
O  44.31600 30.04100 30.24100
C  44.99400 32.37600 30.86000
C  45.22200 31.84000 32.16600
O  46.20300 31.20900 32.50700
O  44.18500 32.12400 32.99800
C  44.42900 31.83600 34.40100
H  48.56900 38.24300 30.77800
H  49.77200 37.21600 24.55200
H  47.29500 31.29200 25.06600
H  45.72200 34.79300 32.59900
H  47.85100 36.63700 32.69800
H  45.91300 38.12700 31.23500
H  45.92500 38.01300 32.94700
H  44.90900 36.90600 32.09900
H  48.73900 34.25300 32.87700
H  47.40100 33.07500 33.03100
H  48.73200 34.61900 34.95700
H  47.30700 33.66300 35.30800
H  50.78400 40.53300 29.33300
H  49.37800 39.99700 30.23600
H  49.09800 40.88800 28.74400
H  51.19600 41.25000 27.44800
H  50.46500 41.86400 25.85500
H  52.00900 41.00100 25.98600
H  50.16500 34.93200 23.31400
H  47.63000 33.35200 23.03600
H  48.02000 36.73000 22.94500
H  47.77500 35.32200 21.83800
H  49.25600 36.24100 21.87300
H  49.84700 31.97100 24.40600
H  50.34600 32.78600 22.89300
H  49.70900 30.91700 21.73200
H  48.03300 31.24800 22.32700
H  49.05000 30.05800 23.11600
H  45.56600 28.95100 27.80900
H  46.56700 29.27200 26.35500
H  44.83600 29.60200 26.24300
H  44.01800 32.85800 30.91900
H  44.42400 30.76600 34.60600
H  43.62800 32.24700 35.01600
H  45.33400 32.33900 34.74100
Mg 8.07400 53.12100 40.76100
C  7.14500 49.71000 40.65700
C  11.34800 52.23800 39.92800
C  8.84000 56.45600 40.00000
C  4.70500 53.96000 40.63500
N  9.04800 51.18000 40.14600
C  8.54800 49.94500 40.34300
C  9.60600 48.84300 40.07800
C  10.85400 49.70500 40.33500
C  10.45900 51.19500 40.10800
C  11.64500 49.48900 41.65100
C  9.51300 48.31400 38.64500
C  9.27700 49.17000 37.36600
H  7.87800 49.38600 36.78700
N  9.86800 54.15100 40.29100
C  11.13000 53.58700 40.12000
C  12.04800 54.61700 39.95500
C  11.38500 55.85600 39.97400
C  9.89800 55.53000 40.11500
C  13.57000 54.34900 39.78500
C  12.00200 57.27100 39.83800
O  13.21400 57.34200 39.88300
C  11.22200 58.56400 39.66100
N  6.99000 54.94200 40.22000
C  7.46900 56.20600 40.17000
C  6.35800 57.25700 40.25200
C  5.05100 56.39400 40.43500
C  5.61100 54.96300 40.39200
C  6.47300 58.40700 41.29900
C  3.93500 56.60100 39.43500
C  3.58000 58.01800 39.11600
N  6.24700 52.13200 40.76500
C  4.92700 52.59500 40.80400
C  4.04900 51.52800 41.14600
C  4.87600 50.35100 41.16800
C  6.21500 50.77100 40.82900
C  2.56600 51.55700 41.38500
C  4.90800 48.93200 41.28600
O  3.96300 48.18700 41.60800
C  6.29900 48.42300 40.89200
C  6.20200 47.58600 39.71300
O  6.05900 47.89500 38.50900
O  6.17500 46.26300 40.10600
C  5.99800 45.19000 39.09300
H  12.40000 51.95500 39.85000
H  9.03300 57.53100 39.97000
H  3.66300 54.28200 40.66700
H  9.56300 47.97400 40.73400
H  11.58600 49.54500 39.54200
H  12.70900 49.69500 41.53700
H  11.58800 48.43800 41.93400
H  11.26900 50.09800 42.47300
H  8.59600 47.73800 38.77600
H  10.37100 47.69400 38.38800
H  9.82300 48.65100 36.57900
H  9.87400 50.07800 37.44800
H  13.96500 54.80800 38.87800
H  13.91200 53.32100 39.67000
H  14.19400 54.83900 40.53200
H  10.60800 58.34900 38.78600
H  11.95500 59.36900 39.62800
H  10.62000 58.79000 40.54100
H  6.41300 57.83000 39.32700
H  4.47300 56.42500 41.35900
H  6.18500 59.31500 40.76800
H  7.47400 58.38000 41.73000
H  5.69200 58.26300 42.04500
H  2.97100 56.21900 39.76900
H  4.17100 56.05200 38.52300
H  3.74200 58.74900 39.90900
H  2.53600 58.08800 38.81100
H  4.30100 58.27100 38.33800
H  2.19300 52.54400 41.11300
H  2.46200 51.44600 42.46500
H  2.09500 50.71700 40.87500
H  6.79800 47.87700 41.69300
H  6.96100 44.68300 39.04500
H  5.72500 45.48600 38.08000
H  5.23600 44.44200 39.31400

