158

Mg 48.01900 15.69900 28.33500
C  46.12500 15.55700 31.28500
C  50.27400 17.79700 30.00800
C  49.63700 16.18000 25.50300
C  45.24900 14.34300 26.61800
N  48.11600 16.61700 30.32800
C  47.40300 16.21900 31.36500
C  47.96300 16.72900 32.71100
C  49.11500 17.69600 32.31500
C  49.21800 17.28100 30.81000
C  48.79000 19.21400 32.47500
C  48.40100 15.60400 33.59600
C  48.34700 15.76200 35.10400
H  48.39300 17.11400 35.82200
N  49.73900 16.78500 27.84900
C  50.55200 17.58900 28.62100
C  51.69600 18.04900 27.89000
C  51.61900 17.37600 26.66300
C  50.29500 16.74400 26.63800
C  52.75600 18.99000 28.54100
C  52.53300 17.45100 25.46400
O  52.33600 16.82300 24.51800
C  53.78700 18.32100 25.48600
N  47.45100 15.37300 26.35900
C  48.38600 15.51100 25.41100
C  47.88400 15.01800 24.08800
C  46.69400 14.19000 24.52600
C  46.45500 14.59400 25.91900
C  47.49000 16.21900 23.18900
C  46.77700 12.70100 24.33000
C  45.75000 12.01300 23.44400
N  46.03600 15.06500 28.80200
C  45.01500 14.49900 28.04700
C  43.82200 14.31100 28.82700
C  44.25500 14.64300 30.10100
C  45.58500 15.06000 30.05800
C  42.47800 13.83400 28.37800
C  43.80100 14.81000 31.54300
O  42.73500 14.55800 32.00800
C  45.04700 15.24400 32.34900
C  44.56700 16.41600 33.13000
O  44.27200 17.50200 32.67000
O  44.24100 16.07700 34.39700
C  43.31600 16.97300 35.14300
H  51.04600 18.39200 30.50100
H  50.15200 16.10700 24.54300
H  44.36000 14.00000 26.08500
H  47.15200 17.18600 33.27800
H  50.02200 17.53200 32.89700
H  48.94300 19.73900 31.53100
H  49.63300 19.46300 33.12000
H  47.88900 19.52100 33.00600
H  49.45600 15.38000 33.43600
H  47.87000 14.70800 33.27400
H  49.17500 15.18500 35.51600
H  47.44800 15.18400 35.32100
H  53.35600 19.57600 27.84500
H  53.46100 18.25600 28.93100
H  52.35800 19.63300 29.32600
H  54.28800 18.00300 26.40000
H  53.51600 19.37700 25.48600
H  54.49600 18.21400 24.66500
H  48.60200 14.44700 23.49900
H  45.78500 14.53700 24.03400
H  47.68700 17.08700 23.81800
H  46.44200 16.39200 22.94300
H  48.07900 16.22400 22.27200
H  46.61400 12.20900 25.28900
H  47.74000 12.39000 23.92600
H  46.30900 11.66500 22.57500
H  44.95100 12.73200 23.26300
H  45.36000 11.11400 23.92200
H  42.33000 14.30000 27.40400
H  41.85900 14.27100 29.16200
H  42.31500 12.75800 28.32700
H  45.29800 14.41200 33.00700
H  42.45100 17.29600 34.56500
H  43.90500 17.76000 35.61500
H  42.95200 16.40900 36.00200
Mg 6.34700 55.08100 41.39400
C  5.19200 51.77600 41.53600
C  9.34400 53.93600 39.96000
C  7.18200 58.23200 40.52800
C  3.16500 56.15500 42.28100
N  7.14000 53.08400 40.73900
C  6.44800 51.90900 40.90800
C  7.19500 50.75100 40.26600
C  8.66500 51.40800 40.33500
C  8.42900 52.91600 40.28700
C  9.58200 51.02000 41.55300
C  6.74700 50.35600 38.82500
C  5.68000 51.28000 38.10600
H  6.25600 52.39300 37.29600
N  8.01400 55.95600 40.36600
C  9.10100 55.29000 39.89100
C  10.09900 56.22300 39.38600
C  9.42000 57.50600 39.32900
C  8.16300 57.29000 40.10400
C  11.49100 55.82300 38.98300
C  9.96900 58.83300 38.71900
O  11.06700 58.92500 38.19200
C  9.15900 60.15700 38.72000
N  5.27100 56.99900 41.41500
C  5.91900 58.15200 41.17500
C  5.01500 59.30900 41.56000
C  3.74800 58.62900 42.06200
C  4.09800 57.13100 42.00300
C  5.76300 60.33800 42.44100
C  2.51900 59.21100 41.34900
C  2.12700 58.57600 40.05400
N  4.55400 54.16200 41.95600
C  3.38200 54.75400 42.33000
C  2.44800 53.69700 42.66200
C  3.18100 52.51500 42.50000
C  4.40000 52.89800 41.94000
C  1.06100 53.95900 43.19800
C  3.09100 51.07800 42.57100
O  2.16600 50.36800 43.03100
C  4.44400 50.54500 42.05100
C  4.18300 49.56800 41.00700
O  3.70000 49.79300 39.90900
O  4.58200 48.33000 41.45200
C  4.30000 47.28100 40.46700
H  10.35700 53.65300 39.66600
H  7.52500 59.23500 40.26400
H  2.24800 56.58300 42.69300
H  7.19700 49.84300 40.87000
H  9.17800 51.13600 39.41300
H  9.68300 51.81200 42.29600
H  10.57200 50.78600 41.16000
H  9.10700 50.25100 42.16300
H  6.35200 49.34000 38.85700
H  7.63500 50.53100 38.21800
H  5.03100 51.72500 38.86100
H  4.98500 50.61300 37.59500
H  11.72500 55.73000 37.92200
H  11.81100 54.91300 39.49200
H  12.19900 56.60500 39.25800
H  8.22100 60.18500 38.16500
H  9.92400 60.84300 38.35500
H  9.06600 60.53800 39.73700
H  4.95900 59.78500 40.58200
H  3.50300 58.80600 43.11000
H  5.08600 60.71700 43.20800
H  5.99000 61.16400 41.76800
H  6.67000 59.96200 42.91300
H  2.67100 60.28900 41.30100
H  1.68000 59.06400 42.02800
H  3.00600 58.28000 39.48300
H  1.56100 59.14300 39.31400
H  1.57700 57.69600 40.38600
H  0.52000 54.66300 42.56600
H  1.07300 54.29800 44.23400
H  0.55000 53.00200 43.08700
H  4.90100 50.04400 42.90500
H  3.22300 47.28400 40.29400
H  4.61800 46.34900 40.93400
H  4.91900 47.44100 39.58500

