158

Mg 35.92300 48.46100 24.97200
C  35.46700 46.53100 27.83300
C  34.63900 51.23600 26.81900
C  35.68000 50.23000 22.21600
C  36.78300 45.70200 23.20800
N  35.07700 48.70200 27.05000
C  35.23100 47.87100 28.13200
C  35.04600 48.56100 29.51000
C  34.67800 50.03800 29.06000
C  34.82300 50.02100 27.52900
C  33.27000 50.54500 29.57000
C  36.34400 48.56200 30.39600
C  36.16800 48.42900 31.98400
H  34.77000 48.66300 32.59600
N  35.17500 50.43400 24.59100
C  34.71200 51.38800 25.43300
C  34.38800 52.60200 24.69500
C  34.46400 52.28900 23.29200
C  35.10800 50.90100 23.31500
C  33.75600 53.83700 25.31800
C  34.04900 52.99900 22.04600
O  34.28500 52.54300 20.90600
C  33.46400 54.37300 22.05900
N  36.02900 48.04100 22.93300
C  36.12700 49.00400 22.03500
C  36.45300 48.44400 20.70000
C  37.16200 47.03700 21.06200
C  36.63200 46.87500 22.51800
C  35.25000 48.35400 19.73200
C  38.73900 47.00200 21.08600
C  39.49100 46.98100 19.76500
N  36.05100 46.51200 25.37200
C  36.49100 45.48700 24.57600
C  36.64900 44.23700 25.28600
C  36.22000 44.61200 26.58300
C  35.78500 45.95800 26.55500
C  37.11900 42.91300 24.80200
C  36.07600 44.11200 27.97900
O  36.16600 42.96300 28.43200
C  35.69600 45.42800 28.82900
C  34.60000 45.04100 29.78600
O  33.38700 44.97000 29.56500
O  35.18000 44.87300 31.04800
C  34.23000 44.44000 32.10100
H  34.45500 52.14000 27.40400
H  35.74100 50.88100 21.34200
H  37.28900 44.91400 22.64600
H  34.19800 48.11300 30.02800
H  35.39900 50.75100 29.45900
H  32.65000 51.04700 28.82700
H  33.54500 51.19600 30.40000
H  32.66700 49.73700 29.98500
H  36.86000 49.51300 30.27300
H  37.10500 47.82300 30.14500
H  36.80800 49.11000 32.54600
H  36.46400 47.38700 32.10400
H  32.67200 53.72400 25.27400
H  34.07900 54.77400 24.86500
H  33.94100 53.88400 26.39200
H  32.62000 54.30600 22.74600
H  33.22300 54.79300 21.08300
H  34.21700 55.02200 22.50700
H  37.09600 49.22500 20.29300
H  36.80400 46.28800 20.35700
H  35.35500 47.44300 19.14300
H  35.16600 49.17100 19.01600
H  34.31400 48.26300 20.28300
H  39.03200 46.08100 21.59000
H  39.17800 47.82600 21.64900
H  40.22700 47.78000 19.85400
H  38.79400 47.07400 18.93200
H  39.89200 45.97900 19.61200
H  37.09000 42.79000 23.71900
H  36.43800 42.19200 25.25400
H  38.17800 42.77700 25.02300
H  36.55300 45.76800 29.40900
H  34.40300 43.49700 32.61900
H  33.16700 44.43500 31.85900
H  34.21500 45.15900 32.92100
Mg 25.92200 49.78500 26.16200
C  23.75700 51.14300 28.85500
C  28.05600 48.93800 28.58800
C  27.99600 49.03200 23.70300
C  23.71900 51.24100 23.92900
N  25.83600 50.08200 28.50100
C  24.89000 50.49000 29.38100
C  25.29400 50.19900 30.81700
C  26.70800 49.61900 30.75100
C  26.90400 49.45200 29.15700
C  27.91900 50.29400 31.43100
C  24.24800 49.39800 31.57600
C  23.71100 50.03900 32.90800
H  24.80100 50.45400 33.90900
N  27.75700 48.94000 26.15600
C  28.56200 48.65700 27.27200
C  29.86800 48.18900 26.84700
C  29.82000 48.17000 25.37500
C  28.48400 48.75900 24.99600
C  31.01400 47.78500 27.79800
C  30.93000 47.82400 24.39800
O  30.90100 47.96600 23.16700
C  32.21600 47.13200 25.05000
N  25.89600 50.14700 24.10800
C  26.80400 49.63200 23.26100
C  26.41300 49.77400 21.86300
C  24.96700 50.41900 21.95600
C  24.88800 50.66500 23.45200
C  27.46600 50.69300 21.12200
C  23.88600 49.51400 21.32600
C  22.68200 50.13300 20.63400
N  24.12000 51.01100 26.29500
C  23.39400 51.53300 25.23300
C  22.24800 52.21000 25.79500
C  22.30300 52.02700 27.18100
C  23.50100 51.36100 27.46600
C  21.28900 52.87700 24.88800
C  21.66500 52.31200 28.46500
O  20.57600 52.86000 28.67600
C  22.61600 51.71600 29.61300
C  23.06400 52.76500 30.51000
O  24.03300 53.55300 30.26700
O  22.10700 52.87700 31.55500
C  22.55100 53.92600 32.51500
H  28.75600 48.56800 29.34000
H  28.67000 48.86600 22.86000
H  23.03000 51.59500 23.16000
H  25.36100 51.16500 31.31700
H  26.70100 48.57200 31.05500
H  27.68700 51.30500 31.76800
H  28.77200 50.33400 30.75400
H  28.16300 49.64500 32.27200
H  24.78700 48.53700 31.97300
H  23.52800 48.89200 30.93300
H  23.01700 49.38200 33.43200
H  23.25300 50.97300 32.58000
H  30.62100 47.87500 28.81100
H  31.84400 48.49000 27.78100
H  31.30000 46.73300 27.77700
H  32.02400 46.10200 25.34800
H  32.52000 47.76600 25.88400
H  33.03000 46.99600 24.33800
H  26.46200 48.75600 21.47600
H  24.98400 51.31500 21.33500
H  28.29400 50.87000 21.80700
H  27.09700 51.71500 21.02600
H  27.87100 50.17800 20.25100
H  23.56600 48.80200 22.08600
H  24.42000 48.94300 20.56700
H  21.78500 49.67000 21.04600
H  22.62200 50.16400 19.54600
H  22.69600 51.18100 20.93400
H  20.92400 52.14100 24.17100
H  21.73300 53.68300 24.30400
H  20.44600 53.24000 25.47500
H  22.16600 50.84300 30.08500
H  22.94900 54.81300 32.02300
H  23.23700 53.42800 33.20000
H  21.67400 54.15400 33.12100

