158

Mg 1.25500 8.12000 25.15100
C  1.79500 10.01800 28.03800
C  1.19700 5.29800 27.01200
C  1.07700 6.48300 22.25700
C  1.81800 11.23300 23.26900
N  1.83900 7.72500 27.27200
C  1.74000 8.65200 28.26300
C  1.72400 8.03100 29.67700
C  1.77600 6.50700 29.26900
C  1.53300 6.48100 27.72000
C  3.10100 5.73400 29.54700
C  0.44600 8.36100 30.51100
C  0.70300 8.34800 32.06900
H  1.97700 7.77000 32.61700
N  1.11300 6.14700 24.68100
C  1.09800 5.11400 25.60000
C  1.14800 3.86200 24.92800
C  0.93400 4.16000 23.49300
C  1.00700 5.62700 23.40000
C  1.19400 2.56500 25.72900
C  0.79600 3.24500 22.29000
O  0.99400 3.61700 21.12600
C  0.50100 1.75600 22.50100
N  1.48100 8.79900 23.04000
C  1.36600 7.87100 22.08500
C  1.23500 8.55500 20.73600
C  1.51100 10.09700 21.05200
C  1.68100 10.08800 22.54400
C  2.11100 7.91400 19.59300
C  0.39800 10.96200 20.50200
C  -0.97000 11.02300 21.22200
N  1.79400 10.22700 25.51900
C  1.80400 11.33600 24.68600
C  1.91000 12.51300 25.50700
C  1.92800 12.00400 26.84800
C  1.86200 10.64700 26.77500
C  1.91900 13.94200 25.11000
C  1.91900 12.44300 28.27900
O  1.85800 13.51500 28.83000
C  1.76300 11.13800 29.08900
C  2.98700 11.25200 29.91800
O  4.13100 11.09000 29.47400
O  2.59900 11.38100 31.22300
C  3.78000 11.72000 32.08600
H  1.11500 4.37600 27.59200
H  0.97200 5.88200 21.35100
H  1.69000 12.17200 22.72500
H  2.66800 8.39500 30.08300
H  1.08500 5.90500 29.85700
H  3.02700 4.98000 30.33000
H  3.87500 6.37700 29.96800
H  3.39700 5.13000 28.68900
H  -0.24800 7.55800 30.26300
H  -0.07500 9.26400 30.19200
H  -0.14100 7.75100 32.41600
H  0.55900 9.38400 32.37500
H  1.31400 1.59200 25.25300
H  0.19700 2.55600 26.16900
H  1.95400 2.54400 26.51000
H  1.22000 1.25600 23.14900
H  0.52200 1.17700 21.57800
H  -0.44200 1.45000 22.95200
H  0.20700 8.34800 20.43600
H  2.44100 10.40000 20.57100
H  2.96300 7.36600 19.99400
H  2.44000 8.73900 18.96000
H  1.50900 7.25400 18.96800
H  0.25600 10.49100 19.52900
H  0.78900 11.96500 20.33100
H  -1.72100 11.21800 20.45600
H  -0.90300 11.71300 22.06300
H  -1.24800 10.09100 21.71600
H  0.96500 14.31700 25.48000
H  2.00400 14.02700 24.02600
H  2.80400 14.45300 25.48800
H  0.84400 11.32400 29.64500
H  4.24500 10.80600 32.45500
H  3.57800 12.24800 33.01800
H  4.46800 12.34500 31.51700
Mg 6.50400 55.00700 41.67800
C  5.71300 51.53100 41.27200
C  9.70800 54.29600 40.80100
C  6.92600 58.18400 41.60500
C  3.04100 55.40800 42.21400
N  7.55400 53.10400 40.91100
C  7.03500 51.85600 40.80100
C  8.18900 50.85200 40.27200
C  9.47900 51.75600 40.42300
C  8.90600 53.14900 40.73100
C  10.49600 51.27900 41.57400
C  7.93100 50.24800 38.80900
C  7.47500 51.19600 37.69000
H  6.52700 50.68400 36.60000
N  8.13600 56.14100 41.26100
C  9.37200 55.68800 40.92800
C  10.16400 56.80500 40.54500
C  9.34900 57.96300 40.77800
C  8.08400 57.46800 41.23800
C  11.65700 56.76900 40.18200
C  9.84700 59.45200 40.71200
O  10.99300 59.67700 40.40200
C  9.02000 60.59100 40.84900
N  5.20600 56.53800 41.93100
C  5.59800 57.84000 41.88600
C  4.51800 58.83900 42.20600
C  3.30000 57.96700 42.17300
C  3.86800 56.52100 42.13400
C  4.85300 59.41300 43.57600
C  2.35900 58.19400 40.91400
C  0.79900 58.30100 41.01600
N  4.72400 53.77900 41.87600
C  3.41500 54.09100 42.10300
C  2.62600 52.91700 42.21100
C  3.50100 51.85500 42.02300
C  4.69500 52.47200 41.65000
C  1.13800 52.87200 42.58200
C  3.62900 50.46200 41.90700
O  2.71500 49.63200 42.04800
C  5.10500 50.20600 41.37600
C  4.76000 49.52400 40.11000
O  4.28900 50.01700 39.06700
O  4.99200 48.19800 40.25000
C  4.63600 47.26800 39.13200
H  10.79300 54.25300 40.91900
H  7.00700 59.25700 41.41600
H  1.98100 55.65000 42.30700
H  8.30600 50.04300 40.99300
H  9.99400 51.81500 39.46400
H  10.14500 50.42100 42.14700
H  10.70700 52.12000 42.23600
H  11.42300 51.14400 41.01900
H  7.23200 49.41300 38.85900
H  8.90200 49.93600 38.42200
H  8.47300 51.51800 37.39200
H  6.96900 52.02700 38.18200
H  11.87800 57.57100 39.47700
H  11.95400 55.83500 39.70600
H  12.23600 56.91700 41.09400
H  8.32100 60.47500 40.02100
H  9.49000 61.55900 40.67600
H  8.42800 60.67000 41.76200
H  4.39200 59.61200 41.44900
H  2.76700 58.06800 43.11800
H  5.12200 58.61000 44.26300
H  3.92000 59.85900 43.92000
H  5.70400 60.09400 43.58600
H  2.48500 57.37200 40.20900
H  2.60700 59.06900 40.31300
H  0.43100 58.73400 41.94600
H  0.50900 57.26900 40.82000
H  0.40200 58.97400 40.25600
H  0.42800 52.72600 41.76700
H  0.84500 53.77200 43.12100
H  1.06800 52.01900 43.25800
H  5.71700 49.66200 42.09500
H  3.61900 47.05200 38.80700
H  5.14900 46.37000 39.47600
H  5.26000 47.62800 38.31300

