158

Mg 8.48200 4.64500 27.55600
C  9.70800 2.92100 30.30700
C  6.56300 6.61600 29.72300
C  6.97400 6.04000 24.92900
C  10.06200 2.36800 25.43500
N  8.19300 4.78400 29.67500
C  8.83300 3.95200 30.62800
C  8.58800 4.55500 32.08300
C  7.68300 5.77800 31.78500
C  7.43800 5.75500 30.31000
C  6.31900 5.70100 32.65900
C  9.89200 4.89100 32.81800
C  9.65200 5.94300 33.95200
H  10.42300 5.67400 35.24000
N  7.09600 6.23400 27.28400
C  6.42300 6.91500 28.30800
C  5.61500 7.93500 27.76300
C  5.74000 7.78300 26.32300
C  6.70200 6.69600 26.10200
C  4.73200 8.93500 28.65600
C  4.97200 8.53800 25.30900
O  5.19000 8.39300 24.11200
C  3.93100 9.53100 25.68700
N  8.39200 4.14800 25.51600
C  7.79900 5.01200 24.59600
C  8.23500 4.68500 23.12300
C  9.35400 3.63700 23.36000
C  9.30100 3.32700 24.87400
C  7.09300 4.18900 22.22700
C  10.82500 4.11400 22.89600
C  11.57300 5.03300 23.85700
N  9.63600 2.96700 27.75100
C  10.28900 2.14700 26.81400
C  11.17600 1.27600 27.52100
C  10.97300 1.52400 28.86900
C  9.98500 2.50600 28.97000
C  12.16000 0.45900 26.88800
C  11.42700 1.16900 30.21200
O  12.21000 0.33000 30.63100
C  10.53300 2.02200 31.11500
C  9.68600 1.11200 31.87300
O  8.90700 0.31700 31.40600
O  9.96900 1.23100 33.20000
C  9.11200 0.46400 34.17000
H  6.10700 7.27600 30.46300
H  6.65000 6.54200 24.01400
H  10.74800 1.79900 24.80400
H  8.07200 3.83200 32.71500
H  8.17700 6.73100 31.97800
H  6.07100 6.67800 33.07300
H  6.58700 5.04800 33.49000
H  5.51000 5.19800 32.13000
H  10.53600 5.29300 32.03600
H  10.20400 3.98000 33.32800
H  8.59100 6.05200 34.17900
H  10.06100 6.89500 33.61500
H  5.04500 9.95600 28.44200
H  4.79800 8.77900 29.73200
H  3.68200 8.81300 28.38800
H  4.31300 10.38600 26.24500
H  3.17400 9.04600 26.30300
H  3.66200 9.97600 24.72900
H  8.61200 5.60700 22.67900
H  9.18100 2.64300 22.94700
H  6.25100 3.88000 22.84700
H  7.40300 3.29100 21.69300
H  6.92800 5.14100 21.72300
H  10.80400 4.65300 21.94900
H  11.38000 3.17800 22.83000
H  10.98000 5.06100 24.77100
H  11.72400 6.01500 23.40900
H  12.56600 4.64500 24.08500
H  12.47100 0.92300 25.95200
H  11.61200 -0.41400 26.53300
H  12.90800 0.22400 27.64600
H  11.26100 2.56000 31.72100
H  9.71900 -0.24400 34.73300
H  8.23600 -0.02300 33.74200
H  8.80700 1.25000 34.86100
Mg 56.18300 24.74700 44.62400
C  53.88900 26.93600 43.23500
C  54.69400 22.15600 43.01000
C  59.09500 22.91900 45.07300
C  57.98400 27.72700 45.68300
N  54.58800 24.57600 43.07100
C  53.80900 25.64600 42.67800
C  52.70100 25.17200 41.72000
C  52.83100 23.58700 41.89600
C  54.09400 23.38900 42.69000
C  51.56000 22.76000 42.35100
C  53.09100 25.62200 40.19700
C  51.93500 26.06500 39.19100
H  51.72500 25.21800 37.94500
N  56.68400 22.76600 44.31500
C  55.86600 21.77100 43.76400
C  56.55100 20.55000 43.83300
C  57.79600 20.69100 44.46600
C  57.93600 22.20700 44.62500
C  55.88700 19.28800 43.35100
C  58.79900 19.58900 44.91700
O  58.64600 18.43800 44.60100
C  59.80800 19.86700 45.91000
N  58.16400 25.21400 45.41700
C  59.22000 24.25600 45.45700
C  60.41200 24.90900 46.15300
C  60.09600 26.45700 46.06400
C  58.65700 26.45000 45.78100
C  60.77700 24.41000 47.57800
C  60.88500 27.32700 44.98900
C  61.41100 28.69400 45.42800
N  55.93700 26.85700 44.72100
C  56.69100 27.90500 45.16600
C  55.95500 29.14000 45.10600
C  54.81500 28.78900 44.37500
C  54.90700 27.42500 44.11500
C  56.28500 30.50900 45.70700
C  53.51100 29.22100 43.91600
O  52.94000 30.28500 43.97700
C  52.83000 28.02400 43.09600
C  52.77800 28.69600 41.76800
O  53.74800 29.07600 41.17400
O  51.48700 28.85700 41.46000
C  51.11600 29.36500 40.14000
H  54.26100 21.29700 42.49200
H  60.03300 22.42300 45.33100
H  58.48600 28.61800 46.06600
H  51.69200 25.50800 41.95900
H  52.87000 23.14800 40.89900
H  51.58400 21.78400 41.86800
H  50.60600 23.28100 42.27200
H  51.71500 22.50300 43.39800
H  53.56800 24.82100 39.63300
H  53.90300 26.34800 40.15600
H  52.23700 27.04900 38.83300
H  51.00600 26.21100 39.74200
H  56.33000 18.77800 42.49500
H  54.87200 19.46400 42.99500
H  55.79600 18.58400 44.17800
H  60.72700 20.13600 45.38900
H  60.00600 18.99900 46.54000
H  59.45100 20.63100 46.60100
H  61.30300 24.85000 45.52800
H  60.28800 27.05100 46.95700
H  60.46200 25.08000 48.37800
H  61.84200 24.19300 47.50000
H  60.29100 23.44000 47.68600
H  60.25300 27.45700 44.11000
H  61.81100 26.85400 44.66000
H  62.49800 28.75400 45.37500
H  61.28100 28.86700 46.49700
H  60.99900 29.50900 44.83200
H  56.78400 31.12100 44.95600
H  56.95300 30.46400 46.56600
H  55.49300 31.19700 46.00500
H  51.90000 27.65400 43.52700
H  50.51000 30.23600 40.39000
H  50.53700 28.62400 39.58900
H  51.89600 29.71600 39.46400

