158

Mg 34.83800 2.91500 30.04000
C  32.56300 4.22000 32.53900
C  37.35000 3.29200 32.24400
C  36.82000 2.11100 27.56000
C  32.14700 3.13700 27.88800
N  34.91800 3.74300 32.14800
C  33.88100 4.00100 32.98900
C  34.35400 4.12800 34.44900
C  35.91300 4.10500 34.28100
C  36.06300 3.69100 32.81400
C  36.57800 5.42100 34.59600
C  33.85900 2.93700 35.32600
C  33.74400 3.05700 36.84000
H  34.40700 4.29900 37.31800
N  36.84400 2.71800 29.88200
C  37.70300 2.90700 30.91800
C  39.08100 2.61200 30.44000
C  38.92500 2.18800 29.08100
C  37.49100 2.28100 28.77900
C  40.17300 2.75800 31.29000
C  39.98600 1.58600 28.05900
O  39.78200 1.41900 26.84800
C  41.29900 1.01300 28.58800
N  34.59900 3.00100 27.98300
C  35.50100 2.37000 27.14900
C  34.97100 2.32600 25.69600
C  33.44100 2.33100 25.97600
C  33.42500 2.88200 27.36300
C  35.40800 3.43600 24.75400
C  32.60500 1.04000 25.73400
C  31.47900 1.19300 24.64700
N  32.75800 3.48200 30.16600
C  31.79100 3.44900 29.19400
C  30.48900 3.89700 29.78900
C  30.80500 4.13400 31.09100
C  32.19200 4.00200 31.22000
C  29.21800 4.07600 29.03000
C  30.17500 4.61100 32.25500
O  29.05300 4.96500 32.55700
C  31.33700 4.67700 33.27200
C  31.44800 5.99900 33.90600
O  32.19900 6.89200 33.52900
O  30.72300 6.03500 35.11100
C  30.91100 7.23100 35.96900
H  38.20200 3.44800 32.90900
H  37.40100 1.97700 26.64500
H  31.23400 3.15000 27.28900
H  34.10000 5.12400 34.81400
H  36.39800 3.32600 34.87000
H  36.89400 5.36900 35.63800
H  35.91300 6.26100 34.39300
H  37.42800 5.65900 33.95700
H  34.53700 2.10100 35.15600
H  32.89500 2.62200 34.92700
H  34.29000 2.23100 37.29600
H  32.71400 3.01100 37.19200
H  40.28400 3.80700 31.56300
H  41.10700 2.43400 30.82900
H  39.95600 2.14200 32.16200
H  41.34300 0.49000 29.54300
H  41.83700 1.93700 28.80400
H  41.89800 0.41100 27.90400
H  35.11900 1.32700 25.28500
H  32.90600 3.15400 25.50100
H  35.94500 4.16700 25.35800
H  34.61000 3.95900 24.22800
H  36.08300 3.08000 23.97500
H  32.06300 0.80600 26.65000
H  33.22500 0.23500 25.33900
H  31.43800 2.20500 24.24600
H  30.47300 1.02400 25.03100
H  31.77900 0.60100 23.78200
H  28.43700 3.37100 29.31300
H  29.40400 4.08100 27.95600
H  28.82200 5.05900 29.28300
H  31.11000 4.01300 34.10600
H  31.77500 7.04100 36.60600
H  30.07300 7.33600 36.65800
H  30.98400 8.16100 35.40500
Mg 48.26900 35.03900 26.72200
C  46.40000 34.00700 29.48600
C  49.08100 37.95500 28.49300
C  49.68600 36.06600 23.83700
C  46.90900 32.32100 24.95300
N  47.94500 35.80600 28.85100
C  47.11400 35.21300 29.80500
C  47.27300 35.97700 31.16400
C  47.88200 37.37200 30.65900
C  48.36900 37.05300 29.27700
C  46.85100 38.53500 30.61000
C  48.38600 35.16400 32.00700
C  48.10500 34.71400 33.40300
H  47.15200 35.59600 34.16500
N  49.28600 36.73300 26.24800
C  49.50200 37.84700 27.12200
C  50.43000 38.64700 26.49200
C  50.86200 37.96000 25.29700
C  49.90600 36.85800 25.07200
C  50.97600 39.96400 27.18600
C  51.99800 38.30500 24.23800
O  52.16700 37.58500 23.25700
C  52.88400 39.46500 24.41700
N  48.27700 34.40000 24.70300
C  48.86000 34.96200 23.57800
C  48.87100 34.13900 22.34400
C  48.15000 32.87800 22.83000
C  47.76800 33.20900 24.26800
C  48.38500 34.72300 21.05900
C  48.97500 31.56800 22.71600
C  48.44100 30.36100 21.90800
N  47.04100 33.39900 27.12500
C  46.53000 32.39700 26.24700
C  45.54200 31.63000 26.95700
C  45.47100 32.23500 28.23500
C  46.46200 33.26000 28.31500
C  45.04100 30.33300 26.53900
C  44.79500 32.13200 29.47600
O  43.90200 31.34400 29.85100
C  45.31800 33.29000 30.35100
C  45.83000 32.78400 31.58700
O  46.84800 32.17000 31.68500
O  44.99600 33.13600 32.54700
C  45.02100 32.38400 33.79800
H  49.17700 38.91000 29.01300
H  50.36200 36.05100 22.98000
H  46.55500 31.42100 24.44600
H  46.31200 36.15100 31.64800
H  48.74900 37.66900 31.24900
H  45.85200 38.12000 30.74200
H  46.85400 38.99200 29.62000
H  46.95500 39.35800 31.31800
H  49.30500 35.74900 31.97900
H  48.56300 34.25500 31.43100
H  49.01900 34.73500 33.99600
H  47.76100 33.68100 33.44800
H  50.59500 40.20600 28.17800
H  50.54000 40.71200 26.52400
H  52.06600 39.98400 27.20400
H  52.33700 40.40500 24.34800
H  53.76500 39.44700 23.77600
H  53.32300 39.35700 25.40900
H  49.93400 33.95600 22.18500
H  47.18100 32.72100 22.35600
H  47.64700 33.99900 20.71300
H  49.16100 34.64400 20.29700
H  47.96500 35.72200 21.17600
H  49.18200 31.01100 23.63000
H  49.97200 31.84200 22.37100
H  49.29400 29.90200 21.40900
H  47.64700 30.62200 21.20800
H  48.12800 29.48900 22.48100
H  44.67300 30.36000 25.51400
H  44.11300 30.11200 27.06700
H  45.70100 29.46800 26.60800
H  44.63100 34.09300 30.61700
H  44.39000 31.49600 33.82200
H  44.54100 32.91300 34.62200
H  46.01700 32.05400 34.09000

