158

Mg 7.93200 3.06000 27.95800
C  9.25900 1.65800 30.89600
C  6.35400 5.32100 29.81000
C  6.29800 4.15300 25.17100
C  9.44500 0.55300 26.12400
N  7.71700 3.22900 30.14500
C  8.47400 2.77300 31.17500
C  8.39500 3.55700 32.43000
C  7.24000 4.51200 32.06600
C  7.12000 4.39200 30.54000
C  5.83600 4.25200 32.82000
C  9.76500 4.26700 32.62300
C  10.53100 3.96500 33.94100
H  10.13500 4.88800 35.10300
N  6.50800 4.51000 27.55400
C  5.99700 5.34900 28.48800
C  5.16800 6.36200 27.79800
C  5.11700 5.97700 26.44400
C  6.03200 4.83600 26.35900
C  4.64600 7.60200 28.47500
C  4.43300 6.67800 25.33300
O  4.38500 6.21400 24.22500
C  3.77100 8.07400 25.61400
N  7.87600 2.41900 25.97300
C  7.20000 3.06600 24.96100
C  7.40100 2.48500 23.59500
C  8.42700 1.29500 23.94100
C  8.59800 1.44200 25.48900
C  6.13900 2.13400 22.81800
C  9.76200 1.38500 23.24700
C  10.18400 0.09400 22.58700
N  9.23900 1.48000 28.39600
C  9.74200 0.51700 27.51600
C  10.56600 -0.41700 28.30100
C  10.42900 0.04600 29.61200
C  9.55500 1.11700 29.65400
C  11.31500 -1.58900 27.94200
C  10.88500 -0.16200 30.98900
O  11.68100 -0.92200 31.45500
C  10.03900 0.82600 31.85500
C  9.20300 0.04000 32.87200
O  8.35400 -0.78400 32.55300
O  9.54700 0.28100 34.24200
C  9.04600 -0.52500 35.35900
H  5.99400 6.19900 30.35000
H  5.77600 4.47300 24.26700
H  9.95800 -0.25500 25.59800
H  8.07900 2.83400 33.18200
H  7.52800 5.51300 32.38500
H  5.05900 4.02200 32.09100
H  5.54700 5.14300 33.37700
H  5.93600 3.32900 33.39200
H  9.63900 5.34100 32.76000
H  10.48100 4.14700 31.80900
H  11.60300 4.06100 33.76900
H  10.31400 2.92400 34.18000
H  5.00600 8.51600 28.00300
H  4.93700 7.64800 29.52400
H  3.56100 7.71300 28.45600
H  3.01500 7.89700 26.37900
H  3.22000 8.39900 24.73200
H  4.62400 8.70000 25.87800
H  7.87600 3.23800 22.96700
H  7.90900 0.38100 23.65000
H  5.23100 2.32700 23.39000
H  6.10600 1.10300 22.46600
H  6.15600 2.68500 21.87800
H  10.49700 1.81900 23.92700
H  9.64100 2.11600 22.44800
H  9.38900 -0.58200 22.27000
H  10.85300 -0.49100 23.21700
H  10.67800 0.27200 21.63200
H  11.11200 -1.77500 26.88700
H  10.90800 -2.30500 28.65600
H  12.36800 -1.42700 28.17300
H  10.85900 1.33400 32.36300
H  9.82600 -0.86900 36.03900
H  8.45700 -1.38100 35.02900
H  8.32900 0.01700 35.97500
Mg -5.62100 25.71800 25.99400
C  -3.85100 26.83300 28.88400
C  -7.39600 23.71000 27.82300
C  -6.47400 24.16500 23.11500
C  -3.40100 27.78700 24.08700
N  -5.67000 25.34600 28.12800
C  -4.87900 25.87500 29.10000
C  -5.41000 25.51700 30.43000
C  -6.44700 24.30100 30.10400
C  -6.61200 24.53300 28.64000
C  -5.93500 22.87300 30.42400
C  -6.14400 26.78900 31.01800
C  -5.78200 27.11900 32.38300
H  -5.24400 26.03600 33.33400
N  -6.83000 24.25800 25.52900
C  -7.48300 23.50400 26.45300
C  -8.23600 22.40800 25.86600
C  -7.97600 22.48900 24.49900
C  -7.08000 23.67200 24.31900
C  -9.21200 21.51800 26.59200
C  -8.42800 21.58400 23.37100
O  -8.14500 21.83500 22.23700
C  -9.40000 20.35200 23.59200
N  -5.15500 26.07200 23.85200
C  -5.63900 25.29700 22.84200
C  -5.06100 25.69800 21.44300
C  -4.14000 26.91300 21.78400
C  -4.23100 26.93900 23.33100
C  -4.39900 24.46900 20.80700
C  -4.54400 28.30500 21.17000
C  -3.35800 29.25000 20.74400
N  -3.95000 27.01700 26.28000
C  -3.25000 27.84400 25.43900
C  -2.22400 28.51600 26.23100
C  -2.44100 28.06500 27.53500
C  -3.53800 27.23400 27.52600
C  -1.03100 29.36200 25.82100
C  -1.90800 28.20900 28.90500
O  -0.89400 28.88400 29.27500
C  -2.95600 27.52000 29.87900
C  -2.05600 26.60700 30.58000
O  -1.53000 25.59600 30.08300
O  -1.78200 27.23000 31.79100
C  -0.77500 26.40800 32.42900
H  -8.07800 23.28400 28.56200
H  -6.69000 23.58900 22.21400
H  -2.68000 28.41300 23.55800
H  -4.67300 25.00200 31.04700
H  -7.36300 24.35100 30.69300
H  -5.13600 22.80000 31.16200
H  -5.71700 22.33000 29.50400
H  -6.75900 22.25000 30.77200
H  -7.21000 26.58300 30.92200
H  -6.00200 27.66500 30.38600
H  -6.68000 27.41000 32.92700
H  -4.97500 27.83200 32.21000
H  -10.19000 21.57500 26.11400
H  -9.30300 21.83800 27.63000
H  -8.90900 20.47500 26.68200
H  -9.00000 19.77400 24.42500
H  -9.37900 19.79900 22.65300
H  -10.38300 20.71800 23.88900
H  -6.00100 25.98600 20.97200
H  -3.07700 26.77500 21.58500
H  -5.08700 24.16900 20.01600
H  -4.27600 23.63100 21.49300
H  -3.38500 24.66600 20.45800
H  -5.09100 28.75800 21.99700
H  -5.36900 28.15400 20.47400
H  -2.35900 29.04500 21.12900
H  -3.36800 30.28900 21.07600
H  -3.24500 29.29000 19.66100
H  -0.63100 28.92200 24.90700
H  -0.23100 29.37900 26.56100
H  -1.40100 30.33900 25.51200
H  -3.36400 28.16500 30.65700
H  0.19800 26.59800 31.97700
H  -1.08700 25.36800 32.53200
H  -0.71800 26.63300 33.49400

