158

Mg 1.29400 -1.77000 43.47100
C  4.67300 -1.17400 42.82600
C  0.55400 1.11900 41.81800
C  -1.93100 -2.67000 43.57500
C  2.13800 -4.74000 45.07000
N  2.48400 -0.29600 42.37200
C  3.84100 -0.21700 42.27300
C  4.32000 0.97100 41.41700
C  2.96700 1.78800 41.27700
C  1.88700 0.81300 41.91900
C  2.95600 3.13500 42.04800
C  4.92300 0.36300 40.04500
C  6.00900 1.13900 39.51900
H  6.02500 1.71000 38.11500
N  -0.47500 -0.86500 42.73700
C  -0.57700 0.38200 42.15700
C  -1.95600 0.63000 41.85200
C  -2.67000 -0.42900 42.43000
C  -1.67800 -1.40200 43.00800
C  -2.39800 1.88900 41.08400
C  -4.15900 -0.50300 42.40600
O  -4.89100 0.33700 41.83700
C  -4.86400 -1.65500 43.07200
N  0.33700 -3.45200 44.17900
C  -1.01300 -3.62100 44.04000
C  -1.43600 -5.00200 44.59300
C  -0.12100 -5.68200 44.97300
C  0.84600 -4.51200 44.79100
C  -2.47500 -4.87100 45.73800
C  0.26500 -6.91000 44.15000
C  0.32500 -8.18800 45.01300
N  3.04200 -2.85700 43.85000
C  3.26800 -3.96600 44.58300
C  4.69700 -4.20600 44.65900
C  5.33400 -3.06600 44.09200
C  4.30500 -2.35400 43.51300
C  5.25600 -5.41700 45.43100
C  6.60800 -2.40400 43.80100
O  7.83700 -2.63000 44.07100
C  6.17500 -1.15000 42.85200
C  6.83000 0.14100 43.23000
O  7.59900 0.79600 42.51000
O  6.54000 0.55900 44.53700
C  6.99800 1.95700 44.88700
H  0.39600 2.12300 41.41900
H  -2.88200 -3.20200 43.50500
H  2.48200 -5.65100 45.56500
H  5.07000 1.62600 41.85800
H  2.59300 1.84800 40.25500
H  2.33500 3.06700 42.94100
H  2.59600 3.97700 41.45700
H  3.98200 3.29600 42.37800
H  4.18300 0.57300 39.27300
H  5.13600 -0.70200 39.94900
H  6.84600 0.44100 39.52800
H  6.25100 1.98400 40.16300
H  -1.65400 2.66200 40.89400
H  -3.05100 2.43900 41.76200
H  -2.82900 1.58300 40.13000
H  -4.36000 -1.71100 44.03700
H  -4.77100 -2.58600 42.51200
H  -5.92100 -1.42500 43.20600
H  -1.91500 -5.56200 43.79000
H  -0.12300 -5.93500 46.03300
H  -2.62500 -3.82200 45.99700
H  -2.24200 -5.53300 46.57200
H  -3.45300 -5.16800 45.35700
H  1.16500 -6.78500 43.54700
H  -0.53300 -7.09500 43.43100
H  0.02100 -8.99400 44.34400
H  -0.30100 -8.07200 45.89700
H  1.30600 -8.32400 45.46900
H  5.97800 -5.02000 46.14500
H  5.78800 -6.10600 44.77500
H  4.62000 -5.90900 46.16700
H  6.42300 -1.38100 41.81600
H  6.48600 2.66900 44.23900
H  8.07800 2.04600 44.77700
H  6.73500 2.18800 45.91900
Mg 1.50600 41.75000 25.49300
C  3.68500 42.07000 28.18600
C  -0.84500 40.58500 27.60400
C  -0.19400 40.55900 22.83500
C  4.28900 42.34100 23.28000
N  1.41500 41.57100 27.67400
C  2.37900 41.86200 28.59900
C  1.75300 41.83300 29.96300
C  0.41000 41.09300 29.81100
C  0.28200 41.09000 28.26800
C  0.35300 39.72300 30.46900
C  1.63400 43.32300 30.62000
C  1.33700 43.54200 32.11700
H  1.22200 42.28500 33.01800
N  -0.26300 40.74800 25.29000
C  -1.12800 40.37500 26.22500
C  -2.18300 39.58400 25.70300
C  -1.93500 39.37700 24.31000
C  -0.80800 40.25800 24.06500
C  -3.25500 39.06600 26.63800
C  -2.74200 38.53000 23.30700
O  -2.42600 38.47100 22.13400
C  -3.92600 37.87000 23.79000
N  1.93400 41.64900 23.31800
C  0.97500 41.20100 22.49200
C  1.47800 41.38800 20.98000
C  2.93700 42.01500 21.11700
C  3.10200 41.96800 22.69000
C  1.38800 40.12800 20.10000
C  3.25900 43.36700 20.40400
C  2.45500 44.53700 20.98700
N  3.57800 42.22700 25.59000
C  4.53800 42.38200 24.68700
C  5.83500 42.55300 25.26800
C  5.55000 42.42800 26.70300
C  4.13600 42.19900 26.83000
C  7.12500 42.79100 24.63700
C  6.10100 42.37900 28.02300
O  7.28700 42.33600 28.41300
C  4.91200 42.39500 29.07500
C  5.19200 41.28700 29.94100
O  5.63200 40.19800 29.63600
O  4.92800 41.68300 31.23900
C  5.06100 40.67800 32.25100
H  -1.51200 40.16100 28.35800
H  -0.81000 40.17100 22.02100
H  5.15800 42.65500 22.69900
H  2.54600 41.31800 30.50500
H  -0.44200 41.62600 30.23300
H  -0.23700 39.91600 31.36500
H  1.35700 39.44300 30.79000
H  -0.20800 38.90100 30.02700
H  0.93500 43.87700 29.99200
H  2.62100 43.77100 30.50300
H  0.45100 44.15800 32.27500
H  2.06400 44.28400 32.44800
H  -3.10900 37.99700 26.79300
H  -4.23700 39.28000 26.21400
H  -3.28600 39.54700 27.61600
H  -4.42100 37.35500 22.96600
H  -4.52700 38.68200 24.19900
H  -3.68800 37.16700 24.58800
H  0.85300 42.18100 20.57000
H  3.63800 41.31100 20.66900
H  1.00700 39.37200 20.78700
H  2.36900 39.91900 19.67300
H  0.74000 40.43500 19.28000
H  3.25400 43.19600 19.32700
H  4.32900 43.43000 20.60400
H  1.66000 44.86000 20.31500
H  3.07700 45.40100 21.22000
H  2.04500 44.24000 21.95200
H  7.31900 41.88800 24.05800
H  7.90400 42.97800 25.37700
H  7.13100 43.67100 23.99400
H  4.79900 43.35300 29.58200
H  4.66800 39.70100 31.97000
H  4.71300 40.96300 33.24300
H  6.11700 40.42900 32.35900

