158

Mg 44.58300 4.71400 46.94700
C  42.64400 7.49900 46.25400
C  42.05100 2.73700 46.10100
C  46.70800 2.12800 47.32700
C  47.41800 6.86000 47.20700
N  42.66400 5.11300 46.09800
C  42.10000 6.31900 45.85900
C  40.69800 6.11400 45.17000
C  40.36300 4.61700 45.48800
C  41.78200 4.08600 45.89900
C  39.25800 4.47500 46.58300
C  40.81500 6.46800 43.65200
C  39.92300 7.55600 43.13600
H  40.47600 8.40900 42.10200
N  44.42000 2.66300 46.74000
C  43.22600 2.05700 46.52700
C  43.42300 0.60500 46.58400
C  44.81300 0.43600 46.91700
C  45.39800 1.76200 47.01500
C  42.42000 -0.36500 46.20000
C  45.41800 -1.00500 47.13700
O  44.68500 -1.98700 47.03300
C  46.78800 -1.41600 47.37500
N  46.78700 4.54300 47.30300
C  47.35900 3.32300 47.50900
C  48.91200 3.43500 47.64000
C  49.09200 4.99500 47.69800
C  47.66600 5.47900 47.38400
C  49.44200 2.72300 48.93100
C  50.25100 5.54600 46.90100
C  51.30100 6.29800 47.74700
N  44.97300 6.76800 46.86200
C  46.12500 7.49300 47.05600
C  45.80200 8.88400 47.05300
C  44.39100 8.96400 46.79600
C  44.00000 7.66100 46.60400
C  46.81200 9.94300 47.20200
C  43.33200 9.83300 46.76600
O  43.28200 11.04100 46.86400
C  42.06500 8.91600 46.41600
C  41.07300 9.02000 47.58200
O  41.31300 8.53200 48.71200
O  39.91700 9.74600 47.14800
C  38.98400 10.11700 48.27100
H  41.17500 2.11400 45.90900
H  47.33900 1.24000 47.40300
H  48.26500 7.53900 47.32200
H  39.95700 6.71600 45.69600
H  39.94200 4.20500 44.57100
H  39.46500 3.53700 47.09900
H  38.25400 4.39100 46.16600
H  39.17000 5.27800 47.31400
H  40.71400 5.54500 43.08100
H  41.87900 6.63500 43.48600
H  39.65700 8.29000 43.89700
H  38.97600 7.13900 42.79500
H  42.70100 -0.70600 45.20400
H  41.39400 -0.01000 46.29000
H  42.40400 -1.20200 46.89800
H  46.98700 -2.30700 46.78000
H  46.96200 -1.55600 48.44200
H  47.63200 -0.78700 47.09200
H  49.59200 3.10700 46.85400
H  49.26100 5.33400 48.72000
H  50.29500 3.27700 49.32300
H  49.87100 1.75300 48.67900
H  48.66200 2.52900 49.66800
H  49.86500 6.16600 46.09200
H  50.73000 4.72800 46.36300
H  52.21800 5.71000 47.70300
H  50.97500 6.55300 48.75500
H  51.44000 7.29400 47.32500
H  47.53300 9.75800 46.40600
H  47.23600 9.91500 48.20600
H  46.37200 10.89400 46.90100
H  41.52900 9.32500 45.55900
H  39.10600 9.59700 49.22100
H  38.02600 9.72300 47.93200
H  38.86500 11.18400 48.45700
Mg -11.64300 17.02000 42.89800
C  -8.56600 15.60900 42.48400
C  -10.55500 19.98900 41.40700
C  -14.75400 18.12300 42.86900
C  -12.90500 13.65000 43.39400
N  -9.77900 17.71200 42.06500
C  -8.64800 16.96500 42.05200
C  -7.51600 17.69300 41.31600
C  -8.09600 19.16600 41.23300
C  -9.54900 18.95500 41.62200
C  -7.39700 20.30100 42.02700
C  -7.16100 16.98000 39.94100
C  -5.58500 16.65900 39.82500
H  -5.09200 15.70100 38.71900
N  -12.55000 18.83000 42.13800
C  -11.95500 19.88300 41.56400
C  -12.93600 20.85600 41.26200
C  -14.18500 20.45300 41.81000
C  -13.85600 19.08600 42.31600
C  -12.64000 22.16000 40.58300
C  -15.49700 21.26100 41.79700
O  -15.62600 22.42700 41.40000
C  -16.61200 20.66500 42.54500
N  -13.62400 15.96500 42.83000
C  -14.68000 16.75000 43.13900
C  -15.92300 15.84000 43.58800
C  -15.34100 14.39800 43.41100
C  -13.83200 14.62200 43.18000
C  -16.44200 16.04900 45.01300
C  -15.83300 13.51800 42.18200
C  -16.02100 12.03400 42.46300
N  -10.93900 14.99500 43.07900
C  -11.51200 13.81800 43.38100
C  -10.53500 12.76900 43.55400
C  -9.32600 13.48700 43.24000
C  -9.62400 14.79500 42.95100
C  -10.74200 11.36600 43.93300
C  -7.91300 13.30200 43.02800
O  -7.21600 12.33400 43.22600
C  -7.39400 14.64000 42.43500
C  -6.29800 15.06000 43.35500
O  -6.39300 15.53300 44.45000
O  -5.08500 14.80400 42.72000
C  -3.83500 15.25100 43.42300
H  -10.07700 20.91800 41.09000
H  -15.81500 18.35200 42.99200
H  -13.26500 12.66100 43.68600
H  -6.69200 17.69600 42.03100
H  -8.15300 19.35200 40.16000
H  -7.13600 21.01000 41.24200
H  -6.51200 19.91600 42.53300
H  -8.03300 20.83000 42.73600
H  -7.44000 17.62100 39.10400
H  -7.76400 16.07600 39.85300
H  -5.15200 16.33000 40.77000
H  -5.14700 17.64400 39.66600
H  -12.01000 21.87400 39.74100
H  -12.01000 22.75800 41.24200
H  -13.49500 22.71600 40.19900
H  -17.32700 21.46000 42.75300
H  -16.22600 20.24400 43.47400
H  -17.11500 19.90900 41.94200
H  -16.68800 16.11300 42.86100
H  -15.40900 13.76900 44.29800
H  -16.45500 15.16800 45.65500
H  -17.42500 16.51100 45.09600
H  -15.76200 16.82500 45.36400
H  -15.15000 13.53700 41.33200
H  -16.71000 14.06900 41.84200
H  -15.46800 11.81000 43.37400
H  -15.63300 11.32300 41.73300
H  -17.04800 11.71800 42.64400
H  -9.84700 10.77300 43.74400
H  -11.58400 10.96600 43.36700
H  -10.94700 11.30200 45.00200
H  -7.01800 14.55900 41.41600
H  -3.40000 14.28400 43.67600
H  -3.94100 15.72400 44.39900
H  -3.04900 15.73000 42.83900

