158

Mg -2.38400 16.85800 26.56800
C  -2.86000 14.44200 29.09400
C  -3.12800 19.33700 28.99000
C  -2.28200 19.25200 24.06500
C  -2.42600 14.40300 24.22500
N  -3.00700 16.89200 28.81300
C  -2.92800 15.76000 29.62900
C  -3.05100 16.17600 31.12000
C  -3.35900 17.75200 30.98100
C  -3.15400 18.00400 29.51500
C  -4.72500 18.25000 31.45300
C  -1.80800 15.67600 31.97800
C  -1.11700 16.66600 32.97900
H  -0.74400 15.97500 34.38300
N  -2.66100 18.99100 26.51800
C  -2.88300 19.80300 27.62100
C  -2.97800 21.12900 27.16800
C  -2.68600 21.18000 25.74200
C  -2.44700 19.77100 25.38200
C  -3.27600 22.23400 28.11600
C  -2.55900 22.30900 24.76800
O  -2.36900 22.10100 23.55700
C  -2.71400 23.65800 25.30200
N  -2.38900 16.89200 24.51800
C  -2.27100 17.93700 23.62900
C  -2.49100 17.53600 22.14200
C  -2.29700 15.97000 22.24600
C  -2.38200 15.69600 23.79000
C  -3.86700 17.85900 21.42700
C  -0.88800 15.48700 21.75500
C  -0.88400 14.70400 20.47000
N  -2.57500 14.74900 26.65000
C  -2.57000 13.89700 25.56400
C  -2.52800 12.53100 26.08600
C  -2.63700 12.68500 27.51000
C  -2.72000 14.07000 27.75400
C  -2.47900 11.27800 25.22700
C  -2.76300 12.02200 28.70900
O  -2.68200 10.82800 28.98400
C  -2.93900 13.10600 29.83000
C  -1.83200 12.89800 30.72800
O  -0.72000 13.27400 30.63100
O  -2.38600 12.16100 31.79600
C  -1.38700 11.88300 32.85000
H  -3.25700 20.12100 29.73900
H  -2.23400 19.96200 23.23700
H  -2.33200 13.63100 23.45800
H  -3.88200 15.70000 31.64000
H  -2.56300 18.29400 31.49100
H  -5.62800 17.91800 30.94100
H  -4.76200 19.33900 31.47400
H  -4.81000 17.95600 32.49900
H  -1.05400 15.50000 31.21000
H  -2.11400 14.71000 32.38000
H  -1.92400 17.36600 33.19700
H  -0.21600 17.20500 32.68700
H  -2.34500 22.78300 28.25400
H  -3.70200 22.02400 29.09800
H  -4.09800 22.80000 27.67800
H  -3.79000 23.74700 25.44700
H  -2.30900 24.28300 24.50600
H  -2.13700 23.66600 26.22600
H  -1.68500 18.08600 21.65600
H  -3.09100 15.40900 21.75300
H  -4.45800 16.94500 21.36600
H  -3.75000 18.09100 20.36800
H  -4.42400 18.65000 21.92900
H  -0.44100 14.90000 22.55700
H  -0.29400 16.37900 21.55200
H  -0.13100 15.11700 19.79800
H  -1.85600 14.64000 19.98200
H  -0.42800 13.75100 20.73800
H  -2.28900 11.60100 24.20300
H  -3.47600 10.84800 25.12400
H  -1.89600 10.46500 25.65900
H  -3.89400 13.11100 30.35400
H  -0.85300 10.98200 32.54800
H  -1.93500 11.70600 33.77600
H  -0.76700 12.71100 33.19200
Mg 49.23200 44.58200 42.47400
C  45.86200 44.78600 41.64500
C  49.02300 41.21400 41.81800
C  52.65100 44.33500 42.75600
C  49.38800 48.03000 42.99200
N  47.71100 43.28400 41.56500
C  46.47900 43.58400 41.27400
C  45.72600 42.38800 40.82700
C  46.52900 41.24800 41.45400
C  47.87800 41.92000 41.59700
C  45.98400 40.85300 42.89600
C  45.54200 42.34300 39.31400
C  44.10900 42.71700 38.76700
H  44.17600 43.79000 37.68100
N  50.64500 42.99700 42.44700
C  50.33200 41.69300 42.16300
C  51.49700 40.91300 42.10900
C  52.64500 41.72900 42.47600
C  52.04900 43.09600 42.58700
C  51.57900 39.43900 41.75900
C  54.04600 41.32600 42.70300
O  54.34700 40.14200 42.88500
C  55.11800 42.26000 42.83400
N  50.79500 46.02000 42.54400
C  52.10200 45.66100 42.75800
C  53.04600 46.91100 42.89200
C  51.93200 48.01700 42.89800
C  50.60200 47.30300 42.88500
C  53.91400 47.06700 44.15900
C  52.14500 49.11800 41.77800
C  51.67900 50.52700 42.05200
N  47.99300 46.16000 42.38500
C  48.10300 47.46700 42.69800
C  46.83700 48.08800 42.57800
C  45.92500 47.04800 42.14500
C  46.67100 45.88300 42.06400
C  46.47600 49.50400 42.75200
C  44.56000 46.77500 41.96300
O  43.62500 47.60200 42.01700
C  44.48600 45.34600 41.60500
C  43.62200 44.61500 42.51900
O  42.42000 44.57200 42.35100
O  44.26400 44.08200 43.63600
C  43.33200 43.61000 44.72600
H  48.83700 40.14500 41.70000
H  53.73800 44.43700 42.75900
H  49.39300 49.08100 43.28700
H  44.72200 42.48100 41.24100
H  46.60500 40.45700 40.70800
H  45.05600 41.37000 43.14100
H  46.70200 41.12200 43.67100
H  45.89000 39.77000 42.82400
H  45.70600 41.37400 38.84100
H  46.27900 43.03200 38.90200
H  43.43600 43.07500 39.54600
H  43.69500 41.86300 38.23000
H  52.23400 39.28200 40.90300
H  50.56400 39.06200 41.63600
H  52.03100 38.92600 42.60800
H  55.20900 42.85300 41.92400
H  56.02700 41.65900 42.85800
H  55.04700 42.80300 43.77700
H  53.54800 46.85300 41.92600
H  51.91900 48.62700 43.80100
H  53.76600 46.26600 44.88300
H  53.62400 48.01800 44.60500
H  54.96400 47.05100 43.86800
H  51.79200 48.70100 40.83500
H  53.23000 49.20800 41.73700
H  51.69700 50.93100 43.06500
H  50.63600 50.59800 41.74400
H  52.24300 51.24200 41.45400
H  47.11500 50.05900 42.06600
H  46.79700 49.86000 43.73100
H  45.42700 49.65600 42.49600
H  44.00700 45.28700 40.62800
H  43.94400 43.41200 45.60600
H  42.88400 42.70000 44.32700
H  42.56200 44.33800 44.97900

