158

Mg 24.31700 -5.50500 45.94000
C  26.60700 -3.24700 44.48700
C  21.99100 -4.15200 43.85500
C  22.69000 -8.28800 46.21900
C  27.17300 -7.09500 47.43100
N  24.34400 -4.01200 44.32900
C  25.30600 -3.10700 44.00600
C  24.79500 -2.04100 43.03100
C  23.32600 -2.08600 43.30100
C  23.19400 -3.52600 43.81500
C  22.79800 -1.07800 44.22900
C  25.17000 -2.34900 41.59300
C  25.05000 -1.23400 40.58000
H  25.10300 -1.45900 39.08800
N  22.56300 -6.14600 45.19300
C  21.70300 -5.41300 44.44200
C  20.38300 -6.04600 44.44600
C  20.55500 -7.30700 45.06600
C  21.98600 -7.35400 45.57700
C  19.15100 -5.35700 44.10000
C  19.53200 -8.31200 45.30500
O  18.39800 -8.17200 44.78300
C  19.69400 -9.57200 46.23300
N  24.72400 -7.30900 46.96500
C  23.90800 -8.35900 46.83400
C  24.45100 -9.65500 47.34300
C  25.83100 -9.24500 47.88600
C  25.95400 -7.77700 47.53400
C  23.44800 -10.32700 48.33100
C  27.04000 -10.12100 47.35300
C  28.24300 -10.27700 48.30200
N  26.42700 -5.12100 46.14800
C  27.38300 -5.81600 46.77500
C  28.66800 -5.13000 46.70600
C  28.44100 -4.06100 45.81100
C  27.05900 -4.16400 45.51400
C  29.97900 -5.61900 47.29900
C  29.04400 -3.01100 44.96700
O  30.17300 -2.58600 44.78300
C  27.86000 -2.45500 44.12500
C  27.81000 -0.96800 44.31400
O  27.38700 -0.48700 45.35400
O  27.95400 -0.29300 43.14800
C  27.47100 1.10400 43.14800
H  21.05200 -3.77900 43.44100
H  22.17500 -9.25200 46.21800
H  28.00200 -7.66700 47.85200
H  25.09100 -0.99600 43.12400
H  22.75400 -1.93100 42.38600
H  23.56500 -0.50100 44.74600
H  22.14700 -1.45200 45.01900
H  22.11200 -0.45400 43.65700
H  24.43400 -3.06300 41.22500
H  26.19500 -2.70900 41.50200
H  25.83600 -0.50600 40.77900
H  24.09300 -0.74700 40.76700
H  18.25700 -5.67500 44.63600
H  19.09800 -5.44500 43.01500
H  19.17600 -4.30000 44.36300
H  18.66900 -9.92600 46.34800
H  20.13400 -9.18400 47.15200
H  20.40400 -10.33100 45.90700
H  24.50600 -10.40600 46.55600
H  25.77300 -9.31100 48.97200
H  22.91100 -11.15400 47.86700
H  22.68400 -9.62300 48.66000
H  24.06800 -10.83600 49.06900
H  27.39800 -9.65000 46.43700
H  26.51300 -11.05400 47.15200
H  28.41700 -11.33000 48.52200
H  28.12900 -9.69500 49.21700
H  29.07100 -9.85200 47.73600
H  30.68600 -4.79600 47.40700
H  30.47600 -6.33500 46.64500
H  29.70000 -6.00100 48.28100
H  28.14800 -2.65300 43.09300
H  28.11000 1.44200 42.33200
H  27.66900 1.70700 44.03400
H  26.43300 1.19300 42.82600
Mg 26.69500 50.86400 25.92200
C  24.65000 51.94200 28.66200
C  28.92100 49.60200 28.19600
C  28.74700 50.14300 23.43300
C  24.65100 52.67200 23.77600
N  26.67800 50.75200 28.20300
C  25.80500 51.24600 29.11500
C  26.22700 50.91500 30.51300
C  27.66100 50.27800 30.28300
C  27.83200 50.27800 28.78400
C  28.76600 51.10400 31.03100
C  25.23100 50.05300 31.25100
C  24.53900 50.83700 32.48400
H  24.55100 50.12200 33.85200
N  28.54800 49.93700 25.82200
C  29.22300 49.40300 26.85500
C  30.36100 48.64000 26.37200
C  30.39700 48.89300 24.99800
C  29.21900 49.69000 24.65400
C  31.22900 47.77700 27.24700
C  31.32500 48.31200 24.01300
O  31.21100 48.56400 22.85900
C  32.41400 47.35100 24.42400
N  26.70800 51.33400 23.88800
C  27.63200 50.91000 23.05200
C  27.25000 51.20400 21.62100
C  25.78500 51.84700 21.74500
C  25.71500 51.94300 23.20600
C  28.24600 52.14200 20.81400
C  24.58800 51.07800 21.12600
C  23.99300 51.60600 19.84500
N  24.88900 51.95000 26.08400
C  24.25400 52.69900 25.16300
C  23.14100 53.46100 25.79000
C  23.23500 53.13200 27.19200
C  24.24600 52.10500 27.25600
C  22.16700 54.41200 25.05300
C  22.65500 53.43900 28.48800
O  21.70900 54.10800 28.79600
C  23.56900 52.65600 29.48900
C  24.06600 53.70800 30.47300
O  25.07800 54.29800 30.29800
O  23.30300 53.79300 31.60400
C  23.85400 54.62900 32.75000
H  29.54700 49.09600 28.93300
H  29.44500 49.95700 22.61500
H  24.00400 53.23300 23.09900
H  26.32700 51.84700 31.07000
H  27.72200 49.31300 30.78500
H  28.36600 52.07400 31.32600
H  29.61300 51.34500 30.38900
H  29.18300 50.53000 31.85900
H  25.59000 49.05700 31.51000
H  24.42400 49.87500 30.54100
H  23.50000 50.98400 32.19000
H  24.97600 51.81800 32.66900
H  31.32800 46.76500 26.85500
H  30.92000 47.57400 28.27300
H  32.24000 48.18600 27.23400
H  32.92000 47.76900 25.29500
H  33.11300 47.06700 23.63800
H  32.07800 46.36800 24.75200
H  27.13300 50.26200 21.08500
H  25.87300 52.84400 21.31300
H  29.17200 52.16200 21.38800
H  27.89100 53.17100 20.76900
H  28.40300 51.67400 19.84200
H  23.78700 51.03000 21.86400
H  24.77700 50.01500 20.98300
H  22.96700 51.90100 20.06300
H  24.08500 50.94500 18.98300
H  24.46600 52.47900 19.39500
H  22.67500 54.76900 24.15700
H  21.82600 55.14000 25.78900
H  21.31300 53.86800 24.65000
H  23.01000 52.00100 30.15800
H  22.97100 54.68300 33.38700
H  24.07600 55.64500 32.42500
H  24.62500 54.06500 33.27600

