158

Mg -2.59100 16.63400 26.88800
C  -3.11600 14.34500 29.61000
C  -3.04500 19.20100 29.12000
C  -2.58800 18.74200 24.36200
C  -2.77700 13.94900 24.63900
N  -3.04300 16.75000 29.11600
C  -3.25100 15.71000 30.01800
C  -3.52500 16.28500 31.48000
C  -3.40900 17.86100 31.30100
C  -3.20800 17.93800 29.75300
C  -4.54200 18.74900 31.91200
C  -2.54500 15.65500 32.55100
C  -2.14600 16.46000 33.77200
H  -2.03200 15.94300 35.20200
N  -2.74300 18.66700 26.72500
C  -2.83300 19.56400 27.76000
C  -2.68000 20.87500 27.31600
C  -2.49800 20.79200 25.94800
C  -2.61100 19.32100 25.60500
C  -2.60800 22.09000 28.29800
C  -2.25900 21.85600 24.94200
O  -2.00600 21.66000 23.74300
C  -2.11300 23.28200 25.40900
N  -2.88400 16.40200 24.78900
C  -2.61700 17.38200 23.93300
C  -2.56000 16.88100 22.47800
C  -2.60200 15.34300 22.61800
C  -2.79500 15.21400 24.13100
C  -3.63400 17.40500 21.47800
C  -1.31500 14.62100 22.11600
C  -0.08300 14.75100 23.08800
N  -2.84600 14.62100 27.06800
C  -2.95700 13.65400 26.05500
C  -2.91100 12.34200 26.69000
C  -2.95700 12.58000 28.05200
C  -2.96200 13.95900 28.22700
C  -2.97100 10.99500 25.98400
C  -3.15000 11.93600 29.34700
O  -3.14000 10.79800 29.68800
C  -3.22600 13.12500 30.38900
C  -2.06800 12.93500 31.31300
O  -0.94400 13.20500 31.10800
O  -2.62100 12.39500 32.45700
C  -1.63700 12.09200 33.51800
H  -3.00100 19.96000 29.90500
H  -2.24900 19.42100 23.57600
H  -2.63900 13.15500 23.90300
H  -4.52900 15.89100 31.63600
H  -2.43900 18.14800 31.70800
H  -5.17400 18.16200 32.57800
H  -5.12500 19.14200 31.07900
H  -4.06100 19.56800 32.44600
H  -1.63600 15.39000 32.01100
H  -3.09700 14.80200 32.94600
H  -2.65000 17.42600 33.74500
H  -1.09100 16.66700 33.59200
H  -3.32800 22.82900 27.94700
H  -1.55300 22.28700 28.10700
H  -2.84300 21.96600 29.35500
H  -3.08000 23.56600 25.82300
H  -1.87900 23.90600 24.54600
H  -1.39100 23.26900 26.22500
H  -1.54600 17.07100 22.12500
H  -3.42000 14.82300 22.12200
H  -4.32800 18.14900 21.87000
H  -4.30300 16.63200 21.10000
H  -2.96600 17.78900 20.70700
H  -1.20800 14.95700 21.08400
H  -1.53200 13.55500 22.05800
H  -0.42200 15.16500 24.03800
H  0.61400 15.39900 22.55700
H  0.48600 13.83200 23.23100
H  -2.70200 11.10300 24.93300
H  -3.91500 10.45500 25.90800
H  -2.19300 10.37600 26.43000
H  -4.18500 13.20100 30.90000
H  -1.85700 11.09200 33.89100
H  -1.82100 12.67200 34.42300
H  -0.56100 12.17700 33.37000
Mg 23.99900 -5.13900 45.30900
C  25.86200 -2.55600 43.71100
C  21.24800 -4.30000 43.64300
C  22.58500 -8.20800 46.19800
C  27.05300 -6.25500 46.67000
N  23.70100 -3.75400 43.67700
C  24.47300 -2.74000 43.24500
C  23.77400 -1.88200 42.17400
C  22.27600 -2.24000 42.48800
C  22.37200 -3.44600 43.40200
C  21.46200 -1.13500 43.23000
C  24.26300 -2.15600 40.73700
C  24.64600 -1.03200 39.85800
H  24.09200 -1.15900 38.41900
N  22.04900 -6.02800 45.12900
C  21.11100 -5.50300 44.39500
C  19.94900 -6.41300 44.47200
C  20.27600 -7.52900 45.26000
C  21.70800 -7.31200 45.60700
C  18.66600 -6.12900 43.60600
C  19.37300 -8.72500 45.60100
O  18.21600 -8.68000 45.25400
C  19.87000 -9.82800 46.34700
N  24.70500 -6.94600 46.32600
C  23.93800 -8.02900 46.58100
C  24.76000 -9.24500 47.11700
C  26.08500 -8.51800 47.53600
C  25.97300 -7.12400 46.73900
C  24.18700 -10.01900 48.30400
C  27.41300 -9.31400 47.17000
C  28.44200 -9.48400 48.29800
N  26.02700 -4.41500 45.41400
C  27.14400 -5.03100 45.96600
C  28.25500 -4.14300 45.76600
C  27.75400 -3.18000 44.88600
C  26.41900 -3.40100 44.66500
C  29.66800 -4.19400 46.34600
C  28.16700 -2.10500 44.08900
O  29.30100 -1.64900 43.96700
C  26.89200 -1.60800 43.17200
C  26.56700 -0.27600 43.65200
O  26.00300 0.02000 44.69300
O  27.10900 0.61700 42.69600
C  26.85000 2.03700 42.99900
H  20.32500 -3.89300 43.22500
H  22.25800 -9.24000 46.33900
H  27.99300 -6.54400 47.14600
H  23.86700 -0.81000 42.35000
H  21.68800 -2.40600 41.58500
H  22.23000 -0.48700 43.65200
H  20.75300 -1.51900 43.96400
H  20.90100 -0.50800 42.53800
H  23.46100 -2.64100 40.18200
H  25.12100 -2.81700 40.86300
H  25.72800 -0.98700 39.98000
H  24.25600 -0.11000 40.29100
H  18.79700 -6.74400 42.71600
H  18.62000 -5.09000 43.28100
H  17.72500 -6.39600 44.08800
H  20.52800 -10.25900 45.59200
H  18.99500 -10.44300 46.55700
H  20.27800 -9.43700 47.27900
H  24.99400 -9.96100 46.33000
H  26.08000 -8.30700 48.60500
H  24.69300 -9.79300 49.24200
H  24.39200 -11.06300 48.06600
H  23.13800 -9.85200 48.55000
H  27.97700 -8.88400 46.34200
H  27.10200 -10.32600 46.91300
H  28.16000 -10.17000 49.09700
H  28.87700 -8.54400 48.63600
H  29.28200 -10.01500 47.85100
H  30.33200 -3.59400 45.72400
H  29.95300 -5.23400 46.50000
H  29.52900 -3.69100 47.30300
H  27.14600 -1.69200 42.11500
H  27.36000 2.51800 42.16500
H  27.35400 2.25700 43.94100
H  25.77500 2.21500 42.98700

