158

Mg 47.98200 15.35600 28.79200
C  46.00200 15.17100 31.59400
C  50.23500 17.24600 30.72400
C  50.03300 15.60600 26.07000
C  45.50500 14.27300 26.77800
N  48.18800 16.07600 31.04200
C  47.23400 15.79300 31.95700
C  47.66600 16.26600 33.31700
C  48.93800 17.17900 33.01700
C  49.20700 16.77500 31.53800
C  48.54200 18.68900 33.16400
C  48.07900 15.02100 34.17900
C  48.38300 15.24900 35.65700
H  48.23100 16.66300 36.40900
N  49.89600 16.17400 28.45400
C  50.61000 16.93700 29.36500
C  51.92400 17.27200 28.80100
C  51.86200 16.72800 27.45700
C  50.54900 16.08500 27.26200
C  53.08700 17.97300 29.56800
C  52.97300 16.78400 26.45400
O  52.80500 16.27200 25.33900
C  54.35000 17.40600 26.68400
N  47.80400 15.02800 26.71300
C  48.75300 15.20900 25.73200
C  48.30500 14.75300 24.33600
C  46.82000 14.26800 24.65400
C  46.66300 14.55400 26.12300
C  48.47000 15.87000 23.35200
C  46.54200 12.84500 24.27000
C  47.37800 11.69800 24.88000
N  46.18300 14.76200 29.08600
C  45.29600 14.14400 28.16600
C  44.14900 13.71400 28.92100
C  44.36700 14.12300 30.26600
C  45.61000 14.77400 30.29300
C  42.93800 13.03200 28.39300
C  43.83800 14.20700 31.60500
O  42.79000 13.77200 31.94200
C  44.90900 14.91400 32.49900
C  44.30400 16.01500 33.30400
O  43.70100 16.96400 32.84400
O  44.45500 15.78400 34.64700
C  43.84800 16.78000 35.53200
H  50.99500 17.84200 31.23300
H  50.66000 15.75200 25.18900
H  44.67800 13.97000 26.13300
H  46.84100 16.79700 33.79100
H  49.78500 16.99500 33.67700
H  47.60500 18.81900 33.70600
H  48.37300 19.23100 32.23300
H  49.38400 19.27900 33.52600
H  49.02300 14.64600 33.78400
H  47.25900 14.30400 34.22500
H  49.45200 15.04300 35.71700
H  48.05200 14.37500 36.21900
H  53.90900 17.26400 29.65600
H  52.82100 18.42800 30.52200
H  53.47900 18.83400 29.02700
H  54.84400 16.97900 27.55700
H  54.21600 18.47600 26.84000
H  54.98100 17.25200 25.80900
H  48.90000 13.87500 24.08300
H  46.07800 14.89400 24.15800
H  49.52000 16.11900 23.19800
H  47.94700 16.69400 23.83700
H  47.99400 15.68100 22.39000
H  46.79200 12.72600 23.21500
H  45.49400 12.54500 24.29100
H  48.05900 11.23600 24.16500
H  46.75900 10.83200 25.11500
H  47.86000 12.02900 25.80000
H  43.18100 12.03500 28.02500
H  42.53900 13.50600 27.49700
H  42.15800 13.03900 29.15500
H  45.23800 14.15800 33.21200
H  44.28100 17.77400 35.42200
H  44.06200 16.41300 36.53600
H  42.77100 16.86100 35.38100
Mg 50.40600 45.13100 41.52600
C  47.11800 45.71500 40.36000
C  50.03400 41.81700 40.62500
C  53.72100 44.69800 41.96900
C  50.80100 48.62000 42.02600
N  48.73300 43.93600 40.62400
C  47.42800 44.35200 40.38800
C  46.53800 43.18400 39.89000
C  47.44600 41.93400 40.15600
C  48.82400 42.57600 40.51400
C  46.78300 41.04200 41.29200
C  46.09600 43.29000 38.40600
C  44.57400 43.11500 38.12800
H  43.94400 43.82300 36.96900
N  51.77100 43.47900 41.14300
C  51.38400 42.20000 40.85400
C  52.61900 41.38500 40.87100
C  53.71400 42.27700 41.21900
C  53.06800 43.54500 41.51900
C  52.67900 39.97200 40.49100
C  55.22900 41.92600 41.27200
O  55.55200 40.75400 41.12300
C  56.32800 42.83500 41.57700
N  52.02500 46.52200 41.85600
C  53.29100 46.03100 42.11800
C  54.20600 47.18000 42.51600
C  53.34700 48.48500 42.42800
C  51.95400 47.83300 42.09600
C  54.93500 47.14500 43.89500
C  53.84200 49.53900 41.44400
C  54.21000 50.94100 41.96200
N  49.21100 46.83700 41.50100
C  49.56400 48.15400 41.57800
C  48.40800 48.99800 41.29200
C  47.43400 48.03600 40.81500
C  47.97900 46.76400 40.93100
C  48.27000 50.48400 41.46500
C  46.10300 47.95100 40.31700
O  45.31600 48.87400 40.06400
C  45.81100 46.38800 40.15100
C  44.70000 46.02300 41.05600
O  44.80200 45.65800 42.24700
O  43.49300 46.08300 40.40700
C  42.25800 45.82900 41.22900
H  50.03900 40.76100 40.34400
H  54.76900 44.52800 42.22500
H  50.85200 49.71100 42.04100
H  45.65300 43.13800 40.52400
H  47.52500 41.31800 39.26100
H  47.11800 40.01400 41.15500
H  45.71100 41.11900 41.11000
H  47.04200 41.43400 42.27500
H  46.56100 42.45100 37.88800
H  46.44400 44.26200 38.05700
H  44.06100 43.37000 39.05600
H  44.39400 42.04700 38.00300
H  53.48400 39.91600 39.75800
H  51.74400 39.49000 40.20700
H  52.99100 39.40400 41.36700
H  56.26200 42.81600 42.66500
H  56.20200 43.80600 41.09700
H  57.33400 42.54200 41.27500
H  54.90000 47.15600 41.67500
H  53.24100 48.91500 43.42400
H  55.96000 47.49700 44.00300
H  54.84900 46.11400 44.23800
H  54.48800 47.83000 44.61500
H  53.13300 49.43600 40.62300
H  54.78500 49.17100 41.04100
H  53.44100 51.70100 41.82500
H  55.18600 51.30600 41.64100
H  54.27000 50.86300 43.04700
H  47.26100 50.89500 41.43800
H  48.84300 51.05300 40.73300
H  48.63400 50.62300 42.48300
H  45.50600 46.16300 39.12900
H  42.34600 44.87800 41.75500
H  41.50800 45.82000 40.43900
H  41.97200 46.58100 41.96500

