158

Mg -1.75600 17.52600 26.31600
C  -2.25100 15.41800 29.09700
C  -1.87600 20.22100 28.61300
C  -1.75700 19.63000 23.84200
C  -2.30300 14.84700 24.29800
N  -1.86400 17.80700 28.64200
C  -1.94500 16.77300 29.52600
C  -2.19300 17.34500 30.97400
C  -2.28200 18.83400 30.75800
C  -2.03100 18.98700 29.23800
C  -3.50600 19.60000 31.31000
C  -1.08100 16.91400 32.06600
C  -0.92700 17.78200 33.33400
H  -0.90200 17.00700 34.66500
N  -1.62500 19.62800 26.30000
C  -1.62400 20.53300 27.28600
C  -1.23900 21.82900 26.71900
C  -1.10900 21.66500 25.34600
C  -1.53200 20.25300 25.09100
C  -1.30400 23.09200 27.58300
C  -0.71800 22.72500 24.26600
O  -0.53500 22.38800 23.08500
C  -0.43200 24.08800 24.71200
N  -2.21800 17.29700 24.31900
C  -2.16200 18.33000 23.46400
C  -2.44700 17.82300 22.02300
C  -2.13700 16.26700 22.17800
C  -2.23600 16.06600 23.67400
C  -3.87100 18.10900 21.55000
C  -0.79600 15.77300 21.43600
C  0.52000 15.69800 22.24100
N  -2.00500 15.58000 26.61600
C  -2.23300 14.58600 25.68700
C  -2.34700 13.30000 26.24900
C  -2.42900 13.58700 27.67000
C  -2.21900 14.99100 27.77200
C  -2.46500 11.99800 25.60200
C  -2.60600 13.03400 28.97300
O  -2.80300 11.86700 29.37100
C  -2.50000 14.21400 29.93700
C  -1.43300 13.88800 30.90100
O  -0.23600 14.09800 30.65600
O  -1.99100 13.32300 31.99100
C  -0.92000 13.05400 32.97800
H  -1.90600 21.05300 29.31900
H  -1.73400 20.34000 23.01200
H  -2.35900 14.00800 23.60100
H  -3.12900 17.04200 31.44200
H  -1.41600 19.37400 31.14000
H  -4.03100 20.06100 30.47300
H  -3.18100 20.37800 32.00100
H  -4.14200 18.95600 31.91800
H  -0.11200 16.68300 31.62500
H  -1.21500 15.87000 32.34800
H  -1.69100 18.55900 33.29500
H  -0.00700 18.36200 33.25900
H  -0.30300 23.51300 27.49600
H  -1.35100 22.92200 28.65900
H  -2.01900 23.79200 27.15200
H  0.39800 24.14100 25.41700
H  -1.29800 24.59500 25.13500
H  -0.04300 24.64500 23.85900
H  -1.86000 18.28700 21.23100
H  -3.02500 15.72800 21.84700
H  -4.47800 17.20400 21.49900
H  -3.83100 18.55900 20.55800
H  -4.46700 18.77800 22.17000
H  -0.55200 16.47600 20.63900
H  -0.90900 14.83000 20.90100
H  0.47600 16.01200 23.28400
H  1.14100 16.49000 21.82400
H  1.00000 14.72000 22.24600
H  -1.57800 11.86900 24.98300
H  -3.36500 12.14500 25.00500
H  -2.70800 11.21200 26.31800
H  -3.51500 14.37700 30.29800
H  -1.49600 12.69200 33.82900
H  -0.37200 13.97600 33.17300
H  -0.13500 12.37600 32.64100
Mg -0.71800 33.79000 25.87300
C  -2.67200 32.42000 28.31000
C  0.46000 36.19200 28.29900
C  0.78900 35.50600 23.41300
C  -2.34700 31.79600 23.50400
N  -1.07200 34.24000 28.08600
C  -1.91100 33.41900 28.85300
C  -1.72800 33.92900 30.33100
C  -0.93700 35.29300 30.27100
C  -0.48300 35.25900 28.79200
C  -1.77300 36.58800 30.56800
C  -1.23700 32.92600 31.32700
C  -1.86000 33.05300 32.74700
H  -0.87500 32.93800 33.92800
N  0.39100 35.50000 25.88200
C  0.81100 36.30900 26.90000
C  1.66300 37.37100 26.41700
C  1.76300 37.20000 25.02200
C  0.94700 36.02800 24.67400
C  2.24600 38.35700 27.35700
C  2.59900 38.01100 24.01300
O  2.43900 37.95200 22.79700
C  3.69100 38.91600 24.51300
N  -0.73000 33.60300 23.71200
C  -0.04800 34.41600 22.92300
C  -0.18500 34.06600 21.43000
C  -1.03100 32.81800 21.50400
C  -1.36500 32.66600 22.96900
C  -0.65100 35.27300 20.53100
C  -0.26400 31.56900 20.96900
C  0.49100 30.55300 21.86800
N  -2.16000 32.34700 25.84700
C  -2.75300 31.62900 24.80700
C  -3.81200 30.75200 25.43200
C  -3.71200 31.03800 26.78300
C  -2.74700 32.02000 26.96100
C  -4.58400 29.64500 24.79500
C  -4.37000 30.66300 27.99300
O  -5.27000 29.87700 28.19400
C  -3.67500 31.47600 29.06000
C  -4.60400 32.14800 29.90700
O  -5.18500 33.13400 29.55100
O  -4.96000 31.43500 31.05600
C  -5.85600 32.02600 32.05000
H  0.89100 36.88000 29.02900
H  1.29900 36.10700 22.65900
H  -2.91400 31.19100 22.79400
H  -2.74300 34.29100 30.49700
H  -0.03500 35.26200 30.88200
H  -2.60500 36.28900 31.20500
H  -2.16000 36.95300 29.61700
H  -1.19400 37.42400 30.96200
H  -0.16100 33.07300 31.42300
H  -1.28700 31.90300 30.95400
H  -2.55200 32.21300 32.80100
H  -2.46700 33.95700 32.78500
H  2.96200 37.85100 28.00500
H  1.45900 38.59800 28.07100
H  2.69500 39.22500 26.87400
H  4.19500 38.39300 25.32600
H  3.43500 39.89300 24.92200
H  4.40200 39.07700 23.70200
H  0.86400 33.89800 21.18500
H  -1.93000 32.87800 20.89100
H  -1.57300 35.01400 20.00900
H  0.17700 35.55400 19.88000
H  -0.95800 36.08200 21.19300
H  0.41000 31.82500 20.15100
H  -0.94800 30.84200 20.53200
H  1.46900 30.27500 21.47400
H  -0.04100 29.60200 21.90900
H  0.70500 30.92900 22.86900
H  -4.61000 29.93000 23.74400
H  -5.61200 29.60000 25.15700
H  -4.12000 28.66200 24.88300
H  -3.10700 30.88300 29.77600
H  -5.22700 32.61100 32.72100
H  -6.24300 31.18400 32.62300
H  -6.76500 32.51900 31.70500

