158

Mg 49.39000 45.01700 43.50400
C  45.88300 45.33700 42.73000
C  49.28800 41.76800 42.74800
C  52.66200 45.27400 43.24800
C  49.24400 48.71300 43.84800
N  47.76600 43.77500 42.80900
C  46.44100 44.05400 42.61400
C  45.66100 42.73000 42.44600
C  46.73600 41.62100 42.85500
C  48.05900 42.38600 42.76400
C  46.65900 40.86100 44.15500
C  45.03300 42.47900 41.03900
C  45.69600 43.14700 39.83500
H  45.62700 42.55800 38.39900
N  50.83800 43.69600 43.00300
C  50.61300 42.35800 42.87200
C  51.90600 41.70400 42.79700
C  52.90400 42.69500 42.80300
C  52.12900 43.99700 43.04400
C  52.10000 40.23300 42.65000
C  54.36900 42.51400 42.67200
O  54.83000 41.39600 42.60700
C  55.40800 43.66900 42.62300
N  50.77200 46.76400 43.39200
C  52.07700 46.53300 43.35400
C  52.87600 47.84800 43.58700
C  51.80100 48.96300 43.68400
C  50.49500 48.12900 43.64900
C  53.92600 47.80700 44.73300
C  51.83100 50.03600 42.51700
C  52.02500 51.50500 42.86800
N  47.86400 46.67000 43.58100
C  48.01700 48.08000 43.75500
C  46.73500 48.65400 43.70500
C  45.85500 47.67000 43.30100
C  46.64400 46.48300 43.17000
C  46.43700 50.11400 43.92500
C  44.51000 47.38000 42.87000
O  43.58600 48.14100 42.86900
C  44.48800 45.88600 42.36600
C  43.46100 45.09800 43.04600
O  42.72800 44.28200 42.50600
O  43.43100 45.47300 44.37200
C  42.26900 45.02700 45.13200
H  49.29800 40.67800 42.80700
H  53.75100 45.32200 43.31800
H  49.29200 49.78700 44.04000
H  44.98400 42.69200 43.29900
H  46.77800 40.93900 42.00500
H  46.54800 39.81900 43.85700
H  45.76200 41.10600 44.72200
H  47.50900 41.02700 44.81700
H  44.00700 42.84700 41.01500
H  45.00600 41.41000 40.82500
H  46.74600 43.34500 40.04700
H  45.12800 44.07100 39.72600
H  52.69100 39.86900 43.49000
H  52.58400 40.16500 41.67500
H  51.12700 39.74500 42.69800
H  55.22100 44.27900 41.73900
H  56.36800 43.17000 42.49000
H  55.42300 44.18300 43.58400
H  53.37000 48.01200 42.62900
H  51.75000 49.50100 44.63000
H  54.95800 47.83600 44.38100
H  53.95300 46.85400 45.26200
H  53.73000 48.57100 45.48500
H  50.89100 49.98000 41.96600
H  52.70500 49.89400 41.88100
H  51.20900 52.01800 42.36000
H  52.98900 51.90300 42.55300
H  51.98500 51.59100 43.95400
H  45.37700 50.34000 44.04200
H  46.95200 50.80600 43.26000
H  46.92000 50.44100 44.84600
H  44.25800 45.93300 41.30200
H  42.59700 45.04100 46.17200
H  42.07300 43.99900 44.82700
H  41.43400 45.72800 45.16800
Mg 37.12200 49.17100 24.98200
C  37.53700 47.27000 27.97200
C  35.81500 51.67000 26.89400
C  36.20500 50.74000 22.18500
C  38.29900 46.36800 23.20000
N  36.51700 49.33000 27.13000
C  36.95100 48.54200 28.18800
C  36.68200 49.15800 29.58500
C  36.04600 50.59600 29.15800
C  36.14000 50.51900 27.63100
C  34.61500 50.83500 29.64900
C  37.99500 49.41700 30.40400
C  37.87400 49.67400 31.95400
H  36.53600 49.63600 32.64400
N  36.13500 51.04700 24.56200
C  35.83000 51.95500 25.52500
C  35.29800 53.10300 24.83100
C  35.30600 52.83900 23.43000
C  35.89500 51.49000 23.33400
C  34.87000 54.35100 25.57600
C  34.87300 53.76600 22.24400
O  34.92900 53.38800 21.06900
C  34.51500 55.17900 22.43300
N  37.18300 48.65900 23.02600
C  36.74400 49.42600 22.01900
C  36.96900 48.84000 20.62300
C  37.69200 47.50100 20.97200
C  37.75300 47.49800 22.46200
C  35.70700 48.71600 19.75300
C  39.16800 47.41500 20.36900
C  40.11300 48.47200 20.89500
N  37.75300 47.20000 25.44000
C  38.22600 46.22300 24.58500
C  38.69800 45.10500 25.41000
C  38.32800 45.46200 26.70100
C  37.78000 46.74600 26.69700
C  39.24800 43.82100 25.01000
C  38.38000 45.03800 28.10600
O  38.73200 43.99000 28.61500
C  37.63000 46.14800 28.97300
C  36.24700 45.68300 29.35300
O  35.36300 45.26500 28.62600
O  36.15400 45.80400 30.71700
C  34.86500 45.46800 31.34700
H  35.40400 52.46200 27.52400
H  35.95400 51.27300 21.26500
H  38.83300 45.54200 22.72400
H  35.97600 48.58400 30.18500
H  36.73200 51.33300 29.57500
H  34.21300 49.99100 30.21000
H  34.05200 51.08100 28.74900
H  34.64700 51.76500 30.21700
H  38.58800 50.23000 29.98500
H  38.50300 48.47700 30.19200
H  38.27800 50.68000 32.06600
H  38.51100 48.93400 32.43900
H  35.63700 55.10400 25.39700
H  35.00100 54.20600 26.64800
H  33.87100 54.64800 25.25500
H  34.37900 55.67200 21.47100
H  35.35100 55.71600 22.88200
H  33.67200 55.07700 23.11600
H  37.71200 49.36400 20.02100
H  37.32600 46.51400 20.68900
H  35.21700 47.78800 20.05000
H  35.81600 48.64400 18.67100
H  34.97000 49.48200 19.99300
H  39.08100 47.52000 19.28800
H  39.61500 46.43500 20.54000
H  40.99600 48.02100 21.34800
H  39.72400 49.05300 21.73000
H  40.41000 49.17700 20.11800
H  39.40100 43.71100 23.93600
H  38.70500 42.91100 25.26800
H  40.23000 43.73100 25.47400
H  38.28000 46.43300 29.80000
H  34.99400 44.42400 31.63200
H  33.91800 45.49400 30.80700
H  34.81100 46.03900 32.27400

