158

Mg 16.05300 -3.16800 27.73300
C  15.04100 -1.07600 30.27100
C  17.91800 -4.99100 29.99800
C  17.48400 -4.95500 25.13600
C  14.64100 -1.09900 25.27600
N  16.48200 -2.88900 29.90900
C  15.96700 -1.98000 30.79600
C  16.52400 -2.07800 32.25300
C  17.59400 -3.30200 32.03200
C  17.34500 -3.74900 30.54700
C  19.14600 -2.93600 32.27400
C  15.43500 -2.45700 33.23000
C  15.43100 -1.61900 34.49100
H  16.78200 -0.92900 34.91600
N  17.38100 -4.77300 27.61600
C  18.00500 -5.41500 28.68200
C  18.78300 -6.54300 28.17100
C  18.71500 -6.46600 26.74900
C  17.86900 -5.33800 26.43500
C  19.53200 -7.49900 29.11800
C  19.30200 -7.43800 25.78400
O  19.11000 -7.42400 24.58400
C  20.32600 -8.55400 26.31000
N  16.03800 -3.04900 25.47500
C  16.69700 -3.86200 24.69200
C  16.34600 -3.72500 23.17500
C  15.19900 -2.57700 23.26600
C  15.25300 -2.23700 24.76200
C  17.55800 -3.34700 22.31000
C  13.77400 -3.14200 22.82200
C  13.38700 -2.78100 21.41700
N  14.95200 -1.54800 27.73100
C  14.44900 -0.83200 26.68300
C  13.69300 0.33200 27.26100
C  13.89000 0.28000 28.68500
C  14.69400 -0.84400 28.89800
C  12.80600 1.30600 26.48500
C  13.53300 0.89800 29.94200
O  12.82700 1.87500 30.21000
C  14.31000 0.08700 31.00700
C  15.20600 1.19900 31.52500
O  16.11400 1.66900 30.89100
O  14.77200 1.61500 32.71600
C  15.42900 2.81000 33.27500
H  18.57700 -5.46600 30.72800
H  17.85500 -5.57700 24.31900
H  14.08000 -0.42700 24.62400
H  16.99500 -1.11500 32.44900
H  17.26600 -4.15500 32.62500
H  19.56900 -3.59500 33.03200
H  19.33000 -1.90700 32.58200
H  19.71600 -3.07400 31.35500
H  15.43600 -3.53200 33.40700
H  14.50500 -2.15500 32.74800
H  15.08600 -2.20100 35.34600
H  14.71600 -0.80200 34.39300
H  19.38600 -8.52800 28.78800
H  19.27000 -7.36700 30.16700
H  20.60900 -7.33200 29.10600
H  20.81800 -8.94600 25.42000
H  19.83700 -9.41200 26.77100
H  21.16700 -8.14400 26.86900
H  15.85100 -4.64600 22.86800
H  15.49900 -1.78700 22.57800
H  18.36000 -3.99600 22.66000
H  17.96500 -2.35100 22.48400
H  17.30800 -3.60700 21.28100
H  13.10000 -2.67900 23.54200
H  13.65600 -4.22500 22.84800
H  13.75000 -3.62800 20.83500
H  13.85800 -1.83600 21.14800
H  12.29800 -2.75400 21.36500
H  12.46900 0.92000 25.52400
H  13.31700 2.24400 26.27000
H  11.93000 1.57600 27.07500
H  13.63400 -0.26700 31.78500
H  15.71700 3.58800 32.56700
H  16.28300 2.53400 33.89400
H  14.54800 3.02600 33.87900
Mg -0.16500 33.54300 26.97400
C  -1.99300 31.75000 29.51800
C  1.21000 35.38700 29.44600
C  1.31400 34.96000 24.60700
C  -2.05500 31.46300 24.61400
N  -0.30100 33.52600 29.28800
C  -1.03100 32.66700 30.05500
C  -0.92600 32.98200 31.57300
C  0.05300 34.22700 31.47500
C  0.31100 34.43500 29.96000
C  -0.35200 35.48900 32.22200
C  -0.35600 31.83800 32.43700
C  -1.26800 31.30800 33.58000
H  -0.65500 30.98600 34.97500
N  0.92800 35.08500 27.02700
C  1.49600 35.74700 28.07400
C  2.37100 36.83100 27.59400
C  2.37700 36.67500 26.20500
C  1.53900 35.49900 25.86800
C  3.07200 37.78900 28.45700
C  3.17100 37.47400 25.18500
O  3.09900 37.37000 24.01700
C  4.19400 38.45900 25.65900
N  -0.37500 33.30500 24.94000
C  0.50900 33.97700 24.17600
C  0.36700 33.67300 22.60100
C  -0.67100 32.47900 22.65500
C  -1.15300 32.42900 24.14000
C  0.00800 34.82200 21.68700
C  -0.17300 31.08700 22.31500
C  -1.00600 30.25500 21.38300
N  -1.58500 31.93600 27.00200
C  -2.26200 31.17700 25.95100
C  -3.17900 30.22600 26.54500
C  -3.07700 30.37200 27.94900
C  -2.19500 31.51200 28.12500
C  -4.12500 29.19400 25.86700
C  -3.65700 29.95800 29.23300
O  -4.51200 29.10000 29.48300
C  -2.91300 30.86900 30.31600
C  -3.83000 31.59900 31.18000
O  -4.12300 32.79900 30.95900
O  -4.33000 30.90300 32.29200
C  -5.34000 31.65200 33.07500
H  1.69400 35.86800 30.29800
H  1.78800 35.58100 23.84500
H  -2.52500 30.81400 23.87200
H  -1.86600 33.43200 31.89300
H  0.98900 33.84500 31.88200
H  0.57600 36.01400 32.45000
H  -0.94200 35.34100 33.12600
H  -0.94100 36.15400 31.59000
H  0.63300 32.02100 32.85600
H  -0.27400 30.98000 31.76900
H  -1.67400 30.32300 33.35000
H  -2.09200 31.99600 33.77400
H  2.64900 37.91600 29.45400
H  3.03800 38.82000 28.10300
H  4.12900 37.55300 28.58400
H  3.66800 39.32500 26.06100
H  4.80300 38.62600 24.77000
H  4.74000 38.09900 26.53100
H  1.33600 33.28100 22.29400
H  -1.55200 32.70400 22.05300
H  0.86800 34.83900 21.01700
H  -0.23700 35.70500 22.27600
H  -0.81800 34.74800 20.97900
H  -0.12300 30.46400 23.20800
H  0.83900 31.04800 21.91100
H  -0.24900 29.71900 20.81000
H  -1.73900 30.77400 20.76600
H  -1.48500 29.53200 22.04400
H  -3.41600 28.49900 25.41500
H  -4.78000 29.66800 25.13600
H  -4.54800 28.51900 26.61100
H  -2.27900 30.25100 30.95200
H  -5.89100 32.36600 32.46200
H  -4.96900 32.27900 33.88500
H  -6.00600 30.88600 33.47200

