158

Mg 30.35100 57.69000 40.49800
C  27.74400 55.80900 38.96200
C  32.64200 55.46400 39.04100
C  32.81800 59.80200 41.12000
C  27.84200 60.10900 41.22400
N  30.14900 55.90000 38.99400
C  28.94500 55.26900 38.65200
C  29.26700 53.76800 38.22800
C  30.87700 53.69600 38.21000
C  31.27300 55.10900 38.84100
C  31.54300 52.49400 39.01700
C  28.61100 53.42400 36.81600
C  28.55000 54.62400 35.79700
H  29.09900 54.36300 34.42200
N  32.50500 57.66200 40.22300
C  33.20200 56.59800 39.68200
C  34.59200 57.03700 39.65200
C  34.73800 58.33200 40.14600
C  33.38100 58.63000 40.51800
C  35.65800 56.11500 39.10700
C  35.98000 59.10600 40.32400
O  37.10200 58.62900 40.15900
C  35.85700 60.55900 40.66800
N  30.30500 59.74600 41.09900
C  31.55000 60.30000 41.39200
C  31.19300 61.76400 41.87700
C  29.71600 61.69300 42.27200
C  29.18600 60.49000 41.46800
C  32.01100 62.12000 43.12200
C  28.95100 62.96300 41.85500
C  28.42200 63.75900 43.00800
N  28.19300 57.91600 40.24200
C  27.32400 58.90500 40.73500
C  26.01900 58.40400 40.62100
C  26.12600 57.21500 39.93300
C  27.48000 56.96700 39.69000
C  24.74600 59.11300 41.13900
C  25.33300 56.22800 39.32600
O  24.06500 56.02800 39.27800
C  26.32400 55.17100 38.70300
C  26.15400 53.89800 39.42200
O  26.48400 53.63400 40.59200
O  25.60400 52.94000 38.62100
C  25.26200 51.67800 39.15700
H  33.30600 54.66300 38.71100
H  33.58300 60.51700 41.43000
H  27.16000 60.80700 41.71500
H  28.97000 53.08600 39.02400
H  31.19900 53.67700 37.16800
H  32.35600 52.81700 39.66800
H  31.86600 51.79700 38.24300
H  30.81200 51.99800 39.65600
H  27.57000 53.13100 36.95300
H  29.01200 52.48700 36.43100
H  29.04900 55.50000 36.20900
H  27.49500 54.89900 35.81400
H  35.88700 56.48600 38.10800
H  35.36500 55.07100 39.00100
H  36.63100 56.16200 39.59600
H  36.83300 60.98700 40.44300
H  35.57800 60.59600 41.72100
H  35.10100 61.08500 40.08600
H  31.47500 62.47800 41.10400
H  29.52500 61.54300 43.33400
H  32.52200 62.99700 42.72300
H  32.73200 61.37400 43.45300
H  31.44800 62.34500 44.02800
H  28.02700 62.81700 41.29400
H  29.56100 63.67500 41.29900
H  27.46900 64.28600 42.95900
H  29.07000 64.61900 43.17900
H  28.46300 63.35100 44.01700
H  24.11500 58.45600 41.73800
H  24.19700 59.61900 40.34500
H  25.07800 59.90400 41.81200
H  26.05800 54.99800 37.66000
H  25.95500 50.85200 38.99400
H  24.30300 51.35200 38.75200
H  25.07000 51.83900 40.21700
Mg 6.57200 54.24300 41.36800
C  5.89000 50.89100 40.60200
C  9.58100 53.89800 39.79500
C  6.68700 57.65500 41.33900
C  3.24100 54.50200 42.67600
N  7.59200 52.59600 40.29300
C  7.10400 51.35800 40.04200
C  8.19900 50.61300 39.25200
C  9.50500 51.37000 39.48500
C  8.87600 52.72300 39.93000
C  10.40400 50.86300 40.68500
C  7.79900 50.59900 37.73700
C  8.09300 49.25700 37.02700
H  7.36400 49.20100 35.68900
N  8.02400 55.61100 40.83600
C  9.20600 55.22200 40.18600
C  9.95600 56.47400 40.09900
C  9.04500 57.56200 40.36200
C  7.87100 56.95400 40.87000
C  11.40600 56.49000 39.55700
C  9.40700 59.03800 40.11700
O  10.54600 59.37200 39.78900
C  8.41000 60.10900 40.17200
N  5.12000 55.85400 42.12100
C  5.46900 57.12400 41.89400
C  4.34600 58.05500 42.26400
C  3.28400 57.10500 42.81200
C  3.84700 55.73100 42.46700
C  4.83600 59.13400 43.26900
C  1.87800 57.31900 42.27300
C  0.73700 56.97600 43.18300
N  4.93500 53.01300 41.57100
C  3.69700 53.23100 42.20200
C  3.02500 51.97500 42.43200
C  3.85900 51.02800 41.74800
C  4.97100 51.65800 41.27900
C  1.84900 51.72800 43.25600
C  4.05600 49.60100 41.47200
O  3.30700 48.68100 41.78400
C  5.37800 49.43300 40.52900
C  4.90900 48.93400 39.13600
O  4.25700 49.65100 38.36800
O  5.20800 47.58800 39.03800
C  4.55600 46.98500 37.86700
H  10.60900 53.84300 39.43000
H  6.53900 58.72600 41.18700
H  2.25500 54.49700 43.14600
H  8.34000 49.57200 39.54000
H  10.10400 51.38100 38.57500
H  10.12500 49.86800 41.03200
H  10.37000 51.40300 41.63100
H  11.42700 50.89200 40.31100
H  8.42400 51.31700 37.20700
H  6.76700 50.92000 37.60000
H  7.71500 48.57000 37.78400
H  9.14000 49.07400 36.78500
H  12.05500 57.14700 40.13700
H  11.58900 56.99800 38.61000
H  11.81500 55.48000 39.56900
H  8.88000 61.05500 39.90300
H  7.98800 60.23500 41.16900
H  7.53400 59.99300 39.53400
H  3.98100 58.60800 41.39800
H  3.33200 57.22100 43.89500
H  4.25800 59.21900 44.18900
H  4.70200 60.12100 42.82700
H  5.88600 59.14000 43.55900
H  1.60600 56.72800 41.39800
H  1.81900 58.36600 41.97400
H  1.05700 56.58700 44.15000
H  0.18600 56.16900 42.70000
H  0.00500 57.77200 43.04500
H  0.95500 52.20700 42.85700
H  2.01200 52.04000 44.28800
H  1.50600 50.69500 43.31500
H  6.10600 48.71100 40.89700
H  3.60800 47.44900 37.59400
H  4.49100 45.90600 38.01200
H  5.26900 47.19300 37.06900

