158

Mg 46.67700 44.59700 43.36200
C  43.05700 44.32600 43.21700
C  46.81500 41.30400 42.32200
C  49.80000 45.12600 42.81400
C  46.00400 48.18500 43.47900
N  45.07500 43.11900 42.74400
C  43.69600 43.14500 42.74800
C  43.02400 41.83900 42.25000
C  44.26700 40.92000 42.09900
C  45.49800 41.82300 42.45300
C  44.12000 39.56200 42.98000
C  42.00300 41.90900 41.07000
C  42.72800 42.39900 39.80300
H  42.64800 41.52200 38.58400
N  48.19500 43.33400 42.67600
C  48.09400 42.02600 42.39300
C  49.42800 41.51100 42.20500
C  50.33000 42.57200 42.35900
C  49.49800 43.76000 42.62600
C  49.84400 40.06200 41.86400
C  51.90500 42.55700 42.23500
O  52.47000 41.48900 42.02400
C  52.66800 43.79000 42.47300
N  47.67300 46.47300 42.82700
C  49.06800 46.31800 42.99000
C  49.74700 47.69500 43.30500
C  48.51200 48.63800 43.03900
C  47.29400 47.68900 43.23000
C  50.29800 47.71400 44.72500
C  48.47200 49.45200 41.68400
C  48.35900 50.98900 41.83100
N  44.93900 46.01300 43.44400
C  44.91500 47.40500 43.57000
C  43.55300 47.84700 43.78600
C  42.75600 46.65400 43.62100
C  43.68900 45.54300 43.47700
C  43.13900 49.24000 43.94800
C  41.39700 46.18100 43.59100
O  40.34300 46.74700 43.82100
C  41.60700 44.61600 43.33900
C  40.82800 43.89600 44.39600
O  39.70800 43.41000 44.16600
O  41.48800 43.79400 45.59200
C  40.74400 42.95400 46.55600
H  46.75000 40.24600 42.05800
H  50.86400 45.35900 42.72700
H  45.90200 49.27200 43.51200
H  42.38500 41.46600 43.05000
H  44.26400 40.67100 41.03800
H  44.89100 39.35900 43.72300
H  43.99800 38.68800 42.34100
H  43.23800 39.54600 43.62100
H  41.14000 42.51300 41.35100
H  41.58300 40.91100 40.94300
H  43.80500 42.52700 39.90400
H  42.25200 43.34700 39.55300
H  50.60400 40.19700 41.09400
H  48.95400 39.59100 41.44700
H  50.24300 39.46600 42.68500
H  52.50200 44.20700 43.46600
H  52.40800 44.42000 41.62200
H  53.69600 43.48100 42.28800
H  50.50900 47.84700 42.54100
H  48.38200 49.30500 43.89200
H  51.21000 48.30600 44.80200
H  50.53000 46.72300 45.11600
H  49.48400 48.02200 45.38300
H  47.57700 49.23000 41.10300
H  49.32400 49.14700 41.07600
H  47.62300 51.40800 41.14400
H  49.35700 51.32700 41.55400
H  48.14300 51.23800 42.87000
H  42.06200 49.37800 44.04200
H  43.51300 49.88700 43.15400
H  43.65400 49.56900 44.85100
H  41.08200 44.41500 42.40500
H  40.20500 43.70600 47.13100
H  41.54800 42.56100 47.17900
H  39.93000 42.28700 46.27100
Mg -10.52400 40.80900 42.55600
C  -9.19600 37.78900 41.46900
C  -8.26100 42.44000 40.61400
C  -12.26000 43.76400 42.96100
C  -13.31400 39.03400 43.72800
N  -8.93900 40.18400 41.18700
C  -8.55500 38.88800 40.90000
C  -7.43200 38.89500 39.93300
C  -6.94700 40.42300 39.90600
C  -8.07600 41.07800 40.65200
C  -5.47300 40.67700 40.41900
C  -7.79100 38.29000 38.52400
C  -6.96800 37.04000 38.18800
H  -5.78700 37.17000 37.19300
N  -10.15200 42.87600 42.09600
C  -9.11400 43.33500 41.33700
C  -9.16400 44.78700 41.24100
C  -10.39000 45.18000 41.97800
C  -10.99000 43.91200 42.37800
C  -8.19000 45.66900 40.57400
C  -10.88400 46.65100 42.02800
O  -10.23300 47.55800 41.60600
C  -12.11600 47.07400 42.64300
N  -12.47600 41.34200 43.45400
C  -12.97400 42.60500 43.39300
C  -14.39500 42.62000 43.86500
C  -14.76900 41.11600 44.21700
C  -13.44500 40.41900 43.75900
C  -14.73700 43.57300 45.02700
C  -16.00400 40.57900 43.46000
C  -17.03500 39.78100 44.35100
N  -11.05300 38.84900 42.86600
C  -12.19500 38.25300 43.34900
C  -12.07500 36.84300 43.24800
C  -10.85900 36.59800 42.62500
C  -10.30400 37.83500 42.35400
C  -13.01600 35.73600 43.75200
C  -10.06900 35.54600 41.98500
O  -10.27000 34.33100 41.95400
C  -8.85400 36.25200 41.28400
C  -7.60400 35.77000 42.04500
O  -7.19800 36.21000 43.12100
O  -6.85400 34.79000 41.36100
C  -5.50900 34.32800 41.85000
H  -7.49100 43.03600 40.12000
H  -12.91400 44.63800 42.96700
H  -14.20400 38.43900 43.94200
H  -6.64300 38.25000 40.32100
H  -6.92600 40.75600 38.86900
H  -5.12300 39.67400 40.66300
H  -5.42500 41.34800 41.27600
H  -4.83200 41.10900 39.65000
H  -7.58300 39.08300 37.80600
H  -8.83800 38.05600 38.33000
H  -7.61700 36.26100 37.78700
H  -6.40600 36.46700 38.92500
H  -8.58500 46.14900 39.67900
H  -7.30800 45.08000 40.32400
H  -7.92700 46.49200 41.24000
H  -12.06000 46.61400 43.62900
H  -13.01000 46.72200 42.13000
H  -12.35200 48.13200 42.75700
H  -14.92500 42.96600 42.97700
H  -14.92600 40.89400 45.27300
H  -13.85700 44.20500 45.14400
H  -14.94300 43.09200 45.98300
H  -15.60900 44.20800 44.87000
H  -15.67400 39.92200 42.65600
H  -16.50100 41.40500 42.95100
H  -16.65700 39.66500 45.36700
H  -17.08800 38.76500 43.96200
H  -18.00100 40.27700 44.26000
H  -12.84100 35.63800 44.82400
H  -12.78600 34.73900 43.37700
H  -14.06100 35.91100 43.49600
H  -8.74500 35.94000 40.24500
H  -5.49400 33.97700 42.88200
H  -4.76800 35.11900 41.73700
H  -5.28700 33.50600 41.16900

