158

Mg 23.97700 -5.60800 46.51900
C  25.99000 -3.16100 44.78000
C  21.41300 -4.84800 44.39100
C  22.69700 -8.46800 47.35200
C  27.12700 -6.67900 48.02300
N  23.63300 -3.95300 45.05400
C  24.60800 -3.20100 44.39200
C  23.96100 -2.33500 43.27500
C  22.44600 -2.82500 43.29200
C  22.47900 -3.96600 44.28000
C  21.41900 -1.68900 43.58900
C  24.58100 -2.61900 41.82300
C  25.01200 -1.43500 41.01500
H  24.82100 -1.42400 39.56600
N  22.21900 -6.48200 46.10200
C  21.29800 -5.99200 45.22400
C  20.19600 -6.83900 45.12500
C  20.48200 -7.93200 45.98500
C  21.80800 -7.63000 46.61400
C  18.93500 -6.55300 44.31500
C  19.42600 -8.97800 46.36300
O  18.30700 -9.02200 45.75500
C  19.65400 -9.96400 47.50900
N  24.81300 -7.32300 47.61100
C  23.99500 -8.33700 47.84700
C  24.69100 -9.44200 48.76800
C  26.05200 -8.72800 49.07300
C  26.03700 -7.51000 48.12700
C  23.87700 -9.90700 50.04800
C  27.31300 -9.64300 48.91000
C  28.28300 -9.88600 50.11200
N  26.10200 -4.95100 46.58800
C  27.21900 -5.50800 47.21200
C  28.43100 -4.82800 46.76000
C  27.98900 -3.90500 45.84400
C  26.59000 -4.01600 45.75500
C  29.82900 -5.09300 47.26800
C  28.41800 -2.86300 44.92500
O  29.52100 -2.40800 44.79100
C  27.12300 -2.35100 44.21800
C  27.00500 -0.93700 44.63600
O  26.53100 -0.62400 45.72800
O  27.36300 -0.11800 43.60400
C  27.27000 1.33800 43.95800
H  20.66000 -4.53500 43.66500
H  22.33400 -9.47500 47.56400
H  28.11500 -6.98500 48.37400
H  23.97000 -1.26000 43.45500
H  22.03400 -3.11600 42.32600
H  20.72300 -2.07600 44.33400
H  20.78300 -1.44000 42.73900
H  21.88000 -0.79300 44.00600
H  23.95300 -3.27300 41.21700
H  25.49700 -3.19400 41.96100
H  26.06600 -1.34200 41.27700
H  24.45100 -0.61100 41.45500
H  19.00100 -6.96600 43.30800
H  18.77400 -5.48900 44.14500
H  18.02400 -6.98000 44.73300
H  18.75800 -10.42800 47.92100
H  20.08600 -9.36600 48.31100
H  20.32300 -10.76100 47.18500
H  24.89600 -10.29800 48.12500
H  26.11400 -8.29200 50.07000
H  22.88000 -9.46700 50.03600
H  24.48300 -9.65200 50.91800
H  23.87600 -10.99400 49.96900
H  27.91000 -9.28500 48.07200
H  26.87900 -10.60200 48.62500
H  29.29900 -9.58300 49.85600
H  28.50800 -10.94600 50.22500
H  27.99000 -9.35800 51.02000
H  30.57900 -4.33100 47.05700
H  30.23700 -5.98700 46.79600
H  29.78600 -5.22800 48.34900
H  27.40800 -2.50600 43.17800
H  27.55100 1.45200 45.00500
H  26.24000 1.68800 44.03300
H  27.74800 1.96900 43.20900
Mg -4.75300 25.16200 25.35800
C  -3.52800 26.29200 28.49700
C  -6.69600 22.95700 27.02200
C  -5.40300 23.62100 22.45000
C  -2.41900 27.22300 23.78800
N  -4.79700 24.51800 27.47900
C  -4.36700 25.27500 28.57100
C  -4.92900 24.74300 29.87100
C  -5.78900 23.51600 29.31100
C  -5.74600 23.63900 27.82800
C  -5.43800 22.03600 29.89800
C  -5.78000 25.75300 30.75100
C  -5.25100 25.86300 32.20700
H  -6.19700 25.35200 33.35300
N  -5.97300 23.62000 24.80500
C  -6.80600 22.98700 25.63900
C  -7.74500 22.11700 24.94400
C  -7.23500 22.08400 23.62400
C  -6.15600 23.10500 23.56100
C  -8.97000 21.42500 25.51900
C  -7.52800 21.13200 22.45600
O  -6.87900 20.94000 21.50400
C  -8.80300 20.34900 22.67300
N  -3.86200 25.24400 23.45900
C  -4.39600 24.54500 22.45000
C  -3.77200 24.89900 21.09000
C  -3.08600 26.28600 21.46700
C  -3.12100 26.27300 22.98400
C  -2.84300 23.82300 20.48200
C  -3.83000 27.52400 20.79500
C  -3.66900 27.54800 19.30600
N  -3.34400 26.65300 25.94300
C  -2.46100 27.36500 25.20900
C  -1.66200 28.23600 26.11600
C  -2.00000 27.84900 27.39500
C  -3.05200 26.86200 27.24000
C  -0.58500 29.24200 25.80700
C  -1.64800 28.03400 28.75500
O  -0.88300 28.79600 29.37300
C  -2.74500 27.10900 29.55600
C  -1.88700 26.36800 30.47700
O  -1.45900 25.20200 30.38600
O  -1.71600 27.02400 31.68100
C  -1.00500 26.32900 32.72800
H  -7.42400 22.30700 27.51300
H  -5.59400 23.06300 21.53100
H  -1.74000 27.83600 23.19100
H  -4.02300 24.46300 30.40800
H  -6.84200 23.53100 29.59300
H  -4.48100 22.05400 30.42000
H  -5.17800 21.30600 29.13200
H  -6.23100 21.58000 30.49100
H  -6.84500 25.56800 30.88900
H  -5.82800 26.70300 30.21900
H  -5.02600 26.89800 32.46500
H  -4.27100 25.40200 32.33700
H  -8.91500 20.33700 25.51400
H  -9.96400 21.68000 25.15000
H  -9.15500 21.58700 26.58100
H  -9.69300 20.97500 22.73000
H  -8.64200 19.69400 23.52900
H  -8.87500 19.62700 21.86000
H  -4.55600 25.05000 20.34800
H  -2.05100 26.41000 21.15000
H  -1.81200 24.17600 20.48000
H  -3.19100 23.45400 19.51700
H  -2.94400 23.02700 21.21900
H  -3.32700 28.41900 21.16400
H  -4.87300 27.58700 21.10400
H  -4.59000 27.11100 18.92000
H  -2.83500 26.99400 18.87400
H  -3.45600 28.55700 18.95400
H  -0.88300 29.83400 24.94200
H  0.42600 28.84500 25.72300
H  -0.56300 29.88900 26.68400
H  -3.43200 27.65800 30.20000
H  0.03900 26.30500 32.41500
H  -1.28900 25.27900 32.78400
H  -1.16800 26.85400 33.67000

