158

Mg 50.31900 46.46900 42.46800
C  47.40800 48.00300 41.17100
C  49.47500 43.63000 40.64700
C  53.50200 45.27900 42.80400
C  51.45300 49.63900 43.39000
N  48.77200 45.92200 40.84100
C  47.60900 46.66500 40.68700
C  46.57800 45.83500 39.86700
C  47.22700 44.43100 39.75800
C  48.59900 44.63900 40.43400
C  46.25100 43.30000 40.26700
C  46.38100 46.50400 38.46500
C  44.91100 46.60400 37.92900
H  44.49200 45.58700 36.92800
N  51.23800 44.58900 42.13500
C  50.70000 43.55300 41.38400
C  51.54900 42.43100 41.44700
C  52.72400 42.84400 42.10500
C  52.53600 44.28700 42.41700
C  51.12400 40.93800 41.01300
C  53.88300 41.84900 42.40800
O  53.84100 40.68000 42.00700
C  55.21300 42.25500 43.23800
N  52.27000 47.40200 42.72000
C  53.39600 46.67500 42.98400
C  54.60000 47.57900 43.45200
C  53.86300 48.93200 43.65800
C  52.43200 48.69100 43.19600
C  55.57300 47.15400 44.54200
C  54.57300 50.14500 42.94900
C  54.11600 50.64300 41.51600
N  49.56200 48.38600 42.46500
C  50.10100 49.50700 43.01500
C  49.13100 50.57300 42.93500
C  48.06400 50.01100 42.31200
C  48.41700 48.68700 41.89600
C  49.21200 52.03500 43.33000
C  46.70400 50.29000 41.83900
O  46.02800 51.27200 41.98100
C  46.25900 48.99200 41.02500
C  44.97200 48.52200 41.57200
O  44.69900 48.22600 42.74900
O  44.09300 48.34300 40.47400
C  42.86600 47.57400 40.82700
H  49.19700 42.69700 40.15300
H  54.47700 44.79400 42.88100
H  51.85500 50.51700 43.89900
H  45.69200 45.96000 40.48900
H  47.37800 44.06100 38.74500
H  45.30000 43.66900 40.65100
H  46.70800 42.65300 41.01600
H  45.99900 42.60000 39.47000
H  46.92400 45.97000 37.68500
H  46.85600 47.48400 38.44100
H  44.64100 47.65500 37.82500
H  44.30300 46.37000 38.80300
H  51.81100 40.69600 40.20200
H  50.09700 40.90300 40.65000
H  51.18200 40.30700 41.90000
H  54.97200 42.73600 44.18600
H  55.85900 42.89800 42.64000
H  55.88200 41.42800 43.47700
H  55.18000 47.68700 42.53500
H  53.89800 49.14500 44.72600
H  56.56400 47.06600 44.09700
H  55.33600 46.15400 44.90600
H  55.61100 47.96200 45.27300
H  55.64900 49.98300 43.01500
H  54.39100 50.97900 43.62700
H  54.89000 51.23400 41.02600
H  53.25700 51.31000 41.58900
H  53.86000 49.85000 40.81400
H  49.34700 52.56400 42.38700
H  50.11100 52.23000 43.91400
H  48.30400 52.17300 43.91800
H  46.01700 49.21300 39.98600
H  42.05700 47.60000 40.09700
H  42.34000 47.97600 41.69300
H  43.10600 46.53600 41.05900
Mg 7.97700 53.72800 40.51300
C  7.08200 50.38800 40.15000
C  11.14400 52.89600 39.27700
C  8.65000 56.97000 40.03900
C  4.55600 54.52900 40.92600
N  8.87200 51.90100 39.69100
C  8.36200 50.65200 39.71300
C  9.34500 49.60800 39.08500
C  10.68400 50.36300 39.31800
C  10.20800 51.85000 39.36300
C  11.44000 50.19700 40.65200
C  9.14300 49.18300 37.62100
C  8.09500 49.87100 36.70900
H  7.52600 48.98700 35.59600
N  9.71100 54.85800 39.85000
C  10.93000 54.27700 39.54600
C  11.93000 55.30600 39.56700
C  11.26600 56.51700 39.65100
C  9.83200 56.19500 39.84600
C  13.44600 55.02200 39.60100
C  11.92100 57.89700 39.67800
O  13.11500 57.99600 39.84300
C  11.10800 59.11400 39.62800
N  6.69300 55.44700 40.47900
C  7.25300 56.70900 40.29800
C  6.22200 57.84300 40.55600
C  4.86800 57.00300 40.85100
C  5.37200 55.57900 40.77800
C  6.63400 58.91100 41.59800
C  3.65100 57.33500 39.88200
C  2.28200 57.22300 40.55400
N  6.19800 52.73000 40.68500
C  4.91300 53.21400 41.02700
C  4.06500 52.09200 41.17300
C  4.91100 51.02000 40.96100
C  6.17300 51.42400 40.63200
C  2.66600 51.95600 41.66000
C  4.93900 49.56200 40.96700
O  4.10700 48.69900 41.21400
C  6.35900 49.03300 40.44700
C  6.21100 48.11200 39.25300
O  5.63300 48.51000 38.19500
O  6.49800 46.79600 39.47000
C  6.31600 45.85500 38.40500
H  12.15700 52.54500 39.07100
H  8.76400 58.04700 39.90000
H  3.49200 54.54700 41.17100
H  9.35400 48.66200 39.62800
H  11.45300 50.27200 38.55000
H  10.98800 49.25900 40.97300
H  11.29700 51.02300 41.35000
H  12.50800 50.05900 40.48600
H  9.00900 48.10400 37.53200
H  10.13200 49.35200 37.19500
H  8.48600 50.72300 36.15300
H  7.21600 50.16300 37.28400
H  13.88300 55.61600 38.79700
H  13.71100 53.98200 39.41300
H  13.92800 55.33600 40.52700
H  11.68100 60.02700 39.79200
H  10.31100 59.01500 40.36400
H  10.57100 59.18100 38.68200
H  6.14400 58.24000 39.54400
H  4.55600 57.11200 41.89000
H  6.46500 59.93500 41.26300
H  7.62600 58.67300 41.98100
H  5.87000 58.95300 42.37500
H  3.67300 56.58000 39.09600
H  3.75700 58.38000 39.59300
H  2.31000 57.34800 41.63600
H  1.86000 56.22000 40.49000
H  1.73600 57.97300 39.98100
H  2.27400 50.94600 41.54500
H  2.14500 52.82100 41.25000
H  2.70900 52.01600 42.74700
H  6.79500 48.46900 41.27200
H  6.70500 46.37100 37.52700
H  5.27200 45.54800 38.46800
H  6.90600 44.96000 38.60600

