158

Mg 8.22800 3.00700 27.75500
C  9.85400 1.73900 30.39200
C  6.29300 4.92400 29.66100
C  7.09200 4.50900 24.95800
C  10.16500 0.86700 25.55800
N  7.97600 3.16300 29.81300
C  8.85700 2.71800 30.76400
C  8.52400 3.19600 32.13000
C  7.30000 4.15400 31.87900
C  7.08600 4.06500 30.32900
C  6.00300 3.98100 32.69700
C  9.76600 3.75800 32.85800
C  9.36800 4.70700 34.06800
H  9.95200 4.30000 35.44500
N  6.70400 4.41200 27.37700
C  6.02200 5.13100 28.29200
C  5.23200 6.12600 27.72700
C  5.63300 6.14400 26.30900
C  6.50700 4.95000 26.12200
C  4.19700 7.02900 28.47600
C  5.24400 7.12900 25.23300
O  5.68200 7.07600 24.08500
C  4.30100 8.27100 25.52300
N  8.40100 2.56400 25.50800
C  7.90800 3.45700 24.62900
C  8.30800 3.18800 23.23000
C  9.40700 2.07700 23.43500
C  9.28300 1.73500 24.90900
C  7.19700 2.74800 22.27100
C  10.86700 2.51200 23.11500
C  11.68500 3.32300 24.16900
N  9.64000 1.57400 27.89000
C  10.35500 0.81800 26.94600
C  11.33100 -0.01300 27.66800
C  11.11400 0.25900 28.97800
C  10.09500 1.20700 29.11900
C  12.19500 -0.96700 26.97500
C  11.55800 -0.08800 30.31000
O  12.37200 -0.89200 30.69000
C  10.73600 0.92600 31.31000
C  10.02300 0.08500 32.28400
O  9.16500 -0.74600 32.06800
O  10.59400 0.29700 33.53900
C  9.91900 -0.44700 34.60600
H  5.80900 5.61200 30.35800
H  7.02400 5.25500 24.16300
H  10.98900 0.51000 24.93600
H  8.13100 2.43600 32.80500
H  7.55400 5.21000 31.97200
H  5.89900 3.00300 33.16600
H  5.12300 3.96900 32.05300
H  5.96000 4.83900 33.36800
H  10.36000 4.38800 32.19700
H  10.38300 2.98500 33.31600
H  8.29500 4.84800 34.20000
H  9.79200 5.68900 33.85700
H  4.10900 6.53200 29.44200
H  3.25500 6.96600 27.93100
H  4.45000 8.08000 28.61900
H  4.05800 8.74000 24.56900
H  4.62900 9.02200 26.24100
H  3.47900 7.67600 25.92200
H  8.80700 4.05600 22.80000
H  9.17100 1.25100 22.76400
H  6.28300 2.87800 22.85100
H  7.17400 1.66400 22.16200
H  7.29800 3.18300 21.27700
H  10.80100 2.97300 22.12900
H  11.37800 1.55200 23.04300
H  10.97000 3.71300 24.89400
H  12.10900 4.23600 23.75200
H  12.31900 2.73700 24.83500
H  12.94500 -0.45700 26.37000
H  11.54900 -1.50000 26.27700
H  12.70400 -1.67300 27.63100
H  11.38300 1.49000 31.98200
H  10.42200 -0.37400 35.57100
H  9.85700 -1.49900 34.32800
H  8.92300 -0.02600 34.73800
Mg 0.20400 44.03100 25.67000
C  1.93300 43.74200 28.77500
C  -2.67100 43.28200 27.58000
C  -1.31400 43.58400 22.86600
C  3.28600 44.30800 24.08800
N  -0.29900 43.75000 27.97600
C  0.57100 43.69100 29.04300
C  -0.16100 43.56900 30.34400
C  -1.66200 43.27200 29.94100
C  -1.55700 43.49400 28.37700
C  -2.26600 41.92100 30.32800
C  0.01800 44.93500 31.19600
C  0.33000 44.62500 32.70000
H  -0.33900 43.46800 33.42800
N  -1.77800 43.72800 25.26800
C  -2.78600 43.37100 26.16000
C  -3.96500 43.21100 25.42400
C  -3.70000 43.46500 24.06500
C  -2.17000 43.54200 23.96500
C  -5.30100 42.90900 26.04000
C  -4.55600 43.51100 22.78000
O  -4.12200 43.74000 21.67400
C  -6.07300 43.55100 22.91400
N  0.94600 43.91100 23.82400
C  0.03600 43.89000 22.78600
C  0.76000 43.67100 21.42800
C  2.21300 44.13400 21.83600
C  2.17300 44.27900 23.34000
C  0.69800 42.19900 21.00700
C  2.73900 45.35800 21.09900
C  2.86500 46.72900 21.75000
N  2.27300 44.02400 26.24400
C  3.35200 44.21300 25.48300
C  4.51900 44.29900 26.38500
C  4.02200 43.95100 27.68500
C  2.61000 43.91300 27.53700
C  5.92900 44.66300 25.98600
C  4.36600 43.85200 29.10800
O  5.44800 43.83900 29.67100
C  3.01400 43.64800 29.80900
C  3.08300 42.53100 30.77100
O  2.71300 41.35000 30.62500
O  3.51200 43.01400 31.97000
C  3.63500 42.10900 33.12800
H  -3.54700 42.98000 28.15700
H  -1.67900 43.48700 21.84200
H  4.22200 44.38800 23.53000
H  0.24500 42.68300 30.83300
H  -2.27900 44.07700 30.34000
H  -2.16300 41.19600 29.52100
H  -3.29600 42.07000 30.65200
H  -1.75500 41.59400 31.23400
H  -0.87500 45.55700 31.25900
H  0.82000 45.60500 30.88800
H  0.11600 45.53400 33.26200
H  1.39500 44.46100 32.86100
H  -6.10200 43.63700 25.91400
H  -5.15400 42.59600 27.07400
H  -5.67100 42.01600 25.53700
H  -6.55600 42.58200 23.04100
H  -6.39300 43.91900 21.93900
H  -6.34700 44.27700 23.68000
H  0.36800 44.30500 20.63200
H  2.85700 43.29000 21.58700
H  0.42600 41.61600 21.88700
H  1.55200 41.87000 20.41500
H  -0.24800 42.04100 20.48800
H  2.09400 45.57000 20.24700
H  3.68700 45.04400 20.66200
H  2.34400 46.64000 22.70300
H  2.29300 47.42200 21.13300
H  3.91500 47.01100 21.82900
H  6.42400 44.51300 26.94500
H  6.10900 45.71500 25.76500
H  6.23600 44.00500 25.17200
H  3.03200 44.52000 30.46300
H  4.68400 41.81300 33.12200
H  2.91300 41.29900 33.22700
H  3.51200 42.71000 34.02900

