158

Mg -1.69300 16.89800 25.82100
C  -2.10100 14.40400 28.34400
C  -2.24800 19.31400 28.18900
C  -1.71700 19.17800 23.30800
C  -1.80400 14.28000 23.50400
N  -2.09500 16.76700 28.09700
C  -2.25300 15.71800 28.92400
C  -2.60600 16.15200 30.33300
C  -2.78200 17.70400 30.17900
C  -2.28400 17.97200 28.77500
C  -4.13600 18.37500 30.63400
C  -1.52600 15.66800 31.43100
C  -1.30100 16.71200 32.55600
H  -1.03200 16.14400 33.99500
N  -1.90100 18.98300 25.78700
C  -2.13300 19.80000 26.85800
C  -2.08500 21.15400 26.39300
C  -1.95500 21.10700 24.97900
C  -1.81100 19.68700 24.63100
C  -2.29900 22.30800 27.35700
C  -1.91100 22.32400 23.97800
O  -1.65700 22.20400 22.81800
C  -2.07900 23.68500 24.48600
N  -1.81000 16.71400 23.73900
C  -1.67900 17.79500 22.90300
C  -1.72600 17.34700 21.40200
C  -1.88300 15.82500 21.52100
C  -1.79300 15.57000 22.99600
C  -2.66600 18.17400 20.49600
C  -0.98000 14.92500 20.54000
C  -1.80400 13.94100 19.65100
N  -1.79500 14.73000 25.90600
C  -1.84900 13.81600 24.84800
C  -2.03200 12.55700 25.37000
C  -2.04000 12.68100 26.75700
C  -1.96500 14.04900 27.00400
C  -2.17000 11.31300 24.54800
C  -2.07500 11.98300 28.01200
O  -2.06100 10.79100 28.27100
C  -2.23000 13.10800 29.12300
C  -1.27600 12.78600 30.15600
O  -0.08600 13.12200 30.16700
O  -1.88400 12.06800 31.15900
C  -1.02200 11.73500 32.29800
H  -2.41800 19.97200 29.04400
H  -1.66100 19.91000 22.50000
H  -1.82800 13.46200 22.78200
H  -3.58500 15.69400 30.47300
H  -2.06200 18.21700 30.81700
H  -4.88100 17.66000 30.98300
H  -4.60200 19.04200 29.90800
H  -3.84700 19.08800 31.40600
H  -0.52700 15.53400 31.01600
H  -1.62500 14.70900 31.93900
H  -2.20800 17.31000 32.64000
H  -0.52000 17.45000 32.36900
H  -3.32400 22.66000 27.24500
H  -1.71100 23.18100 27.07400
H  -2.11000 22.10900 28.41200
H  -2.97500 23.69300 25.10600
H  -2.25000 24.34000 23.63100
H  -1.20600 24.08000 25.00500
H  -0.70600 17.62100 21.13400
H  -2.90500 15.58000 21.23100
H  -3.42500 18.65000 21.11800
H  -3.14300 17.57700 19.72000
H  -2.02200 18.88600 19.97900
H  -0.08700 14.46800 20.96500
H  -0.60900 15.62800 19.79400
H  -1.65500 12.92900 20.02800
H  -1.49600 13.92200 18.60500
H  -2.86100 14.16200 19.50600
H  -1.27600 11.17300 23.94100
H  -3.10300 11.47200 24.00600
H  -2.32000 10.43300 25.17300
H  -3.23400 13.07700 29.54700
H  -1.15100 12.44200 33.11800
H  0.02500 11.56300 32.05000
H  -1.39500 10.80200 32.72200
Mg 1.74200 -2.00100 44.65100
C  4.89100 -0.99200 43.70800
C  0.34800 0.36100 42.50300
C  -1.29900 -3.47600 44.98300
C  3.26000 -4.82300 46.26000
N  2.62000 -0.61000 42.99400
C  3.91300 -0.27100 42.92500
C  4.12500 0.95900 41.98000
C  2.66600 1.35600 41.72500
C  1.79300 0.33100 42.47800
C  2.33000 2.83000 42.12900
C  4.91600 0.65400 40.65500
C  6.22700 1.35300 40.56000
H  6.56200 2.09800 39.21300
N  -0.27000 -1.56600 43.99300
C  -0.60700 -0.55900 43.04900
C  -2.07700 -0.42700 43.02900
C  -2.62100 -1.52900 43.80500
C  -1.43200 -2.24500 44.32600
C  -2.90100 0.60400 42.36300
C  -3.99000 -1.92200 43.99600
O  -4.90000 -1.35500 43.45400
C  -4.43400 -3.02100 44.87100
N  1.11900 -3.82900 45.54600
C  -0.24500 -4.13000 45.67800
C  -0.48200 -5.39700 46.42600
C  0.94400 -5.81500 46.81100
C  1.87700 -4.71200 46.23100
C  -1.56000 -5.49900 47.56500
C  1.34100 -7.35400 46.47000
C  1.46900 -8.26700 47.69900
N  3.75500 -2.78100 45.01600
C  4.16100 -3.85500 45.73200
C  5.58900 -3.86100 45.69900
C  6.00300 -2.70200 44.96600
C  4.81400 -2.19000 44.54600
C  6.52000 -4.80800 46.40900
C  7.07400 -1.91400 44.49000
O  8.27200 -2.01300 44.69200
C  6.43300 -0.82200 43.53400
C  6.89900 0.52200 43.94400
O  7.75100 1.22200 43.42300
O  6.13200 0.96400 45.03800
C  6.51500 2.31100 45.46900
H  -0.10500 1.17500 41.93300
H  -2.18200 -4.05800 45.25600
H  3.76000 -5.68500 46.70600
H  4.63800 1.66000 42.63800
H  2.36000 1.29300 40.68100
H  1.62900 2.74600 42.96000
H  1.84900 3.38500 41.32400
H  3.20500 3.40700 42.42800
H  4.29500 0.92300 39.80100
H  5.07400 -0.42100 40.56000
H  7.00500 0.59200 40.62700
H  6.34400 2.07200 41.37100
H  -2.28300 1.46600 42.11200
H  -3.64700 0.91100 43.09600
H  -3.43100 0.19500 41.50300
H  -3.97300 -3.09700 45.85600
H  -4.30400 -4.01700 44.44800
H  -5.51000 -2.94200 45.02900
H  -0.72800 -6.08000 45.61300
H  1.01300 -5.67600 47.89000
H  -1.15300 -5.48400 48.57600
H  -2.15500 -6.41100 47.50500
H  -2.32500 -4.73100 47.45400
H  2.11600 -7.47800 45.71300
H  0.62000 -7.89700 45.86000
H  0.90900 -9.16400 47.43400
H  1.14100 -7.89300 48.66900
H  2.49100 -8.63800 47.77600
H  7.48200 -4.32000 46.56100
H  6.67500 -5.72400 45.83900
H  6.22300 -5.03200 47.43400
H  6.70300 -1.10700 42.51700
H  7.48900 2.18000 45.94000
H  5.75000 2.57000 46.20000
H  6.57400 3.01800 44.64200

