158

Mg 1.37200 7.62100 25.47900
C  1.98200 9.48700 28.41500
C  1.42900 4.81600 27.39900
C  0.73200 5.82500 22.69500
C  1.64200 10.46500 23.58200
N  1.76800 7.22500 27.70700
C  1.76900 8.10500 28.68700
C  1.77700 7.45300 30.13600
C  1.81900 5.96100 29.73800
C  1.60900 5.95300 28.18900
C  3.00800 5.18000 30.27800
C  0.53800 8.05300 30.96100
C  0.91600 8.51400 32.37100
H  1.99200 7.68600 33.04400
N  1.22400 5.51600 25.09000
C  1.25700 4.53000 25.98300
C  1.08900 3.19300 25.30900
C  0.96000 3.58300 23.91900
C  0.92800 5.01900 23.83100
C  1.17700 1.81900 25.95100
C  0.85900 2.56800 22.76700
O  0.63200 2.96100 21.65000
C  0.85400 1.12300 22.92100
N  1.24200 8.03700 23.38500
C  0.88500 7.18300 22.45900
C  0.65600 7.88100 21.04500
C  0.93000 9.40500 21.38600
C  1.21000 9.32800 22.92500
C  1.63700 7.21800 20.03600
C  -0.23600 10.33200 21.00500
C  0.29400 11.62200 20.29800
N  1.68700 9.61100 25.89200
C  1.83800 10.64200 24.97400
C  2.19300 11.86500 25.73700
C  2.26900 11.41800 27.05400
C  1.96600 10.05900 27.09700
C  2.38900 13.25000 25.24300
C  2.51600 11.88900 28.44000
O  2.82800 13.02500 28.75400
C  2.25900 10.66300 29.41900
C  3.44700 10.54400 30.23600
O  4.51900 10.27400 29.88200
O  3.18000 11.08100 31.48100
C  4.28500 11.42000 32.38600
H  1.37200 3.83800 27.88300
H  0.35200 5.33800 21.79500
H  1.75300 11.36500 22.97200
H  2.64100 7.87400 30.65000
H  0.90800 5.51700 30.13900
H  3.72800 5.92700 30.61100
H  3.31900 4.49800 29.48700
H  2.60200 4.54700 31.06700
H  -0.30000 7.36100 31.04800
H  0.20800 8.94700 30.43100
H  0.07100 8.53600 33.05900
H  1.28100 9.52500 32.18800
H  1.27900 1.92800 27.03100
H  2.00800 1.21900 25.57900
H  0.24800 1.28000 25.76600
H  0.86300 0.63300 21.94700
H  -0.08000 0.95000 23.45500
H  1.65200 0.60600 23.45500
H  -0.38100 7.69600 20.76200
H  1.80600 9.77300 20.85100
H  2.61000 7.11000 20.51700
H  1.60000 7.82100 19.12900
H  1.39500 6.17800 19.81800
H  -0.70200 10.80300 21.87000
H  -0.95700 9.78200 20.40100
H  -0.32000 12.39600 20.75800
H  -0.02600 11.45500 19.27000
H  1.36100 11.84700 20.30300
H  2.86200 13.86900 26.00500
H  1.43500 13.64300 24.89200
H  3.00900 13.22000 24.34600
H  1.41900 10.91100 30.06800
H  3.97000 11.44800 33.42900
H  4.62300 12.42400 32.13000
H  5.06800 10.66600 32.29500
Mg 26.18000 -0.13400 29.35000
C  27.85300 -0.60000 32.44100
C  23.29900 0.28300 30.98100
C  24.54500 -0.45100 26.28200
C  29.17700 -1.20300 27.68000
N  25.67000 -0.17400 31.52600
C  26.51500 -0.34500 32.60100
C  25.72600 0.02800 33.92100
C  24.29300 -0.06600 33.39700
C  24.42900 0.04400 31.84200
C  23.45400 -1.25100 33.86600
C  26.13900 1.43000 34.49900
C  25.80200 1.64900 35.93100
H  26.88100 1.82300 37.02700
N  24.26300 -0.02500 28.72200
C  23.23400 0.22300 29.57500
C  22.07900 0.44000 28.78400
C  22.37900 0.20700 27.39600
C  23.82100 -0.14800 27.47400
C  20.73300 0.66600 29.38000
C  21.52300 0.19600 26.07800
O  21.87800 -0.02200 24.90200
C  20.04200 0.50100 26.28900
N  26.77800 -0.69900 27.27600
C  25.89800 -0.72900 26.22700
C  26.62800 -1.19000 24.97000
C  28.18500 -1.20700 25.34800
C  28.04100 -1.09200 26.86900
C  26.05000 -2.44900 24.25800
C  29.03700 -0.11300 24.75800
C  30.45800 -0.55700 24.66400
N  28.11200 -0.62100 29.85800
C  29.24800 -0.98600 29.07800
C  30.36600 -1.11400 29.94500
C  29.87400 -0.96500 31.25100
C  28.50200 -0.76000 31.13500
C  31.71100 -1.38900 29.53300
C  30.32800 -0.93400 32.67800
O  31.37100 -1.16500 33.23100
C  29.03700 -0.57900 33.49300
C  28.80400 -1.57300 34.58400
O  28.39700 -2.69700 34.28900
O  29.08300 -0.99600 35.84600
C  28.73100 -1.87700 36.99200
H  22.38300 0.39600 31.56500
H  24.12700 -0.43300 25.27400
H  30.05000 -1.56500 27.13300
H  25.87700 -0.71500 34.70400
H  23.83600 0.85400 33.76200
H  23.18800 -1.93700 33.06100
H  22.54700 -0.83600 34.30600
H  24.00200 -1.86600 34.57900
H  25.65200 2.14100 33.83100
H  27.21800 1.54500 34.39600
H  25.20100 0.79900 36.25300
H  25.21500 2.56200 35.84100
H  19.91700 0.14400 28.88000
H  20.52900 1.71400 29.15900
H  20.54600 0.54100 30.44700
H  19.53200 -0.29600 26.83000
H  19.62000 0.69800 25.30300
H  20.03000 1.50100 26.72200
H  26.57900 -0.44500 24.17600
H  28.59500 -2.19200 25.12800
H  25.03400 -2.68400 24.57500
H  26.68300 -3.32200 24.41800
H  25.99800 -2.32600 23.17600
H  29.12900 0.73500 25.43600
H  28.70400 0.19800 23.76800
H  30.77200 -0.49100 23.62200
H  30.51700 -1.60200 24.96800
H  31.16000 -0.00600 25.29100
H  31.92500 -0.85100 28.60900
H  31.90100 -2.42200 29.24200
H  32.39000 -1.07300 30.32500
H  29.17000 0.37200 34.01100
H  27.64400 -1.91600 37.06600
H  29.10200 -1.37100 37.88400
H  28.98200 -2.93600 36.93400

