158

Mg 2.07100 -1.87200 43.51900
C  5.46200 -0.79600 43.21800
C  0.97100 1.03400 42.13200
C  -1.14500 -3.04900 43.65900
C  3.17500 -4.92400 44.82800
N  3.11700 -0.16300 42.78600
C  4.49400 0.12900 42.86600
C  4.75000 1.54300 42.38500
C  3.29500 2.12000 42.10500
C  2.34800 0.96100 42.45900
C  2.90300 3.47100 42.83100
C  5.75600 1.60500 41.13500
C  6.40500 3.01600 41.08100
H  6.19700 3.77400 39.76600
N  0.15600 -1.03100 43.10300
C  -0.05100 0.15500 42.45800
C  -1.49600 0.38400 42.40800
C  -2.10600 -0.78400 42.94300
C  -1.00100 -1.72600 43.25000
C  -2.15900 1.69200 41.94500
C  -3.67400 -1.01700 43.09100
O  -4.45400 -0.13200 42.71300
C  -4.29300 -2.20500 43.71200
N  1.13500 -3.80700 43.95800
C  -0.15300 -4.04500 43.97500
C  -0.57500 -5.44400 44.48300
C  0.79600 -5.95200 44.92400
C  1.79800 -4.82200 44.54500
C  -1.70000 -5.41400 45.61500
C  1.20600 -7.31300 44.27900
C  1.57300 -8.44500 45.26200
N  3.92000 -2.79600 43.90200
C  4.18600 -3.93700 44.57300
C  5.61300 -4.09600 44.79800
C  6.19400 -2.88700 44.20900
C  5.13200 -2.13300 43.67500
C  6.27800 -5.30300 45.40800
C  7.43700 -2.23400 43.82300
O  8.60900 -2.61100 43.84300
C  6.99600 -0.80800 43.29600
C  7.54200 0.25800 44.14200
O  7.47700 0.21500 45.35600
O  7.98600 1.36900 43.48800
C  8.39200 2.50900 44.28600
H  0.62700 1.90500 41.57000
H  -2.16600 -3.43600 43.69900
H  3.57900 -5.75100 45.41600
H  5.14700 2.09600 43.23600
H  3.17900 2.32800 41.04100
H  2.23500 4.11300 42.25800
H  3.79800 4.01000 43.14300
H  2.30700 3.23100 43.71100
H  5.22800 1.52700 40.18400
H  6.53100 0.83800 41.13300
H  7.46900 2.90200 41.28900
H  5.93500 3.65100 41.83300
H  -2.60400 1.50200 40.96800
H  -1.40600 2.48000 41.95400
H  -2.86800 1.88500 42.75100
H  -5.26900 -1.86000 44.05200
H  -3.82300 -2.66900 44.57900
H  -4.57000 -2.95300 42.96800
H  -1.04200 -5.88700 43.60400
H  0.85800 -6.01100 46.01100
H  -1.29900 -5.45900 46.62700
H  -2.18700 -6.38800 45.65200
H  -2.34200 -4.54100 45.49700
H  2.16200 -7.15200 43.78100
H  0.34700 -7.53600 43.64500
H  2.51000 -8.93100 44.99100
H  0.85300 -9.26300 45.26700
H  1.53600 -8.06700 46.28400
H  7.25300 -4.99500 45.78600
H  6.36000 -6.12500 44.69800
H  5.61900 -5.58600 46.22900
H  7.51000 -0.68900 42.34200
H  8.88000 3.29600 43.71100
H  9.06200 2.27400 45.11400
H  7.47500 3.00100 44.61300
Mg 24.04000 -5.57500 45.31800
C  26.40300 -3.19400 43.80800
C  21.71500 -4.20400 43.42200
C  22.32800 -8.31400 46.09100
C  26.86200 -6.73900 47.15100
N  24.09500 -3.85000 43.89500
C  25.12500 -3.13700 43.36300
C  24.61500 -2.19200 42.26600
C  23.09000 -2.27600 42.39300
C  22.92100 -3.49300 43.33400
C  22.39500 -1.05800 42.86600
C  25.24300 -2.44800 40.89800
C  25.95600 -1.21100 40.30800
H  25.42200 -0.74500 38.97500
N  22.12400 -6.10500 44.97000
C  21.30100 -5.43900 44.11200
C  20.02000 -6.09800 44.10500
C  20.13000 -7.28700 44.87300
C  21.56800 -7.30900 45.32700
C  18.79200 -5.69800 43.26200
C  18.98400 -8.26200 45.15400
O  17.87700 -8.17700 44.74900
C  19.28200 -9.51100 45.96400
N  24.58500 -7.35500 46.34600
C  23.66300 -8.32300 46.54900
C  24.23200 -9.46900 47.39600
C  25.76100 -9.00500 47.70200
C  25.79200 -7.61500 47.00500
C  23.41800 -9.89600 48.62000
C  26.88000 -9.97200 47.13000
C  27.62300 -10.97700 48.14200
N  26.30000 -5.06800 45.53500
C  27.23300 -5.59100 46.34600
C  28.48700 -4.90700 46.25700
C  28.25600 -4.03400 45.17800
C  26.89200 -4.14800 44.82000
C  29.72600 -5.22600 47.08500
C  28.82500 -2.95100 44.30600
O  29.95100 -2.56300 44.14900
C  27.65400 -2.38700 43.44400
C  27.42000 -1.00100 43.77900
O  26.47600 -0.53300 44.42200
O  28.57000 -0.24500 43.48000
C  28.68900 1.07600 43.92800
H  20.94000 -3.63200 42.90800
H  21.76500 -9.20500 46.37500
H  27.79800 -6.97700 47.66000
H  24.86500 -1.17800 42.57800
H  22.66600 -2.54400 41.42600
H  22.52500 -0.15700 42.26700
H  22.53800 -0.70800 43.88800
H  21.33500 -1.30600 42.80200
H  24.43000 -2.60100 40.18800
H  25.93700 -3.28600 40.83900
H  26.99600 -1.45100 40.08800
H  25.96400 -0.37100 41.00200
H  18.04100 -5.20100 43.87600
H  18.44900 -6.58200 42.72600
H  19.07700 -4.96300 42.50900
H  18.34400 -10.02400 46.17800
H  19.68900 -9.08700 46.88200
H  19.89600 -10.20800 45.39300
H  24.27900 -10.29800 46.69000
H  25.95800 -8.90700 48.77000
H  22.91300 -9.02400 49.03600
H  24.00400 -10.38700 49.39700
H  22.80000 -10.71300 48.24900
H  27.63400 -9.38900 46.60200
H  26.42300 -10.50900 46.29800
H  28.68600 -10.80000 48.30500
H  27.52400 -11.99500 47.76600
H  27.07900 -10.85000 49.07800
H  30.39800 -5.98900 46.69200
H  29.65300 -5.55100 48.12200
H  30.39300 -4.36400 47.08800
H  27.93300 -2.53900 42.40100
H  28.94700 1.75300 43.11400
H  29.59000 1.19200 44.53000
H  27.76500 1.50800 44.31200

