158

Mg 47.14800 15.67300 28.06800
C  45.22500 15.27200 30.93100
C  49.41200 17.42100 29.90500
C  48.74800 16.52400 25.17200
C  44.41100 14.55600 26.12200
N  47.24300 16.38700 30.13000
C  46.42200 15.99000 31.14800
C  46.96100 16.51700 32.50900
C  48.17000 17.35700 32.16300
C  48.25000 17.08000 30.60500
C  48.17400 18.91700 32.57400
C  47.31500 15.33600 33.48400
C  46.92300 15.39100 35.03000
H  46.73500 16.85100 35.53900
N  48.91400 16.53400 27.65100
C  49.78300 17.12700 28.55100
C  51.00400 17.40800 27.91100
C  50.82700 17.24300 26.53700
C  49.47500 16.75200 26.39200
C  52.21100 17.76900 28.66000
C  51.82200 17.57400 25.34000
O  51.52400 17.44000 24.13800
C  53.18600 18.06400 25.61800
N  46.60300 15.66400 25.92900
C  47.44300 16.05300 24.94400
C  46.73700 16.00400 23.59200
C  45.45100 15.23100 23.89300
C  45.47400 15.13300 25.44400
C  46.53600 17.38700 23.04900
C  45.11600 13.89400 23.20900
C  45.72300 12.56500 23.79800
N  45.22600 15.10100 28.39400
C  44.27400 14.54000 27.56500
C  43.17400 13.99600 28.32100
C  43.54100 14.24400 29.65900
C  44.74500 14.92700 29.62800
C  41.84000 13.52000 27.73800
C  43.08500 14.14700 31.05600
O  42.04800 13.73500 31.57800
C  44.18800 14.88600 31.89900
C  43.59300 16.00400 32.58400
O  43.34000 17.10500 32.10500
O  43.21700 15.62100 33.83300
C  42.42600 16.51600 34.68100
H  50.15300 17.98500 30.47600
H  49.26100 16.76200 24.23800
H  43.66500 14.07200 25.48900
H  46.21500 17.16400 32.96900
H  49.14800 17.01000 32.49700
H  49.22700 19.15200 32.72600
H  47.51500 19.11100 33.42000
H  47.89800 19.55500 31.73500
H  48.38800 15.15200 33.43700
H  46.79200 14.44700 33.13100
H  47.62300 14.84800 35.66500
H  45.98700 14.84300 35.14300
H  52.61500 18.74300 28.38400
H  52.97700 17.02200 28.45300
H  52.17800 17.65500 29.74300
H  53.18200 18.99100 26.19100
H  53.67400 18.34300 24.68500
H  53.53800 17.20200 26.18500
H  47.41800 15.52400 22.88900
H  44.59800 15.87600 23.68100
H  47.12400 17.56700 22.14900
H  46.80200 18.17000 23.75900
H  45.51500 17.59700 22.72900
H  45.44600 13.96600 22.17200
H  44.02700 13.93900 23.23600
H  44.84400 12.05600 24.19400
H  46.44000 12.77400 24.59200
H  46.27700 11.99700 23.05200
H  41.86200 13.52600 26.64800
H  41.00900 14.18100 27.98300
H  41.60200 12.48800 27.99500
H  44.41700 14.06700 32.58000
H  41.90800 17.30600 34.13700
H  43.11100 17.02700 35.35700
H  41.68900 16.01400 35.30800
Mg 36.10700 49.25200 25.37200
C  36.37400 47.45000 28.33600
C  34.71800 51.92000 27.19000
C  35.65100 50.84800 22.55400
C  37.28200 46.46600 23.63900
N  35.46100 49.54100 27.45800
C  35.83700 48.73800 28.50200
C  35.61300 49.46600 29.79800
C  34.95400 50.83300 29.45800
C  35.11000 50.77600 27.95800
C  33.49400 51.04000 29.89900
C  36.96200 49.78800 30.53100
C  36.82800 50.06400 32.07600
H  35.41300 50.06000 32.79500
N  35.16200 51.09600 24.90800
C  34.68800 52.09500 25.77600
C  34.26900 53.28400 25.07000
C  34.52600 52.98800 23.68000
C  35.11600 51.62300 23.65100
C  33.78700 54.63400 25.72400
C  34.19500 53.74500 22.45000
O  34.41000 53.29500 21.36300
C  33.40600 55.08900 22.47900
N  36.27800 48.70200 23.37700
C  36.09700 49.57200 22.38100
C  36.39000 48.92000 20.95600
C  37.15700 47.63900 21.38100
C  36.90500 47.57100 22.89700
C  35.08700 48.60700 20.17800
C  38.61500 47.59900 20.86300
C  39.60400 48.51500 21.64400
N  36.61400 47.27100 25.81000
C  37.22400 46.27300 25.04300
C  37.47100 45.07600 25.84600
C  37.22200 45.57500 27.17800
C  36.72700 46.91100 27.10500
C  37.92600 43.72200 25.56800
C  37.28200 45.18200 28.54600
O  37.73900 44.12100 28.99100
C  36.71000 46.37000 29.39500
C  35.33500 45.92200 29.81800
O  34.44700 45.42600 29.16100
O  35.33600 46.09000 31.20700
C  34.24000 45.55300 31.96100
H  34.38200 52.79000 27.75800
H  35.56600 51.40000 21.61600
H  37.92300 45.78200 23.07800
H  34.89600 48.93800 30.42700
H  35.56300 51.66900 29.80300
H  32.75200 51.19100 29.11400
H  33.51400 51.98000 30.45100
H  33.09900 50.21600 30.49300
H  37.50500 50.61100 30.06700
H  37.62200 48.92700 30.42300
H  37.28200 51.04200 32.23800
H  37.41500 49.35600 32.66100
H  34.40100 55.49200 25.45000
H  33.81100 54.55600 26.81100
H  32.74900 54.83800 25.46200
H  33.34300 55.46600 21.45800
H  33.95900 55.86100 23.01300
H  32.40400 54.93100 22.87900
H  36.99600 49.65500 20.42500
H  36.59000 46.82800 20.92400
H  34.20400 48.85400 20.76600
H  35.08300 47.57300 19.83200
H  35.08100 49.40100 19.43100
H  38.45200 47.81300 19.80600
H  38.91800 46.55200 20.88300
H  40.13700 47.79900 22.27000
H  39.04300 49.20000 22.27900
H  40.27600 49.04200 20.96600
H  38.56100 43.75700 24.68300
H  37.06100 43.08200 25.39500
H  38.48300 43.30900 26.40900
H  37.42700 46.58200 30.18800
H  33.57700 46.38600 32.19600
H  34.47000 45.08100 32.91600
H  33.66500 44.88700 31.31700

