158

Mg 8.61600 3.50000 26.95400
C  9.87500 2.38800 30.05100
C  6.47800 5.64200 28.71200
C  7.18500 4.40100 24.00600
C  10.23500 0.99700 25.31100
N  8.05800 3.87000 29.20100
C  8.92400 3.42000 30.20400
C  8.44100 4.09400 31.50000
C  7.47900 5.19100 31.04600
C  7.24900 4.84600 29.59700
C  6.22000 5.25800 31.96300
C  9.69200 4.65900 32.28500
C  9.34500 5.32400 33.69200
H  9.82800 4.69900 35.00500
N  7.21900 4.99300 26.43300
C  6.43500 5.68400 27.29900
C  5.71200 6.75600 26.51800
C  5.91800 6.36100 25.10400
C  6.80600 5.16500 25.13400
C  4.80800 7.85000 27.16500
C  5.31400 7.02700 23.83500
O  5.60100 6.74500 22.65200
C  4.46000 8.32900 23.96800
N  8.70900 2.79100 24.83500
C  7.98300 3.29200 23.82300
C  8.30100 2.61600 22.47600
C  9.37100 1.62700 22.93100
C  9.44900 1.77000 24.48100
C  7.17300 1.97900 21.77200
C  10.81100 1.79300 22.24200
C  11.70900 2.98100 22.76700
N  9.79700 1.97400 27.48600
C  10.45500 1.04600 26.71700
C  11.20300 0.13700 27.55700
C  11.08800 0.65200 28.82000
C  10.14100 1.74200 28.77000
C  11.96000 -1.03700 27.02600
C  11.46700 0.49300 30.26100
O  12.18300 -0.30400 30.85300
C  10.76100 1.54200 31.03000
C  10.04800 0.94100 32.09300
O  8.89500 0.50600 32.05500
O  10.87200 0.87200 33.15800
C  10.28200 0.31900 34.41900
H  5.95700 6.38700 29.31700
H  6.77000 4.80700 23.08100
H  10.78800 0.14100 24.91900
H  7.93600 3.30200 32.05200
H  7.85500 6.20000 31.21800
H  6.08600 6.26000 32.37100
H  6.29900 4.46800 32.71000
H  5.40900 5.06700 31.26000
H  10.24900 5.34800 31.65000
H  10.36000 3.84300 32.56300
H  8.26800 5.32500 33.85800
H  9.66400 6.36400 33.76700
H  3.78300 7.71100 26.82200
H  5.10100 8.88200 26.97000
H  4.72000 7.67000 28.23700
H  5.13900 9.07700 24.37700
H  3.59100 8.21900 24.61600
H  4.20700 8.63900 22.95400
H  8.73600 3.40500 21.86200
H  9.15300 0.56300 22.83200
H  6.23400 2.06700 22.31800
H  7.43100 0.92100 21.73100
H  7.00900 2.36200 20.76500
H  10.67000 1.80600 21.16100
H  11.35600 0.87200 22.45100
H  11.16000 3.53600 23.52700
H  11.89700 3.68600 21.95800
H  12.70400 2.74700 23.14500
H  12.24600 -1.51300 27.96400
H  12.88700 -0.66900 26.58700
H  11.42400 -1.70900 26.35600
H  11.55300 2.13800 31.48500
H  9.77000 -0.64200 34.37600
H  9.67100 1.07800 34.90900
H  11.19300 0.18800 35.00300
Mg 48.87100 34.82400 26.52500
C  46.79700 33.23000 28.89200
C  48.97800 37.56100 28.52800
C  50.58000 36.42300 24.08700
C  48.16100 32.18000 24.23900
N  48.00600 35.21900 28.64100
C  47.24600 34.44100 29.39800
C  47.05700 35.11900 30.77600
C  47.41000 36.65300 30.39900
C  48.23100 36.47400 29.13600
C  46.24000 37.69500 30.35600
C  47.90100 34.41300 31.95800
C  48.58400 35.30000 33.04300
H  47.62900 36.09100 34.03300
N  49.65900 36.67900 26.35600
C  49.66100 37.68400 27.30400
C  50.44200 38.85100 26.78600
C  51.03700 38.44200 25.55900
C  50.47500 37.09700 25.31000
C  50.47700 40.25200 27.39500
C  52.06800 39.12800 24.61800
O  52.44400 38.70000 23.51400
C  52.63700 40.42500 25.10800
N  49.02100 34.52900 24.39300
C  49.92400 35.27200 23.63700
C  50.14100 34.78100 22.18000
C  49.55900 33.30400 22.37900
C  48.91600 33.27900 23.76000
C  49.46800 35.63700 21.00300
C  50.50200 32.14600 22.06400
C  50.46100 31.67200 20.61600
N  47.71700 33.02600 26.61400
C  47.53400 32.11800 25.55000
C  46.56500 31.14300 26.05200
C  46.21700 31.55400 27.36400
C  46.99500 32.66200 27.64200
C  46.12100 29.96100 25.32500
C  45.38700 31.20400 28.53200
O  44.53600 30.32700 28.72200
C  45.69900 32.31900 29.54700
C  46.15200 31.63000 30.82300
O  47.28200 31.19500 31.04200
O  45.14200 31.72100 31.72600
C  45.41400 31.58200 33.19200
H  48.94100 38.44100 29.17300
H  51.03900 36.92300 23.23100
H  48.05200 31.23900 23.69500
H  46.00100 35.00800 31.02100
H  48.06700 37.03300 31.18100
H  46.60200 38.66200 30.70500
H  45.30000 37.50500 30.87500
H  46.06100 37.96200 29.31400
H  48.77900 33.95700 31.49900
H  47.31100 33.65400 32.47200
H  49.28200 35.94000 32.50300
H  49.28500 34.75100 33.67100
H  49.70700 40.32300 28.16400
H  50.25500 41.03100 26.66600
H  51.50100 40.48000 27.68900
H  53.30100 40.68200 24.28300
H  53.22800 40.18600 25.99200
H  51.86100 41.18900 25.15900
H  51.21100 34.74400 21.97200
H  48.77700 33.34600 21.62100
H  49.97800 36.59700 21.08500
H  48.40900 35.84600 21.15500
H  49.65700 35.05200 20.10200
H  50.23800 31.37300 22.78600
H  51.50600 32.53100 22.24200
H  50.08900 30.64800 20.62500
H  51.43000 31.67300 20.11700
H  49.74300 32.20100 19.98900
H  46.05600 30.20100 24.26400
H  45.10400 29.71200 25.62800
H  46.82000 29.15500 25.55200
H  44.77900 32.90200 29.59600
H  46.38900 31.14200 33.39900
H  44.69600 30.91000 33.66300
H  45.42300 32.48400 33.80400

