158

Mg 7.69200 3.24200 27.40500
C  8.86600 1.93800 30.42200
C  5.40600 5.10900 28.89900
C  6.65200 4.03000 24.40600
C  9.63200 0.46100 25.77400
N  7.14800 3.37300 29.41400
C  7.84500 2.89000 30.47300
C  7.21200 3.47200 31.78700
C  5.94400 4.24000 31.27800
C  6.19900 4.31100 29.75300
C  4.66000 3.63200 31.79200
C  8.21000 4.29500 32.59200
C  7.98400 4.11000 34.18500
H  9.28700 3.72200 34.94900
N  6.39000 4.71000 26.74900
C  5.45300 5.30500 27.51200
C  4.73200 6.18900 26.75300
C  5.01800 5.88700 25.39300
C  6.11200 4.86500 25.46800
C  3.78800 7.30000 27.35600
C  4.46200 6.57800 24.13400
O  4.86700 6.27300 23.02000
C  3.33400 7.57300 24.23500
N  8.05800 2.22700 25.30600
C  7.43400 2.86800 24.28700
C  7.72500 2.15900 22.93200
C  8.72800 1.04700 23.34100
C  8.78100 1.19300 24.89500
C  6.47500 1.61100 22.17100
C  10.14700 1.22600 22.65400
C  10.42400 0.25400 21.47300
N  8.96200 1.51100 27.95500
C  9.70800 0.62200 27.21900
C  10.60000 -0.10600 28.18300
C  10.33600 0.44200 29.43100
C  9.35800 1.39300 29.20900
C  11.63100 -1.04600 27.74700
C  10.73200 0.37900 30.77500
O  11.54900 -0.29200 31.38600
C  9.72900 1.38400 31.50700
C  8.88800 0.52300 32.40100
O  7.75200 0.05700 32.19800
O  9.52500 0.42500 33.64500
C  8.72900 -0.30500 34.56600
H  4.62100 5.67800 29.40200
H  6.18400 4.38100 23.48400
H  10.24500 -0.36600 25.40800
H  6.92100 2.60000 32.37200
H  5.95500 5.24500 31.69900
H  4.83300 2.79300 32.46700
H  3.99000 3.40100 30.96400
H  4.21100 4.38700 32.43700
H  8.03400 5.35500 32.40900
H  9.22200 4.08800 32.24700
H  7.30400 3.29900 34.44600
H  7.65900 5.07900 34.56500
H  4.06600 7.30700 28.41000
H  2.80400 6.87900 27.14900
H  3.94500 8.26400 26.87200
H  2.75000 7.73300 23.32900
H  3.78400 8.51900 24.53400
H  2.62200 7.22900 24.98500
H  8.27500 2.83400 22.27700
H  8.31900 0.04200 23.24500
H  5.57100 1.95200 22.67500
H  6.60900 0.53200 22.09500
H  6.36800 2.06700 21.18700
H  10.90600 1.02000 23.40900
H  10.40500 2.23800 22.34000
H  9.47800 -0.14300 21.10600
H  11.01700 -0.57100 21.86800
H  10.96700 0.77200 20.68300
H  11.24000 -2.06300 27.76500
H  12.56100 -1.07400 28.31400
H  11.76000 -0.85200 26.68200
H  10.31700 2.10800 32.07200
H  8.28200 -1.24900 34.25600
H  8.05100 0.37500 35.08100
H  9.41300 -0.78100 35.26900
Mg 44.76800 4.68200 48.25500
C  42.66100 7.44200 47.35300
C  42.21800 2.62100 47.40200
C  46.99000 2.14000 48.37000
C  47.48200 6.99000 48.47400
N  42.68600 4.95800 47.42300
C  42.00400 6.17900 47.14200
C  40.52400 5.90000 46.62500
C  40.43500 4.35900 46.96400
C  41.84200 3.94800 47.37700
C  39.46600 4.11600 48.16400
C  40.47500 6.16200 45.07700
C  39.02000 6.46400 44.49100
H  38.89400 7.39100 43.26200
N  44.64100 2.71100 48.04600
C  43.51500 2.01000 47.64400
C  43.84300 0.63700 47.79300
C  45.18400 0.43200 48.21800
C  45.63400 1.81300 48.26400
C  42.75900 -0.48800 47.56400
C  45.75500 -0.89500 48.66100
O  45.08200 -1.91500 48.65000
C  47.19600 -0.93600 49.30400
N  46.92000 4.58300 48.30500
C  47.59400 3.40000 48.44900
C  49.06300 3.59800 48.52400
C  49.23300 5.19100 48.42000
C  47.82800 5.66500 48.40200
C  49.70300 2.90000 49.73800
C  50.11100 5.66700 47.18500
C  51.35800 6.52800 47.43800
N  45.13500 6.80100 47.94700
C  46.24100 7.59300 48.17900
C  45.93800 8.98200 47.94900
C  44.50100 9.01400 47.74000
C  44.08400 7.68100 47.69600
C  46.96900 10.14500 48.04600
C  43.27500 9.85300 47.45300
O  43.17600 11.08800 47.30700
C  42.07400 8.87300 47.20500
C  41.03000 9.27400 48.16400
O  40.98200 8.84300 49.34200
O  40.10500 10.26000 47.58000
C  38.99300 10.69600 48.49000
H  41.35100 1.97100 47.26400
H  47.81300 1.44700 48.55600
H  48.32300 7.68500 48.53100
H  39.84600 6.52800 47.20400
H  40.16500 3.70200 46.13700
H  39.08600 5.06400 48.54700
H  39.92600 3.62200 49.01900
H  38.66400 3.43000 47.89100
H  40.74600 5.31800 44.44300
H  41.23000 6.85200 44.70000
H  38.43400 6.86900 45.31700
H  38.67500 5.44500 44.31700
H  41.96300 -0.18900 46.88100
H  42.22400 -0.61600 48.50500
H  43.26000 -1.35400 47.13300
H  47.30800 -1.97200 49.62300
H  47.38900 -0.21100 50.09500
H  47.91600 -0.87500 48.48800
H  49.46500 3.13200 47.62400
H  49.76000 5.61600 49.27400
H  50.39300 2.11700 49.42300
H  48.96400 2.48200 50.42100
H  50.26900 3.64800 50.29300
H  49.38900 6.35500 46.74700
H  50.39300 4.92900 46.43300
H  51.60500 6.41700 48.49300
H  51.17900 7.59900 47.33800
H  52.17100 6.25800 46.76300
H  47.13400 10.50700 49.06100
H  46.64200 11.00100 47.45600
H  47.92500 9.73400 47.72200
H  41.76600 9.01200 46.16900
H  38.09000 10.92400 47.92300
H  39.33000 11.61800 48.96400
H  38.70700 9.98700 49.26700

