158

Mg 16.38100 -2.24200 27.64100
C  15.23100 -0.26700 30.24300
C  18.43500 -3.84800 29.78400
C  17.48300 -3.97600 24.98500
C  14.46300 -0.14500 25.50100
N  16.86900 -2.00300 29.76800
C  16.24100 -1.17200 30.62300
C  16.75100 -1.40300 32.08300
C  17.78900 -2.59900 31.89500
C  17.67600 -2.89500 30.39700
C  19.15500 -2.28100 32.34900
C  15.61600 -1.83900 33.02300
C  15.45700 -1.07800 34.31700
H  16.68600 -0.45400 34.96200
N  17.75100 -3.75000 27.47900
C  18.46600 -4.37500 28.46600
C  19.38700 -5.28800 27.89800
C  19.01100 -5.43500 26.52300
C  18.04500 -4.32100 26.27000
C  20.51300 -5.98400 28.58400
C  19.45400 -6.45800 25.44400
O  19.03000 -6.47500 24.31500
C  20.48100 -7.47900 25.84200
N  16.10400 -2.01900 25.50200
C  16.58000 -2.89200 24.60700
C  16.20600 -2.50700 23.08800
C  15.17000 -1.39900 23.30300
C  15.22400 -1.11100 24.85100
C  17.51100 -2.04900 22.35600
C  13.77300 -1.78700 22.79100
C  13.16800 -1.04200 21.59100
N  15.07900 -0.69800 27.79300
C  14.40800 0.08600 26.85200
C  13.71100 1.11100 27.47600
C  14.01100 1.00400 28.77800
C  14.81000 -0.07900 28.96700
C  12.69600 2.09200 26.81700
C  13.84600 1.71900 30.03200
O  13.20400 2.71800 30.24600
C  14.63400 0.82300 31.09300
C  15.50400 1.94300 31.53900
O  16.31700 2.52300 30.77600
O  15.23800 2.43600 32.80700
C  16.09500 3.50200 33.30200
H  19.12300 -4.41000 30.41800
H  17.79900 -4.50900 24.08600
H  13.74200 0.51300 25.01200
H  17.35500 -0.59800 32.50100
H  17.33100 -3.50900 32.28100
H  19.86600 -2.09700 31.54300
H  19.50200 -3.20000 32.82000
H  19.10400 -1.51800 33.12600
H  15.73200 -2.88000 33.32600
H  14.63700 -1.82400 32.54300
H  14.86600 -1.71700 34.97300
H  14.75700 -0.29500 34.02400
H  20.06300 -6.96300 28.75200
H  20.65700 -5.52200 29.56100
H  21.41800 -5.98600 27.97600
H  20.24200 -8.08600 26.71600
H  21.47500 -7.05400 25.98000
H  20.51500 -8.12400 24.96400
H  15.88700 -3.43500 22.61300
H  15.40600 -0.50300 22.72800
H  18.30900 -1.88300 23.08000
H  17.35000 -1.15800 21.75000
H  17.86400 -2.84800 21.70200
H  13.03100 -1.68100 23.58300
H  13.79600 -2.85900 22.59500
H  13.89200 -1.05800 20.77600
H  12.93400 -0.05900 21.99800
H  12.26600 -1.57700 21.29200
H  13.25000 2.83900 26.24800
H  11.97500 2.55200 27.49300
H  12.17100 1.49400 26.07200
H  14.04600 0.49000 31.94900
H  17.10000 3.43500 32.88600
H  16.13800 3.33700 34.37800
H  15.76300 4.51900 33.09200
Mg 40.42400 10.08300 29.94100
C  42.59400 11.26500 32.44500
C  38.38800 8.72900 32.27300
C  38.42900 8.90400 27.53600
C  42.72400 11.05300 27.57900
N  40.48600 10.09500 32.10800
C  41.47200 10.60300 32.93600
C  41.03200 10.44300 34.42500
C  39.69300 9.56000 34.36800
C  39.56600 9.39900 32.84700
C  39.80600 8.16900 35.09100
C  40.84500 11.79400 35.04200
C  40.22000 11.97300 36.42200
H  40.89500 12.89300 37.42100
N  38.65300 8.88000 29.87600
C  37.94000 8.48200 30.98100
C  36.76700 7.70200 30.59100
C  36.75300 7.83000 29.22600
C  37.97700 8.55600 28.77900
C  35.70700 7.08500 31.62200
C  35.77000 7.23500 28.20700
O  35.82100 7.34600 27.01400
C  34.51800 6.50700 28.68800
N  40.63500 9.79600 27.77700
C  39.58600 9.47100 26.99100
C  39.83100 9.74500 25.51900
C  41.21400 10.60000 25.55200
C  41.63500 10.45500 27.08100
C  39.89700 8.43700 24.66900
C  41.10800 12.05000 25.12300
C  40.00500 12.89300 25.74100
N  42.35400 10.81400 29.98000
C  43.12500 11.21900 28.93000
C  44.29900 11.77000 29.39900
C  44.11500 11.87900 30.81700
C  42.93500 11.23100 31.08300
C  45.37900 12.29000 28.58200
C  44.62700 12.48300 31.98800
O  45.66000 13.12000 32.13300
C  43.70800 12.01800 33.19000
C  44.45500 11.11400 34.17800
O  44.93500 10.03800 33.94800
O  44.47700 11.75100 35.35700
C  45.09200 11.18400 36.52700
H  37.63000 8.33500 32.95400
H  37.69000 8.58900 26.79600
H  43.29800 11.66200 26.87700
H  41.79600 9.87100 34.95100
H  38.78200 10.05300 34.70600
H  39.32800 7.37900 34.51200
H  39.25600 8.35900 36.01200
H  40.85000 8.13400 35.40200
H  40.34000 12.40700 34.29500
H  41.84200 12.22800 35.12000
H  40.30900 11.03400 36.97000
H  39.17500 12.26100 36.30700
H  36.14500 7.11900 32.62000
H  35.37900 6.06700 31.41300
H  34.82900 7.72900 31.57000
H  34.57600 5.66600 29.37800
H  33.91500 6.26300 27.81400
H  34.05200 7.37200 29.16100
H  38.99900 10.37200 25.19900
H  41.99600 10.13100 24.95500
H  39.50500 8.59200 23.66300
H  39.38600 7.59500 25.13600
H  40.93400 8.10200 24.64900
H  40.75200 12.10800 24.09500
H  42.07700 12.52500 25.27800
H  40.49800 13.64100 26.36200
H  39.22600 12.39700 26.31900
H  39.41800 13.46900 25.02500
H  44.96200 13.13800 28.03900
H  45.57700 11.55600 27.80100
H  46.32200 12.60500 29.02800
H  43.33700 12.95600 33.60500
H  45.53900 11.94000 37.17300
H  45.93600 10.59800 36.16300
H  44.44800 10.46700 37.03600

