158

Mg 41.05200 41.50400 26.63000
C  40.42000 43.97200 29.11000
C  41.66800 39.36900 29.25500
C  42.14400 39.26500 24.32700
C  40.54600 43.91500 24.20000
N  41.22100 41.81000 28.98600
C  40.73200 42.81600 29.74800
C  40.64500 42.37200 31.22300
C  41.13400 40.90600 31.20200
C  41.21600 40.63900 29.68300
C  42.50900 40.72600 32.01500
C  39.21500 42.46200 31.80400
C  38.98000 41.92100 33.20300
H  38.34300 42.82700 34.32100
N  41.84300 39.56200 26.80200
C  42.07900 38.85900 27.97700
C  42.55600 37.49700 27.71100
C  42.58900 37.44700 26.23400
C  42.21600 38.81900 25.72100
C  42.84800 36.49900 28.87500
C  43.02100 36.25700 25.41000
O  43.18100 36.33900 24.18300
C  43.09000 34.92400 26.11700
N  41.38900 41.64100 24.56100
C  41.68200 40.50700 23.83700
C  41.26000 40.68600 22.36200
C  40.55400 42.06300 22.36600
C  40.80400 42.57100 23.81000
C  42.38500 40.57300 21.30200
C  39.10800 42.05100 21.97800
C  38.22600 40.98300 22.61000
N  40.69000 43.48700 26.57600
C  40.47600 44.35500 25.51900
C  40.18800 45.68500 25.95600
C  40.18700 45.62100 27.37200
C  40.42300 44.25200 27.72200
C  40.00700 46.97400 25.07200
C  39.93700 46.38300 28.56600
O  39.71500 47.55800 28.75500
C  40.17200 45.33400 29.83500
C  41.36500 45.98300 30.61300
O  42.57200 45.99200 30.30200
O  40.87600 46.46500 31.85400
C  41.80300 47.19700 32.67300
H  41.63700 38.65200 30.07800
H  42.46600 38.50700 23.61000
H  40.27300 44.67500 23.46400
H  41.25000 43.04300 31.83300
H  40.39500 40.19400 31.57000
H  42.73200 41.65500 32.53900
H  43.42700 40.50900 31.47000
H  42.36800 39.99300 32.80900
H  38.53900 41.89100 31.16600
H  38.81800 43.46600 31.65500
H  39.95500 41.65100 33.60900
H  38.34000 41.04900 33.06800
H  43.15000 37.03600 29.77400
H  43.73200 35.93800 28.57300
H  42.03300 35.78000 28.96000
H  42.12500 34.63400 26.53400
H  43.85800 35.00500 26.88600
H  43.38800 34.25600 25.30900
H  40.56200 39.92500 22.01300
H  41.05700 42.82900 21.77500
H  41.93400 40.63700 20.31100
H  43.01200 39.70200 21.48900
H  43.00500 41.46600 21.37700
H  39.05000 41.93400 20.89600
H  38.76500 43.04600 22.26200
H  37.39300 41.50500 23.08300
H  38.76600 40.26000 23.22100
H  37.85900 40.36400 21.79100
H  40.83200 47.68500 25.11100
H  39.21000 47.59100 25.48500
H  39.84700 46.63600 24.04800
H  39.30600 45.29400 30.49600
H  41.27200 47.99900 33.18600
H  42.71100 47.60900 32.23300
H  42.24200 46.51400 33.39900
Mg -10.09600 17.35300 42.49600
C  -6.71100 16.31100 42.18300
C  -9.08400 20.60900 41.85000
C  -13.33200 18.06600 42.21300
C  -10.92400 13.90500 42.60900
N  -8.07900 18.31700 42.03200
C  -6.83500 17.66700 41.97200
C  -5.67900 18.74100 41.73400
C  -6.54600 20.10900 41.90900
C  -7.96800 19.74200 41.95900
C  -6.17600 21.09000 43.09300
C  -4.86400 18.62200 40.39800
C  -5.60200 17.84900 39.26000
H  -5.05800 18.06500 37.82200
N  -11.08000 19.09400 42.11400
C  -10.47200 20.33600 41.83500
C  -11.42600 21.34600 41.64600
C  -12.69100 20.69000 41.91900
C  -12.44200 19.20000 42.11800
C  -11.10400 22.80500 41.27600
C  -14.05600 21.43700 41.97400
O  -14.08700 22.66300 41.81900
C  -15.34900 20.70700 42.21400
N  -11.87900 16.20200 42.35400
C  -13.10500 16.74600 42.28500
C  -14.23100 15.70500 42.30300
C  -13.47600 14.38300 42.58800
C  -12.02000 14.85200 42.41300
C  -15.37700 16.06500 43.35800
C  -13.94400 13.13500 41.83300
C  -15.19900 12.36300 42.32400
N  -9.09900 15.50900 42.49800
C  -9.62000 14.23900 42.63200
C  -8.53700 13.28200 42.81900
C  -7.39700 14.05100 42.59200
C  -7.79400 15.36900 42.40900
C  -8.70600 11.76400 42.89600
C  -5.97600 13.96400 42.49300
O  -5.27100 12.96900 42.46200
C  -5.46400 15.42200 42.28900
C  -4.44800 15.92100 43.35300
O  -3.31000 16.31200 43.06800
O  -4.99000 15.95200 44.63100
C  -4.38100 16.96300 45.52800
H  -8.87500 21.67000 41.69500
H  -14.37600 18.38100 42.25800
H  -11.14400 12.84400 42.74100
H  -5.01700 18.60500 42.58900
H  -6.50300 20.64500 40.96100
H  -7.02500 21.19300 43.76900
H  -6.01000 22.02900 42.56500
H  -5.33300 20.69600 43.66100
H  -3.93600 18.12800 40.68600
H  -4.68200 19.59200 39.93700
H  -6.61000 18.25800 39.32200
H  -5.61000 16.79100 39.52200
H  -10.34400 22.90500 40.50200
H  -10.68000 23.32600 42.13400
H  -11.96400 23.40200 40.97300
H  -15.49900 19.89000 41.50800
H  -16.23100 21.31800 42.02300
H  -15.53700 20.36200 43.23100
H  -14.69900 15.72200 41.31900
H  -13.51700 14.15100 43.65200
H  -15.03400 16.95700 43.88300
H  -15.41700 15.25400 44.08400
H  -16.32900 16.24800 42.86000
H  -13.11700 12.45400 41.63300
H  -14.15800 13.58300 40.86200
H  -16.07600 12.33800 41.67800
H  -15.64900 12.75600 43.23600
H  -14.88500 11.33600 42.51100
H  -7.81000 11.16800 43.06900
H  -9.12600 11.55700 41.91200
H  -9.37200 11.49900 43.71700
H  -4.89700 15.35000 41.36200
H  -4.00700 16.33700 46.33900
H  -5.14100 17.65500 45.89000
H  -3.60600 17.51700 44.99800

