158

Mg 1.19600 -0.62600 44.56200
C  4.67100 0.30200 43.75000
C  0.29200 2.35200 42.72100
C  -1.72600 -1.86600 44.08200
C  2.55200 -3.67900 45.49800
N  2.37400 1.07100 43.30500
C  3.74600 1.15100 43.15600
C  4.12500 2.36200 42.22300
C  2.81600 3.21200 42.24000
C  1.73300 2.13800 42.72400
C  2.74700 4.54800 43.02800
C  4.53200 1.85300 40.81600
C  5.98100 2.28400 40.30700
H  6.08800 2.79300 38.85800
N  -0.46700 0.20300 43.69100
C  -0.73200 1.38800 43.08000
C  -2.10300 1.56400 42.76100
C  -2.78400 0.38000 43.09300
C  -1.65000 -0.51800 43.67200
C  -2.64700 2.82700 42.08500
C  -4.29700 0.00100 42.88000
O  -5.06800 0.84900 42.42900
C  -4.89600 -1.21900 43.47300
N  0.58300 -2.44800 44.85600
C  -0.72100 -2.75100 44.59000
C  -1.05900 -4.15400 45.06200
C  0.21600 -4.66900 45.69100
C  1.19000 -3.61600 45.28500
C  -2.41300 -4.20700 45.90700
C  0.42200 -6.12600 45.32500
C  0.78700 -7.11400 46.45400
N  3.23000 -1.54300 44.80300
C  3.58400 -2.77800 45.19900
C  4.97500 -2.90300 45.35300
C  5.53000 -1.70400 44.81100
C  4.39900 -0.97000 44.41500
C  5.69300 -4.11600 45.84400
C  6.68400 -0.91900 44.44800
O  7.90800 -1.06000 44.50600
C  6.15600 0.34300 43.71300
C  6.70900 1.58200 44.34400
O  6.43700 2.05300 45.42500
O  7.52800 2.19700 43.39800
C  8.03000 3.53000 43.76800
H  -0.06700 3.25100 42.21600
H  -2.66800 -2.40200 43.94800
H  2.89700 -4.61700 45.93900
H  4.93000 2.90300 42.72200
H  2.47400 3.40600 41.22400
H  3.75000 4.89200 43.27900
H  2.36200 4.33300 44.02500
H  2.15700 5.24700 42.43500
H  3.86600 2.19200 40.02300
H  4.57700 0.76400 40.84000
H  6.66100 1.44000 40.42700
H  6.35400 2.96800 41.06900
H  -2.49700 2.70300 41.01300
H  -2.23400 3.73200 42.53000
H  -3.72400 2.86200 42.25100
H  -5.97200 -1.12500 43.62000
H  -4.43600 -1.42600 44.44000
H  -4.70100 -2.03400 42.77500
H  -1.24300 -4.72400 44.15200
H  0.27300 -4.62500 46.77900
H  -2.26400 -4.56500 46.92500
H  -3.13200 -4.86000 45.41200
H  -2.86600 -3.21500 45.93100
H  1.28400 -6.15600 44.65800
H  -0.33500 -6.58200 44.68600
H  1.56300 -7.82300 46.16500
H  -0.08000 -7.75800 46.60300
H  0.96900 -6.59300 47.39400
H  6.58700 -3.78900 46.37600
H  5.76700 -4.66200 44.90400
H  5.07900 -4.73000 46.50200
H  6.62200 0.41100 42.73000
H  8.91000 3.82500 43.19500
H  8.32200 3.45600 44.81500
H  7.33100 4.36600 43.77100
Mg -3.00000 34.22700 26.42800
C  -4.76900 32.73800 29.11900
C  -2.18500 36.79700 28.67500
C  -1.20300 35.45700 24.10300
C  -4.23200 31.75900 24.30100
N  -3.55200 34.71500 28.64700
C  -4.15600 33.92000 29.53000
C  -4.13600 34.54900 30.92800
C  -3.43200 35.92900 30.69300
C  -3.07800 35.88300 29.21700
C  -4.16400 37.24900 31.17500
C  -3.35600 33.65800 32.04700
C  -3.18300 34.34800 33.35300
H  -3.49300 33.67900 34.69600
N  -1.79000 35.86700 26.43700
C  -1.61800 36.78400 27.36300
C  -0.71400 37.71000 26.89000
C  -0.30800 37.33500 25.61400
C  -1.15500 36.16600 25.33600
C  -0.26800 38.84300 27.71100
C  0.77600 38.04000 24.73700
O  1.03500 37.63700 23.65300
C  1.51700 39.24400 25.26700
N  -2.63600 33.66400 24.56300
C  -1.82000 34.25900 23.74400
C  -1.65200 33.60300 22.33600
C  -2.71600 32.53100 22.34700
C  -3.21400 32.61800 23.88800
C  -1.65400 34.63200 21.14800
C  -2.24000 31.18600 21.82400
C  -3.13600 30.56800 20.73200
N  -4.23200 32.64300 26.64500
C  -4.71600 31.71300 25.63700
C  -5.63600 30.76800 26.26000
C  -5.63800 31.15000 27.61300
C  -4.78500 32.29900 27.75800
C  -6.48200 29.68800 25.61100
C  -6.20200 30.74100 28.93300
O  -6.99300 29.88000 29.26100
C  -5.58400 31.75500 29.94400
C  -6.70400 32.36200 30.66400
O  -7.57600 32.99400 30.14100
O  -6.47900 32.34100 32.01800
C  -7.36800 33.05100 32.96100
H  -1.73800 37.38700 29.47800
H  -0.48000 35.86700 23.39500
H  -4.73300 31.08000 23.60900
H  -5.15800 34.80500 31.20700
H  -2.47500 35.95800 31.21300
H  -5.17100 37.01000 31.51600
H  -4.31000 37.93900 30.34400
H  -3.55800 37.77300 31.91400
H  -2.39400 33.34400 31.64200
H  -3.86600 32.71000 32.21900
H  -3.68100 35.31700 33.38900
H  -2.12100 34.57900 33.44300
H  -0.48600 39.73200 27.11800
H  0.77600 38.77900 28.01800
H  -0.75600 39.03100 28.66700
H  2.27100 39.49900 24.52300
H  1.94800 39.00800 26.24000
H  0.85300 40.10900 25.25200
H  -0.66600 33.15900 22.47400
H  -3.53900 32.80400 21.68700
H  -2.19000 35.49100 21.55000
H  -2.22100 34.24300 20.30100
H  -0.63400 34.95200 20.93200
H  -2.26600 30.45300 22.63000
H  -1.19300 31.20500 21.52400
H  -3.20300 29.48700 20.85500
H  -2.83600 30.76500 19.70300
H  -4.12300 31.01200 20.86200
H  -5.98400 29.25100 24.74600
H  -7.41000 30.13500 25.25700
H  -6.71900 28.90700 26.33400
H  -4.90300 31.16500 30.55500
H  -6.99600 34.06400 33.11200
H  -7.38200 32.46000 33.87700
H  -8.41900 33.06700 32.67300

