158

Mg -0.62800 6.76000 25.10600
C  0.09400 7.89600 28.27000
C  -0.97600 3.48700 26.37900
C  -0.83700 5.49600 21.95400
C  0.20800 9.92100 23.79900
N  -0.38900 5.75900 27.06400
C  -0.26000 6.55100 28.24400
C  -0.62100 5.63000 29.46500
C  -0.75200 4.20600 28.88300
C  -0.77400 4.45800 27.36900
C  0.43200 3.19000 29.18900
C  -1.83800 6.20500 30.27300
C  -1.80200 6.07700 31.81800
H  -1.08200 4.83100 32.48600
N  -0.99000 4.85100 24.28700
C  -1.14600 3.65100 24.98500
C  -1.59400 2.61000 24.09100
C  -1.45300 3.15600 22.78100
C  -1.09200 4.57200 22.92700
C  -1.95400 1.19100 24.52400
C  -1.43700 2.40600 21.40900
O  -1.25700 2.85400 20.29900
C  -1.84800 0.94500 21.37800
N  -0.19800 7.60900 23.07300
C  -0.49400 6.88600 21.97900
C  -0.41200 7.74200 20.74800
C  -0.41400 9.20700 21.36100
C  -0.18300 8.95000 22.88500
C  0.83100 7.38200 19.89900
C  -1.77000 9.99200 21.17000
C  -1.82000 10.99200 19.99400
N  0.16700 8.52300 25.87700
C  0.36100 9.80600 25.21400
C  0.72600 10.80100 26.21400
C  0.56600 10.11600 27.47900
C  0.23800 8.80100 27.18800
C  0.92200 12.26600 26.03300
C  0.56200 10.34700 28.89400
O  0.87700 11.27000 29.65300
C  0.28200 8.88100 29.42800
C  1.45000 8.43000 30.27300
O  2.52700 8.12300 29.79800
O  1.07700 8.45300 31.59400
C  2.18100 8.22500 32.61500
H  -1.07200 2.47900 26.78700
H  -0.93900 5.03300 20.97000
H  0.49300 10.84100 23.28400
H  0.25600 5.72200 30.10600
H  -1.67100 3.71000 29.19800
H  -0.03700 2.22300 29.37200
H  0.94800 3.41000 30.12400
H  1.15600 3.12500 28.37700
H  -2.72300 5.68600 29.90400
H  -2.05300 7.25900 30.09700
H  -2.79400 6.13900 32.26500
H  -1.27200 6.98400 32.11100
H  -1.06800 0.58100 24.34800
H  -2.75200 0.74700 23.92800
H  -2.21000 1.11000 25.58000
H  -1.93200 0.55100 20.36500
H  -2.87700 0.99100 21.73400
H  -1.15400 0.31900 21.93800
H  -1.27200 7.50800 20.12100
H  0.39500 9.75700 20.87900
H  0.77100 8.03600 19.02900
H  0.68600 6.33700 19.62300
H  1.78500 7.49200 20.41500
H  -1.83600 10.49400 22.13500
H  -2.68200 9.39500 21.16900
H  -1.78700 11.98400 20.44500
H  -2.71300 10.85800 19.38300
H  -0.96800 10.88500 19.32200
H  0.13400 12.72300 25.43400
H  1.89900 12.39700 25.56800
H  0.76500 12.74900 26.99800
H  -0.54100 8.99200 30.13400
H  3.12200 7.89600 32.17400
H  1.82500 7.58400 33.42200
H  2.43400 9.16400 33.10700
Mg 54.16300 24.41400 44.46000
C  51.45300 26.33800 43.29600
C  52.50200 21.65000 43.42800
C  57.03500 22.76600 44.52600
C  55.93500 27.42200 45.09600
N  52.16800 24.11900 43.41400
C  51.24800 24.97600 43.00200
C  50.01200 24.24000 42.44800
C  50.22800 22.75600 42.99400
C  51.72600 22.81300 43.37500
C  49.30200 22.26300 44.14700
C  49.87800 24.36400 40.86300
C  48.82100 23.43900 40.22800
H  48.33400 23.69200 38.77200
N  54.67000 22.43800 44.20900
C  53.82700 21.48600 43.80600
C  54.58000 20.19300 43.83800
C  55.93700 20.51800 43.97700
C  55.91000 21.94700 44.26300
C  53.83700 18.87500 43.67100
C  57.12300 19.52700 43.70300
O  56.83000 18.36900 43.42300
C  58.57200 19.89600 43.80500
N  56.24400 25.06400 44.62400
C  57.21700 24.13700 44.75500
C  58.61000 24.84100 44.81300
C  58.22500 26.32300 45.10400
C  56.73200 26.29700 44.89600
C  59.60700 24.17600 45.93200
C  58.93400 27.33000 44.15400
C  58.31500 27.74100 42.75000
N  53.73600 26.47100 44.36500
C  54.46300 27.59600 44.78400
C  53.65800 28.84900 44.69200
C  52.48800 28.36600 43.99500
C  52.59000 26.96000 43.87000
C  54.11000 30.14400 45.01000
C  51.27200 28.82100 43.32300
O  50.95000 29.96700 43.04900
C  50.56900 27.52000 42.86800
C  50.37600 27.67800 41.42700
O  51.18800 27.80100 40.55500
O  49.03400 27.70800 41.24000
C  48.64100 27.90500 39.80900
H  51.92700 20.82100 43.01000
H  57.94400 22.16100 44.55600
H  56.59200 28.27200 45.29300
H  49.16500 24.75500 42.90300
H  50.14200 21.99000 42.22300
H  48.81300 21.30800 43.95200
H  48.49700 22.99200 44.05400
H  49.77500 22.33000 45.12600
H  50.88400 24.15300 40.50000
H  49.63600 25.41400 40.70200
H  48.00800 23.42400 40.95400
H  49.26800 22.46000 40.05200
H  53.58100 18.80700 42.61300
H  52.97700 19.01500 44.32600
H  54.36200 18.02800 44.11200
H  58.92300 20.55500 43.01100
H  59.20600 19.01800 43.68400
H  58.75700 20.23700 44.82400
H  59.06700 24.64200 43.84300
H  58.48900 26.57300 46.13100
H  60.29100 24.96700 46.24200
H  60.19900 23.34800 45.54300
H  59.11900 23.99100 46.88800
H  59.97000 27.07900 43.92700
H  59.18500 28.22200 44.72800
H  58.03700 28.79400 42.69500
H  57.46100 27.12200 42.47400
H  59.06300 27.62100 41.96600
H  55.14800 30.10300 44.67900
H  54.06200 30.38000 46.07300
H  53.56400 30.99000 44.59200
H  49.64400 27.62900 43.43400
H  48.65500 26.94500 39.29200
H  49.36100 28.57800 39.34400
H  47.70800 28.42800 39.60100

