158

Mg 35.46800 1.29400 29.63800
C  33.33300 2.85600 31.90300
C  37.90000 1.28500 32.03500
C  37.65200 0.23100 27.33500
C  33.05500 1.85000 27.10600
N  35.57300 2.07600 31.78100
C  34.52900 2.47300 32.51300
C  34.91900 2.52600 34.05300
C  36.45200 2.17500 33.98700
C  36.67900 1.76500 32.54600
C  37.53600 3.15800 34.52000
C  34.12700 1.41500 34.91700
C  33.29900 2.02000 36.03300
H  33.98300 3.09300 36.80300
N  37.44500 0.74200 29.69200
C  38.25000 0.73000 30.76800
C  39.51300 0.14300 30.44200
C  39.55300 0.07100 29.00600
C  38.21900 0.34900 28.60300
C  40.63800 0.10100 31.51200
C  40.75600 -0.21400 28.10900
O  40.64600 -0.10100 26.88200
C  42.13400 -0.57900 28.66100
N  35.37500 1.16600 27.55300
C  36.42400 0.61600 26.80300
C  36.03200 0.49400 25.33900
C  34.49000 0.66300 25.34600
C  34.25800 1.23700 26.75900
C  36.74500 1.53700 24.51900
C  33.58200 -0.63000 24.99400
C  34.19700 -2.03800 25.20000
N  33.64100 2.19100 29.45100
C  32.71200 2.25900 28.39100
C  31.40200 2.71500 28.84200
C  31.65800 2.97600 30.25000
C  32.99900 2.71500 30.54700
C  30.11500 2.76300 28.14200
C  31.04700 3.34800 31.54300
O  29.86800 3.58000 31.79000
C  32.16900 3.39600 32.62300
C  32.43400 4.73200 33.20800
O  33.50200 5.29100 33.21700
O  31.29600 5.20100 33.76900
C  31.51300 6.42300 34.52800
H  38.66800 1.07800 32.78300
H  38.37800 -0.23100 26.66300
H  32.25400 1.97100 26.37400
H  34.77500 3.54600 34.40700
H  36.61100 1.19100 34.42800
H  37.11300 3.68300 35.37600
H  38.01000 3.74900 33.73600
H  38.36900 2.58900 34.93200
H  34.78200 0.70500 35.42300
H  33.57600 0.81800 34.19100
H  32.95200 1.21700 36.68300
H  32.41600 2.37400 35.50000
H  41.49100 -0.50700 31.21000
H  40.32600 -0.08100 32.54000
H  41.04900 1.10500 31.62000
H  42.10600 -1.31100 29.46800
H  42.50500 0.33900 29.11700
H  42.80400 -0.66100 27.80600
H  36.31500 -0.46600 24.90900
H  34.13000 1.51200 24.76600
H  37.75100 1.71800 24.89800
H  36.13600 2.44100 24.55500
H  36.83100 1.12000 23.51600
H  33.35400 -0.55200 23.93000
H  32.68600 -0.54400 25.60900
H  35.07600 -2.09800 25.84200
H  34.35300 -2.48800 24.22000
H  33.41000 -2.65700 25.63100
H  29.99400 3.80100 27.83200
H  29.28100 2.48700 28.78700
H  30.07200 2.06500 27.30700
H  31.79600 2.82100 33.47100
H  31.87800 7.25400 33.92400
H  32.25900 6.30100 35.31200
H  30.56400 6.60600 35.03300
Mg 0.55700 43.44100 26.47200
C  2.94100 43.31800 29.06800
C  -1.91500 42.68000 28.70600
C  -1.47100 43.04600 23.85300
C  3.37800 43.89400 24.21500
N  0.58800 43.14500 28.61100
C  1.66600 43.14500 29.49100
C  1.09900 43.35200 30.92700
C  -0.34700 42.73600 30.83100
C  -0.64500 42.82400 29.28900
C  -0.40700 41.28000 31.30900
C  1.08900 44.82600 31.45300
C  1.08900 44.95900 32.99200
H  0.73300 43.75100 33.81300
N  -1.49200 43.02700 26.33900
C  -2.37800 42.81700 27.36000
C  -3.68500 42.69800 26.87000
C  -3.59900 42.64700 25.42200
C  -2.16000 42.97800 25.10100
C  -4.94100 42.49600 27.77400
C  -4.68500 42.49300 24.35000
O  -4.37600 42.63000 23.16600
C  -6.13000 42.26000 24.69200
N  0.85000 43.68700 24.33100
C  -0.17000 43.34600 23.47800
C  0.33000 43.31400 22.03700
C  1.77300 43.80700 22.15100
C  2.05100 43.76500 23.66800
C  0.15800 41.92800 21.26400
C  2.10600 45.12900 21.39000
C  2.08800 46.44700 22.19600
N  2.73000 43.56400 26.51000
C  3.74900 43.78000 25.54000
C  5.01700 43.67800 26.15500
C  4.76000 43.52400 27.52500
C  3.37300 43.42200 27.68200
C  6.33100 43.82700 25.30900
C  5.41600 43.33700 28.85000
O  6.54800 43.15000 29.11400
C  4.22800 43.39300 29.90800
C  4.25900 42.36900 30.96300
O  4.31500 41.13500 30.76000
O  4.37800 42.92900 32.23600
C  4.55500 42.08300 33.38700
H  -2.74600 42.42100 29.36500
H  -2.00000 42.56300 23.02800
H  4.15600 43.93500 23.45000
H  1.74700 42.70000 31.51300
H  -1.09300 43.33800 31.35000
H  0.43700 41.04500 31.95700
H  -0.47200 40.62300 30.44100
H  -1.31300 41.10800 31.88900
H  0.18300 45.24000 31.01100
H  1.86900 45.49000 31.08100
H  0.31000 45.70500 33.15300
H  2.06100 45.32600 33.32000
H  -4.95100 41.48800 28.19000
H  -5.82400 42.71700 27.17500
H  -4.82000 43.24300 28.55900
H  -6.06900 41.41900 25.38400
H  -6.64500 42.05100 23.75500
H  -6.50300 43.15200 25.19600
H  -0.20300 44.11400 21.52300
H  2.46200 43.05400 21.77000
H  1.11100 41.40400 21.18900
H  -0.18700 42.15700 20.25600
H  -0.52200 41.23800 21.76300
H  1.35400 45.26200 20.61200
H  3.09500 44.96900 20.95900
H  3.06600 46.91500 22.31000
H  1.48600 46.37000 23.10100
H  1.65300 47.15000 21.48600
H  6.48200 44.90200 25.41100
H  6.21000 43.47800 24.28400
H  7.20300 43.43300 25.83100
H  4.21700 44.37900 30.37400
H  4.40200 42.63000 34.31700
H  5.52400 41.59100 33.30300
H  3.82900 41.27000 33.42600

