158

Mg -0.13400 7.42400 26.57500
C  0.92700 9.52500 29.23200
C  -0.57400 5.02900 28.82600
C  -0.95500 5.47400 24.02600
C  0.16500 10.15400 24.37500
N  0.23500 7.37400 28.76900
C  0.50400 8.33700 29.69300
C  0.45100 7.82500 31.09900
C  -0.03700 6.30500 30.89700
C  -0.14600 6.17400 29.37900
C  0.79300 5.14500 31.63000
C  -0.50500 8.62000 32.11800
C  0.09400 8.81100 33.55900
H  1.20300 7.93000 34.13300
N  -0.65500 5.47100 26.43800
C  -0.78100 4.64300 27.52600
C  -1.31500 3.34400 27.04300
C  -1.54100 3.42300 25.62400
C  -0.99000 4.77200 25.32200
C  -1.64400 2.25100 28.05200
C  -2.18300 2.42300 24.67000
O  -2.30900 2.67600 23.48900
C  -2.67200 1.08900 25.11400
N  -0.29300 7.81100 24.46700
C  -0.73800 6.81500 23.68600
C  -1.12800 7.38100 22.26400
C  -0.75600 8.88600 22.35400
C  -0.36400 8.99700 23.85400
C  -0.33800 6.64900 21.18500
C  -2.05500 9.76400 22.15000
C  -2.06600 10.72700 20.97100
N  0.54700 9.36200 26.63700
C  0.60400 10.38600 25.70100
C  1.10700 11.61000 26.27100
C  1.32100 11.28200 27.67700
C  0.93200 9.96200 27.83500
C  1.39700 12.97000 25.59400
C  1.64100 11.91300 28.96400
O  2.06200 13.03800 29.23000
C  1.37200 10.73100 30.01900
C  2.65800 10.45100 30.71200
O  3.54300 9.77800 30.19100
O  2.66000 11.06900 31.98100
C  3.89000 10.91700 32.72400
H  -0.82800 4.29200 29.59100
H  -1.17600 4.81000 23.18700
H  0.10800 11.05000 23.75400
H  1.47600 7.78400 31.46700
H  -1.03000 6.13100 31.31200
H  1.66600 5.56100 32.13200
H  1.13500 4.37000 30.94400
H  0.17100 4.69300 32.40300
H  -1.51200 8.21200 32.21200
H  -0.72400 9.63700 31.79200
H  -0.65000 8.63600 34.33700
H  0.44900 9.84100 33.58500
H  -2.68600 2.26800 28.37400
H  -1.08300 2.33400 28.98300
H  -1.36900 1.31400 27.56900
H  -1.93000 0.36500 25.45000
H  -3.20000 0.61900 24.28500
H  -3.48300 1.36000 25.79100
H  -2.20400 7.22000 22.18900
H  0.06100 9.17900 21.69500
H  -0.94100 6.02400 20.52700
H  0.49400 6.08000 21.60000
H  0.23000 7.27700 20.49800
H  -2.09000 10.46500 22.98400
H  -2.93500 9.12000 22.14500
H  -3.01400 10.45600 20.50500
H  -1.28700 10.51300 20.23900
H  -2.07500 11.79500 21.18600
H  1.28500 13.78800 26.30500
H  0.65800 13.09300 24.80300
H  2.44000 12.99700 25.27700
H  0.55000 11.09900 30.63400
H  4.13000 11.97200 32.86000
H  4.67400 10.34500 32.22800
H  3.50300 10.50800 33.65700
Mg 49.22200 36.53000 27.34500
C  47.17900 34.79300 29.74800
C  48.99100 39.31400 29.29500
C  50.76900 38.12100 24.91600
C  48.61500 33.76500 25.26900
N  48.18100 36.97800 29.29500
C  47.55000 36.09700 30.11700
C  47.16500 36.81300 31.43200
C  47.60700 38.29100 31.18300
C  48.32200 38.19600 29.83500
C  46.57500 39.45500 31.30100
C  47.81500 36.23100 32.80400
C  46.73900 36.04000 33.99200
H  46.50200 37.18600 35.02600
N  49.86000 38.48700 27.15100
C  49.78100 39.46000 28.09900
C  50.53700 40.63600 27.62400
C  51.12500 40.29700 26.29000
C  50.62100 38.94500 26.06900
C  50.71100 41.84300 28.59500
C  51.97100 41.16300 25.41400
O  52.32600 40.76300 24.29700
C  52.35100 42.59800 25.82900
N  49.48300 36.09600 25.43200
C  50.24800 36.86900 24.68600
C  50.56100 36.22400 23.28500
C  50.19900 34.69800 23.59000
C  49.33300 34.82300 24.81600
C  49.60600 36.86800 22.27000
C  51.40600 33.66700 23.67000
C  51.23200 32.31300 22.94100
N  48.16800 34.59200 27.46200
C  47.93700 33.63900 26.48700
C  46.98800 32.59500 27.00800
C  46.80400 32.98000 28.34100
C  47.46800 34.17800 28.52800
C  46.51200 31.39800 26.27800
C  46.09700 32.59600 29.60500
O  45.39100 31.62200 29.93300
C  46.44600 33.70900 30.58400
C  47.03700 33.01200 31.82000
O  48.16300 32.85000 32.17300
O  45.95000 32.61100 32.59600
C  46.30100 31.80000 33.74200
H  48.92700 40.12800 30.02000
H  51.20200 38.67400 24.08000
H  48.42000 32.97800 24.53800
H  46.08200 36.73100 31.51900
H  48.35800 38.60100 31.90900
H  46.57200 40.01700 30.36700
H  46.76200 40.19000 32.08300
H  45.65400 38.93000 31.55700
H  48.53100 36.99200 33.11500
H  48.35700 35.28900 32.72400
H  46.93900 35.08000 34.46900
H  45.72800 35.95300 33.59300
H  50.75700 41.44600 29.61000
H  49.91900 42.57200 28.43000
H  51.61900 42.44600 28.58200
H  52.98000 42.46600 26.70900
H  51.52800 43.25900 26.10000
H  52.90700 43.16700 25.08500
H  51.56700 36.42600 22.91600
H  49.48100 34.38900 22.83000
H  49.23600 37.75000 22.79300
H  48.86100 36.18300 21.86500
H  50.17700 37.30200 21.44900
H  51.57600 33.50500 24.73400
H  52.26300 34.27600 23.37800
H  51.42000 31.49300 23.63300
H  51.95900 32.37400 22.13200
H  50.24100 32.26900 22.48900
H  45.48700 31.60600 25.97200
H  46.60700 30.52200 26.92000
H  47.10600 31.21800 25.38100
H  45.46700 34.17500 30.69900
H  46.50700 30.77500 33.43500
H  45.43500 31.78400 34.40300
H  47.21200 32.10600 34.25600

