158

Mg 43.77100 2.81700 46.79000
C  42.59400 6.00700 45.75800
C  40.66500 1.59200 45.91000
C  45.05500 -0.30200 46.84000
C  46.92600 4.18000 46.85400
N  41.86600 3.74700 45.90600
C  41.59800 5.01600 45.62900
C  40.19900 5.19300 45.08400
C  39.45300 3.83500 45.56800
C  40.72900 2.99200 45.86100
C  38.71700 3.95400 46.94100
C  40.08900 5.54500 43.59800
C  39.46000 6.89500 43.26300
H  38.47400 6.76100 42.17000
N  42.98500 0.87800 46.38200
C  41.67100 0.58600 46.12000
C  41.54000 -0.87900 46.04900
C  42.80300 -1.50100 46.24900
C  43.67400 -0.30600 46.45900
C  40.25100 -1.52300 45.75700
C  43.09500 -3.02600 46.25000
O  42.13400 -3.83800 46.15800
C  44.48000 -3.57300 46.51200
N  45.73600 2.03500 46.71800
C  45.94600 0.73100 47.02700
C  47.28700 0.50700 47.68100
C  47.86400 1.95500 47.65900
C  46.80200 2.81800 46.99700
C  47.34400 -0.29500 49.01400
C  49.33000 2.06500 47.02600
C  50.43500 2.40600 47.91000
N  44.60200 4.71500 46.59000
C  45.91700 5.10800 46.54500
C  45.99200 6.55400 46.50600
C  44.67200 6.95100 46.24900
C  43.86000 5.73100 46.16300
C  47.18200 7.41900 46.62800
C  43.86700 8.11500 45.98800
O  44.16400 9.31000 45.88900
C  42.49900 7.46700 45.62000
C  41.47400 8.05100 46.47800
O  41.21800 7.62900 47.58000
O  40.79800 9.09300 45.87600
C  39.83800 9.79400 46.68600
H  39.63600 1.22500 45.89600
H  45.33300 -1.22200 47.35900
H  47.87100 4.60600 47.19700
H  39.70300 5.99200 45.63500
H  38.71900 3.34700 44.92700
H  38.29400 4.95900 46.95100
H  39.47600 3.84800 47.71600
H  38.01100 3.12400 46.96900
H  39.47000 4.87400 43.00300
H  41.08100 5.46500 43.15600
H  40.20300 7.64800 43.00000
H  39.00200 7.34700 44.14300
H  39.77700 -1.01900 44.91400
H  39.53400 -1.49500 46.57800
H  40.38700 -2.54700 45.40900
H  44.64100 -3.39500 47.57600
H  44.99900 -2.85700 45.87400
H  44.51400 -4.61700 46.20200
H  47.91900 -0.11500 47.04700
H  47.86700 2.35100 48.67400
H  46.36600 -0.19500 49.48500
H  48.06800 0.16800 49.68400
H  47.55900 -1.35700 48.89700
H  49.28100 2.89000 46.31600
H  49.56800 1.12100 46.53700
H  51.29700 1.77700 47.69000
H  50.24200 2.56900 48.97000
H  50.80600 3.38800 47.61800
H  47.42700 7.54900 47.68200
H  46.96400 8.43300 46.29100
H  47.98500 6.89900 46.10400
H  42.35600 7.61500 44.54900
H  38.93700 10.07300 46.14000
H  40.32000 10.71900 47.00100
H  39.43500 9.21100 47.51400
Mg 41.07400 41.78500 27.50000
C  40.54300 44.14300 30.04000
C  41.92100 39.59700 29.92700
C  42.00900 39.58400 25.10500
C  40.73200 44.17400 25.14300
N  41.11900 41.88300 29.70700
C  40.79500 42.89300 30.57300
C  40.83900 42.46800 32.05300
C  41.48700 41.07400 31.90900
C  41.57400 40.84100 30.36800
C  42.94500 40.84500 32.61600
C  39.38800 42.41600 32.72000
C  39.31400 41.45000 33.95500
H  38.61700 42.03800 35.14900
N  41.71900 39.82200 27.47700
C  41.99200 39.07500 28.55800
C  42.27500 37.70800 28.17800
C  42.30300 37.67000 26.76300
C  42.02600 39.06200 26.39400
C  42.43200 36.65000 29.16800
C  42.52100 36.51600 25.83300
O  42.52300 36.64800 24.63100
C  42.75800 35.08400 26.28600
N  41.51700 41.84000 25.44900
C  41.77700 40.86600 24.65400
C  41.59000 41.15300 23.17800
C  40.98500 42.59500 23.17900
C  41.04600 42.88800 24.66800
C  42.94700 41.06600 22.41800
C  39.58800 42.58600 22.45200
C  38.43400 41.77000 23.09400
N  40.84100 43.73900 27.53900
C  40.72500 44.61600 26.46000
C  40.59800 46.03400 26.96100
C  40.46600 45.87500 28.40200
C  40.61800 44.46800 28.67700
C  40.56800 47.23700 26.07700
C  40.23300 46.59400 29.58900
O  40.03500 47.73400 29.84700
C  40.23600 45.48100 30.73700
C  41.27900 45.82600 31.65700
O  42.48800 45.82800 31.49000
O  40.72200 46.27600 32.78600
C  41.61600 46.84800 33.81900
H  42.19900 38.88700 30.70900
H  42.10800 38.82200 24.33000
H  40.62300 44.85900 24.30000
H  41.46900 43.18100 32.58400
H  40.82700 40.30100 32.30300
H  43.07400 41.74500 33.21700
H  43.66000 40.69400 31.80700
H  42.81600 39.97900 33.26600
H  38.60700 42.35300 31.96300
H  39.41600 43.43200 33.11400
H  40.27700 41.01500 34.22200
H  38.69300 40.60600 33.65500
H  41.83700 36.92900 30.03800
H  43.45700 36.48100 29.49900
H  42.20500 35.63800 28.83300
H  41.73900 34.85000 26.59500
H  43.47400 35.13400 27.10700
H  43.08900 34.33300 25.56800
H  40.86200 40.47400 22.73500
H  41.63000 43.34600 22.72300
H  43.48000 40.20900 22.82900
H  43.53200 41.98600 22.44100
H  42.66300 40.87300 21.38300
H  39.79100 42.04100 21.53000
H  39.26000 43.59800 22.21200
H  37.58600 42.45200 23.04000
H  38.73200 41.33600 24.04800
H  38.19400 40.95000 22.41600
H  41.40000 47.91300 26.27400
H  39.72500 47.82400 26.44000
H  40.51700 47.05900 25.00300
H  39.32600 45.30200 31.31000
H  42.39100 47.39500 33.28200
H  41.99400 46.07100 34.48400
H  41.14700 47.69800 34.31500

