158

Mg 16.76000 52.00800 26.46300
C  18.98800 50.62200 28.76700
C  14.78900 53.09500 29.15000
C  14.75700 53.44800 24.17000
C  18.81700 50.94000 23.87500
N  16.92700 51.90400 28.67800
C  17.97000 51.41100 29.37000
C  17.70300 51.52000 30.88600
C  16.19100 51.93000 31.04100
C  15.94900 52.40300 29.52400
C  15.26500 50.69500 31.24800
C  18.71300 52.32000 31.60700
C  18.70400 52.11000 33.12700
H  17.55700 51.33500 33.81300
N  15.04900 53.13600 26.63100
C  14.42900 53.51000 27.82100
C  13.21600 54.23700 27.48600
C  13.14300 54.26600 26.00500
C  14.31400 53.60200 25.52200
C  12.25900 54.80100 28.55300
C  12.13200 55.04500 25.08700
O  12.21500 55.08700 23.85000
C  10.96800 55.62600 25.69100
N  16.86100 52.28500 24.31400
C  15.85600 52.87300 23.58800
C  16.15700 52.91700 22.10200
C  17.46700 52.01800 21.99100
C  17.79500 51.76700 23.45900
C  15.08300 52.29600 21.19800
C  18.66900 52.38200 21.07100
C  19.34300 53.73700 21.34500
N  18.35300 50.81000 26.28800
C  19.12900 50.47700 25.19800
C  20.26200 49.60600 25.60700
C  20.21900 49.59100 27.02900
C  19.07300 50.42400 27.40000
C  21.21300 48.87100 24.74200
C  20.90100 49.18300 28.23500
O  21.83800 48.45400 28.35100
C  20.17100 49.91500 29.43700
C  19.73900 48.77600 30.28800
O  18.80000 48.00300 30.08300
O  20.40600 48.89600 31.48500
C  19.99800 48.00000 32.60400
H  14.08200 53.29500 29.95800
H  14.20300 53.90900 23.35000
H  19.48900 50.53600 23.11500
H  17.87400 50.52100 31.28700
H  16.03300 52.81700 31.65400
H  14.82800 50.46100 30.27700
H  14.52300 50.95000 32.00500
H  15.89600 49.85500 31.53800
H  18.53000 53.31800 31.20900
H  19.64800 51.83800 31.31900
H  18.81400 53.05600 33.65800
H  19.60900 51.57000 33.40600
H  12.56100 54.62000 29.58500
H  11.26500 54.37100 28.43100
H  12.16000 55.88600 28.50800
H  11.43800 56.50000 26.14000
H  10.79000 54.91600 26.49800
H  10.15400 55.60800 24.96700
H  16.41200 53.88200 21.66300
H  17.24200 51.01500 21.62800
H  14.37100 51.75900 21.82500
H  15.35700 51.52900 20.47400
H  14.55800 53.15300 20.77600
H  18.06000 52.43600 20.16900
H  19.35300 51.54400 20.93700
H  20.30200 53.68800 21.86200
H  18.65100 54.37300 21.89700
H  19.51700 54.20600 20.37700
H  20.60200 48.39000 23.97800
H  21.80800 48.23100 25.39300
H  21.86600 49.57500 24.22500
H  20.86000 50.59600 29.93700
H  19.26500 48.54600 33.19800
H  20.93200 47.86000 33.14700
H  19.58500 47.12600 32.09900
Mg 9.90800 48.20400 26.23700
C  7.93500 48.58200 29.12200
C  12.70600 49.24700 28.14000
C  11.63000 48.14600 23.40900
C  6.89700 47.67500 24.48700
N  10.29900 48.86200 28.30700
C  9.34700 48.65300 29.36900
C  9.92900 49.04000 30.71600
C  11.33200 49.65000 30.28800
C  11.46900 49.31600 28.79500
C  11.42000 51.16000 30.61500
C  10.04600 47.78300 31.70600
C  9.82500 48.01100 33.26900
H  9.49400 46.76800 34.09300
N  11.94300 48.58400 25.87200
C  12.93000 48.90300 26.76000
C  14.18500 48.94600 26.03600
C  13.87300 48.57800 24.71700
C  12.42300 48.45500 24.56700
C  15.48000 49.37000 26.74700
C  14.83200 48.35300 23.60100
O  14.43300 48.03300 22.53000
C  16.33800 48.42800 23.69500
N  9.36700 47.89600 24.27700
C  10.27500 47.93500 23.25400
C  9.60800 47.80300 21.84200
C  8.17300 47.27600 22.24400
C  8.13400 47.64300 23.72700
C  9.41900 49.08400 20.98100
C  7.76300 45.82000 21.86900
C  6.47800 45.66600 21.09200
N  7.82800 48.13700 26.66700
C  6.75200 47.92900 25.83400
C  5.53400 47.96800 26.56600
C  5.97100 48.27300 27.89700
C  7.37600 48.37900 27.88800
C  4.18200 47.67200 25.96200
C  5.49200 48.47800 29.27100
O  4.35700 48.67300 29.70900
C  6.82200 48.60600 30.14200
C  6.95700 47.32700 31.01500
O  7.27200 46.21400 30.63500
O  6.19600 47.60900 32.11000
C  5.81500 46.56000 33.01100
H  13.45600 49.66400 28.81500
H  12.12300 48.10900 22.43500
H  6.00100 47.30400 23.98700
H  9.27300 49.80700 31.12700
H  12.20400 49.15400 30.71600
H  11.04400 51.70500 29.75000
H  12.42100 51.31300 31.01800
H  10.77400 51.37900 31.46600
H  11.02800 47.34600 31.52900
H  9.34200 46.99300 31.44600
H  9.03300 48.73700 33.45300
H  10.78100 48.45700 33.54500
H  15.26500 49.24400 27.80800
H  15.88900 50.38100 26.73900
H  16.24000 48.69600 26.35100
H  16.50300 47.57200 24.34900
H  16.74900 49.30300 24.19800
H  16.67800 48.10500 22.71100
H  10.18100 47.17000 21.16500
H  7.53000 47.95100 21.67900
H  9.59000 49.98000 21.57700
H  8.47100 49.32500 20.50100
H  10.18200 48.95800 20.21200
H  7.62600 45.31200 22.82300
H  8.58400 45.44600 21.25700
H  5.91600 44.86700 21.57600
H  6.63800 45.46100 20.03400
H  5.95500 46.62100 21.03800
H  4.15200 46.62600 25.65600
H  3.98900 48.34200 25.12400
H  3.35600 47.84000 26.65300
H  6.95900 49.47600 30.78400
H  5.85000 47.14400 33.93100
H  6.41400 45.65000 32.96800
H  4.76300 46.31800 32.85700

