158

Mg 8.34200 2.17900 27.49900
C  9.78000 0.97000 30.25200
C  6.41500 4.42200 29.35900
C  6.77700 3.17700 24.64900
C  9.86500 -0.39400 25.63100
N  8.20400 2.71400 29.55400
C  8.93200 2.04900 30.50400
C  8.62200 2.67800 31.93300
C  7.41000 3.67900 31.53400
C  7.26900 3.60500 30.02200
C  6.13400 3.35000 32.30000
C  9.84500 3.27100 32.57200
C  9.70500 3.50500 34.12300
H  10.61400 2.67300 35.16900
N  6.85300 3.65000 27.08600
C  6.21400 4.41900 27.96800
C  5.26900 5.29700 27.23100
C  5.34000 4.93600 25.87600
C  6.45100 3.96200 25.76800
C  4.41400 6.29400 27.93400
C  4.52700 5.47500 24.72300
O  4.71800 5.25300 23.55000
C  3.40200 6.44800 25.04000
N  8.28900 1.48600 25.45200
C  7.57800 2.03400 24.48700
C  7.78600 1.32000 23.17100
C  8.96500 0.35500 23.50100
C  9.03700 0.46600 24.92800
C  6.53100 0.53600 22.83400
C  10.33900 0.86500 22.85500
C  11.35900 -0.25800 22.30500
N  9.61100 0.49700 27.81200
C  10.13600 -0.47000 26.98300
C  11.08000 -1.25400 27.71200
C  11.05100 -0.70600 29.01000
C  10.07100 0.29200 29.04100
C  11.99800 -2.25700 27.05800
C  11.60300 -0.80100 30.25900
O  12.46100 -1.55900 30.69400
C  10.76700 0.22500 31.17900
C  10.03900 -0.59700 32.18300
O  9.35100 -1.60600 32.07500
O  10.23000 -0.05600 33.45700
C  9.66200 -0.77100 34.60000
H  5.79300 5.07800 29.97100
H  6.22300 3.40200 23.73500
H  10.40200 -1.16800 25.07800
H  8.26900 1.91600 32.62700
H  7.83800 4.64900 31.78900
H  5.79500 2.39300 31.90200
H  5.45300 4.19500 32.20400
H  6.42200 3.17200 33.33600
H  10.12100 4.24500 32.16900
H  10.70400 2.60800 32.46900
H  8.65300 3.47300 34.40900
H  9.99500 4.53100 34.35100
H  3.42400 5.86400 28.08900
H  4.35300 7.20400 27.33800
H  4.97100 6.64900 28.80100
H  2.97400 6.75000 24.08400
H  3.78100 7.40800 25.39100
H  2.68200 6.05800 25.76000
H  7.97800 1.99200 22.33400
H  8.78100 -0.66600 23.16700
H  6.00000 0.25500 23.74300
H  6.74400 -0.37600 22.27500
H  5.79800 1.20100 22.37700
H  10.76700 1.56900 23.56800
H  10.08400 1.50000 22.00600
H  11.13800 -1.27300 22.63600
H  12.40100 -0.11700 22.59400
H  11.36700 -0.26200 21.21500
H  12.69400 -1.70900 26.42400
H  11.47500 -2.90200 26.35200
H  12.48400 -2.82100 27.85400
H  11.43900 0.88500 31.72900
H  9.97900 -1.80800 34.70200
H  8.58400 -0.66400 34.72200
H  10.17300 -0.38900 35.48400
Mg 9.10500 47.75800 25.33600
C  7.29700 47.54500 28.35900
C  11.72800 49.15700 27.26800
C  10.96200 48.05800 22.64300
C  6.22900 47.33300 23.54600
N  9.41200 48.42200 27.52000
C  8.58000 48.05100 28.53800
C  9.24800 48.39400 29.84200
C  10.36400 49.45600 29.41600
C  10.54700 49.06000 27.99300
C  9.91400 50.95100 29.63900
C  9.78200 47.22600 30.59200
C  9.78800 47.36100 32.16600
H  8.96600 46.41000 33.03500
N  11.12900 48.27000 25.01400
C  12.02200 48.77000 25.89400
C  13.33500 48.70700 25.28700
C  13.11500 48.34200 23.93400
C  11.65500 48.13700 23.77800
C  14.59500 48.90900 26.02400
C  14.10500 47.93000 22.90000
O  13.79800 47.71100 21.77500
C  15.57000 47.71000 23.31500
N  8.61100 47.84200 23.36900
C  9.57300 47.94800 22.39200
C  8.91500 48.11100 21.03000
C  7.42700 47.70200 21.34100
C  7.43600 47.55100 22.84800
C  9.13300 49.34100 20.15800
C  6.98100 46.42900 20.52100
C  5.92200 46.78600 19.34700
N  7.19300 47.43300 25.84100
C  6.06100 47.27500 24.97000
C  4.91300 46.94000 25.78700
C  5.35700 47.06300 27.10100
C  6.69800 47.43500 27.07300
C  3.49800 46.99600 25.23700
C  4.88200 47.02600 28.45300
O  3.74300 46.74100 28.88700
C  6.11200 47.33300 29.31800
C  6.28900 46.06700 30.12900
O  6.95700 45.11200 29.80100
O  5.50600 46.10400 31.22600
C  5.11000 44.75300 31.71800
H  12.56500 49.53600 27.85800
H  11.50300 48.24700 21.71400
H  5.34400 46.93100 23.04900
H  8.40900 48.79800 30.41000
H  11.21300 49.29600 30.08200
H  8.85800 50.97500 29.91100
H  10.04100 51.59000 28.76600
H  10.45300 51.43100 30.45500
H  10.82800 46.99100 30.39500
H  9.20900 46.35500 30.27500
H  9.41400 48.33100 32.49700
H  10.80600 47.41600 32.55000
H  14.38400 48.90700 27.09300
H  14.93200 49.92900 25.84200
H  15.41700 48.20500 25.89800
H  15.81300 46.85400 23.94600
H  15.96500 48.55600 23.87700
H  16.15500 47.73800 22.39600
H  9.46100 47.29600 20.55400
H  6.76300 48.55600 21.20500
H  9.79500 50.03600 20.67500
H  8.14800 49.80200 20.08400
H  9.43400 49.05900 19.14900
H  6.48400 45.69700 21.15600
H  7.82500 45.86100 20.12800
H  6.22000 46.50700 18.33600
H  5.72700 47.85800 19.33300
H  4.95000 46.32100 19.51000
H  2.99800 46.03700 25.10100
H  3.37700 47.43800 24.24800
H  2.84100 47.51700 25.93400
H  5.77400 48.12600 29.98400
H  4.21600 44.83800 32.33500
H  5.87800 44.23200 32.29000
H  4.78400 44.16100 30.86200

