158

Mg 26.13600 0.34200 29.69000
C  27.97300 0.17400 32.55500
C  23.10900 0.43900 31.62200
C  24.17500 0.64500 26.85700
C  28.82600 -0.28000 27.73100
N  25.58000 0.23500 31.78900
C  26.56600 0.43300 32.76100
C  25.92800 0.74300 34.07700
C  24.40800 0.38300 33.83800
C  24.36200 0.47000 32.30700
C  24.02900 -1.02000 34.39900
C  26.25000 2.12000 34.71000
C  26.89100 2.10100 36.13700
H  26.91300 3.29400 37.08500
N  24.01200 0.43600 29.36200
C  22.93600 0.42400 30.25000
C  21.70300 0.73000 29.50100
C  21.99300 0.84500 28.16300
C  23.50000 0.62200 28.11700
C  20.46300 0.85200 30.24900
C  21.04700 0.99900 26.92200
O  21.46100 0.95800 25.79300
C  19.51000 1.19200 27.16700
N  26.49800 0.13900 27.60600
C  25.57600 0.38900 26.61300
C  26.09600 0.16700 25.17600
C  27.55600 -0.32600 25.45700
C  27.66400 -0.13300 26.98500
C  25.20600 -0.86100 24.39700
C  28.64700 0.44100 24.65600
C  29.27300 -0.50500 23.56400
N  28.00800 -0.03600 30.01000
C  29.08300 -0.15900 29.15600
C  30.24300 -0.50900 29.89400
C  29.91000 -0.32000 31.26700
C  28.57300 -0.00500 31.22500
C  31.56400 -1.07000 29.45600
C  30.33000 -0.20400 32.69100
O  31.48700 -0.36200 33.20400
C  29.09400 0.03600 33.51900
C  28.88800 -0.93000 34.67900
O  28.59300 -2.13400 34.48500
O  29.25800 -0.43100 35.93600
C  29.08700 -1.45200 36.98700
H  22.34600 0.45700 32.40400
H  23.57500 0.75500 25.95200
H  29.74100 -0.54900 27.19800
H  26.28500 0.04300 34.83200
H  23.76000 1.19900 34.15700
H  23.67000 -0.95700 35.42600
H  24.88700 -1.68900 34.46200
H  23.21600 -1.44200 33.80800
H  25.24500 2.53900 34.67500
H  26.84900 2.70100 34.00900
H  27.96300 1.93100 36.04500
H  26.38600 1.27500 36.63900
H  20.56300 0.81100 31.33300
H  19.82500 -0.01200 30.06300
H  20.04000 1.81500 29.96300
H  19.00300 1.69600 26.34400
H  19.33900 1.94500 27.93600
H  18.98200 0.25900 27.36000
H  26.04800 1.17500 24.76500
H  27.60600 -1.40500 25.31500
H  24.57600 -1.53600 24.97600
H  25.70300 -1.41700 23.60200
H  24.47300 -0.18000 23.96500
H  29.47000 0.85000 25.24200
H  28.21200 1.27100 24.10000
H  29.49100 0.13100 22.70600
H  28.64600 -1.33300 23.23300
H  30.22700 -0.76700 24.02200
H  31.62700 -0.97400 28.37200
H  31.64900 -2.07700 29.86300
H  32.31700 -0.47200 29.97000
H  29.33100 1.00600 33.95700
H  29.67400 -2.35000 36.79100
H  28.05600 -1.72200 37.21700
H  29.44800 -1.19400 37.98300
Mg 26.72500 50.28500 25.92100
C  24.73800 51.33800 28.68000
C  29.09100 49.50500 28.18200
C  28.53400 49.44000 23.29600
C  24.41500 51.71900 23.82200
N  26.91500 50.56900 28.23600
C  25.96600 50.87400 29.15500
C  26.43800 50.50100 30.58200
C  27.88500 50.04900 30.33400
C  27.95100 50.03700 28.81900
C  29.05200 50.95000 30.90000
C  25.48600 49.51200 31.30800
C  24.81400 49.88600 32.58700
H  25.79200 50.41400 33.63800
N  28.51700 49.52900 25.78900
C  29.38500 49.36300 26.82100
C  30.61300 48.81700 26.31000
C  30.44500 48.56700 24.88600
C  29.12600 49.21500 24.58700
C  31.90400 48.60000 27.04700
C  31.30000 47.98400 23.83100
O  31.07900 47.89300 22.65300
C  32.54800 47.28700 24.25800
N  26.48800 50.49400 23.85700
C  27.32800 50.01500 22.91900
C  26.73700 50.10300 21.51900
C  25.39100 50.83400 21.71500
C  25.46700 51.03100 23.25200
C  27.66700 50.70500 20.42100
C  24.11200 50.13900 21.11500
C  23.45900 49.04000 21.90600
N  24.89400 51.26400 26.13700
C  24.05200 51.79200 25.20400
C  22.79300 52.26300 25.73900
C  23.00900 52.16200 27.19000
C  24.28200 51.49200 27.34300
C  21.67500 52.74600 24.92100
C  22.48000 52.42800 28.55400
O  21.44100 52.89300 28.88100
C  23.62300 51.97600 29.53700
C  24.10900 53.17100 30.33200
O  25.02100 53.91900 30.12600
O  23.38200 53.12100 31.54200
C  23.83200 54.05500 32.58800
H  29.95000 49.22400 28.79600
H  29.23600 49.23000 22.48600
H  23.70500 51.97600 23.03400
H  26.33300 51.39100 31.20200
H  27.96400 48.99700 30.60700
H  28.64600 51.56000 31.70700
H  29.43200 51.61700 30.12500
H  29.92500 50.43400 31.29900
H  25.94100 48.52400 31.37500
H  24.70800 49.35900 30.56000
H  24.35000 48.98000 32.97600
H  24.09700 50.69200 32.42500
H  31.88000 49.07700 28.02700
H  32.71800 49.03700 26.46900
H  31.94000 47.55200 27.34500
H  33.04200 46.93200 23.35300
H  32.13400 46.43300 24.79500
H  33.26000 47.81500 24.89300
H  26.38200 49.15000 21.12700
H  25.50900 51.80100 21.22600
H  28.38100 51.41800 20.83400
H  27.10700 51.11800 19.58300
H  28.19000 49.78200 20.17100
H  24.33000 49.79300 20.10500
H  23.42300 50.96700 20.94900
H  24.05200 48.64600 22.73100
H  23.21200 48.21500 21.23700
H  22.52000 49.39400 22.33100
H  20.78200 52.88800 25.53000
H  21.35500 52.17000 24.05300
H  22.09500 53.66900 24.52100
H  23.10400 51.34700 30.26200
H  23.94100 55.02500 32.10500
H  24.76600 53.72400 33.04200
H  23.10900 54.06600 33.40400

