158

Mg 17.16000 52.45800 26.21500
C  19.11700 50.78500 28.78200
C  14.84000 53.05000 28.58900
C  15.37900 53.54700 23.83900
C  19.53700 51.07900 23.95200
N  16.98100 51.84600 28.40500
C  17.91900 51.31700 29.25800
C  17.60000 51.61000 30.70400
C  16.04200 51.90000 30.58000
C  15.96800 52.35800 29.13900
C  15.01300 50.81400 30.90800
C  18.60000 52.67500 31.41500
C  19.08900 52.37100 32.80800
H  18.06400 51.67600 33.67000
N  15.39700 53.30100 26.17900
C  14.51800 53.47000 27.28600
C  13.34300 54.11300 26.88200
C  13.54100 54.34400 25.42000
C  14.76000 53.70600 25.07400
C  12.20400 54.53000 27.81100
C  12.66700 55.23800 24.53200
O  12.93700 55.51600 23.35900
C  11.44600 55.74800 25.07400
N  17.21300 52.05300 24.14000
C  16.42800 52.79800 23.35300
C  17.05000 53.02800 21.92600
C  18.38800 52.24700 22.09300
C  18.42200 51.85200 23.53800
C  16.03800 52.51900 20.84500
C  19.65900 52.98400 21.45000
C  20.01900 54.40700 21.93900
N  18.97600 51.28900 26.29900
C  19.72900 50.80600 25.31500
C  20.99900 50.22300 25.83700
C  20.70100 50.14200 27.15000
C  19.52300 50.85500 27.48100
C  22.12600 49.61000 24.95700
C  21.25100 49.70800 28.38800
O  22.30800 48.99900 28.54900
C  20.25500 50.08700 29.48100
C  19.74600 48.93700 30.28100
O  18.64100 48.39500 30.12800
O  20.55400 48.73900 31.35500
C  20.08200 47.76700 32.39300
H  13.97700 53.23900 29.23100
H  14.85000 54.07800 23.04500
H  20.39300 50.73800 23.36500
H  17.69000 50.62600 31.16400
H  15.77500 52.78100 31.16400
H  14.68100 50.89700 31.94300
H  15.41700 49.81800 30.72800
H  14.19800 50.85700 30.18500
H  18.11000 53.64500 31.32400
H  19.42900 52.70700 30.70900
H  19.44100 53.23600 33.37100
H  20.00400 51.78900 32.69700
H  12.18200 55.56100 28.16200
H  12.32800 54.17200 28.83400
H  11.21400 54.34000 27.39700
H  11.78500 56.44000 25.84500
H  10.83500 54.92000 25.43400
H  10.92600 56.28500 24.28000
H  17.19400 54.10400 21.82800
H  18.29800 51.27900 21.60000
H  15.58100 53.39700 20.38800
H  15.35500 51.78900 21.28000
H  16.60600 52.12100 20.00500
H  19.38800 53.04400 20.39600
H  20.57200 52.38900 21.49100
H  20.08200 55.10700 21.10600
H  21.05500 54.44900 22.27600
H  19.42700 54.77400 22.77800
H  22.44500 50.31600 24.19000
H  21.88400 48.63500 24.53400
H  22.94500 49.38000 25.63900
H  20.73100 50.73400 30.21700
H  19.99100 46.74400 32.03000
H  19.13800 48.23200 32.67600
H  20.80500 47.69600 33.20600
Mg -2.31900 34.29900 25.94900
C  -4.04200 32.76000 28.53000
C  -0.73500 36.23900 28.40300
C  -0.70200 35.95900 23.61100
C  -4.05400 32.37500 23.64200
N  -2.57400 34.57600 28.13000
C  -3.21300 33.80200 29.00600
C  -2.82700 33.97900 30.41700
C  -2.23900 35.43300 30.26100
C  -1.84500 35.44100 28.77700
C  -3.28000 36.51700 30.65600
C  -1.82400 32.88100 30.97200
C  -1.10900 33.15000 32.27000
H  -1.80300 32.56000 33.49800
N  -0.88300 35.92200 26.00200
C  -0.25900 36.52000 27.09000
C  0.82200 37.40000 26.63800
C  0.91700 37.17700 25.25700
C  -0.22600 36.36400 24.86900
C  1.72800 38.13700 27.57800
C  1.87500 37.68700 24.19800
O  1.71500 37.41100 23.02000
C  2.98600 38.53400 24.76100
N  -2.55200 34.28600 23.98500
C  -1.75300 35.10100 23.25900
C  -2.04200 34.98700 21.79400
C  -2.95000 33.69500 21.76300
C  -3.18800 33.38400 23.22100
C  -2.66100 36.26700 21.10800
C  -2.37000 32.45600 21.04600
C  -1.36200 31.56400 21.76400
N  -3.78200 32.85100 25.96600
C  -4.32700 32.09000 24.96600
C  -5.23300 31.08800 25.57800
C  -5.13500 31.29800 26.94100
C  -4.21500 32.37600 27.16000
C  -6.11800 30.12400 24.85500
C  -5.52700 30.78900 28.20500
O  -6.20800 29.80100 28.57700
C  -4.81700 31.73000 29.28900
C  -5.89900 32.31500 30.17700
O  -6.65500 33.23700 29.85300
O  -5.92300 31.71300 31.38100
C  -6.92800 32.23400 32.39500
H  -0.25200 36.73100 29.25000
H  -0.21300 36.34600 22.71500
H  -4.74800 31.95000 22.91300
H  -3.77700 33.97700 30.95100
H  -1.32500 35.66900 30.80600
H  -2.99500 37.10600 31.52800
H  -4.27400 36.13400 30.88700
H  -3.11800 37.16600 29.79600
H  -1.15500 32.45900 30.22200
H  -2.44600 32.00200 31.14100
H  -1.01700 34.22200 32.44400
H  -0.08300 32.78300 32.22800
H  1.31200 38.23100 28.58000
H  1.83400 39.17100 27.25000
H  2.68700 37.62100 27.63800
H  3.53200 38.71300 23.83400
H  3.57400 37.86200 25.38700
H  2.54700 39.37500 25.29700
H  -1.15100 34.67900 21.24700
H  -3.93100 33.82900 21.30700
H  -2.03400 36.74000 20.35300
H  -2.91000 37.04900 21.82500
H  -3.59600 35.90200 20.68100
H  -1.82700 32.68000 20.12700
H  -3.18100 31.87400 20.60900
H  -0.47400 31.48500 21.13700
H  -1.56900 30.52400 22.01500
H  -1.01600 32.09100 22.65300
H  -6.95400 29.64600 25.36500
H  -5.46200 29.29200 24.59500
H  -6.64900 30.57000 24.01400
H  -4.10200 31.10600 29.82700
H  -6.47200 32.93000 33.10000
H  -7.38000 31.36000 32.86400
H  -7.75300 32.78900 31.94700

