158

Mg 35.74600 2.89900 30.28500
C  33.19600 3.70900 32.44300
C  38.08500 3.12900 32.79200
C  38.16300 2.25400 27.97600
C  33.41200 2.86200 27.69500
N  35.62400 3.27900 32.32000
C  34.47100 3.54600 33.05700
C  34.76400 3.39800 34.51000
C  36.29200 3.71300 34.57200
C  36.70800 3.30300 33.08900
C  36.67600 5.14600 34.91500
C  34.35400 2.08600 35.20700
C  33.88300 2.27500 36.65900
H  34.66100 3.32200 37.47100
N  37.85800 2.64400 30.36000
C  38.61100 2.71100 31.57100
C  40.01100 2.43800 31.22200
C  40.08900 2.19800 29.77000
C  38.68200 2.36400 29.29000
C  41.01700 2.45000 32.31100
C  41.19600 1.79300 28.90600
O  41.19000 1.70300 27.68400
C  42.49600 1.45600 29.57200
N  35.71000 2.66200 28.11300
C  36.86700 2.50500 27.40400
C  36.57400 2.11100 25.93300
C  35.01700 2.28300 25.86600
C  34.66300 2.43700 27.31500
C  37.39100 2.82900 24.90200
C  34.40400 1.00900 25.23300
C  34.00400 1.18900 23.73000
N  33.76700 3.32600 30.12200
C  32.94400 3.21900 28.97700
C  31.58900 3.63200 29.32400
C  31.57200 3.73500 30.70000
C  32.94400 3.56100 31.11400
C  30.46900 3.55100 28.43800
C  30.85400 3.88100 31.89800
O  29.64800 3.96300 32.16200
C  31.91000 3.86900 33.06200
C  31.73500 5.11900 33.85900
O  31.66600 6.23600 33.40200
O  31.75900 4.82200 35.20900
C  31.64300 5.95900 36.10800
H  38.81600 3.32800 33.57900
H  38.88600 1.96200 27.21200
H  32.61000 2.94200 26.95900
H  34.21400 4.25000 34.90800
H  36.80200 3.00400 35.22400
H  35.95100 5.70700 35.50400
H  37.02400 5.70700 34.04700
H  37.53500 5.08100 35.58300
H  35.09700 1.29000 35.17000
H  33.51500 1.66600 34.65200
H  33.85000 1.31600 37.17700
H  32.81000 2.47100 36.66200
H  41.60900 3.29600 31.96000
H  41.56000 1.51000 32.40400
H  40.69600 2.68600 33.32600
H  43.22300 1.36700 28.76400
H  42.41100 0.47400 30.03500
H  42.99700 2.15500 30.24200
H  36.92400 1.07900 25.95300
H  34.76500 3.24500 25.42100
H  38.22400 2.19400 24.60000
H  37.87800 3.76000 25.19300
H  36.73300 2.95100 24.04100
H  33.50700 0.68900 25.76400
H  35.08500 0.16300 25.32700
H  34.79400 1.63500 23.12600
H  33.10400 1.80300 23.69100
H  33.55900 0.26400 23.36400
H  30.57300 2.93000 27.54800
H  30.09200 4.53200 28.14900
H  29.69900 3.00900 28.98700
H  31.84100 2.96500 33.66600
H  32.33600 6.74800 35.81800
H  31.90900 5.62200 37.11000
H  30.58900 6.22800 36.03800
Mg 16.72300 51.70800 25.18300
C  18.73200 50.61400 27.89000
C  14.44200 52.65300 27.53200
C  14.98500 52.84800 22.66400
C  19.14200 50.42200 23.00300
N  16.65100 51.85200 27.43300
C  17.52400 51.21700 28.33400
C  17.14800 51.48800 29.83500
C  15.63800 51.90400 29.72500
C  15.58500 52.17800 28.14900
C  14.60800 50.90500 30.31900
C  18.01200 52.65800 30.37600
C  18.51100 52.64500 31.88000
H  17.52200 52.09400 32.94000
N  14.97200 52.64900 25.05300
C  14.17400 52.98100 26.11200
C  13.00900 53.60100 25.59700
C  13.10700 53.71400 24.23200
C  14.37700 53.05000 23.86100
C  11.86700 54.24200 26.54300
C  12.23500 54.38200 23.25700
O  12.46800 54.60800 22.08400
C  10.82000 54.84100 23.72400
N  17.02900 51.72500 23.08200
C  16.14900 52.20600 22.21000
C  16.53200 51.99100 20.71600
C  17.93900 51.37100 20.89200
C  18.03800 51.15700 22.38800
C  15.68800 51.13900 19.82500
C  19.11200 52.21000 20.32100
C  20.24700 51.33600 19.63800
N  18.58800 50.70900 25.35300
C  19.42000 50.16900 24.39700
C  20.46900 49.47100 24.99900
C  20.28900 49.63800 26.38400
C  19.08600 50.37600 26.54200
C  21.69200 48.75700 24.36000
C  20.76100 49.32300 27.67800
O  21.80900 48.85900 28.00600
C  19.84700 49.97200 28.76700
C  19.48900 49.05800 29.79700
O  18.65400 48.16000 29.67700
O  20.14400 49.29400 30.96100
C  19.65100 48.56300 32.14700
H  13.70700 52.96900 28.27600
H  14.36300 53.16900 21.82600
H  19.80400 49.92700 22.29000
H  17.28500 50.59200 30.44000
H  15.36400 52.84100 30.20900
H  13.85600 50.60000 29.59100
H  14.08700 51.35100 31.16600
H  15.06300 49.97900 30.67000
H  17.47200 53.60500 30.38500
H  18.93900 52.76700 29.81300
H  18.62600 53.70300 32.11700
H  19.41100 52.03100 31.89400
H  12.14500 54.40700 27.58400
H  10.98400 53.60800 26.47000
H  11.71900 55.24400 26.14100
H  10.33600 54.18900 24.45100
H  10.24400 54.95800 22.80600
H  10.84000 55.87600 24.06600
H  16.64700 52.94600 20.20400
H  17.99000 50.36400 20.48000
H  16.18600 50.54200 19.06100
H  14.95300 51.74700 19.29800
H  15.04000 50.48200 20.40400
H  19.51400 52.76100 21.17100
H  18.74700 53.00400 19.67000
H  20.34800 51.48600 18.56300
H  20.04500 50.27100 19.75600
H  21.24600 51.46700 20.05500
H  21.44900 48.39400 23.36100
H  21.97200 47.88700 24.95500
H  22.53000 49.44400 24.47500
H  20.54000 50.69200 29.20300
H  19.39100 47.59000 31.72900
H  18.79200 48.97200 32.67900
H  20.37000 48.53500 32.96500

