158

Mg 25.80900 0.55400 29.40400
C  27.63400 0.74900 32.38700
C  22.88100 0.97000 31.25000
C  24.04400 0.18300 26.50400
C  28.77000 -0.02800 27.62800
N  25.30200 0.84200 31.57200
C  26.21000 0.87900 32.59500
C  25.55600 1.26500 33.92400
C  24.06100 1.19400 33.56900
C  24.04500 1.01600 32.03000
C  23.04700 0.44500 34.47600
C  26.15900 2.52100 34.66900
C  26.48800 2.33100 36.12500
H  25.46300 2.83900 37.12000
N  23.71900 0.60800 28.93500
C  22.66900 0.80600 29.80700
C  21.45700 0.67600 29.02600
C  21.80400 0.41300 27.69900
C  23.22700 0.34300 27.67400
C  20.10300 0.67000 29.66100
C  20.90400 0.12300 26.54000
O  21.26200 -0.26500 25.39900
C  19.48700 0.33600 26.58400
N  26.35700 -0.00700 27.30400
C  25.46600 0.08300 26.35500
C  26.19800 0.13700 24.99400
C  27.63800 0.40600 25.39100
C  27.64200 0.04500 26.83600
C  25.96000 -1.22500 24.17500
C  28.07200 1.95100 25.14300
C  28.30400 2.39800 23.72600
N  27.79800 0.28800 29.85700
C  28.82500 -0.01700 29.07200
C  29.96000 -0.20300 29.94400
C  29.58800 0.09600 31.22000
C  28.21700 0.43900 31.14800
C  31.28300 -0.76600 29.55700
C  30.01100 0.18900 32.60800
O  31.11800 -0.04900 33.14100
C  28.82000 0.62200 33.38300
C  28.60900 -0.31900 34.46300
O  28.04400 -1.43100 34.34800
O  29.13900 0.19000 35.62500
C  29.07700 -0.53400 36.91900
H  21.90900 1.20000 31.69200
H  23.58700 0.23500 25.51300
H  29.72100 0.01500 27.09400
H  25.92900 0.37200 34.42500
H  23.76200 2.23800 33.66300
H  22.55400 -0.27300 33.82100
H  22.39900 1.24200 34.84000
H  23.55500 -0.02200 35.32000
H  25.31400 3.20600 34.74400
H  26.97900 3.00200 34.13600
H  27.44300 2.85500 36.14800
H  26.72200 1.28400 36.31800
H  20.17300 0.66000 30.74900
H  19.60800 -0.20300 29.23500
H  19.57700 1.56400 29.32500
H  19.01100 -0.53400 27.03800
H  19.17300 0.45100 25.54600
H  19.27700 1.30200 27.04200
H  25.82400 0.99800 24.43800
H  28.38300 -0.21100 24.88900
H  25.80000 -1.04200 23.11300
H  25.12300 -1.82900 24.52600
H  26.90800 -1.75500 24.26600
H  28.99700 2.15000 25.68500
H  27.32100 2.60000 25.59200
H  27.70500 3.26300 23.44100
H  28.13800 1.56700 23.04000
H  29.32300 2.75800 23.58600
H  31.98500 0.06800 29.53400
H  31.14600 -1.39600 28.67800
H  31.59900 -1.43600 30.35600
H  29.08800 1.59700 33.79000
H  29.80100 -0.08400 37.59800
H  29.16200 -1.61800 36.84500
H  28.13900 -0.25100 37.39700
Mg -10.89200 16.95900 42.08800
C  -7.44100 17.35800 42.46100
C  -11.22200 20.31900 41.50200
C  -13.98200 16.42200 41.39600
C  -10.18700 13.40200 41.78700
N  -9.45600 18.61600 41.83100
C  -8.14600 18.54200 42.26200
C  -7.52400 19.93000 42.13500
C  -8.76800 20.82900 42.48500
C  -9.92600 19.86100 41.92700
C  -9.06800 21.06100 43.97800
C  -6.90500 20.16800 40.66700
C  -5.44300 20.53600 40.57200
H  -4.75100 19.54600 39.76600
N  -12.38600 18.23100 41.38200
C  -12.37700 19.61300 41.30200
C  -13.65700 20.07800 41.01500
C  -14.57500 18.98500 41.03400
C  -13.68600 17.84800 41.29400
C  -13.91700 21.53300 40.70100
C  -16.10700 19.12300 40.88100
O  -16.74100 20.13700 40.71500
C  -16.93000 17.84900 41.10800
N  -11.81200 15.21800 41.45800
C  -13.14400 15.34400 41.49900
C  -13.82600 13.95000 41.74400
C  -12.65500 13.03200 41.57300
C  -11.43900 13.88200 41.61500
C  -14.61400 13.80200 43.07900
C  -12.76900 11.98200 40.41100
C  -12.74000 10.56700 40.87900
N  -9.21900 15.57100 42.18600
C  -9.08400 14.17300 42.03300
C  -7.72400 13.83100 42.30500
C  -7.06900 15.03700 42.51200
C  -8.00400 16.06400 42.41200
C  -7.14000 12.49300 42.33100
C  -5.76900 15.61400 42.65900
O  -4.63100 15.18500 42.65300
C  -5.94700 17.15600 42.67900
C  -5.49500 17.66100 44.03900
O  -5.84900 17.30400 45.15700
O  -4.44800 18.56700 43.79000
C  -3.88600 19.20000 44.99600
H  -11.32900 21.40300 41.57400
H  -15.02800 16.11000 41.43600
H  -10.02100 12.32400 41.74300
H  -6.72600 20.10700 42.85600
H  -8.89500 21.73000 41.88400
H  -8.14500 21.10800 44.55500
H  -9.73800 20.34000 44.44700
H  -9.61900 21.99300 44.10700
H  -7.33500 21.14100 40.43100
H  -7.25500 19.37100 40.01000
H  -4.92600 20.44600 41.52800
H  -5.27300 21.57700 40.29500
H  -13.55700 22.15300 41.52100
H  -14.98000 21.77400 40.67000
H  -13.37400 21.81000 39.79700
H  -18.01200 17.93200 41.21600
H  -16.46600 17.39800 41.98400
H  -16.72700 17.20700 40.25100
H  -14.54800 13.89800 40.92900
H  -12.58800 12.49000 42.51600
H  -14.33200 14.61400 43.74900
H  -14.44800 12.80300 43.48300
H  -15.68600 13.87800 42.89700
H  -11.84300 12.09800 39.84800
H  -13.69100 12.12300 39.84800
H  -12.50300 10.30500 41.91000
H  -11.93200 9.99300 40.42400
H  -13.62500 10.01000 40.57300
H  -6.65800 12.28900 41.37500
H  -7.88200 11.69800 42.39700
H  -6.56700 12.41400 43.25500
H  -5.42000 17.64800 41.86200
H  -3.23800 18.46200 45.46800
H  -4.70400 19.46900 45.66400
H  -3.27700 20.07700 44.77600

