158

Mg -0.92900 44.06100 26.09300
C  1.48000 43.39000 28.53000
C  -3.35800 43.36200 28.53100
C  -3.19200 43.55800 23.76700
C  1.56900 44.18200 23.61900
N  -0.89100 43.33800 28.28200
C  0.21000 43.46200 29.10200
C  -0.04700 43.21900 30.57900
C  -1.60900 42.95500 30.49800
C  -2.04000 43.34400 29.00700
C  -2.11300 41.55900 30.99000
C  0.42600 44.45500 31.42500
C  0.77000 44.07400 32.91600
H  0.18000 42.71600 33.37900
N  -3.08200 43.64800 26.13900
C  -3.90200 43.59400 27.22400
C  -5.24300 43.56600 26.77600
C  -5.19400 43.34400 25.40500
C  -3.71000 43.43300 25.06200
C  -6.41900 43.61900 27.74100
C  -6.31600 43.18600 24.50800
O  -6.15900 43.10000 23.35000
C  -7.75300 43.15900 25.04400
N  -0.87000 44.16400 24.01800
C  -1.92800 43.78700 23.32300
C  -1.70400 43.93700 21.76000
C  -0.18100 44.24600 21.74600
C  0.24900 44.20200 23.22600
C  -2.03000 42.64700 20.86900
C  0.16000 45.63200 21.09700
C  0.05200 46.91200 21.94800
N  1.13000 44.05400 26.06000
C  2.06800 44.07200 24.98300
C  3.39100 43.89100 25.51400
C  3.23300 43.68400 26.92900
C  1.81600 43.76700 27.19800
C  4.63500 44.02400 24.66500
C  3.89400 43.39300 28.12800
O  5.08000 43.22400 28.43100
C  2.78300 43.14500 29.16700
C  2.99500 41.84400 29.83800
O  2.78900 40.77900 29.32700
O  3.56200 42.04400 31.09600
C  3.90600 40.86900 31.91400
H  -4.15000 43.11300 29.24000
H  -3.87900 43.19200 23.00100
H  2.24400 44.22600 22.76200
H  0.41600 42.25700 30.79900
H  -2.13300 43.66700 31.13400
H  -2.59100 40.97400 30.20300
H  -2.83900 41.72300 31.78600
H  -1.24100 41.05300 31.40300
H  -0.41400 45.14000 31.53900
H  1.31000 44.92700 30.99500
H  0.38400 44.84900 33.57700
H  1.85700 44.15400 32.93400
H  -6.95000 42.66800 27.78300
H  -6.98300 44.42000 27.26200
H  -6.07900 44.06600 28.67500
H  -8.52500 42.92900 24.30900
H  -8.09200 44.12700 25.41200
H  -7.82800 42.33000 25.74800
H  -2.39400 44.68500 21.37000
H  0.37600 43.52200 21.15200
H  -2.08600 41.78800 21.53800
H  -1.32700 42.45100 20.06000
H  -3.01800 42.83700 20.45000
H  -0.35000 45.74500 20.14000
H  1.21500 45.55500 20.83500
H  -0.33100 47.77300 21.39900
H  1.05100 47.24600 22.23000
H  -0.52200 46.81700 22.86900
H  5.47900 44.35900 25.26800
H  4.37500 44.70300 23.85300
H  4.85700 43.00000 24.36800
H  2.92200 43.84500 29.99100
H  3.43800 40.66000 32.87600
H  4.92000 40.94300 32.30700
H  3.72400 39.98700 31.30000
Mg -3.21500 35.03600 27.22800
C  -4.14000 32.87300 29.85000
C  -1.72300 37.14100 29.65300
C  -2.54800 37.15700 24.86100
C  -4.90200 32.93100 24.97400
N  -3.14400 35.01600 29.54400
C  -3.50600 33.97100 30.30900
C  -3.23200 34.30800 31.72500
C  -2.62700 35.76200 31.68200
C  -2.38100 35.99600 30.19600
C  -3.57800 36.84500 32.29200
C  -2.29600 33.21800 32.39800
C  -2.74700 32.40600 33.66500
H  -1.93100 32.62200 34.94400
N  -2.13300 36.80500 27.24800
C  -1.56500 37.46100 28.34800
C  -1.04000 38.73100 27.78400
C  -1.16900 38.74500 26.39700
C  -2.00300 37.53600 26.10900
C  -0.28100 39.70000 28.75800
C  -0.75000 39.70700 25.30500
O  -0.80200 39.62400 24.07800
C  -0.03700 40.93700 25.89400
N  -3.69600 35.08500 25.16500
C  -3.23100 36.06900 24.39100
C  -3.50900 35.81500 22.92300
C  -4.34700 34.54000 22.96800
C  -4.33000 34.14900 24.45900
C  -4.10000 36.94700 22.06900
C  -3.76900 33.36600 22.10900
C  -2.41500 32.68400 22.52000
N  -4.33300 33.29800 27.36300
C  -4.83600 32.50200 26.35700
C  -5.40700 31.29800 26.92000
C  -5.13100 31.44800 28.24800
C  -4.47000 32.60900 28.50800
C  -6.19500 30.27800 26.16800
C  -5.42300 30.76800 29.46800
O  -6.07800 29.75900 29.75300
C  -4.70500 31.70200 30.63000
C  -5.87300 32.05300 31.51500
O  -6.73200 32.85500 31.18700
O  -5.79500 31.33700 32.71400
C  -6.70200 31.80000 33.71200
H  -1.27500 37.82500 30.37600
H  -2.47600 37.93300 24.09700
H  -5.16900 32.14800 24.26100
H  -4.16100 34.27300 32.29300
H  -1.64400 35.88000 32.13900
H  -3.04300 37.33300 33.10700
H  -4.50700 36.43300 32.68500
H  -3.84400 37.70400 31.67600
H  -1.33800 33.72900 32.49100
H  -2.16200 32.50800 31.58300
H  -2.66600 31.35600 33.38300
H  -3.78000 32.69700 33.86000
H  -0.18800 39.36500 29.79100
H  -0.59800 40.73900 28.66700
H  0.71600 39.65600 28.31900
H  0.86300 40.61000 26.41600
H  -0.73300 41.34500 26.62700
H  0.28300 41.56300 25.06100
H  -2.56000 35.68400 22.40100
H  -5.35500 34.68300 22.58100
H  -5.17300 36.80200 21.94200
H  -3.53200 37.14300 21.15900
H  -4.01800 37.93500 22.52300
H  -3.61100 33.72800 21.09300
H  -4.55000 32.61300 22.00000
H  -2.48400 31.60300 22.39300
H  -2.19300 32.90300 23.56400
H  -1.61000 33.10600 21.91900
H  -5.63600 29.41400 25.81000
H  -6.48800 30.81200 25.26300
H  -7.01700 29.89800 26.77400
H  -3.94200 31.11500 31.14100
H  -6.10200 32.53200 34.25200
H  -7.00000 30.97100 34.35500
H  -7.63300 32.18100 33.29500

