158

Mg 1.80800 -0.91200 44.66400
C  5.11700 0.04100 43.77100
C  0.65100 1.84500 42.97300
C  -1.11300 -2.32100 44.88900
C  3.32500 -3.90800 46.05000
N  2.78500 0.72700 43.47400
C  4.15900 0.89300 43.29400
C  4.43400 2.17800 42.49000
C  3.05800 2.81400 42.33700
C  2.10200 1.73700 42.92300
C  2.89300 4.15700 43.10100
C  5.25800 2.03300 41.12900
C  6.02900 3.25900 40.61500
H  5.80700 3.84300 39.22500
N  -0.06600 -0.24000 44.17100
C  -0.35100 0.92200 43.49800
C  -1.80100 1.01300 43.32600
C  -2.36500 -0.15500 43.92300
C  -1.18400 -0.95700 44.43200
C  -2.46000 2.15300 42.50300
C  -3.88600 -0.49900 43.88100
O  -4.69300 0.30200 43.33300
C  -4.42000 -1.74700 44.40500
N  1.19500 -2.86800 45.44000
C  -0.09600 -3.18000 45.34900
C  -0.34800 -4.62900 45.79000
C  1.06200 -5.06600 46.36900
C  1.95500 -3.87600 45.98700
C  -1.53300 -4.74600 46.80500
C  1.57200 -6.50000 45.93000
C  2.22900 -7.34400 47.01800
N  3.73700 -1.81200 44.82000
C  4.23500 -2.98300 45.44100
C  5.64900 -3.09300 45.38500
C  6.01000 -1.87700 44.82700
C  4.87200 -1.12200 44.48200
C  6.55000 -4.23700 45.80600
C  7.18300 -1.07600 44.43500
O  8.38700 -1.42800 44.48600
C  6.60800 0.27100 43.83100
C  7.07900 1.38700 44.63200
O  6.71300 1.56800 45.76900
O  8.01300 2.25500 43.97800
C  8.35300 3.59200 44.60600
H  0.40700 2.71200 42.35600
H  -2.07200 -2.84200 44.90300
H  3.84000 -4.73000 46.55200
H  5.11200 2.80100 43.07400
H  2.78900 3.05800 41.31000
H  2.10400 4.15700 43.85300
H  2.82200 4.89100 42.29800
H  3.81400 4.38200 43.63900
H  4.56400 1.67600 40.36800
H  5.92500 1.18400 41.28000
H  7.09700 3.11500 40.78000
H  5.72000 4.14300 41.17300
H  -3.30900 2.52300 43.07900
H  -2.75100 1.80700 41.51200
H  -1.83500 3.03700 42.37500
H  -5.42800 -1.53300 44.76300
H  -3.88500 -2.00300 45.32000
H  -4.32400 -2.56500 43.69200
H  -0.47700 -5.17100 44.85400
H  0.94700 -5.11100 47.45200
H  -1.98900 -3.76900 46.96900
H  -1.42800 -5.26100 47.75900
H  -2.25100 -5.34900 46.24800
H  2.35800 -6.45300 45.17600
H  0.69900 -7.05900 45.59200
H  1.95900 -8.38000 46.81400
H  1.99900 -7.16500 48.06900
H  3.29000 -7.22000 46.79900
H  6.29600 -4.63900 46.78700
H  7.55900 -3.87900 46.00900
H  6.42500 -5.01100 45.04900
H  7.13700 0.29800 42.87800
H  8.80800 4.30500 43.91900
H  8.87200 3.44200 45.55300
H  7.46800 4.12200 44.95700
Mg 16.86300 53.48700 27.00900
C  18.77500 51.65000 29.23900
C  14.46600 53.95200 29.47100
C  14.64700 54.46300 24.70000
C  19.13700 52.68900 24.50000
N  16.59100 52.76300 29.02400
C  17.54700 52.13100 29.78300
C  17.27600 52.25200 31.30800
C  15.82100 52.60000 31.28300
C  15.58900 53.16800 29.85100
C  14.79100 51.51600 31.62100
C  18.08100 53.47200 31.91400
C  17.99100 53.85500 33.36900
H  17.07100 52.97900 34.31300
N  14.85100 54.30500 27.15300
C  14.05700 54.45900 28.20800
C  12.73700 55.02100 27.78700
C  12.84000 55.21300 26.35900
C  14.16300 54.59300 25.99300
C  11.66600 55.30500 28.70100
C  11.82900 55.82900 25.43900
O  11.94800 55.87200 24.19800
C  10.47200 56.23000 25.99500
N  16.83300 53.33700 24.91700
C  15.85100 53.96200 24.22100
C  16.16700 53.98700 22.72000
C  17.67500 53.57000 22.66100
C  17.96600 53.26700 24.13100
C  15.13700 53.09700 21.93500
C  18.65400 54.44800 21.84900
C  18.61400 55.93600 22.04700
N  18.65900 52.41100 26.81800
C  19.48900 52.15700 25.72200
C  20.64000 51.38200 26.16500
C  20.46200 51.21700 27.55200
C  19.20100 51.78500 27.87200
C  21.70600 50.79700 25.32900
C  21.01500 50.64400 28.77900
O  21.96800 50.03000 28.96600
C  20.06100 51.11900 29.89800
C  19.84300 49.96500 30.78800
O  19.40500 48.92500 30.35900
O  19.95400 50.32400 32.10600
C  19.74700 49.21100 33.00800
H  13.91700 54.07400 30.40700
H  13.98800 54.72100 23.86800
H  19.85300 52.66100 23.67600
H  17.50900 51.35100 31.87500
H  15.63800 53.34700 32.05500
H  15.42100 50.81200 32.16500
H  14.31600 50.97100 30.80500
H  13.98900 51.82800 32.29000
H  17.92900 54.31300 31.23700
H  19.13300 53.27100 31.71300
H  17.55500 54.85200 33.42500
H  18.94600 53.90600 33.89000
H  10.72500 54.80800 28.46700
H  11.53000 56.38600 28.72800
H  11.83100 54.97600 29.72700
H  10.04600 55.47900 26.66100
H  9.83600 56.32300 25.11500
H  10.42100 57.14900 26.57900
H  16.06300 55.02400 22.40200
H  17.86500 52.57200 22.26600
H  14.77800 53.57600 21.02400
H  14.24400 52.94000 22.53900
H  15.59100 52.15100 21.63900
H  18.57400 54.13300 20.80900
H  19.64500 54.19800 22.22900
H  19.61300 56.35600 21.93000
H  18.21700 56.40800 22.94600
H  18.04100 56.32300 21.20400
H  21.58100 49.71400 25.35000
H  22.66500 50.98500 25.81200
H  21.77000 51.13100 24.29300
H  20.57100 51.80500 30.57400
H  20.20400 49.57400 33.92800
H  20.32400 48.35200 32.66400
H  18.67800 49.04100 33.14000

