158

Mg 8.83200 3.86800 27.93000
C  10.20400 2.51100 30.80100
C  6.81800 5.86400 29.88000
C  7.17900 4.70900 25.12400
C  10.36200 1.15400 26.04100
N  8.41400 3.95400 30.12200
C  9.34700 3.53600 31.10100
C  9.17400 4.23300 32.41400
C  8.04200 5.28500 32.07400
C  7.70100 5.03200 30.57700
C  6.86200 5.22100 33.05600
C  10.42500 4.79900 33.10000
C  10.76800 4.33000 34.49000
H  11.37600 5.33800 35.54900
N  7.26700 5.16100 27.53600
C  6.59400 6.00000 28.45600
C  5.80600 7.01700 27.69800
C  5.94400 6.65500 26.30100
C  6.83600 5.42900 26.27000
C  5.17600 8.27800 28.32500
C  5.45100 7.29000 25.03600
O  5.65000 6.94700 23.82600
C  4.60800 8.55300 25.03500
N  8.86500 3.08200 25.89300
C  8.02600 3.59700 24.91200
C  8.13900 2.93800 23.51600
C  9.11300 1.73700 23.80300
C  9.51400 2.01600 25.30900
C  6.75600 2.47700 23.13300
C  10.23000 1.56900 22.82800
C  10.04200 0.38600 21.86600
N  10.16100 2.35100 28.28800
C  10.59300 1.30200 27.46100
C  11.36200 0.40900 28.24300
C  11.26900 0.86900 29.52100
C  10.51600 2.02500 29.50900
C  12.10300 -0.78300 27.82900
C  11.82300 0.67900 30.83900
O  12.52800 -0.21400 31.31400
C  11.15200 1.73600 31.82400
C  10.39600 0.96900 32.93500
O  9.31100 0.41400 32.85500
O  11.12400 1.12100 34.07900
C  10.49700 0.87400 35.35400
H  6.34000 6.58200 30.55100
H  6.54000 4.92500 24.26500
H  10.70200 0.33600 25.40200
H  8.75800 3.47100 33.07300
H  8.58100 6.23100 32.12900
H  7.20600 5.56500 34.03200
H  6.34000 4.26700 33.13000
H  6.11100 5.95900 32.77200
H  10.28700 5.87100 33.24200
H  11.28400 4.67300 32.44100
H  11.56600 3.60000 34.34800
H  9.95600 3.75600 34.93700
H  5.51500 8.36100 29.35800
H  4.10600 8.08500 28.26000
H  5.45900 9.20500 27.82500
H  3.96300 8.64800 24.16200
H  5.25400 9.42300 25.15300
H  3.83000 8.46400 25.79400
H  8.44600 3.62800 22.73000
H  8.54200 0.81000 23.73700
H  5.93800 2.83200 23.76000
H  6.71500 1.39500 23.25500
H  6.59900 2.75800 22.09200
H  11.16000 1.46700 23.38700
H  10.21800 2.46300 22.20400
H  9.80200 0.75100 20.86800
H  9.13900 -0.15500 22.15100
H  10.87600 -0.31000 21.95900
H  11.94500 -0.68100 26.75500
H  11.57200 -1.65000 28.22300
H  13.15000 -0.78700 28.13000
H  11.89000 2.39300 32.28400
H  10.78700 -0.15700 35.55900
H  9.40900 0.80900 35.35000
H  10.87200 1.51500 36.15200
Mg -11.06900 40.63300 42.03600
C  -10.40100 37.21200 40.96200
C  -7.85500 41.47500 41.10300
C  -12.05900 43.83500 41.79300
C  -14.24600 39.58200 42.70100
N  -9.32900 39.45900 40.96900
C  -9.25700 38.06700 40.70600
C  -7.88700 37.70000 40.18400
C  -7.02300 38.99700 40.62600
C  -8.08700 40.10100 40.81500
C  -6.18200 38.69700 41.88900
C  -7.90900 37.50400 38.67400
C  -7.15300 36.22900 38.24100
H  -5.84600 36.49300 37.41700
N  -10.06600 42.38700 41.62000
C  -8.74300 42.50800 41.38500
C  -8.36000 43.90400 41.39400
C  -9.61300 44.60300 41.46500
C  -10.63400 43.60900 41.67200
C  -6.94400 44.28300 41.27600
C  -9.73500 46.14300 41.25500
O  -8.76700 46.83200 40.83800
C  -11.06700 46.77600 41.38000
N  -12.93500 41.55400 42.06300
C  -13.12700 42.89500 41.96000
C  -14.61400 43.26300 42.15600
C  -15.19200 41.87900 42.65700
C  -14.03600 40.94700 42.57100
C  -14.92900 44.51300 42.94500
C  -16.50100 41.46800 41.98100
C  -17.70200 40.89800 42.81000
N  -12.11600 38.81900 42.02200
C  -13.37800 38.51300 42.31000
C  -13.66900 37.00200 42.27600
C  -12.54600 36.55500 41.71300
C  -11.59000 37.64500 41.56400
C  -14.94000 36.28300 42.67900
C  -11.93000 35.28500 41.30000
O  -12.28300 34.13600 41.48400
C  -10.52700 35.69600 40.77000
C  -9.44300 34.96500 41.52800
O  -8.89400 35.33500 42.51400
O  -9.16700 33.81600 40.90900
C  -8.15300 32.92600 41.46000
H  -6.80500 41.68600 40.89000
H  -12.39900 44.87200 41.83800
H  -15.23100 39.28600 43.06700
H  -7.48500 36.82300 40.69100
H  -6.31300 39.23700 39.83400
H  -6.68700 38.23300 42.73600
H  -5.85200 39.67600 42.23500
H  -5.31100 38.06100 41.73400
H  -7.37800 38.32500 38.19400
H  -8.92100 37.57800 38.27700
H  -7.89400 35.58300 37.76800
H  -6.86400 35.65600 39.12100
H  -6.25800 43.62500 41.81000
H  -6.66600 45.32700 41.42600
H  -6.61900 44.26400 40.23600
H  -11.65100 46.26800 40.61300
H  -11.05400 47.86500 41.42900
H  -11.46900 46.63900 42.38400
H  -14.96500 43.31100 41.12500
H  -15.57000 41.91000 43.67900
H  -14.05700 45.14800 43.10200
H  -15.39000 44.27200 43.90300
H  -15.74900 45.07300 42.49500
H  -16.28900 40.70900 41.22700
H  -16.89000 42.32900 41.43700
H  -18.10100 39.93200 42.50200
H  -18.60000 41.50800 42.72000
H  -17.35800 40.82600 43.84200
H  -14.87000 35.74600 43.62500
H  -15.12500 35.48700 41.95800
H  -15.83000 36.91000 42.62000
H  -10.66900 35.37900 39.73700
H  -8.65800 32.02100 41.79700
H  -7.65900 33.35200 42.33300
H  -7.38400 32.72700 40.71400

