158

Mg 45.99700 2.96100 46.74400
C  43.81200 5.72900 46.24700
C  43.18100 1.00900 46.50900
C  48.14200 0.55300 46.34500
C  48.71400 5.36000 46.49300
N  43.79000 3.30700 46.43700
C  43.16200 4.51300 46.26600
C  41.59800 4.38200 45.98900
C  41.37600 2.89300 46.46900
C  42.83600 2.32000 46.47800
C  40.53600 2.71600 47.75900
C  41.05400 4.75300 44.57400
C  40.21500 6.03100 44.43600
H  40.81000 6.95600 43.38800
N  45.74600 0.99900 46.56500
C  44.48200 0.40700 46.45800
C  44.64800 -1.05200 46.37000
C  46.04800 -1.25100 46.23400
C  46.75100 0.10100 46.41300
C  43.56900 -1.98700 46.29400
C  46.71200 -2.62400 45.99600
O  46.04900 -3.65400 45.88700
C  48.20000 -2.78800 46.09500
N  48.10000 3.00000 46.38500
C  48.74600 1.77200 46.40100
C  50.27800 1.98500 46.52700
C  50.51300 3.54300 46.49400
C  49.04000 3.99400 46.50800
C  50.85700 1.31700 47.76200
C  51.29300 4.08500 45.18100
C  52.77900 3.95600 45.16700
N  46.31500 5.15200 46.49600
C  47.44500 5.94900 46.47400
C  47.06100 7.30900 46.35000
C  45.59700 7.31100 46.45300
C  45.22600 5.93000 46.33100
C  48.01900 8.50500 46.30100
C  44.42100 8.13600 46.53600
O  44.28800 9.33400 46.65900
C  43.18900 7.14000 46.49700
C  42.40800 7.27000 47.77800
O  42.27200 6.44000 48.65700
O  41.76500 8.45700 47.67700
C  40.72000 8.72900 48.62900
H  42.31800 0.34400 46.44700
H  48.83100 -0.28800 46.25000
H  49.50900 6.10800 46.52500
H  41.14300 5.17700 46.58100
H  40.88600 2.24500 45.74200
H  41.03600 2.07800 48.48800
H  39.60200 2.21500 47.50500
H  40.30200 3.65300 48.26400
H  40.45000 3.93400 44.18400
H  41.89500 4.91300 43.90000
H  40.17700 6.57000 45.38200
H  39.19000 5.71900 44.23700
H  42.62200 -1.48900 46.08900
H  43.45200 -2.41200 47.29100
H  43.67000 -2.80700 45.58300
H  48.43600 -3.84800 45.99900
H  48.55900 -2.50800 47.08500
H  48.92300 -2.28300 45.45400
H  50.76900 1.41600 45.73800
H  51.01300 3.94700 47.37400
H  51.45500 1.99900 48.36600
H  51.46400 0.49700 47.37600
H  50.09600 0.93600 48.44300
H  51.08000 5.15300 45.21600
H  50.92600 3.51400 44.32700
H  53.05100 3.67900 44.14900
H  53.13400 3.21300 45.88200
H  53.32800 4.88000 45.34600
H  47.65800 9.29000 46.96500
H  48.01500 9.04200 45.35300
H  49.06100 8.32800 46.57100
H  42.58600 7.52500 45.67400
H  39.81500 8.53200 48.05600
H  40.77500 9.75000 49.00700
H  40.77600 8.07300 49.49900
Mg -5.62500 25.69700 25.94500
C  -4.36300 27.26400 28.90800
C  -7.38900 23.50100 27.88500
C  -6.29500 23.93900 23.26200
C  -3.30400 27.63300 24.26300
N  -5.75200 25.33700 28.09900
C  -5.22800 26.18300 29.18000
C  -5.81900 25.70000 30.48600
C  -6.44700 24.31000 30.10100
C  -6.60300 24.37700 28.61700
C  -5.48800 23.09000 30.45500
C  -6.77600 26.73900 31.03000
C  -6.86100 27.02800 32.55300
H  -6.27200 26.02900 33.57900
N  -6.78300 24.08700 25.55600
C  -7.48500 23.28200 26.48300
C  -8.12700 22.23200 25.80200
C  -7.85400 22.35800 24.39300
C  -6.96200 23.52800 24.32600
C  -8.86300 21.06200 26.46300
C  -8.21600 21.50300 23.13800
O  -7.80600 21.63300 22.02200
C  -9.29200 20.47000 23.29800
N  -4.87400 25.70700 24.11100
C  -5.24600 24.84600 23.11800
C  -4.54100 25.12800 21.80300
C  -3.57900 26.31100 22.09400
C  -3.94600 26.62400 23.57100
C  -3.84800 23.78500 21.21200
C  -3.58600 27.44000 20.97500
C  -4.64800 28.55400 21.08400
N  -4.19100 27.27200 26.43200
C  -3.40300 27.98500 25.57500
C  -2.77300 29.05100 26.29900
C  -3.07200 28.77900 27.66300
C  -3.93300 27.66800 27.66000
C  -1.96200 30.16500 25.78400
C  -2.84400 29.11000 29.04400
O  -2.19100 30.02200 29.47500
C  -3.63500 28.14200 29.94000
C  -2.66800 27.44200 30.79600
O  -1.50200 27.25000 30.47600
O  -3.16000 27.36600 32.11700
C  -2.11900 27.31000 33.18500
H  -7.78800 22.72500 28.54100
H  -6.62100 23.58400 22.28200
H  -2.50800 28.12900 23.70400
H  -5.07000 25.60400 31.27200
H  -7.41300 24.06600 30.54300
H  -4.65600 23.46900 31.04800
H  -5.05100 22.72700 29.52500
H  -5.96800 22.30700 31.04200
H  -7.77400 26.34900 30.83000
H  -6.71300 27.69300 30.50600
H  -7.89600 27.10700 32.88300
H  -6.31500 27.95800 32.70900
H  -9.84600 21.53100 26.46500
H  -8.57600 20.89500 27.50200
H  -9.01800 20.08500 26.00400
H  -9.92700 20.43400 22.41200
H  -9.99900 20.77600 24.06900
H  -8.84800 19.48300 23.42200
H  -5.31900 25.50100 21.13700
H  -2.56500 25.92600 22.19700
H  -4.21600 23.70100 20.18900
H  -4.25700 22.90200 21.70400
H  -2.77000 23.92800 21.27900
H  -3.75300 27.01500 19.98500
H  -2.57500 27.84600 20.95700
H  -4.93600 28.86100 22.09000
H  -5.46700 28.22400 20.44500
H  -4.19100 29.40100 20.57300
H  -1.63100 30.88300 26.53400
H  -2.72800 30.68200 25.20500
H  -1.13900 29.96600 25.09700
H  -4.36800 28.73500 30.48800
H  -2.10400 26.36500 33.72800
H  -2.36700 28.11200 33.88000
H  -1.18900 27.59000 32.69100

