158

Mg 42.31200 40.93100 27.63000
C  41.09100 43.06600 30.07500
C  42.71400 38.61400 29.96000
C  43.21300 39.06400 25.13300
C  41.70900 43.52100 25.22700
N  42.03300 40.86200 29.77600
C  41.46900 41.83400 30.59900
C  41.53800 41.50300 32.02500
C  42.34800 40.15500 31.98100
C  42.37400 39.83000 30.52700
C  43.65700 40.10200 32.74500
C  40.13300 41.38100 32.67700
C  39.87700 42.38600 33.89800
H  39.24300 41.83300 35.13500
N  42.93600 39.05600 27.62400
C  43.01500 38.17400 28.67300
C  43.44200 36.88500 28.11000
C  43.78000 37.10200 26.74400
C  43.30700 38.44100 26.42500
C  43.60800 35.70400 28.99000
C  44.40900 36.07400 25.70800
O  44.68400 36.47600 24.56600
C  44.77600 34.65100 26.09600
N  42.61300 41.32000 25.50100
C  42.89300 40.30300 24.67900
C  42.88400 40.63800 23.19900
C  42.10200 42.00300 23.26100
C  42.19400 42.32200 24.74900
C  44.29900 40.61700 22.46300
C  40.67300 41.84300 22.67800
C  39.79600 40.65500 23.20700
N  41.65500 42.86200 27.60600
C  41.49300 43.79000 26.52400
C  41.01600 45.05300 27.09200
C  40.78100 44.79200 28.47300
C  41.24200 43.49900 28.74500
C  40.96800 46.31500 26.36100
C  40.30100 45.33600 29.76100
O  39.74000 46.42400 30.02900
C  40.57300 44.31600 30.83700
C  41.61700 44.97100 31.66500
O  42.71400 45.30900 31.37400
O  41.05300 45.13100 32.91200
C  41.83100 45.75000 34.05600
H  42.75700 37.79300 30.67800
H  43.35400 38.39000 24.28500
H  41.33000 44.31900 24.58500
H  42.19700 42.18200 32.56500
H  41.73200 39.38600 32.44700
H  43.99500 39.06600 32.78100
H  43.55000 40.46800 33.76600
H  44.41600 40.69800 32.23700
H  40.08800 40.37700 33.09800
H  39.36800 41.54400 31.91700
H  39.17700 43.21000 33.76500
H  40.85600 42.76100 34.19300
H  43.76300 36.01800 30.02200
H  44.51800 35.15800 28.74300
H  42.76000 35.01800 28.96300
H  45.76300 34.71500 26.55500
H  45.00800 34.11600 25.17500
H  44.11100 34.09800 26.76000
H  42.39000 39.85100 22.62900
H  42.64100 42.77300 22.70800
H  44.23000 40.27900 21.42900
H  44.95100 40.03800 23.11800
H  44.77800 41.59500 22.51100
H  40.77100 41.72300 21.59900
H  40.07900 42.74200 22.84100
H  40.35900 39.89900 23.75500
H  39.34400 40.10800 22.38000
H  39.03700 41.10300 23.84800
H  41.50300 46.33900 25.41100
H  41.13600 47.06300 27.13500
H  39.94500 46.34000 25.98700
H  39.69500 44.25200 31.48000
H  41.90300 45.02700 34.86900
H  41.19400 46.56600 34.39700
H  42.78300 46.18700 33.75300
Mg 6.81800 53.99000 40.93100
C  6.21400 50.64000 40.41200
C  10.04200 53.59100 40.09600
C  7.19000 57.38000 40.94500
C  3.29400 54.39300 41.64000
N  7.89700 52.31800 40.14600
C  7.56000 51.04000 40.18900
C  8.72500 50.12700 39.95200
C  9.90500 51.02400 40.13400
C  9.24200 52.38100 40.21900
C  10.93700 50.74700 41.28200
C  8.73900 49.44600 38.46900
C  8.50100 50.41600 37.29600
H  7.35000 50.26800 36.39200
N  8.37800 55.26500 40.63100
C  9.69500 54.91400 40.26800
C  10.44700 56.11600 40.05000
C  9.61500 57.24500 40.35100
C  8.34600 56.62400 40.70800
C  11.89300 55.99000 39.63000
C  10.10900 58.68700 40.37000
O  11.20600 58.99800 39.92100
C  9.27500 59.83200 40.90600
N  5.33700 55.73000 41.06800
C  5.80300 56.99500 41.09700
C  4.69100 58.05400 41.32700
C  3.44700 57.05800 41.56900
C  4.04400 55.65100 41.51300
C  4.87100 59.13400 42.46700
C  2.14200 57.25800 40.72500
C  0.79400 57.56000 41.55900
N  5.06400 52.84000 41.03000
C  3.75600 53.10600 41.42700
C  3.02900 51.86100 41.44000
C  3.93200 50.88100 41.02800
C  5.12600 51.49200 40.87000
C  1.54000 51.70800 41.77400
C  4.11700 49.46400 40.76000
O  3.23900 48.56200 40.85500
C  5.62700 49.22500 40.33600
C  5.41200 48.58200 39.02400
O  4.70200 48.98800 38.17100
O  5.91400 47.31100 39.11300
C  5.62500 46.43200 38.01800
H  11.09700 53.33600 39.97800
H  7.31300 58.46100 41.03500
H  2.21800 54.44700 41.81400
H  8.83000 49.30400 40.65800
H  10.48500 51.08700 39.21400
H  11.91200 50.69900 40.79900
H  10.72200 49.82800 41.82800
H  10.86300 51.60200 41.95400
H  8.13200 48.54100 38.45700
H  9.75900 49.10200 38.29600
H  9.36600 50.36700 36.63500
H  8.45500 51.39300 37.77700
H  12.49500 55.43300 40.34800
H  12.39400 56.95800 39.65700
H  11.93800 55.55900 38.63000
H  9.93600 60.68700 41.04600
H  8.99300 59.49100 41.90200
H  8.40500 60.09500 40.30400
H  4.73200 58.66800 40.42700
H  3.21100 57.19100 42.62500
H  5.66200 58.83400 43.15300
H  4.01300 59.28400 43.12300
H  5.13900 60.03000 41.90500
H  1.90600 56.38800 40.11300
H  2.35700 58.11400 40.08600
H  0.63300 58.63000 41.42600
H  0.92800 57.34600 42.61900
H  -0.12300 57.11100 41.17700
H  1.41700 51.55600 42.84700
H  1.21700 50.80500 41.25700
H  1.09100 52.62500 41.39000
H  6.17200 48.52000 40.96400
H  5.71400 47.02400 37.10700
H  4.57300 46.16600 38.12900
H  6.38200 45.66200 37.86500

