158

Mg 46.61500 24.95500 28.32000
C  47.04200 27.26700 30.92400
C  45.84000 22.60100 30.63200
C  46.58300 22.85600 25.86400
C  48.04300 27.44800 26.14800
N  46.53600 24.93500 30.54900
C  46.54100 26.03600 31.32900
C  46.22500 25.69300 32.73600
C  46.03600 24.12200 32.70600
C  46.19800 23.77700 31.26600
C  46.88900 23.25800 33.63000
C  44.99700 26.44500 33.48000
C  45.29900 27.03600 34.89100
H  44.26800 26.89600 35.96800
N  46.07000 23.07800 28.26600
C  45.82700 22.20400 29.30500
C  45.45200 20.91500 28.77300
C  45.69500 20.94200 27.40900
C  46.12800 22.32900 27.12000
C  45.06500 19.68700 29.60900
C  45.45100 19.86500 26.25600
O  45.57900 20.14900 25.05700
C  44.89300 18.49700 26.58300
N  47.17200 25.11900 26.26800
C  46.98600 24.12000 25.37800
C  47.31700 24.48600 23.92800
C  47.86400 25.95100 24.06800
C  47.77200 26.17600 25.56300
C  48.29900 23.57800 23.16000
C  46.98200 26.94500 23.23700
C  47.63900 28.22500 22.85200
N  47.33500 26.95500 28.43600
C  47.85000 27.78700 27.49300
C  48.14600 29.07800 28.02100
C  47.77200 28.88500 29.40000
C  47.32400 27.56100 29.60900
C  48.76100 30.24000 27.31100
C  47.69300 29.61000 30.59900
O  48.04300 30.78800 30.90100
C  47.26000 28.55500 31.72900
C  48.36700 28.44000 32.75300
O  49.21200 27.54300 32.78100
O  48.34600 29.44900 33.66500
C  49.24000 29.22600 34.87000
H  45.33100 21.99500 31.38300
H  46.60800 22.10400 25.07300
H  48.52600 28.27900 25.63000
H  47.05500 25.91800 33.40600
H  44.97200 24.02100 32.92200
H  47.73400 22.90800 33.03700
H  46.28800 22.38300 33.87400
H  47.21800 23.77200 34.53300
H  44.10600 25.84300 33.65700
H  44.68600 27.28600 32.85900
H  45.32800 28.12000 34.77500
H  46.22500 26.60800 35.27300
H  44.01700 19.49800 29.37500
H  45.27200 19.78100 30.67500
H  45.50600 18.75000 29.26900
H  43.99400 18.64200 27.18100
H  45.66100 17.86400 27.02900
H  44.69900 17.90000 25.69200
H  46.31900 24.54200 23.49300
H  48.91700 26.15700 23.87900
H  49.11300 24.17800 22.75200
H  47.69900 23.09100 22.39200
H  48.78100 22.84500 23.80600
H  46.15800 27.11600 23.93000
H  46.84000 26.41700 22.29400
H  47.65000 28.24400 21.76200
H  48.67300 28.30500 23.18900
H  46.93900 28.95800 23.25200
H  48.12600 30.38000 26.43700
H  49.75300 29.98000 26.94100
H  48.79500 31.04800 28.04100
H  46.27000 28.77600 32.12800
H  49.06500 30.08300 35.52000
H  50.30400 29.30200 34.64500
H  48.93500 28.27600 35.31000
Mg 8.64400 47.69500 25.40000
C  6.82600 47.58000 28.31900
C  11.29800 48.99500 27.03200
C  10.34900 47.55900 22.45000
C  5.76800 46.97300 23.58600
N  9.03300 48.14700 27.52800
C  8.14700 48.00600 28.51500
C  8.76700 48.54300 29.84300
C  10.08300 49.22700 29.34000
C  10.14900 48.81300 27.87100
C  10.03800 50.77500 29.45700
C  8.98200 47.39000 30.86000
C  8.50500 47.52400 32.32500
H  8.81200 46.39100 33.29200
N  10.59600 48.01300 24.94200
C  11.54000 48.59000 25.70500
C  12.87500 48.42100 25.09500
C  12.61900 48.01800 23.71300
C  11.14600 47.84600 23.65800
C  14.20900 48.83700 25.75400
C  13.57600 47.72100 22.56900
O  13.23000 47.29700 21.43100
C  15.00700 47.93800 22.75600
N  8.12000 47.57500 23.29500
C  8.97500 47.43400 22.28600
C  8.29700 47.17600 20.93700
C  6.93000 46.73000 21.37000
C  6.88900 47.21200 22.80100
C  8.30000 48.49900 20.05800
C  6.68800 45.17200 21.13200
C  5.41600 44.81500 20.34400
N  6.67100 47.48800 25.76500
C  5.62100 47.16100 24.96800
C  4.48900 46.94700 25.72900
C  4.90600 47.01000 27.06900
C  6.26800 47.34200 27.04600
C  3.16600 46.53200 25.25700
C  4.46600 47.00800 28.41600
O  3.31600 46.86500 28.80700
C  5.74300 47.32300 29.30500
C  5.92300 46.15400 30.12800
O  6.62600 45.19700 29.81500
O  5.35500 46.34100 31.36000
C  5.51600 45.19300 32.29400
H  12.22000 49.22100 27.57100
H  10.93400 47.46900 21.53200
H  4.92700 46.72500 22.93600
H  8.14800 49.31300 30.30200
H  10.92900 48.81500 29.89000
H  10.35500 51.07200 30.45700
H  8.97600 50.98000 29.32000
H  10.65500 51.23300 28.68400
H  10.04700 47.16000 30.83400
H  8.52400 46.48600 30.45800
H  7.42900 47.36200 32.25300
H  8.67100 48.55100 32.65000
H  14.85300 47.96100 25.67700
H  14.09200 49.08800 26.80800
H  14.71000 49.65000 25.23000
H  15.20200 48.98500 22.98800
H  15.59600 47.77700 21.85400
H  15.43200 47.28900 23.52100
H  8.85200 46.45700 20.33400
H  6.16000 47.25000 20.80000
H  9.05800 48.40000 19.28100
H  8.69500 49.31100 20.66900
H  7.32900 48.84900 19.70800
H  6.54200 44.86200 22.16600
H  7.55300 44.60000 20.79700
H  5.74600 44.33900 19.42000
H  4.87000 45.69100 19.99300
H  4.81200 44.16200 20.97400
H  3.11800 45.49700 25.59500
H  3.14900 46.44000 24.17100
H  2.37000 47.20000 25.58600
H  5.49900 48.19300 29.91400
H  4.56900 44.75300 32.60800
H  5.99900 45.58800 33.18800
H  6.32300 44.51100 32.02300

