158

Mg 24.11900 -6.25900 45.27000
C  26.31600 -3.86400 43.93300
C  21.55900 -4.91100 43.49300
C  22.34600 -9.00600 46.04100
C  27.09300 -7.72600 46.71400
N  24.03300 -4.70100 43.88400
C  24.99700 -3.75100 43.44400
C  24.38800 -2.68700 42.51400
C  22.90600 -3.00500 42.62400
C  22.81000 -4.26100 43.39600
C  22.08600 -1.85700 43.35400
C  25.07700 -2.77000 41.06900
C  25.61400 -1.48800 40.30100
H  25.05500 -1.39700 38.86600
N  22.13300 -6.80900 44.98000
C  21.25900 -6.15900 44.17000
C  20.11500 -6.94400 43.99400
C  20.20900 -8.11200 44.79000
C  21.59000 -7.98400 45.29700
C  18.92400 -6.59500 43.21500
C  19.14800 -9.18300 45.05500
O  17.99300 -8.86400 44.67700
C  19.37300 -10.41100 45.77400
N  24.66200 -8.08100 46.06200
C  23.70200 -9.08700 46.25400
C  24.33600 -10.37400 46.78500
C  25.77100 -9.89800 47.17300
C  25.87600 -8.43600 46.63800
C  23.54500 -11.03200 47.89900
C  26.99900 -10.86700 46.82700
C  28.04500 -11.07600 47.88800
N  26.30700 -5.83300 45.38200
C  27.33000 -6.54000 45.97500
C  28.60600 -5.82900 45.84800
C  28.26900 -4.76900 45.03000
C  26.85600 -4.83100 44.80800
C  29.99500 -6.17000 46.30700
C  28.74000 -3.66800 44.17600
O  29.88900 -3.29600 43.98500
C  27.50800 -3.06700 43.47000
C  27.49700 -1.60000 43.86700
O  27.01300 -1.14800 44.93200
O  28.30100 -0.88500 43.00600
C  28.81300 0.38100 43.50000
H  20.76800 -4.25900 43.11700
H  21.79300 -9.94600 46.09600
H  28.00200 -8.19300 47.10000
H  24.63900 -1.76000 43.02800
H  22.40300 -2.97200 41.65800
H  22.50300 -1.80700 44.36000
H  21.05900 -2.21100 43.44200
H  22.11600 -0.87400 42.88500
H  24.34100 -3.27900 40.44800
H  25.98200 -3.36900 41.17600
H  26.69800 -1.57700 40.23200
H  25.27100 -0.66300 40.92600
H  18.72600 -7.32300 42.42800
H  18.95900 -5.56200 42.86900
H  18.02700 -6.60100 43.83400
H  18.51700 -11.02700 45.49800
H  19.30100 -10.17300 46.83500
H  20.25500 -10.99100 45.50500
H  24.37400 -10.97800 45.87800
H  25.76000 -9.65400 48.23500
H  24.23500 -11.19700 48.72700
H  23.12600 -11.99000 47.59000
H  22.70500 -10.45600 48.28600
H  27.38300 -10.67300 45.82500
H  26.48900 -11.83000 46.79100
H  27.86600 -12.03900 48.36600
H  27.85300 -10.37400 48.70000
H  29.04000 -10.97600 47.45400
H  30.04100 -5.96100 47.37600
H  30.80100 -5.66200 45.77800
H  30.15400 -7.24400 46.20300
H  27.72300 -3.21000 42.41100
H  28.81300 0.52400 44.58000
H  28.07200 1.13300 43.22800
H  29.77300 0.64300 43.05600
Mg 17.26700 -1.29400 27.76900
C  16.12100 0.66500 30.46400
C  19.42200 -2.75000 29.82700
C  18.66600 -2.71100 24.98000
C  15.20600 0.70400 25.66600
N  17.75300 -1.01100 29.93500
C  17.04000 -0.27300 30.86400
C  17.38200 -0.73000 32.27200
C  18.55400 -1.71300 32.01600
C  18.59700 -1.83900 30.47800
C  19.91700 -1.34000 32.75900
C  16.15300 -1.34100 33.09200
C  16.14300 -0.73100 34.54600
H  17.45700 -0.28600 35.26400
N  18.88300 -2.65800 27.47400
C  19.57600 -3.21300 28.51300
C  20.32700 -4.33300 27.94800
C  20.17000 -4.31400 26.56300
C  19.20100 -3.17300 26.28500
C  21.16200 -5.24900 28.88700
C  20.78000 -5.22400 25.50300
O  20.52800 -5.12800 24.29600
C  21.76200 -6.29200 25.86000
N  16.96500 -1.07400 25.67800
C  17.66200 -1.77100 24.69700
C  17.24300 -1.29700 23.29600
C  16.14700 -0.30300 23.53300
C  15.99100 -0.26400 25.05900
C  18.54000 -0.94600 22.45100
C  14.75300 -0.45200 22.81300
C  14.68400 0.26600 21.46000
N  15.87700 0.31200 27.93100
C  15.14900 0.98900 27.03500
C  14.28700 1.92800 27.69600
C  14.66100 1.86200 29.00600
C  15.66100 0.88800 29.14300
C  13.29000 2.83200 27.01400
C  14.41700 2.38400 30.33500
O  13.61500 3.20300 30.71000
C  15.31300 1.57700 31.33900
C  16.18400 2.55000 32.17300
O  17.15300 3.14800 31.84900
O  15.61400 2.56900 33.41600
C  16.27300 3.38300 34.40300
H  20.11400 -3.35400 30.41700
H  19.18900 -3.09500 24.10200
H  14.59200 1.29500 24.98400
H  17.72500 0.11700 32.86600
H  18.27900 -2.73000 32.29500
H  20.12000 -2.19800 33.39900
H  19.93200 -0.45600 33.39600
H  20.69200 -1.14000 32.01900
H  16.30100 -2.42000 33.03900
H  15.25500 -0.96600 32.60100
H  15.61100 -1.49600 35.11100
H  15.41400 0.07700 34.48600
H  20.90100 -6.27700 28.63400
H  21.03200 -5.14500 29.96400
H  22.24400 -5.14900 28.79700
H  21.26900 -7.07600 26.43500
H  22.39200 -5.81900 26.61200
H  22.26000 -6.56500 24.92900
H  16.85000 -2.12700 22.70900
H  16.58700 0.67100 23.32000
H  19.47400 -1.14400 22.97600
H  18.40900 0.11700 22.24400
H  18.64300 -1.47500 21.50400
H  13.98100 -0.18100 23.53300
H  14.65000 -1.52500 22.65500
H  15.67300 0.70700 21.33900
H  13.99300 1.10900 21.45100
H  14.49500 -0.59600 20.82000
H  12.35700 2.28400 26.88300
H  13.65400 3.10100 26.02200
H  13.18600 3.84800 27.39400
H  14.63800 1.00700 31.97800
H  15.99600 4.39300 34.10100
H  17.32100 3.10300 34.29700
H  15.84900 3.00300 35.33300

