158

Mg 7.42200 54.57800 41.45700
C  6.69400 51.22700 41.18400
C  10.59900 53.98200 40.35600
C  7.78000 57.99000 41.05600
C  4.04300 55.21800 42.00600
N  8.53800 52.75200 40.97100
C  8.01400 51.46100 40.81500
C  9.06200 50.45900 40.29400
C  10.35100 51.32200 40.38900
C  9.78200 52.76200 40.61600
C  11.45000 50.78100 41.33500
C  8.79200 49.89200 38.88400
C  8.35400 50.87600 37.75200
H  9.04600 50.76400 36.41200
N  8.97000 55.76200 40.69300
C  10.22000 55.31000 40.41900
C  11.07600 56.47300 40.28700
C  10.21200 57.61700 40.36000
C  8.95100 57.16900 40.78200
C  12.54800 56.38800 39.91900
C  10.67900 59.01800 40.12500
O  11.85400 59.21000 39.93100
C  9.71800 60.13300 40.07100
N  6.07100 56.27500 41.31000
C  6.47200 57.57200 41.32800
C  5.38100 58.62200 41.47300
C  4.15500 57.69300 41.70500
C  4.79300 56.30500 41.68500
C  5.74100 59.67800 42.57600
C  2.99600 57.95600 40.66500
C  3.26100 57.62900 39.14400
N  5.75900 53.52900 41.77900
C  4.44400 53.87200 42.05700
C  3.65000 52.71200 42.40000
C  4.56800 51.65800 42.07800
C  5.75200 52.21500 41.62400
C  2.16900 52.46200 42.77300
C  4.66200 50.19700 42.07400
O  3.88600 49.37600 42.53500
C  6.07900 49.88300 41.41200
C  5.84800 49.01600 40.20800
O  5.62200 49.46200 39.11600
O  5.72700 47.66300 40.52400
C  5.17400 46.86400 39.41300
H  11.62800 53.67800 40.15600
H  7.81000 59.07100 41.21000
H  2.97100 55.38100 42.13900
H  9.17400 49.67800 41.04700
H  10.83100 51.36900 39.41100
H  11.24300 49.73200 41.55000
H  11.42500 51.29600 42.29500
H  12.39400 50.95700 40.81900
H  8.00900 49.13500 38.92600
H  9.70700 49.32900 38.69800
H  8.34100 51.89500 38.13800
H  7.32700 50.55900 37.57500
H  12.85500 55.55900 39.28200
H  13.23600 56.43500 40.76300
H  12.86000 57.29100 39.39500
H  10.09000 60.97200 39.48300
H  9.30600 60.41600 41.03900
H  8.79600 59.84100 39.56800
H  5.26200 59.06900 40.48600
H  3.78200 57.78500 42.72500
H  6.68900 59.57200 43.10500
H  4.98200 59.57800 43.35200
H  5.68000 60.63000 42.04900
H  2.74300 59.01500 40.71400
H  2.14600 57.35600 40.99100
H  3.87000 56.79900 38.78800
H  3.27300 58.51600 38.51000
H  2.26400 57.28100 38.87700
H  1.58700 52.40200 41.85300
H  1.69400 53.26700 43.33400
H  1.92500 51.52400 43.27300
H  6.73800 49.43600 42.15500
H  5.63100 47.05600 38.44200
H  4.10800 47.04600 39.27200
H  5.26600 45.78200 39.51300
Mg -9.65500 40.55100 39.50600
C  -8.61700 37.38600 38.68300
C  -6.55300 41.71700 38.73100
C  -10.91900 43.65700 39.57200
C  -12.89400 39.23300 39.96300
N  -7.81200 39.57700 38.78400
C  -7.58300 38.24800 38.55600
C  -6.04500 38.00800 38.12900
C  -5.41900 39.41100 38.40400
C  -6.66300 40.29200 38.63800
C  -4.49800 39.48700 39.69900
C  -5.89300 37.45200 36.65400
C  -6.69700 38.26400 35.54400
H  -7.58500 37.42100 34.64000
N  -8.91200 42.45200 39.05500
C  -7.58500 42.72900 38.80800
C  -7.39300 44.13600 38.58000
C  -8.59300 44.78200 39.08800
C  -9.52600 43.66400 39.30600
C  -6.13400 44.77600 38.17900
C  -8.79300 46.23900 39.21400
O  -8.03400 47.03700 38.66000
C  -9.92100 46.75300 39.97000
N  -11.69800 41.30500 39.48000
C  -11.86000 42.60000 39.65100
C  -13.36700 42.92900 39.84800
C  -14.01300 41.53500 40.05800
C  -12.78700 40.58600 39.94800
C  -13.64400 43.81600 41.06200
C  -15.21400 41.11700 39.20000
C  -16.49500 40.71500 39.97300
N  -10.56600 38.69000 39.45600
C  -11.88900 38.35400 39.61300
C  -12.09300 36.93500 39.48300
C  -10.77900 36.45300 39.07700
C  -9.90000 37.61400 39.08100
C  -13.35900 36.14900 39.68100
C  -10.02600 35.27800 38.72900
O  -10.39600 34.10400 38.72300
C  -8.52100 35.85600 38.50000
C  -7.53800 35.05500 39.33700
O  -7.72100 34.90400 40.54300
O  -6.48300 34.48700 38.65800
C  -5.37500 34.03700 39.49000
H  -5.52500 42.08300 38.69200
H  -11.23600 44.67400 39.81000
H  -13.87200 38.75000 40.01100
H  -5.73100 37.23300 38.82700
H  -4.81500 39.72500 37.55200
H  -4.98600 40.13200 40.42900
H  -3.45600 39.71500 39.47300
H  -4.50700 38.45400 40.04700
H  -6.09400 36.38600 36.54900
H  -4.83900 37.55800 36.39900
H  -5.94800 38.59500 34.82500
H  -7.31300 39.06800 35.94600
H  -6.38400 45.56300 37.46700
H  -5.36200 44.04500 37.93800
H  -5.77400 45.31700 39.05400
H  -9.99000 46.16400 40.88500
H  -10.84400 46.59600 39.41200
H  -9.80400 47.82000 40.15700
H  -13.73900 43.34800 38.91300
H  -14.28900 41.38600 41.10200
H  -14.31100 43.42100 41.82800
H  -14.01000 44.80200 40.77500
H  -12.66600 43.89200 41.53600
H  -14.85400 40.28300 38.59800
H  -15.38000 41.92300 38.48500
H  -17.19600 41.50200 39.69400
H  -16.27700 40.62900 41.03700
H  -16.83100 39.79800 39.48700
H  -14.22700 36.29400 39.03900
H  -13.76300 36.53500 40.61700
H  -13.04600 35.10500 39.69900
H  -8.30500 35.57100 37.47000
H  -4.46800 34.22500 38.91600
H  -5.46300 32.97400 39.71500
H  -5.41400 34.54100 40.45500

