158

Mg 9.18700 4.64400 27.58000
C  10.59000 3.11200 30.22300
C  7.40900 6.63700 29.79800
C  7.48200 5.95600 24.94700
C  10.90400 2.52500 25.33400
N  9.05300 4.91900 29.84200
C  9.73600 4.16500 30.70500
C  9.38800 4.51100 32.18700
C  8.34100 5.68000 32.03200
C  8.29700 5.78900 30.47900
C  6.93800 5.42300 32.67400
C  10.74000 4.92800 32.95000
C  10.50600 5.58700 34.24500
H  11.19700 5.11200 35.53900
N  7.73200 6.12200 27.40100
C  7.10800 6.81800 28.36400
C  6.23900 7.89800 27.80400
C  6.24600 7.61100 26.42100
C  7.17100 6.53800 26.20400
C  5.43900 8.90400 28.62300
C  5.52600 8.34100 25.32100
O  5.66000 8.01800 24.14700
C  4.58100 9.38500 25.55200
N  9.20600 4.35400 25.47800
C  8.33000 4.89500 24.62700
C  8.59900 4.39400 23.19100
C  9.85300 3.46500 23.23300
C  10.03500 3.45100 24.81100
C  7.36700 3.84200 22.45400
C  11.05400 4.03700 22.39100
C  11.75100 3.04900 21.55600
N  10.53200 3.08100 27.64100
C  11.08100 2.31200 26.74500
C  11.94800 1.36300 27.39800
C  11.76900 1.56600 28.77300
C  10.89700 2.67100 28.84200
C  12.74700 0.36300 26.70200
C  12.13300 1.14400 30.16400
O  12.83400 0.26000 30.59400
C  11.37000 2.12900 31.10600
C  10.51300 1.35100 32.06800
O  9.37000 0.89200 31.82600
O  11.15500 1.26200 33.29600
C  10.29600 1.06100 34.44200
H  6.84700 7.31400 30.44400
H  7.14700 6.42300 24.01800
H  11.56000 1.86700 24.75900
H  8.79900 3.67100 32.55500
H  8.91800 6.52500 32.41000
H  6.76900 4.49600 33.22200
H  6.15100 5.47200 31.92100
H  6.69300 6.29100 33.28600
H  11.43000 5.53300 32.36200
H  11.23300 3.99500 33.22100
H  9.43100 5.51500 34.40800
H  10.76700 6.64000 34.13900
H  4.38900 8.64900 28.76700
H  5.57200 9.83600 28.07400
H  5.91100 9.04200 29.59500
H  3.64700 9.19600 26.08100
H  4.35200 9.71400 24.53800
H  5.11700 10.20300 26.03400
H  8.87400 5.26900 22.60300
H  9.68900 2.42800 22.93900
H  7.16900 4.40200 21.54000
H  6.54500 3.87600 23.16900
H  7.58700 2.81600 22.16100
H  11.66600 4.32600 23.24600
H  10.92400 5.03300 21.96800
H  12.55700 2.56900 22.11200
H  12.15900 3.62700 20.72700
H  11.11200 2.24400 21.19300
H  13.40800 0.71300 25.90900
H  12.07000 -0.18900 26.05000
H  13.27700 -0.32200 27.36300
H  12.07400 2.76300 31.64600
H  9.25100 1.21500 34.17100
H  10.61200 1.76400 35.21300
H  10.35300 0.03600 34.80800
Mg 47.57800 24.54100 28.02400
C  48.34700 26.82100 30.58700
C  46.72400 22.18700 30.61200
C  47.00300 22.17700 25.81500
C  48.97400 26.59800 25.68900
N  47.49300 24.56800 30.31800
C  47.75900 25.61900 31.06300
C  47.50100 25.24100 32.61500
C  47.08800 23.76900 32.57500
C  47.09900 23.47100 31.09000
C  47.98200 22.84300 33.44800
C  46.58400 26.30900 33.25700
C  45.75700 25.81100 34.42000
H  45.55800 26.65900 35.70600
N  46.98000 22.44300 28.15700
C  46.59700 21.70600 29.25200
C  45.96800 20.49800 28.86700
C  46.11200 20.41500 27.48500
C  46.80600 21.65300 27.09500
C  45.39200 19.45800 29.75800
C  45.61600 19.35500 26.48900
O  45.76200 19.42600 25.27700
C  44.89700 18.11700 26.94600
N  48.05100 24.32500 26.06300
C  47.51000 23.39400 25.28400
C  47.60400 23.65300 23.81700
C  48.12000 25.11600 23.83300
C  48.39000 25.35700 25.27400
C  48.60000 22.70700 23.03900
C  47.08000 26.15000 23.35000
C  47.58400 26.98800 22.21100
N  48.42600 26.38200 28.09700
C  48.91700 27.11000 27.05900
C  49.38100 28.39600 27.63500
C  49.17800 28.25900 29.03000
C  48.63000 27.01900 29.25400
C  50.10000 29.54100 26.95300
C  49.45700 29.02200 30.23900
O  49.95200 30.09000 30.46100
C  48.76600 28.12500 31.28300
C  49.74900 28.07800 32.44500
O  50.82600 27.58400 32.40200
O  49.18400 28.57100 33.55100
C  49.91000 28.58600 34.81700
H  46.34500 21.51000 31.38000
H  46.67400 21.49000 25.03200
H  49.13000 27.45200 25.02700
H  48.47000 25.33700 33.10600
H  46.01600 23.72700 32.76400
H  48.74100 23.35900 34.03600
H  48.41900 22.12600 32.75400
H  47.41300 22.13800 34.05300
H  45.87500 26.51700 32.45600
H  47.07800 27.24000 33.53900
H  46.22800 24.87500 34.72000
H  44.75200 25.66400 34.02500
H  44.36600 19.32500 29.41400
H  45.31900 19.82800 30.78000
H  45.94800 18.52700 29.64500
H  44.33000 17.67700 26.12600
H  44.04300 18.52900 27.48400
H  45.55500 17.51000 27.56800
H  46.56800 23.56900 23.48600
H  49.06000 25.19300 23.28700
H  48.04200 21.79900 22.80800
H  49.49600 22.40900 23.58300
H  48.90600 23.30500 22.18100
H  46.78200 26.80600 24.16800
H  46.13000 25.70800 23.05100
H  48.62300 26.81700 21.93000
H  47.41100 28.03200 22.47400
H  47.01700 26.81200 21.29700
H  49.68000 29.65800 25.95300
H  51.17100 29.34400 26.99700
H  50.05100 30.49000 27.48800
H  47.88500 28.67100 31.62100
H  49.92100 29.57700 35.27100
H  50.90100 28.15200 34.95300
H  49.41700 27.91700 35.52200

