158

Mg 1.89900 -1.45100 44.47200
C  5.24200 -0.28200 44.24600
C  0.81100 1.32400 42.71000
C  -1.09700 -2.94400 44.24200
C  3.23800 -4.55900 45.69400
N  2.94100 0.29300 43.48400
C  4.23900 0.60100 43.67300
C  4.56800 1.95000 42.98700
C  3.15800 2.53900 42.53200
C  2.24700 1.29800 42.93600
C  2.76300 3.95600 43.17400
C  5.62000 1.76800 41.80500
C  5.41000 0.50000 40.89500
H  5.15500 0.75000 39.37500
N  0.12400 -0.93100 43.61400
C  -0.14500 0.28100 42.93600
C  -1.53500 0.34100 42.58200
C  -2.17300 -0.76700 43.23400
C  -1.04100 -1.64100 43.68300
C  -2.19500 1.53200 41.91500
C  -3.64200 -1.07100 43.20500
O  -4.40400 -0.26400 42.64500
C  -4.29600 -2.20200 43.98600
N  1.18300 -3.54900 44.80800
C  -0.13200 -3.79500 44.74000
C  -0.38900 -5.22000 45.32400
C  1.03800 -5.73500 45.81600
C  1.88000 -4.57400 45.34200
C  -1.69600 -5.54300 46.16500
C  1.41700 -7.03500 45.12300
C  2.01500 -8.03100 46.07600
N  3.81600 -2.32600 44.99600
C  4.16600 -3.52300 45.46200
C  5.64100 -3.56400 45.67400
C  6.05700 -2.33200 45.15300
C  4.93200 -1.62700 44.75300
C  6.50100 -4.74600 46.19100
C  7.26300 -1.52700 44.92100
O  8.41300 -1.85600 45.17100
C  6.79400 -0.11100 44.32000
C  7.31000 0.95100 45.25600
O  7.27100 0.84600 46.48100
O  7.85200 1.97300 44.58300
C  8.70700 3.00500 45.23000
H  0.50700 2.24400 42.20600
H  -2.07200 -3.40400 44.41900
H  3.67500 -5.42200 46.20200
H  5.08300 2.66000 43.63500
H  3.21100 2.46400 41.44600
H  2.90600 4.83900 42.55000
H  3.38300 4.05500 44.06500
H  1.69700 3.99000 43.39900
H  6.64800 1.81700 42.16300
H  5.46000 2.62500 41.15100
H  4.67900 -0.15400 41.37000
H  6.33100 -0.08300 40.93500
H  -1.47800 2.22800 41.48100
H  -2.70900 2.09600 42.69300
H  -2.82400 1.19000 41.09300
H  -5.34400 -1.95200 44.15100
H  -3.82800 -2.34900 44.96000
H  -4.42800 -3.14800 43.46100
H  -0.78800 -5.89100 44.56400
H  1.10700 -5.79000 46.90300
H  -1.88700 -4.59900 46.67600
H  -1.45200 -6.41900 46.76800
H  -2.59400 -5.76900 45.59000
H  1.97300 -6.80100 44.21500
H  0.47600 -7.51600 44.85500
H  1.25300 -8.70000 46.47400
H  2.50800 -7.51500 46.90000
H  2.78300 -8.54100 45.49500
H  6.30300 -4.89100 47.25300
H  7.57700 -4.57700 46.18500
H  6.42200 -5.64300 45.57700
H  7.25900 0.03700 43.34500
H  8.53700 3.82500 44.53300
H  9.73100 2.63100 45.25300
H  8.44600 3.27400 46.25400
Mg 35.08900 2.60800 29.45200
C  32.97300 3.53800 31.93700
C  37.67200 2.30700 31.72400
C  37.15700 1.61300 26.91600
C  32.50100 3.24800 27.15300
N  35.31300 2.95900 31.56500
C  34.25300 3.26500 32.43300
C  34.74200 3.41700 33.91600
C  36.35300 3.24400 33.74100
C  36.50700 2.84300 32.24900
C  37.31300 4.43800 34.19300
C  33.96900 2.34500 34.82600
C  33.49700 2.79000 36.26000
H  34.35900 3.78000 36.96800
N  37.11000 1.94300 29.35000
C  37.93800 1.80500 30.45200
C  39.12700 1.08900 30.00300
C  39.07000 0.98300 28.56700
C  37.73600 1.51400 28.19700
C  40.16100 0.79100 31.04400
C  40.15400 0.45500 27.67300
O  40.21100 0.66900 26.50200
C  41.34000 -0.23300 28.26200
N  34.76600 2.34200 27.39200
C  35.81500 2.00000 26.55700
C  35.38800 2.14400 25.09800
C  33.78600 2.39300 25.21000
C  33.68800 2.72400 26.68000
C  36.08200 3.42000 24.38600
C  32.90300 1.27400 24.68800
C  32.26400 0.23800 25.69000
N  33.14000 3.32200 29.45600
C  32.21600 3.58000 28.48700
C  30.96700 3.95000 29.10200
C  31.21000 4.05000 30.44400
C  32.55500 3.61700 30.61700
C  29.73200 4.05600 28.30100
C  30.58300 4.25000 31.67200
O  29.43000 4.56000 31.98600
C  31.71100 3.99200 32.74200
C  31.79800 5.22100 33.56900
O  32.50800 6.17000 33.33200
O  30.94500 5.12800 34.64700
C  30.93400 6.25500 35.52600
H  38.41500 2.14000 32.50600
H  37.81800 1.32600 26.09500
H  31.70900 3.43600 26.42500
H  34.45300 4.44100 34.15300
H  36.67800 2.41900 34.37500
H  38.03600 4.67600 33.41300
H  37.89500 4.12400 35.05900
H  36.70400 5.29900 34.47100
H  34.47900 1.39300 34.97300
H  33.09800 1.97600 34.28300
H  33.50400 1.88000 36.85900
H  32.45400 3.10600 36.23900
H  39.75200 0.71100 32.05200
H  41.01200 1.47000 30.98900
H  40.58400 -0.20500 30.91600
H  42.04800 -0.54200 27.49300
H  41.04800 -1.12500 28.81600
H  41.97000 0.34500 28.93800
H  35.58500 1.21300 24.56600
H  33.51500 3.29600 24.66400
H  35.37000 4.11000 23.93400
H  36.73500 2.96700 23.63900
H  36.66300 3.96300 25.13200
H  33.50000 0.67300 24.00200
H  32.03900 1.69300 24.17300
H  31.19200 0.04300 25.65000
H  32.47800 0.55300 26.71200
H  32.67600 -0.74600 25.46700
H  29.78800 3.31300 27.50500
H  29.66800 5.01300 27.78400
H  28.80800 3.91500 28.86100
H  31.33900 3.18400 33.37100
H  30.60800 7.19800 35.08700
H  31.92800 6.51000 35.89300
H  30.30300 6.08500 36.39800

