158

Mg 48.66800 35.41000 26.77000
C  46.56100 33.79300 29.23400
C  49.12100 38.01700 28.96100
C  50.08200 36.99700 24.29600
C  48.00600 32.73700 24.64400
N  48.00100 35.75400 28.85300
C  47.17000 35.00600 29.70500
C  47.46100 35.55200 31.12900
C  47.77000 37.06100 30.84000
C  48.31600 36.90800 29.39400
C  46.46900 37.97700 30.96600
C  48.67500 34.86100 31.91600
C  48.75500 34.68400 33.39600
H  48.05700 35.68100 34.40400
N  49.48600 37.25700 26.64700
C  49.64100 38.14500 27.65200
C  50.41000 39.29000 27.14500
C  50.74000 39.02100 25.82700
C  50.04500 37.73200 25.52500
C  50.71100 40.55300 27.91000
C  51.59100 39.81700 24.81800
O  51.67700 39.45100 23.63800
C  52.21000 41.08200 25.32200
N  48.91800 34.95100 24.69700
C  49.53400 35.80800 23.87300
C  49.51700 35.25500 22.45400
C  49.15300 33.80800 22.70000
C  48.65800 33.81000 24.14500
C  48.53300 36.04500 21.46900
C  50.38400 32.82700 22.53600
C  50.04400 31.39100 22.04200
N  47.60100 33.53400 26.90200
C  47.43300 32.54500 25.89900
C  46.72300 31.44100 26.44900
C  46.34000 31.87700 27.70800
C  46.90900 33.13600 27.98800
C  46.34000 30.11700 25.76500
C  45.52900 31.55700 28.85800
O  44.94000 30.49800 29.15000
C  45.51100 32.88200 29.80200
C  45.71000 32.37100 31.20900
O  46.64600 31.65900 31.59500
O  44.69800 32.88000 32.08000
C  44.89400 32.57700 33.52300
H  49.16000 38.82900 29.69000
H  50.59800 37.47100 23.45800
H  48.09900 31.83000 24.04200
H  46.56400 35.38000 31.72300
H  48.57600 37.50500 31.42500
H  46.65600 38.89100 30.40200
H  46.36600 38.19300 32.03000
H  45.52600 37.52600 30.65800
H  49.61800 35.29800 31.58800
H  48.82000 33.83900 31.56500
H  49.82200 34.71100 33.61400
H  48.42200 33.74200 33.83100
H  51.76800 40.60100 28.17100
H  50.11200 40.55600 28.82000
H  50.36400 41.38900 27.30300
H  52.86800 40.94300 26.18000
H  51.50000 41.89200 25.48200
H  52.97700 41.23800 24.56300
H  50.51500 35.28100 22.01500
H  48.34100 33.55200 22.02000
H  48.11700 36.86100 22.05900
H  47.73200 35.43200 21.05500
H  49.09900 36.49600 20.65400
H  50.84800 32.77200 23.52100
H  51.03100 33.20200 21.74200
H  49.05500 31.34000 21.58700
H  50.11400 30.69000 22.87400
H  50.83900 31.04900 21.37900
H  45.88300 30.27300 24.78700
H  45.67700 29.46800 26.33800
H  47.21800 29.49900 25.57900
H  44.54100 33.37500 29.73800
H  44.22200 31.79900 33.88600
H  44.65100 33.49600 34.05700
H  45.91300 32.29100 33.78400
Mg 10.02800 48.35700 26.31100
C  8.05400 47.89100 29.25700
C  12.69000 49.20100 28.44300
C  11.84900 48.75800 23.61800
C  7.14700 47.93000 24.49600
N  10.34000 48.35600 28.56500
C  9.40700 48.20500 29.62900
C  9.99300 48.52700 30.99800
C  11.46600 48.91300 30.68400
C  11.50100 48.87200 29.10700
C  11.92900 50.20300 31.30800
C  9.85800 47.39000 32.03800
C  11.02000 47.17000 33.04900
H  10.62200 46.67000 34.49300
N  11.98000 48.91600 26.08600
C  12.92800 49.06200 27.04000
C  14.23300 49.36600 26.39100
C  14.03100 49.33500 25.01400
C  12.56800 48.96400 24.83800
C  15.55400 49.73200 27.04200
C  14.95100 49.68600 23.85600
O  14.62700 49.67200 22.66200
C  16.40700 49.98900 24.12300
N  9.51900 48.49500 24.29400
C  10.49000 48.44900 23.34200
C  10.00200 48.15400 21.90400
C  8.48100 47.75000 22.32200
C  8.32300 48.23100 23.79100
C  10.09400 49.37800 20.87800
C  8.14600 46.22300 22.05200
C  8.71100 45.20600 23.03600
N  8.01700 47.96400 26.78400
C  6.95000 47.81400 25.86700
C  5.73600 47.51500 26.57600
C  6.09300 47.42400 27.96400
C  7.44800 47.81500 28.00400
C  4.37000 47.40400 25.90300
C  5.62400 47.20400 29.33100
O  4.57200 46.87800 29.73500
C  6.90000 47.42700 30.20200
C  7.28800 46.06800 30.74700
O  7.85100 45.16100 30.11900
O  6.85800 46.09400 32.02000
C  7.27700 44.93400 32.81900
H  13.57400 49.38200 29.05700
H  12.48400 48.87400 22.73700
H  6.23000 47.70700 23.94700
H  9.47100 49.36100 31.46800
H  12.14500 48.10700 30.96200
H  11.14400 50.65500 31.91400
H  12.26200 50.97400 30.61200
H  12.78700 50.01000 31.95200
H  9.79700 46.43300 31.52000
H  8.94300 47.55300 32.60700
H  11.64300 48.05900 33.14700
H  11.69100 46.39400 32.68100
H  16.39300 49.06500 26.84300
H  15.40000 49.74800 28.12000
H  15.72000 50.76700 26.74300
H  16.84900 49.14400 24.65100
H  16.47600 50.86900 24.76300
H  17.00300 50.11900 23.22000
H  10.55400 47.32400 21.46400
H  7.87900 48.36500 21.65400
H  10.48400 49.08200 19.90400
H  10.86600 50.05200 21.25000
H  9.16400 49.90100 20.65600
H  8.58600 45.89400 21.11100
H  7.07300 46.04600 21.98200
H  9.20800 45.54700 23.94400
H  9.43600 44.51500 22.60700
H  7.87700 44.54400 23.27200
H  4.27000 48.22300 25.19100
H  3.74000 47.51700 26.78500
H  4.21800 46.42300 25.45100
H  6.67300 48.18600 30.95100
H  7.72700 45.32200 33.73300
H  7.99300 44.19200 32.46600
H  6.43300 44.31600 33.12600

