158

Mg 40.25600 9.36200 29.59500
C  42.35300 10.47900 32.27500
C  38.31900 7.94200 32.00000
C  38.56400 8.06200 27.13200
C  42.88800 10.14800 27.41600
N  40.39300 9.16200 32.00800
C  41.21400 9.82000 32.79400
C  40.67100 9.69900 34.28000
C  39.46700 8.68000 34.13400
C  39.32700 8.62600 32.67300
C  39.71000 7.31300 34.74500
C  40.29700 11.04600 34.99100
C  39.71000 10.96300 36.35800
H  40.36100 11.79300 37.53500
N  38.53900 8.25600 29.53700
C  37.87300 7.76700 30.63600
C  36.72000 7.06700 30.17100
C  36.75700 7.05500 28.71600
C  37.96300 7.77600 28.40900
C  35.77200 6.45900 31.13400
C  35.83500 6.34000 27.74000
O  36.16700 6.21600 26.55200
C  34.70700 5.65300 28.23000
N  40.63200 9.23500 27.54200
C  39.79300 8.52600 26.71500
C  40.07700 8.74500 25.24000
C  41.35100 9.62200 25.38600
C  41.73200 9.59600 26.82900
C  40.20600 7.56300 24.30000
C  41.04900 11.09300 25.06000
C  42.31200 11.93200 24.62300
N  42.25600 10.27900 29.70400
C  43.15700 10.53500 28.71200
C  44.26000 11.25400 29.24700
C  43.97600 11.28000 30.63100
C  42.76900 10.60000 30.88500
C  45.42300 11.76600 28.55800
C  44.36200 11.79000 31.96200
O  45.21700 12.53700 32.39500
C  43.34300 11.31100 33.02700
C  43.97200 10.54900 34.08200
O  44.37900 9.35700 33.96600
O  44.00000 11.28700 35.25600
C  44.53900 10.67200 36.49500
H  37.59500 7.57900 32.73300
H  37.92200 7.72200 26.31700
H  43.70200 10.50900 26.78400
H  41.54700 9.28000 34.77600
H  38.54900 9.06600 34.57700
H  39.76800 6.49200 34.03000
H  38.96000 7.01100 35.47600
H  40.70800 7.35500 35.18300
H  39.77400 11.67200 34.26700
H  41.19500 11.63900 35.16200
H  39.55400 9.89200 36.48600
H  38.67700 11.28000 36.22000
H  35.86900 6.99800 32.07600
H  35.95700 5.40900 31.36400
H  34.74000 6.64600 30.83700
H  34.13700 5.20900 27.41500
H  33.98300 6.33200 28.68000
H  35.04000 4.83500 28.87000
H  39.28800 9.35600 24.80100
H  42.23900 9.25200 24.87400
H  39.77900 6.70000 24.81100
H  41.23400 7.36000 23.99900
H  39.59500 7.72600 23.41200
H  40.51600 11.60800 25.85900
H  40.34500 11.13100 24.22800
H  42.05300 12.33800 23.64600
H  43.17200 11.26500 24.67500
H  42.48200 12.77900 25.28900
H  45.30800 12.31000 27.62100
H  46.07300 10.90500 28.40400
H  45.87100 12.45800 29.27000
H  42.89000 12.18700 33.49000
H  43.79500 10.29100 37.19500
H  45.15500 11.34600 37.09100
H  45.13200 9.81400 36.18100
Mg 10.11500 48.24100 25.38000
C  7.94200 48.64600 27.92500
C  12.73300 49.14400 27.44800
C  12.22400 47.65400 22.76900
C  7.45300 47.76600 23.05000
N  10.28300 48.66900 27.45400
C  9.25300 48.62400 28.38500
C  9.78800 48.63900 29.84100
C  11.26100 49.22900 29.56600
C  11.50800 49.02300 28.08600
C  11.57400 50.67400 30.00900
C  9.64000 47.23000 30.53900
C  10.40000 47.10300 31.83600
H  9.59600 46.61500 33.04600
N  12.18700 48.38100 25.14100
C  13.03400 48.71700 26.13300
C  14.42300 48.67600 25.61500
C  14.28800 48.12800 24.29100
C  12.85900 48.01900 24.01900
C  15.72000 48.96000 26.39300
C  15.36100 47.56700 23.36200
O  15.21300 46.95300 22.31600
C  16.74900 47.76200 23.71500
N  9.86600 47.83400 23.16300
C  10.90300 47.67000 22.31400
C  10.44800 47.10200 20.97500
C  8.94500 46.90100 21.22300
C  8.70400 47.55400 22.55600
C  10.74000 47.90200 19.72600
C  8.38900 45.47200 21.11700
C  8.82700 44.46400 22.26100
N  8.12100 48.46100 25.41300
C  7.14800 48.22100 24.45200
C  5.80900 48.36200 24.97300
C  6.07900 48.61600 26.36100
C  7.48500 48.60300 26.55300
C  4.47000 48.23000 24.27400
C  5.53300 48.76300 27.65700
O  4.37800 48.88100 28.01000
C  6.65100 48.72100 28.73100
C  6.24200 47.51700 29.61500
O  6.18600 46.37300 29.19400
O  5.96300 47.91700 30.93900
C  5.69200 46.83600 31.85800
H  13.51000 49.43200 28.16000
H  12.90900 47.42700 21.95000
H  6.66200 47.55900 22.32600
H  9.14700 49.29000 30.43600
H  11.96500 48.67000 30.18300
H  11.92400 51.33700 29.21800
H  12.22300 50.66100 30.88500
H  10.65000 51.19000 30.27100
H  10.05300 46.48000 29.86500
H  8.56800 47.06400 30.64500
H  10.76300 48.10300 32.07100
H  11.19600 46.40000 31.59000
H  15.58300 49.29600 27.42100
H  16.30200 49.77400 25.96200
H  16.33000 48.05700 26.40500
H  16.82700 48.78600 24.07900
H  17.39700 47.73600 22.84000
H  17.06000 47.05800 24.48700
H  10.90900 46.13200 20.78900
H  8.32500 47.46600 20.52700
H  11.36900 48.68500 20.15000
H  9.87300 48.47300 19.39300
H  11.31500 47.38200 18.95900
H  8.59800 45.27600 20.06500
H  7.30700 45.57200 21.20600
H  7.90100 43.98200 22.57600
H  9.39300 45.00600 23.01800
H  9.43500 43.72400 21.74000
H  4.12600 47.19800 24.21200
H  4.56300 48.72800 23.30900
H  3.64800 48.75600 24.75800
H  6.64600 49.61900 29.34900
H  6.06800 47.09800 32.84700
H  6.11500 45.87800 31.55500
H  4.61300 46.68600 31.88300

