158

Mg 47.08400 24.47000 28.48700
C  47.90900 26.55700 31.20900
C  46.34600 21.94300 30.75600
C  46.65800 22.49400 25.91700
C  48.10800 27.04100 26.35600
N  47.15500 24.31300 30.69800
C  47.34400 25.33800 31.64600
C  47.00400 24.84300 33.10900
C  46.72600 23.33800 32.87600
C  46.71400 23.15000 31.37700
C  47.82300 22.49600 33.54100
C  45.85000 25.64700 33.89600
C  46.18600 26.35900 35.24500
H  45.03500 26.56200 36.26600
N  46.74600 22.45500 28.35800
C  46.32400 21.61300 29.35700
C  46.00300 20.35200 28.71900
C  46.26100 20.51000 27.31400
C  46.56100 21.90200 27.19800
C  45.59800 19.09500 29.51900
C  46.06900 19.47200 26.21200
O  46.19300 19.67800 25.00600
C  45.75700 17.97500 26.53700
N  47.62600 24.67100 26.37600
C  47.20700 23.68100 25.57500
C  47.37100 24.08200 24.07900
C  47.39100 25.62300 24.24100
C  47.70400 25.83400 25.70000
C  48.67300 23.40400 23.47100
C  46.13900 26.45800 23.88500
C  44.90900 26.27700 24.79100
N  47.70600 26.40800 28.65700
C  48.17200 27.32900 27.71400
C  48.50800 28.60700 28.27300
C  48.38900 28.34400 29.68500
C  47.99200 26.94100 29.83500
C  49.05900 29.96200 27.70300
C  48.50000 28.99800 30.97900
O  48.68300 30.16500 31.38300
C  48.22900 27.84900 31.97500
C  49.48300 27.57700 32.76200
O  50.50200 27.10300 32.26100
O  49.22600 27.85700 34.06200
C  50.29300 27.79200 35.07800
H  46.11900 21.16700 31.49000
H  46.52200 21.83400 25.05700
H  48.23500 27.94700 25.75900
H  48.03500 24.96000 33.44400
H  45.73000 23.16400 33.28500
H  48.68400 22.24200 32.92200
H  47.25700 21.58500 33.73600
H  48.23900 22.79700 34.50200
H  45.07200 24.95300 34.21400
H  45.22400 26.29500 33.28300
H  46.63100 27.31800 34.98000
H  46.97800 25.74100 35.66900
H  44.62400 18.68900 29.24400
H  45.55600 19.13800 30.60700
H  46.19000 18.25100 29.16600
H  45.70500 17.39200 25.61700
H  44.73700 17.87800 26.90700
H  46.46600 17.60500 27.27800
H  46.45300 23.72600 23.61000
H  48.21200 25.98200 23.62100
H  48.44200 22.56000 22.82100
H  49.46000 23.24000 24.20700
H  48.93900 24.16600 22.73900
H  45.80800 26.14100 22.89600
H  46.42200 27.51100 23.88500
H  44.88900 25.46700 25.52100
H  44.06300 26.20000 24.10800
H  44.95400 27.18600 25.39000
H  48.55900 30.22300 26.77100
H  50.11200 29.91300 27.42400
H  48.98600 30.85400 28.32500
H  47.46800 28.14800 32.69500
H  49.88000 27.20600 35.89900
H  50.41800 28.75200 35.57700
H  51.25100 27.46000 34.67800
Mg 26.06700 49.57200 26.64300
C  23.83500 51.00400 28.83100
C  28.26400 49.18000 29.11600
C  28.34200 48.78100 24.14200
C  23.88800 50.58600 23.97900
N  26.07600 50.26900 28.79800
C  24.95700 50.61900 29.52900
C  25.04100 50.36900 31.01200
C  26.62600 50.04400 31.07300
C  27.07100 49.75900 29.58000
C  27.50600 51.17900 31.77200
C  24.08600 49.25000 31.60600
C  23.85800 49.17400 33.24000
H  24.63900 50.15200 34.07300
N  27.98500 49.09400 26.63500
C  28.76000 48.97900 27.79000
C  30.04100 48.47300 27.36900
C  30.11600 48.48500 25.94700
C  28.79700 48.83400 25.55000
C  31.12600 48.11900 28.47500
C  31.35700 48.22800 24.99000
O  31.37700 48.44300 23.78400
C  32.64300 47.86000 25.63300
N  26.01400 49.43000 24.46000
C  27.05900 49.04200 23.66100
C  26.68400 48.94600 22.14600
C  25.29400 49.61700 22.10200
C  25.00100 49.87000 23.61900
C  27.70000 49.63300 21.13300
C  24.17300 48.79500 21.38200
C  23.23700 49.56600 20.39700
N  24.21400 50.45300 26.34800
C  23.47100 50.87100 25.23200
C  22.30500 51.50700 25.68200
C  22.31300 51.43600 27.06100
C  23.56200 50.88600 27.41300
C  21.26400 52.00800 24.79500
C  21.65200 51.84200 28.26200
O  20.59700 52.40700 28.39800
C  22.52700 51.46200 29.47200
C  22.86400 52.74100 30.32600
O  23.53500 53.72500 30.01000
O  22.26900 52.58000 31.62800
C  22.60700 53.66400 32.53500
H  28.94100 48.87600 29.91600
H  28.97100 48.44400 23.31500
H  23.21300 50.81400 23.15100
H  24.94600 51.26900 31.61900
H  26.93200 49.14400 31.60600
H  28.01200 50.78200 32.65200
H  26.87400 51.96400 32.18800
H  28.20500 51.58300 31.04100
H  24.62300 48.36400 31.26700
H  23.16400 49.49000 31.07600
H  23.98100 48.16600 33.63500
H  22.80400 49.45000 33.21500
H  32.05400 48.56500 28.11700
H  31.41700 47.07000 28.41500
H  31.02600 48.55900 29.46700
H  33.35800 47.32000 25.01200
H  32.34700 47.11300 26.37000
H  33.16400 48.72500 26.04400
H  26.66800 47.87200 21.96000
H  25.38700 50.60600 21.65300
H  28.40300 50.35600 21.54500
H  27.12100 50.10900 20.34100
H  28.24800 48.85900 20.59600
H  23.69000 48.26500 22.20200
H  24.70200 48.13500 20.69400
H  23.26700 50.65500 20.43800
H  22.20100 49.24000 20.48600
H  23.48400 49.36700 19.35400
H  21.14400 51.41100 23.89100
H  21.51800 53.04600 24.57600
H  20.26400 51.96600 25.22600
H  21.98300 50.59900 29.85700
H  22.90200 54.56100 31.99100
H  23.42800 53.38100 33.19400
H  21.72900 53.86900 33.14700

