158

Mg 35.73800 0.99800 29.93400
C  33.34600 1.92500 32.28500
C  38.12800 0.95400 32.40400
C  38.03800 0.34500 27.50400
C  33.32000 1.57800 27.36000
N  35.74300 1.51300 32.06900
C  34.62800 1.72300 32.77800
C  35.05300 1.78500 34.31700
C  36.60600 1.83600 34.27400
C  36.86000 1.43400 32.80000
C  37.23600 3.23000 34.67100
C  34.33300 0.59000 35.13700
C  34.43700 0.63000 36.66900
H  34.66900 2.03500 37.27800
N  37.73700 0.45900 29.98500
C  38.54400 0.48500 31.14500
C  39.81600 -0.03100 30.75800
C  39.89200 -0.09700 29.31600
C  38.47200 0.24200 28.80700
C  40.82900 -0.44700 31.84900
C  41.07700 -0.42600 28.45800
O  40.95800 -0.54000 27.26400
C  42.45000 -0.68900 29.03400
N  35.67800 1.15600 27.70100
C  36.75900 0.68600 27.01100
C  36.50100 0.83200 25.50400
C  34.93200 1.15600 25.39300
C  34.58500 1.31300 26.88600
C  37.42800 1.79600 24.65400
C  33.93800 0.07900 24.79300
C  33.10600 0.57700 23.51500
N  33.76700 1.55900 29.78900
C  32.93800 1.72500 28.71200
C  31.65000 2.02600 29.16800
C  31.71800 2.13500 30.53100
C  33.04600 1.88500 30.91000
C  30.38100 2.17000 28.38200
C  30.96200 2.46900 31.74400
O  29.79900 2.80500 32.01500
C  31.99700 2.24200 32.96400
C  32.02800 3.58400 33.60400
O  32.72000 4.56100 33.28000
O  31.30700 3.65100 34.77800
C  31.23300 4.86700 35.67000
H  38.83100 0.99300 33.23900
H  38.77300 0.16500 26.71700
H  32.50900 1.77200 26.65400
H  34.60600 2.68300 34.74300
H  36.96000 1.02200 34.90500
H  37.76600 3.05500 35.60700
H  36.49700 4.02200 34.79000
H  37.96100 3.47500 33.89400
H  34.88800 -0.33400 34.98000
H  33.31000 0.54100 34.76300
H  35.24800 0.06900 37.13400
H  33.49000 0.17600 36.96200
H  41.14700 -1.46500 31.62600
H  40.60300 -0.46500 32.91500
H  41.72400 0.17000 31.76700
H  43.08700 -1.02500 28.21600
H  42.31300 -1.49100 29.75900
H  42.75800 0.26100 29.47200
H  36.61300 -0.17700 25.10900
H  34.78400 2.12000 24.90500
H  37.80800 1.27000 23.77800
H  38.26900 2.07100 25.29200
H  37.02200 2.76100 24.35100
H  33.19100 -0.17400 25.54500
H  34.32300 -0.91700 24.57600
H  33.29400 1.63600 23.33700
H  32.06100 0.36100 23.73600
H  33.47600 -0.01200 22.67500
H  30.67100 2.35000 27.34700
H  29.94700 3.07800 28.80100
H  29.69000 1.33700 28.51100
H  31.59400 1.49300 33.64600
H  31.07400 5.70600 34.99200
H  32.21200 4.93000 36.14400
H  30.40900 4.70900 36.36600
Mg 25.80400 51.76600 26.16400
C  23.67200 52.75900 28.66100
C  28.21000 50.96900 28.70000
C  28.15200 51.28200 23.82100
C  23.61000 52.88500 23.82300
N  25.95900 51.90700 28.37600
C  24.87300 52.27100 29.16500
C  25.22000 52.03300 30.61300
C  26.64200 51.51500 30.67100
C  26.96800 51.46000 29.17000
C  27.69800 52.35600 31.50200
C  24.12400 51.12200 31.35800
C  23.39300 51.69800 32.65000
H  23.17900 50.80100 33.85900
N  27.87100 51.14800 26.21700
C  28.71000 50.91600 27.38100
C  29.98600 50.44700 26.87700
C  29.97600 50.43100 25.46200
C  28.66900 51.01600 25.10600
C  31.16300 49.98800 27.78400
C  31.10700 50.05400 24.47400
O  30.94100 50.24500 23.29300
C  32.40000 49.57000 24.87200
N  25.83700 52.01000 24.08800
C  26.88000 51.72300 23.31100
C  26.59800 51.86600 21.82200
C  25.05500 52.23700 21.90300
C  24.80100 52.36900 23.36300
C  27.58200 52.84800 21.16900
C  24.16800 51.39400 21.04100
C  23.28600 52.11400 19.95800
N  24.01400 52.64500 26.16700
C  23.23000 53.09200 25.15100
C  22.08000 53.80500 25.60300
C  22.13100 53.63300 27.03900
C  23.37800 52.96700 27.30800
C  21.03400 54.31100 24.76100
C  21.41800 53.83700 28.30700
O  20.31800 54.33100 28.56600
C  22.36700 53.13000 29.39200
C  22.64900 54.16600 30.38100
O  23.62100 54.94400 30.33300
O  21.80500 54.01900 31.47100
C  22.20900 54.98600 32.53500
H  28.97200 50.68600 29.42900
H  28.86600 51.13900 23.00700
H  22.80200 53.09900 23.12000
H  25.27000 53.02500 31.06100
H  26.55300 50.49400 31.04100
H  27.07400 53.12700 31.95400
H  28.38400 52.78400 30.77200
H  28.16300 51.72500 32.26000
H  24.60100 50.17100 31.59500
H  23.38400 50.94200 30.57800
H  22.38200 51.94600 32.32500
H  23.76700 52.68400 32.92700
H  31.51300 48.96300 27.66500
H  30.91100 50.15600 28.83100
H  31.99000 50.62400 27.46800
H  32.12500 48.84300 25.63600
H  32.88300 50.41200 25.36800
H  32.83600 49.12800 23.97600
H  26.76900 50.92500 21.29900
H  24.98100 53.24800 21.50200
H  28.37000 53.20300 21.83400
H  27.07600 53.74200 20.80500
H  27.90600 52.40000 20.22900
H  23.50700 50.86200 21.72500
H  24.82100 50.68800 20.52700
H  22.45700 52.71100 20.33800
H  22.87800 51.37400 19.26900
H  23.84900 52.88900 19.43800
H  20.60900 55.23500 25.15100
H  20.32300 53.48800 24.68600
H  21.42300 54.48100 23.75700
H  21.86900 52.30400 29.90000
H  22.96300 54.51300 33.16300
H  21.35400 55.16000 33.18800
H  22.47400 55.96700 32.14000

