158

Mg 25.73700 1.69900 29.67300
C  27.87900 1.38600 32.28500
C  23.19400 2.20200 31.66400
C  23.86800 1.81100 26.88800
C  28.60400 0.89100 27.49600
N  25.62200 1.84300 31.75500
C  26.66200 1.81300 32.66500
C  26.13800 2.06000 34.09100
C  24.53600 2.03000 33.87300
C  24.40500 2.06400 32.34300
C  23.84800 0.84900 34.51800
C  26.64300 3.43100 34.77500
C  27.49000 3.29900 36.07200
H  27.35300 4.20300 37.34400
N  23.78900 2.03900 29.31700
C  22.84000 2.17400 30.31600
C  21.54300 2.20300 29.64000
C  21.73300 2.12300 28.25900
C  23.18300 2.01000 28.11000
C  20.21000 2.19300 30.34100
C  20.69100 1.88800 27.18600
O  21.00300 1.58300 26.02100
C  19.21400 2.16000 27.40700
N  26.21300 1.27400 27.39100
C  25.19500 1.46100 26.57200
C  25.77000 1.47800 25.18000
C  27.30300 1.17600 25.31400
C  27.40400 1.16300 26.84700
C  25.03800 0.53300 24.18400
C  28.33700 2.12500 24.61700
C  29.54700 1.45300 23.90000
N  27.69200 1.07600 29.75400
C  28.74200 0.85300 28.86800
C  29.95900 0.50000 29.59400
C  29.65600 0.72300 30.91200
C  28.27700 1.08800 30.97500
C  31.22000 -0.04400 29.02300
C  30.17400 0.57300 32.21200
O  31.24700 0.09300 32.54600
C  29.00700 1.06100 33.24400
C  28.62400 -0.01400 34.22700
O  28.07600 -1.05400 33.97300
O  29.13900 0.33700 35.42700
C  28.73000 -0.59200 36.48200
H  22.42800 2.61800 32.32200
H  23.27300 1.88100 25.97500
H  29.40700 0.76000 26.76900
H  26.35400 1.25700 34.79600
H  24.13600 2.90600 34.38400
H  23.19300 1.39600 35.19600
H  24.49200 0.04100 34.86600
H  23.13600 0.39300 33.82900
H  25.79000 4.05200 35.04900
H  27.28100 4.08000 34.17500
H  28.46300 3.39800 35.59200
H  27.49700 2.24800 36.36200
H  19.64700 3.09600 30.10200
H  20.32100 2.01500 31.41000
H  19.75100 1.30100 29.91500
H  19.06100 3.05800 28.00600
H  18.78400 1.30400 27.92800
H  18.70600 2.16500 26.44300
H  25.74600 2.52900 24.89400
H  27.49700 0.21300 24.84100
H  24.00900 0.89300 24.15400
H  25.03700 -0.50300 24.52100
H  25.37500 0.58100 23.14800
H  28.63400 2.83400 25.39000
H  27.81900 2.75200 23.89100
H  30.27900 1.34600 24.70100
H  30.00700 2.06400 23.12400
H  29.26500 0.49700 23.46000
H  31.54800 -0.71200 29.81900
H  31.93200 0.74500 28.77900
H  31.17100 -0.64900 28.11800
H  29.26500 1.95500 33.81000
H  27.98200 -0.03200 37.04400
H  29.59200 -0.70300 37.13900
H  28.30000 -1.53500 36.14500
Mg -5.17200 24.85900 27.03500
C  -3.80800 26.52400 29.74400
C  -6.50800 22.65300 29.29100
C  -6.15100 23.05600 24.42100
C  -3.31200 26.93000 24.89100
N  -4.93000 24.49600 29.23600
C  -4.50400 25.39600 30.13400
C  -4.95300 25.09300 31.60000
C  -5.45100 23.63700 31.42700
C  -5.69400 23.57500 29.89000
C  -4.45400 22.59000 31.88400
C  -5.98100 26.11700 32.06800
C  -6.10000 26.35000 33.57000
H  -5.76100 25.10700 34.45100
N  -6.18300 23.12300 26.92700
C  -6.72600 22.44900 27.93000
C  -7.69000 21.46900 27.36000
C  -7.67200 21.66400 25.94600
C  -6.61300 22.61500 25.65900
C  -8.51100 20.52000 28.15400
C  -8.52000 21.05300 24.80900
O  -8.42300 21.43400 23.66700
C  -9.56600 20.12200 25.08300
N  -4.63200 24.85000 24.90000
C  -5.32800 24.02300 24.02800
C  -4.89100 24.42400 22.61800
C  -4.09900 25.70800 22.75700
C  -3.96400 25.86900 24.22800
C  -4.21500 23.21500 21.92200
C  -4.87800 26.95000 22.23000
C  -4.17100 27.72100 21.17800
N  -3.75600 26.45000 27.24000
C  -3.08800 27.26000 26.28500
C  -2.22600 28.20100 26.97400
C  -2.46300 27.88700 28.31400
C  -3.40700 26.87100 28.40100
C  -1.20500 29.14300 26.36300
C  -2.09600 28.33800 29.64400
O  -1.38700 29.24700 30.07900
C  -3.07300 27.52400 30.61400
C  -2.30200 26.96600 31.84600
O  -1.42200 26.10600 31.75000
O  -2.77500 27.55500 32.97500
C  -2.26900 27.03400 34.19600
H  -7.09800 22.04400 29.98000
H  -6.56000 22.54700 23.54600
H  -2.77400 27.65900 24.28300
H  -4.06400 25.11200 32.23200
H  -6.36400 23.50100 32.00600
H  -4.28200 21.82000 31.13200
H  -4.91300 22.11400 32.75100
H  -3.51400 23.08200 32.13300
H  -6.96200 25.78900 31.72300
H  -5.85300 27.11300 31.64500
H  -7.05000 26.80800 33.84300
H  -5.26200 26.98600 33.85400
H  -9.50000 20.92200 28.37300
H  -8.01400 20.37000 29.11300
H  -8.63700 19.63000 27.53800
H  -9.13300 19.12800 25.20100
H  -10.15700 20.03500 24.17100
H  -10.18900 20.59300 25.84200
H  -5.75900 24.56800 21.97500
H  -3.11100 25.53700 22.33000
H  -4.03500 22.42500 22.65100
H  -3.32800 23.58000 21.40400
H  -4.82400 22.74600 21.15000
H  -5.13500 27.69300 22.98500
H  -5.78700 26.52100 21.80900
H  -3.31500 27.15800 20.80900
H  -3.76300 28.63500 21.61100
H  -4.77500 28.05100 20.33300
H  -0.82300 28.67400 25.45700
H  -0.40800 29.48600 27.02300
H  -1.67200 30.06500 26.01600
H  -3.76000 28.28300 30.98700
H  -1.45100 27.58400 34.66000
H  -1.83300 26.05500 33.99500
H  -3.08700 26.92300 34.90800

