158

Mg 34.83300 2.14100 29.30400
C  32.62900 3.13100 31.82100
C  37.35900 2.14800 31.56600
C  36.92100 1.77300 26.80900
C  32.18000 2.67100 26.93900
N  34.98200 2.81200 31.40800
C  33.94500 3.05700 32.26400
C  34.45100 3.26100 33.72700
C  36.01600 3.07700 33.59700
C  36.16500 2.60800 32.09100
C  36.84800 4.34300 33.93700
C  33.76300 2.29900 34.76200
C  33.78100 2.68500 36.26800
H  34.49100 3.98600 36.74700
N  36.82500 1.84400 29.21300
C  37.71800 1.84800 30.23100
C  39.06400 1.45900 29.81200
C  38.95200 1.21200 28.42100
C  37.55600 1.59800 28.07100
C  40.17600 1.25400 30.78700
C  39.91000 0.60300 27.47300
O  39.70600 0.55600 26.24900
C  41.17900 0.00000 27.90700
N  34.62200 2.26800 27.20900
C  35.66900 1.93800 26.39100
C  35.22900 1.79000 24.88600
C  33.71400 1.76200 24.96600
C  33.45700 2.27200 26.49500
C  35.92500 2.77600 23.89400
C  32.96300 0.43600 24.82700
C  31.51000 0.60100 24.29400
N  32.76900 2.72200 29.27900
C  31.80200 2.90800 28.28300
C  30.55900 3.21400 28.88100
C  30.82900 3.22000 30.26300
C  32.18400 2.99000 30.43700
C  29.28100 3.55500 28.21400
C  30.15700 3.48400 31.60400
O  28.96800 3.69100 31.86600
C  31.34600 3.40300 32.70700
C  31.46600 4.75600 33.26300
O  32.03000 5.73600 32.75900
O  30.78000 4.85200 34.50400
C  30.94300 6.02800 35.25900
H  38.14900 1.98200 32.30100
H  37.51700 1.57000 25.91700
H  31.35700 2.58800 26.22600
H  34.21400 4.29400 33.98200
H  36.36000 2.27900 34.25400
H  37.80300 4.21600 34.44700
H  36.20800 5.13400 34.32800
H  37.17400 4.77300 32.99100
H  34.29300 1.34700 34.71900
H  32.72300 2.08600 34.51400
H  34.06100 1.83800 36.89400
H  32.74400 2.75700 36.59600
H  41.12200 1.44900 30.28200
H  40.09100 0.30800 31.32100
H  40.09000 1.94300 31.62700
H  41.93700 0.76000 28.09500
H  41.44900 -0.69300 27.11100
H  40.97500 -0.38800 28.90500
H  35.50800 0.78500 24.57100
H  33.36100 2.58100 24.33900
H  36.54700 2.15500 23.24900
H  36.55800 3.42300 24.50000
H  35.20000 3.24000 23.22500
H  32.89700 0.00100 25.82400
H  33.64100 -0.13400 24.19100
H  31.22400 -0.10700 23.51600
H  31.42200 1.60100 23.86900
H  30.88300 0.50600 25.18100
H  29.24100 2.84200 27.39100
H  29.25300 4.51800 27.70500
H  28.37600 3.41800 28.80500
H  31.03500 2.62900 33.40900
H  31.90300 6.52100 35.10400
H  30.71400 5.78800 36.29700
H  30.16800 6.66400 34.83100
Mg 40.06400 9.56700 29.56400
C  42.17300 11.03200 32.03700
C  37.92800 8.61600 32.17600
C  38.22300 8.07800 27.29500
C  42.51000 10.36900 27.10100
N  40.14100 9.77800 31.85600
C  41.01900 10.50000 32.58100
C  40.64000 10.40600 34.07800
C  39.36800 9.47400 34.13100
C  39.12300 9.23400 32.63900
C  39.63700 8.20800 35.05000
C  40.34500 11.88700 34.64600
C  39.53400 11.95100 35.99500
H  40.13200 12.83800 37.13100
N  38.43500 8.41000 29.74000
C  37.61400 8.20500 30.80900
C  36.51200 7.39700 30.43200
C  36.49000 7.33700 29.01900
C  37.72000 8.02600 28.66300
C  35.56800 6.67600 31.43300
C  35.42700 6.67200 28.03500
O  35.51200 6.64300 26.80300
C  34.16300 6.13200 28.70900
N  40.55500 8.97300 27.55200
C  39.45100 8.53300 26.82500
C  39.69500 8.73200 25.32700
C  41.04300 9.48000 25.18200
C  41.45800 9.62300 26.65300
C  39.61100 7.42700 24.46100
C  40.98700 10.76100 24.37100
C  40.60600 12.08000 25.05700
N  41.92600 10.55200 29.45500
C  42.83100 10.74400 28.42800
C  43.99100 11.57100 28.86200
C  43.74900 11.65900 30.26000
C  42.49000 11.05000 30.58100
C  45.18300 12.03500 28.08600
C  44.33100 12.17900 31.46700
O  45.43100 12.67600 31.69000
C  43.47700 11.66900 32.69800
C  44.15200 10.63200 33.58400
O  44.08800 9.44000 33.44000
O  44.78700 11.24700 34.65900
C  45.34600 10.27100 35.62300
H  37.20100 8.51800 32.98400
H  37.62400 7.69500 26.46600
H  43.04300 10.95200 26.34600
H  41.36700 9.89700 34.71100
H  38.47600 9.96400 34.51900
H  38.68100 8.09300 35.56100
H  40.37700 8.50600 35.79200
H  39.99800 7.32200 34.52800
H  40.05400 12.64300 33.91700
H  41.32100 12.35500 34.77700
H  39.17200 11.00400 36.39500
H  38.67600 12.49200 35.59600
H  36.03300 6.61700 32.41700
H  35.35800 5.62400 31.23700
H  34.63400 7.22600 31.54600
H  33.86600 6.98600 29.31700
H  34.40400 5.25100 29.30500
H  33.42000 5.96400 27.93000
H  38.97700 9.49800 25.03300
H  41.78100 8.81200 24.73900
H  39.81700 6.56100 25.09100
H  40.32700 7.38900 23.63900
H  38.64700 7.33900 23.96100
H  40.21800 10.65500 23.60600
H  41.96700 10.88500 23.91000
H  40.47300 12.03000 26.13800
H  39.69800 12.48300 24.60900
H  41.44700 12.73700 24.83300
H  45.08900 13.07800 27.78100
H  45.23500 11.38600 27.21100
H  46.02200 11.98800 28.78000
H  43.19700 12.47200 33.38000
H  44.50900 9.70600 36.03400
H  45.94000 10.86800 36.31500
H  45.95300 9.57200 35.04700

