158

Mg 24.82000 -7.29500 47.71600
C  26.97100 -4.88800 46.65000
C  22.74000 -6.57200 45.12400
C  22.77800 -9.85100 48.76400
C  27.48000 -8.79100 49.59700
N  24.82200 -5.77000 46.17200
C  25.78900 -4.96700 45.87700
C  25.55900 -4.13100 44.53400
C  24.15200 -4.65400 44.13800
C  23.86600 -5.78800 45.20100
C  23.03300 -3.49900 44.18600
C  26.70900 -4.57000 43.51000
C  27.50000 -3.32000 42.99900
H  27.30900 -2.97300 41.52000
N  22.94200 -8.15400 47.01100
C  22.29500 -7.70100 45.91900
C  21.05900 -8.36300 45.83500
C  21.01400 -9.34700 46.95200
C  22.27500 -9.18200 47.65700
C  19.87300 -7.96800 44.86800
C  19.75200 -10.24800 47.29900
O  18.81300 -10.25300 46.52100
C  19.79600 -11.22300 48.46100
N  25.12600 -9.01100 48.98600
C  24.02800 -9.80600 49.37500
C  24.41600 -10.83500 50.43200
C  26.02400 -10.77700 50.30900
C  26.25400 -9.41900 49.62400
C  23.96600 -10.52200 51.86200
C  26.73900 -11.94000 49.54900
C  27.42500 -13.04200 50.36900
N  26.79800 -6.90900 48.19200
C  27.77800 -7.61500 48.91900
C  29.00400 -6.78600 48.99600
C  28.71700 -5.69200 48.09300
C  27.39700 -5.82900 47.60600
C  30.31800 -7.09700 49.81800
C  29.24200 -4.52900 47.51500
O  30.34000 -4.05700 47.66700
C  28.23600 -4.01900 46.46200
C  28.10700 -2.54800 46.77400
O  28.69700 -1.68200 46.20900
O  27.20900 -2.32900 47.77200
C  26.83500 -0.88700 47.74300
H  22.11600 -6.45100 44.23600
H  22.09400 -10.53500 49.27000
H  28.27900 -9.39300 50.03500
H  25.40100 -3.06900 44.72200
H  24.13300 -5.22300 43.20800
H  23.41700 -2.52600 44.49000
H  22.40100 -3.89200 44.98200
H  22.38100 -3.40800 43.31700
H  26.30900 -5.08600 42.63700
H  27.30000 -5.33400 44.01500
H  28.56200 -3.49500 43.16800
H  27.34700 -2.39300 43.55000
H  18.84500 -8.01500 45.23000
H  19.95000 -8.42600 43.88200
H  19.96500 -6.89300 44.71900
H  20.63100 -11.88300 48.22700
H  18.94600 -11.90500 48.42700
H  19.89600 -10.74600 49.43600
H  23.93900 -11.76200 50.11500
H  26.46900 -10.65700 51.29700
H  23.98200 -9.43900 51.98700
H  24.44400 -11.02300 52.70400
H  22.95200 -10.91500 51.93400
H  27.56400 -11.45000 49.03200
H  26.04500 -12.30400 48.79200
H  27.28300 -12.91500 51.44200
H  28.49700 -13.11400 50.18800
H  27.10500 -14.02600 50.02700
H  30.80500 -7.95300 49.35000
H  29.98600 -7.48500 50.78100
H  30.93200 -6.19900 49.89300
H  28.60900 -4.10600 45.44200
H  27.37600 -0.32100 48.50200
H  25.78600 -0.76900 48.01700
H  26.87400 -0.37900 46.78000
Mg 48.11400 34.60500 27.53500
C  46.33700 33.38900 30.31200
C  48.44100 37.60300 29.21100
C  49.46100 35.81300 24.79900
C  46.93100 31.77100 25.62800
N  47.60500 35.31100 29.60000
C  46.90400 34.66000 30.55300
C  46.72800 35.49500 31.78100
C  47.02600 36.91000 31.16400
C  47.76500 36.60400 29.93600
C  45.74400 37.79200 31.03700
C  47.85200 35.11300 32.88000
C  47.32500 34.64700 34.25000
H  47.68200 35.29500 35.51400
N  48.98100 36.32500 27.16600
C  49.05300 37.49000 27.94600
C  49.85400 38.53900 27.30200
C  50.37400 37.91800 26.07300
C  49.65900 36.56100 25.95800
C  50.17000 39.86200 27.94500
C  51.31200 38.39700 25.09600
O  51.70100 37.68200 24.15700
C  51.91300 39.73600 25.25100
N  48.12100 33.82300 25.41900
C  48.72400 34.61500 24.45300
C  48.76100 33.91000 23.09300
C  48.01300 32.55300 23.33900
C  47.60100 32.69300 24.85700
C  48.21100 34.76800 21.93200
C  48.81500 31.23300 23.11600
C  50.28100 31.23400 23.62800
N  46.89900 32.97300 27.81700
C  46.59600 31.83600 27.01300
C  45.69500 30.95700 27.83100
C  45.51700 31.53000 29.03400
C  46.32900 32.70600 29.03000
C  45.13100 29.65800 27.37100
C  44.90500 31.37100 30.32400
O  44.12800 30.52200 30.77200
C  45.22000 32.63900 31.12600
C  45.60000 32.20600 32.45800
O  46.60900 31.67200 32.86500
O  44.53300 32.49000 33.23500
C  44.58800 31.90400 34.57800
H  48.50100 38.58000 29.69700
H  49.81900 36.21300 23.84800
H  46.59200 30.93900 25.00700
H  45.72500 35.28100 32.15200
H  47.71500 37.40200 31.84900
H  45.68600 38.10600 29.99500
H  45.81400 38.59000 31.77600
H  44.84900 37.24000 31.32600
H  48.45000 35.97100 33.18600
H  48.46400 34.34300 32.41000
H  47.75700 33.66300 34.43700
H  46.24100 34.64300 34.13100
H  51.23300 39.89600 28.18800
H  49.42500 40.16500 28.68100
H  50.00000 40.59100 27.15200
H  51.06000 40.39600 25.09200
H  52.57900 39.91200 24.40600
H  52.33000 39.95500 26.23400
H  49.77500 33.65400 22.78700
H  47.14300 32.57200 22.68400
H  48.16700 35.84200 22.11500
H  47.20300 34.41700 21.71200
H  48.79400 34.65500 21.01800
H  48.66300 31.04200 22.05300
H  48.13700 30.49400 23.54400
H  50.64200 32.20900 23.95300
H  50.92100 30.99200 22.77900
H  50.49600 30.61200 24.49700
H  45.88500 29.00800 26.92600
H  44.39600 29.80500 26.58000
H  44.62000 29.23400 28.23500
H  44.35300 33.28900 31.23700
H  45.18900 32.55000 35.21800
H  45.04300 30.91300 34.59800
H  43.63700 31.80400 35.10000

