158

Mg 47.14400 34.59900 27.19300
C  45.54000 32.84100 29.87000
C  47.75300 37.09000 29.27600
C  47.87100 36.45500 24.52300
C  46.23500 31.84200 25.03300
N  46.71200 34.85300 29.35400
C  46.19800 34.01100 30.31900
C  46.51600 34.53100 31.72000
C  46.88100 36.04600 31.46500
C  47.12200 36.01400 29.92900
C  45.80700 37.05700 31.91700
C  47.67000 33.73000 32.40300
C  47.81700 33.90600 34.00300
H  46.82700 34.91000 34.63100
N  47.75200 36.56400 26.93700
C  48.04600 37.39700 27.94500
C  48.57600 38.60100 27.45800
C  48.67100 38.47200 26.04100
C  48.10800 37.13900 25.74700
C  48.83300 39.87600 28.31100
C  49.25300 39.43600 25.01700
O  49.33300 39.12800 23.83800
C  49.97800 40.76600 25.36200
N  47.10800 34.10400 25.13300
C  47.40200 35.12700 24.22800
C  47.18400 34.67700 22.85300
C  47.05100 33.18600 22.98000
C  46.70800 33.01600 24.47900
C  45.91000 35.30700 22.28500
C  48.36800 32.35900 22.72200
C  48.32700 30.97400 22.02900
N  46.16300 32.64000 27.36400
C  45.84700 31.69000 26.42300
C  45.21600 30.55000 27.03800
C  45.00800 31.00900 28.41100
C  45.61600 32.27800 28.53800
C  44.79100 29.29600 26.40200
C  44.49200 30.62100 29.67600
O  43.86800 29.62300 29.96000
C  44.68800 31.89700 30.60900
C  45.00100 31.55600 31.98300
O  45.89700 30.75500 32.34900
O  44.00500 32.16000 32.76900
C  44.16400 31.86600 34.22200
H  48.08400 37.84200 29.99600
H  48.10300 37.10000 23.67300
H  45.85400 31.00900 24.43800
H  45.56700 34.40100 32.24100
H  47.79500 36.40500 31.93800
H  44.82900 36.62700 32.13400
H  45.58300 37.69500 31.06100
H  46.18500 37.71000 32.70300
H  48.61100 33.96400 31.90600
H  47.60900 32.67900 32.12200
H  48.82800 34.13500 34.34100
H  47.42400 32.95000 34.34900
H  49.89100 39.97400 28.55000
H  48.36100 39.82900 29.29200
H  48.56400 40.82900 27.85400
H  49.38300 41.56600 25.80200
H  50.44200 41.08100 24.42700
H  50.83300 40.51500 25.99000
H  48.06800 34.89600 22.25300
H  46.19300 32.72600 22.49000
H  45.03600 34.65900 22.35900
H  46.12400 35.55500 21.24600
H  45.75200 36.21600 22.86600
H  48.92700 32.16000 23.63700
H  49.02900 32.88800 22.03600
H  48.88900 30.23600 22.60200
H  48.73200 31.07100 21.02200
H  47.27800 30.69400 21.92600
H  44.82900 29.34500 25.31300
H  43.73700 29.16900 26.64700
H  45.49700 28.59400 26.84700
H  43.66700 32.27800 30.58000
H  44.19300 30.80200 34.45900
H  43.26000 32.16400 34.75400
H  45.08400 32.15200 34.73100
Mg 29.36700 58.89400 41.26000
C  26.76300 56.91000 39.99600
C  31.56700 56.86600 39.84100
C  31.65800 61.37600 41.66200
C  26.83600 61.18700 42.38200
N  29.15000 57.17600 39.88600
C  28.05600 56.48100 39.62100
C  28.34000 55.34400 38.64300
C  29.87500 55.16300 38.85300
C  30.24400 56.45800 39.63200
C  30.25800 53.79500 39.67600
C  27.85300 55.77800 37.25700
C  26.99800 54.77100 36.45500
H  27.34400 54.50100 34.99000
N  31.32700 59.12100 40.73700
C  32.10600 58.13500 40.26700
C  33.46600 58.53500 40.22600
C  33.57300 59.85300 40.82100
C  32.17700 60.16300 41.12800
C  34.55000 57.75200 39.40700
C  34.77700 60.72500 41.07100
O  35.92600 60.31200 40.78200
C  34.68300 62.05700 41.60500
N  29.27200 60.96800 42.00600
C  30.36300 61.76000 42.08800
C  29.94000 63.12800 42.56300
C  28.45700 63.06700 42.82000
C  28.16600 61.67900 42.32600
C  30.70300 63.77100 43.65000
C  27.59400 64.24100 42.14400
C  26.54300 64.70600 43.15200
N  27.20000 58.92800 41.41900
C  26.34100 59.91300 41.91100
C  25.01900 59.41500 41.74500
C  25.09000 58.26500 41.02600
C  26.47700 58.08600 40.76600
C  23.68100 60.08800 42.17200
C  24.40200 57.16700 40.44100
O  23.23200 56.94900 40.46300
C  25.42000 56.27400 39.68900
C  25.26600 54.98600 40.27100
O  25.79300 54.63300 41.35400
O  24.60500 54.16500 39.36300
C  24.85700 52.71100 39.52700
H  32.22700 56.04600 39.55000
H  32.28700 62.25400 41.82200
H  26.08200 61.86300 42.79100
H  27.88100 54.44400 39.05300
H  30.34900 55.17500 37.87200
H  29.35400 53.29800 40.02700
H  30.77000 54.00000 40.61700
H  30.77700 53.09300 39.02300
H  28.72100 55.95200 36.62200
H  27.29400 56.69000 37.46400
H  25.98400 55.16900 36.46900
H  26.87500 53.83700 37.00400
H  34.63600 56.74500 39.81500
H  35.56700 58.14600 39.39700
H  34.26200 57.64600 38.36100
H  34.22900 62.74600 40.89400
H  35.72400 62.38000 41.64500
H  34.26100 62.08300 42.60900
H  30.01400 63.84000 41.74100
H  28.25600 63.01900 43.89100
H  31.69300 63.33200 43.77100
H  30.25800 63.53400 44.61600
H  30.85600 64.84300 43.52900
H  27.03700 63.95100 41.25300
H  28.17600 65.13200 41.90600
H  25.57100 64.51100 42.70000
H  26.68600 65.78500 43.22100
H  26.58400 64.29500 44.16100
H  22.91000 59.36700 41.89900
H  23.53800 60.94000 41.50800
H  23.52500 60.44400 43.19000
H  25.19700 56.29700 38.62300
H  24.06700 52.25600 40.12400
H  25.69400 52.51500 40.19700
H  25.07400 52.11500 38.64000

