158

Mg 35.91000 49.92600 25.30500
C  35.54600 48.10100 28.28900
C  34.41800 52.62300 26.81600
C  35.82700 51.39800 22.23000
C  37.12600 46.92400 23.72200
N  35.03000 50.28800 27.30500
C  35.05000 49.43700 28.39600
C  34.76200 50.15100 29.72400
C  34.13000 51.52100 29.18700
C  34.47300 51.49200 27.64600
C  32.65400 51.94800 29.58500
C  35.99400 50.35700 30.62800
C  35.68100 50.60200 32.11500
H  34.24600 50.87100 32.60600
N  35.24100 51.81000 24.57900
C  34.72500 52.76200 25.42700
C  34.54300 54.01500 24.60200
C  34.89100 53.62200 23.26400
C  35.37200 52.19100 23.30100
C  34.02700 55.32300 25.18300
C  34.81800 54.43500 21.97200
O  35.17300 53.99000 20.89000
C  34.35800 55.81400 22.13500
N  36.24500 49.22800 23.23900
C  36.20000 50.03800 22.18000
C  36.75500 49.39100 20.86300
C  37.15000 47.91600 21.42400
C  36.86000 48.00700 22.87800
C  35.72200 49.23700 19.69700
C  38.70600 47.52300 21.09100
C  38.90300 46.10000 20.53400
N  36.34200 47.92300 25.82900
C  36.93700 46.88100 25.09800
C  37.01500 45.75700 26.02300
C  36.51100 46.18900 27.32700
C  36.08000 47.51300 27.15400
C  37.67800 44.44400 25.59000
C  36.29800 45.72500 28.72200
O  36.51800 44.63200 29.29400
C  35.78900 47.03200 29.43600
C  34.55500 46.73500 30.16100
O  33.41800 46.77600 29.64700
O  34.70600 46.46400 31.45500
C  33.53600 46.16400 32.28800
H  34.14400 53.54000 27.34300
H  36.02900 51.90400 21.28400
H  37.55600 46.07700 23.18300
H  34.01300 49.62200 30.31400
H  34.76000 52.34100 29.53200
H  32.06400 52.23100 28.71300
H  32.73000 52.80500 30.25400
H  32.21700 51.07000 30.06000
H  36.50300 51.23000 30.22000
H  36.61100 49.46600 30.51400
H  36.26800 51.41700 32.53900
H  36.05400 49.76500 32.70500
H  34.67600 56.13100 24.84800
H  33.88300 55.40500 26.26100
H  33.02600 55.53700 24.80900
H  33.44000 55.78400 22.72200
H  34.21200 56.31400 21.17700
H  35.03800 56.49100 22.65300
H  37.59000 49.97900 20.48400
H  36.45700 47.18500 21.00700
H  34.71100 49.22700 20.10400
H  35.98900 48.36800 19.09600
H  35.84800 50.12100 19.07100
H  39.32000 47.57200 21.99100
H  39.03000 48.13000 20.24600
H  39.63900 45.66700 21.21200
H  39.29500 46.10100 19.51700
H  37.96400 45.54800 20.49300
H  38.25900 44.63500 24.68800
H  36.82200 43.78200 25.45300
H  38.35700 44.07000 26.35600
H  36.57300 47.27800 30.15200
H  33.67900 45.20700 32.78800
H  32.61900 46.09000 31.70400
H  33.30500 47.02900 32.90900
Mg -1.13800 33.87300 27.67900
C  -2.58200 32.18800 30.51600
C  0.66200 35.83100 29.89800
C  -0.43500 35.80300 25.11900
C  -3.48000 32.18000 25.58700
N  -0.95100 33.88500 29.98500
C  -1.65000 33.18900 30.98800
C  -1.24100 33.55000 32.43400
C  -0.14700 34.63500 32.09200
C  -0.12500 34.83600 30.56700
C  -0.39400 35.96700 32.88900
C  -0.68300 32.29200 33.12200
C  -1.16100 31.95600 34.50600
H  -0.23200 32.41700 35.67500
N  -0.03200 35.62200 27.53000
C  0.74800 36.26500 28.53900
C  1.51600 37.31400 27.82200
C  1.24200 37.31900 26.42500
C  0.21400 36.24100 26.33100
C  2.49400 38.16400 28.57800
C  1.81100 38.09100 25.26100
O  1.57700 37.95100 24.07400
C  2.93900 39.04300 25.52800
N  -2.07800 34.09400 25.71000
C  -1.48000 34.87900 24.82800
C  -1.73900 34.47300 23.37800
C  -2.61900 33.22900 23.44500
C  -2.75000 33.16900 25.00500
C  -2.29300 35.62200 22.58300
C  -2.09600 31.90900 22.87100
C  -1.15500 30.98200 23.73800
N  -2.62900 32.47600 27.93800
C  -3.50500 31.84900 26.96700
C  -4.36900 30.89700 27.72000
C  -4.02600 31.08100 29.05300
C  -2.96500 31.98400 29.18900
C  -5.49600 30.13500 27.16000
C  -4.38300 30.62100 30.38500
O  -5.15000 29.74400 30.72700
C  -3.43800 31.29000 31.34000
C  -4.26900 31.99700 32.31400
O  -4.48100 33.21900 32.29700
O  -4.66400 31.16800 33.33000
C  -5.43600 31.75300 34.39300
H  1.29700 36.45300 30.53300
H  -0.03000 36.14600 24.16500
H  -4.05100 31.57300 24.88100
H  -2.04800 33.98400 33.02400
H  0.85200 34.31600 32.39000
H  0.50200 36.42100 33.31200
H  -1.05100 35.70100 33.71700
H  -0.87900 36.61400 32.15800
H  0.39900 32.38900 33.21600
H  -0.75500 31.45700 32.42500
H  -1.13900 30.87300 34.63000
H  -2.09100 32.47900 34.73000
H  3.49600 37.93400 28.21500
H  2.49300 37.88100 29.63000
H  2.15600 39.19000 28.72000
H  3.21700 39.52500 24.59100
H  3.78100 38.43900 25.86600
H  2.56400 39.69200 26.32000
H  -0.81600 34.07000 22.96100
H  -3.58500 33.41300 22.97500
H  -1.63900 35.61600 21.71100
H  -2.29000 36.59500 23.07300
H  -3.30400 35.42200 22.22600
H  -1.43500 32.17700 22.04700
H  -2.85100 31.29900 22.37600
H  -0.97800 31.32600 24.75700
H  -0.17200 30.96700 23.26700
H  -1.61200 29.99400 23.79300
H  -6.41500 30.39200 27.68800
H  -5.39900 29.05000 27.16500
H  -5.65400 30.31800 26.09800
H  -2.81100 30.61100 31.91800
H  -6.28100 32.36600 34.08100
H  -4.77700 32.34500 35.02800
H  -5.94900 30.93900 34.90500

