158

Mg 46.51100 25.57500 28.06300
C  47.71300 27.70200 30.69700
C  45.64900 23.22400 30.37800
C  45.75600 23.54400 25.49700
C  48.28100 27.78300 25.87500
N  46.66400 25.52100 30.26000
C  47.06400 26.49800 31.13200
C  46.78600 26.10200 32.55300
C  46.21200 24.70300 32.49000
C  46.19200 24.40700 30.91500
C  47.09500 23.66300 33.23800
C  45.89800 27.12600 33.38200
C  46.32900 27.25500 34.88600
H  45.25600 27.46700 35.90400
N  45.83700 23.63600 28.01900
C  45.50400 22.80600 29.07300
C  44.79700 21.60300 28.64100
C  44.85200 21.70800 27.22300
C  45.52300 23.01000 26.84200
C  44.12300 20.57200 29.53400
C  44.25800 20.75600 26.15200
O  44.32400 20.95900 24.91600
C  43.40800 19.67600 26.59400
N  46.93300 25.71300 26.00200
C  46.30600 24.80200 25.10400
C  46.59700 25.20300 23.63700
C  47.42800 26.56000 23.82500
C  47.58700 26.70800 25.33500
C  47.34800 24.08700 22.82500
C  46.70700 27.82600 23.21000
C  47.63000 28.80100 22.46000
N  47.68900 27.49100 28.22600
C  48.29100 28.18400 27.20400
C  48.85000 29.44000 27.80000
C  48.66000 29.30200 29.18700
C  47.93800 28.10800 29.39100
C  49.58800 30.49400 27.14800
C  48.88500 29.88800 30.45100
O  49.53100 30.93200 30.77500
C  48.27100 28.92200 31.56100
C  49.32200 28.47500 32.54900
O  50.13400 27.64200 32.30200
O  49.10500 28.99400 33.83600
C  50.01200 28.51200 34.88800
H  45.26700 22.51000 31.11000
H  45.56500 22.92700 24.61600
H  48.76000 28.50300 25.20800
H  47.69300 26.14500 33.15600
H  45.17900 24.61100 32.82600
H  46.47700 22.90500 33.71900
H  47.63500 24.21700 34.00600
H  47.79500 23.12500 32.59900
H  44.88900 26.72700 33.47700
H  45.74000 28.09600 32.90900
H  47.03400 28.08000 34.99100
H  46.73800 26.28800 35.17800
H  44.11400 20.73600 30.61200
H  44.54900 19.58500 29.35800
H  43.10200 20.61200 29.15300
H  43.83100 19.05500 27.38400
H  43.10200 18.95800 25.83400
H  42.53900 20.18000 27.01600
H  45.61200 25.41100 23.21700
H  48.41500 26.39200 23.39400
H  48.37300 24.32800 22.54100
H  46.86400 23.87300 21.87200
H  47.47400 23.17500 23.40800
H  46.23900 28.30300 24.07200
H  45.89600 27.51300 22.55200
H  47.59300 29.80100 22.89200
H  47.23400 28.85500 21.44600
H  48.67200 28.48400 22.43000
H  49.00700 30.83200 26.29000
H  50.62800 30.25800 26.92400
H  49.71400 31.25100 27.92300
H  47.56400 29.62800 31.99700
H  49.68000 27.48800 35.06000
H  49.68900 29.03500 35.78800
H  51.06800 28.64800 34.65800
Mg 43.17700 42.46300 25.75700
C  42.39400 44.85500 28.26600
C  44.46500 40.49600 28.24900
C  44.35600 40.39300 23.48800
C  42.21400 44.81100 23.37000
N  43.48000 42.76500 27.94700
C  42.94200 43.72700 28.80600
C  43.19000 43.43900 30.36800
C  44.11400 42.10100 30.27900
C  44.03500 41.76500 28.67500
C  45.50700 42.35100 30.90100
C  41.86800 43.39900 31.16600
C  41.49200 42.32900 32.26100
H  40.86000 42.89300 33.46400
N  44.09500 40.59800 25.83800
C  44.47600 39.93800 27.00500
C  44.86800 38.56900 26.63200
C  44.70600 38.53900 25.20900
C  44.42800 39.85900 24.80500
C  45.30800 37.50400 27.67300
C  44.95400 37.38100 24.22800
O  44.86000 37.46100 22.99900
C  45.18100 36.05000 24.80900
N  43.27700 42.59500 23.74800
C  43.84400 41.57300 23.00700
C  43.76100 41.91000 21.51400
C  42.73000 43.11900 21.49500
C  42.75100 43.56200 22.95000
C  45.09600 42.31500 20.88000
C  41.34000 42.74100 20.91800
C  40.36400 42.08200 21.89200
N  42.48400 44.42600 25.78300
C  42.14500 45.26500 24.74100
C  41.69700 46.52400 25.29400
C  41.78500 46.39800 26.65800
C  42.23600 45.08800 26.88600
C  41.25700 47.68700 24.47300
C  41.54300 47.10000 27.87000
O  41.31800 48.26300 28.10400
C  41.84700 46.12600 28.95100
C  42.88200 46.67800 29.90400
O  44.10800 46.59100 29.69300
O  42.38000 47.16600 31.08900
C  43.36400 47.33000 32.15400
H  44.89500 39.90000 29.05600
H  44.74300 39.72900 22.71200
H  41.91000 45.58400 22.66100
H  43.80200 44.24500 30.77300
H  43.73300 41.21600 30.78800
H  45.71800 43.40900 31.05700
H  46.23500 41.82300 30.28600
H  45.72600 41.89600 31.86700
H  41.00800 43.38300 30.49700
H  41.79200 44.42100 31.53600
H  42.37300 41.74400 32.52600
H  40.85800 41.55700 31.82500
H  45.26800 37.89500 28.69000
H  46.31500 37.17700 27.41500
H  44.66000 36.64700 27.86000
H  45.55400 35.37700 24.03800
H  44.28800 35.69500 25.32500
H  46.04800 36.17600 25.45800
H  43.42100 40.98800 21.04200
H  43.11600 43.99600 20.97500
H  45.73600 42.58700 21.71900
H  44.88800 43.25400 20.36600
H  45.52500 41.51700 20.27300
H  41.54700 42.13000 20.04000
H  41.02100 43.73300 20.60100
H  40.22000 41.10400 21.43200
H  39.42200 42.62800 21.84600
H  40.60100 42.05600 22.95600
H  40.16900 47.67400 24.40800
H  41.60900 47.51500 23.45600
H  41.66300 48.65800 24.75900
H  40.87300 46.03300 29.43000
H  44.04300 46.47800 32.18100
H  42.82800 47.43700 33.09700
H  43.79000 48.33100 32.08300

