158

Mg 41.36400 41.60100 26.48700
C  40.76300 43.74200 29.18300
C  42.90200 39.39600 28.75400
C  42.04500 39.48900 23.98900
C  40.67600 44.05200 24.24400
N  41.70700 41.54500 28.72000
C  41.31600 42.48400 29.55500
C  41.48800 42.03600 31.03600
C  42.57300 40.76700 30.89700
C  42.43500 40.53900 29.39000
C  43.99000 41.03500 31.40800
C  40.18500 41.88200 31.90100
C  40.07200 42.72000 33.18900
H  39.83800 41.90700 34.48300
N  42.31500 39.70400 26.41500
C  42.86000 38.98800 27.41000
C  43.37200 37.75200 26.94600
C  43.17800 37.71200 25.54800
C  42.47700 39.02400 25.25400
C  44.08500 36.62800 27.79400
C  43.57200 36.62500 24.52100
O  43.45500 36.80700 23.34200
C  44.13000 35.34000 25.03400
N  41.41400 41.76100 24.39400
C  41.71200 40.70000 23.51900
C  41.31700 41.05100 22.04800
C  41.00600 42.63200 22.18200
C  40.97800 42.83600 23.64700
C  42.33900 40.66700 21.03200
C  39.66900 43.06100 21.49900
C  39.85300 44.29000 20.60200
N  40.80000 43.50400 26.62000
C  40.60700 44.39100 25.58500
C  40.22000 45.61600 26.15100
C  40.23800 45.44500 27.56600
C  40.60600 44.12900 27.81600
C  39.95300 46.82200 25.37000
C  39.96700 46.04800 28.90500
O  39.53200 47.19100 29.19800
C  40.29400 44.99900 29.90300
C  41.41300 45.51800 30.78000
O  42.55500 45.14900 30.74100
O  40.92100 46.41200 31.72900
C  41.81900 46.80600 32.78900
H  43.29900 38.72600 29.52000
H  42.22500 38.80900 23.15300
H  40.32200 44.80000 23.53200
H  42.10400 42.82600 31.46700
H  42.16000 39.90600 31.42100
H  44.18800 42.09700 31.26100
H  44.66800 40.32200 30.93800
H  44.00500 40.88600 32.48800
H  40.09400 40.83100 32.17700
H  39.36800 42.11400 31.21800
H  39.26100 43.43700 33.05700
H  41.00300 43.26600 33.34100
H  45.08200 36.56800 27.35600
H  43.48400 35.71900 27.79500
H  44.08700 36.97900 28.82600
H  43.43700 34.80100 25.68000
H  45.06900 35.51400 25.56000
H  44.47700 34.69000 24.23100
H  40.38100 40.58600 21.73900
H  41.85000 43.21600 21.81400
H  42.81200 41.53600 20.57600
H  41.79600 40.15300 20.23800
H  43.05000 40.14200 21.67000
H  38.93300 43.26700 22.27600
H  39.19900 42.26900 20.91600
H  40.15500 45.12800 21.23000
H  38.94800 44.61500 20.08800
H  40.54800 44.12500 19.77800
H  40.81500 46.82400 24.70300
H  39.99800 47.76700 25.91100
H  39.03600 46.67200 24.80000
H  39.45400 44.73700 30.54700
H  42.24500 47.80000 32.65100
H  42.60400 46.10200 33.06500
H  41.11600 46.99900 33.60000
Mg 35.10800 48.77000 25.53200
C  35.57700 46.89900 28.61500
C  33.87800 51.36000 27.66000
C  34.32300 50.43900 22.80500
C  36.11400 45.97100 23.76100
N  34.71700 49.05200 27.81400
C  35.06100 48.15500 28.83200
C  34.75500 48.70800 30.24500
C  34.02400 50.03700 29.83900
C  34.27900 50.16700 28.35200
C  32.53900 49.85700 30.05600
C  36.06500 49.04600 31.05100
C  35.92800 48.92400 32.58900
H  34.65400 48.92300 33.30500
N  34.22600 50.69700 25.25000
C  33.84800 51.60400 26.24300
C  33.57700 52.88300 25.52000
C  33.67700 52.64100 24.16500
C  34.12200 51.23900 23.99900
C  33.21600 54.06200 26.25600
C  33.50700 53.59700 23.01000
O  33.75500 53.28000 21.85100
C  33.02800 55.03200 23.10800
N  35.12500 48.20200 23.66400
C  34.80800 49.10400 22.65300
C  34.81500 48.46300 21.29200
C  35.30000 46.98200 21.61800
C  35.57900 47.03800 23.07500
C  33.38600 48.60000 20.61800
C  36.46400 46.42500 20.68800
C  36.47000 44.97700 20.45000
N  35.67600 46.77000 26.03900
C  36.12900 45.76900 25.19000
C  36.58300 44.66800 26.04100
C  36.37500 45.05300 27.35000
C  35.86800 46.33100 27.29100
C  36.96500 43.33700 25.39700
C  36.54800 44.62100 28.76400
O  37.01300 43.55100 29.20400
C  36.01700 45.87300 29.66000
C  35.04600 45.27800 30.59300
O  34.10200 44.59900 30.22200
O  35.26300 45.54100 31.96200
C  34.35600 45.02500 32.94700
H  33.58100 52.22300 28.26000
H  34.10400 50.97800 21.88000
H  36.63900 45.22300 23.16300
H  34.06300 48.01200 30.72100
H  34.30900 50.86500 30.48800
H  32.12600 49.48100 29.12000
H  32.03900 50.82000 30.16100
H  32.31900 49.26400 30.94400
H  36.19800 50.10200 30.81600
H  36.91600 48.42700 30.76500
H  36.62800 49.55500 33.13500
H  36.35200 47.94200 32.80000
H  32.13100 54.16400 26.24000
H  33.52600 54.92800 25.67200
H  33.43300 54.09300 27.32300
H  32.88000 55.45500 22.11400
H  33.82900 55.59100 23.59100
H  32.11900 55.07500 23.70800
H  35.54300 48.96000 20.65100
H  34.45200 46.29800 21.64600
H  33.14700 47.60900 20.23300
H  33.57200 49.30600 19.80800
H  32.65700 49.05100 21.29200
H  37.40000 46.53600 21.23500
H  36.53400 47.03500 19.78700
H  36.79000 44.78000 19.42700
H  35.46600 44.57100 20.56700
H  37.04200 44.44000 21.20700
H  37.88700 43.35500 24.81600
H  36.19300 43.12100 24.65700
H  36.87100 42.58500 26.18100
H  36.82800 46.28900 30.25700
H  34.67700 45.23600 33.96700
H  34.36700 43.93500 32.92000
H  33.31100 45.32900 32.88200

