158

Mg 43.11100 42.67900 26.57900
C  42.32800 44.70700 29.14600
C  44.29400 40.31400 28.89000
C  44.19100 40.88700 24.01100
C  42.31400 45.35500 24.37200
N  43.32500 42.48800 28.80000
C  42.78300 43.47300 29.61000
C  42.85600 43.01500 31.08700
C  43.77500 41.66500 30.97500
C  43.81600 41.43400 29.47900
C  45.21200 41.76400 31.62700
C  41.46300 42.86400 31.71900
C  41.38400 42.07100 32.99800
H  40.51800 42.50300 34.10500
N  44.08400 40.86800 26.45000
C  44.40400 40.00700 27.53500
C  45.00500 38.80400 26.96900
C  44.83300 38.89300 25.52600
C  44.36800 40.23700 25.26800
C  45.53500 37.66100 27.81900
C  45.17400 37.85500 24.48000
O  44.83600 38.05000 23.28900
C  45.72400 36.56100 24.82800
N  43.34000 43.09800 24.52100
C  43.75300 42.16300 23.64500
C  43.63500 42.59300 22.19400
C  42.74000 43.89900 22.33200
C  42.71400 44.12000 23.80300
C  45.03400 42.86300 21.68900
C  41.24600 43.69700 21.82300
C  40.40900 42.67300 22.60400
N  42.48300 44.70800 26.61700
C  42.22300 45.66400 25.70000
C  41.67800 46.83900 26.38700
C  41.70400 46.47800 27.73300
C  42.27500 45.20900 27.83600
C  41.19200 48.07900 25.67000
C  41.33700 46.86100 29.06300
O  40.79200 47.87200 29.42100
C  41.77300 45.77900 30.04600
C  42.78400 46.30600 31.03200
O  43.94500 46.57500 30.88900
O  42.18100 46.48600 32.27800
C  42.94200 47.21300 33.28200
H  44.65500 39.60600 29.63900
H  44.50900 40.33100 23.12600
H  42.03700 46.11200 23.63600
H  43.39600 43.68400 31.75700
H  43.23300 40.83000 31.41900
H  45.21900 40.97700 32.38100
H  45.40500 42.70900 32.13300
H  46.02700 41.63700 30.91400
H  40.83600 42.30300 31.02700
H  40.93100 43.77600 31.99000
H  42.37700 41.85700 33.39300
H  40.89400 41.12600 32.76200
H  45.62200 37.95800 28.86400
H  46.55200 37.49400 27.46400
H  44.96700 36.73500 27.71700
H  46.21200 36.26700 23.89800
H  45.12700 35.70100 25.13300
H  46.60400 36.57600 25.46900
H  43.04300 41.81400 21.71300
H  43.17600 44.71600 21.75600
H  45.14000 42.35000 20.73300
H  45.86300 42.42200 22.24300
H  45.18100 43.94200 21.63200
H  41.37500 43.43300 20.77400
H  40.91500 44.73500 21.83800
H  39.75400 42.07500 21.97000
H  39.74300 43.14500 23.32600
H  41.03500 42.04700 23.24000
H  41.96600 48.30700 24.93800
H  41.09500 48.93700 26.33500
H  40.26400 47.84200 25.15000
H  40.89000 45.38600 30.55000
H  43.72000 47.92500 33.00300
H  43.29400 46.43200 33.95500
H  42.44400 47.94900 33.91300
Mg -10.59200 38.15500 41.30300
C  -8.63100 35.42600 40.36800
C  -8.25800 40.23900 39.55700
C  -12.78600 40.81100 41.56000
C  -13.01000 36.03400 42.58400
N  -8.76800 37.87100 39.85800
C  -8.12800 36.62700 39.77200
C  -6.71300 36.74800 39.18400
C  -6.53900 38.27000 39.08300
C  -7.93200 38.88600 39.51300
C  -5.35300 38.88900 39.78600
C  -6.61600 36.05200 37.77000
C  -5.53200 35.00400 37.55500
H  -4.37000 35.40200 36.61600
N  -10.46900 40.16200 40.78400
C  -9.41000 40.87200 40.11400
C  -9.67000 42.27900 40.11600
C  -10.96700 42.49400 40.61400
C  -11.47200 41.10200 41.01200
C  -8.66800 43.22600 39.48700
C  -11.73200 43.85000 40.78200
O  -11.16300 44.83500 40.32600
C  -13.05100 44.02400 41.39500
N  -12.75900 38.35400 41.69200
C  -13.39100 39.55300 41.87000
C  -14.74300 39.41400 42.47900
C  -14.79800 37.84100 42.80200
C  -13.42400 37.34500 42.29800
C  -15.07300 40.33900 43.66400
C  -15.89200 37.03200 42.05600
C  -16.69100 35.91100 42.76500
N  -10.79800 36.11200 41.45200
C  -11.80200 35.38800 42.04200
C  -11.42300 33.99600 42.16300
C  -10.17600 33.95900 41.47600
C  -9.84700 35.29700 41.05700
C  -12.14900 32.93700 42.89000
C  -9.12100 33.06300 41.08400
O  -8.91900 31.83600 41.32400
C  -8.04800 33.94900 40.36500
C  -6.74800 33.73700 41.07400
O  -5.90700 32.93100 40.86000
O  -6.62100 34.77100 41.95400
C  -5.39400 34.73200 42.77800
H  -7.45500 40.90000 39.22400
H  -13.25400 41.73600 41.90300
H  -13.73600 35.35800 43.04000
H  -5.97300 36.30900 39.85200
H  -6.44200 38.58500 38.04400
H  -4.56900 39.05200 39.04700
H  -4.99300 38.27300 40.61000
H  -5.58400 39.86200 40.22200
H  -6.33100 36.85600 37.09200
H  -7.63600 35.72800 37.56100
H  -6.09000 34.15600 37.15700
H  -5.07200 34.69300 38.49300
H  -7.74500 43.28100 40.06500
H  -8.97300 44.26800 39.39500
H  -8.58400 42.84600 38.46800
H  -13.02600 43.56200 42.38200
H  -13.86500 43.71800 40.73800
H  -13.15300 45.09100 41.58900
H  -15.35300 39.62700 41.60100
H  -15.01700 37.77000 43.86800
H  -16.04600 40.81600 43.54600
H  -14.14300 40.88200 43.83300
H  -15.10900 39.77100 44.59300
H  -15.55700 36.52600 41.15000
H  -16.62500 37.65900 41.54900
H  -16.34700 34.94000 42.40800
H  -17.77100 35.90200 42.61500
H  -16.57500 36.08400 43.83500
H  -11.50100 32.06600 42.79800
H  -13.11700 32.62400 42.49800
H  -12.26400 33.30900 43.90800
H  -7.96500 33.58900 39.34000
H  -5.46200 33.97000 43.55500
H  -5.41300 35.63300 43.39100
H  -4.51400 34.45800 42.19700

