158

Mg 41.39700 41.23000 27.27100
C  40.49900 43.71000 29.60500
C  42.56800 39.33200 29.81300
C  42.31700 38.91400 25.04000
C  40.88700 43.54300 24.70300
N  41.53600 41.49000 29.46600
C  40.98500 42.51500 30.23900
C  41.06800 42.23000 31.77900
C  41.87500 40.92800 31.81600
C  42.08800 40.55700 30.27800
C  43.18200 40.76100 32.68200
C  39.65200 42.10500 32.49400
C  39.48500 43.03800 33.76400
H  38.76800 42.35600 34.97200
N  42.27300 39.38000 27.43900
C  42.62800 38.74500 28.57500
C  42.91000 37.40100 28.29900
C  42.88600 37.20500 26.90100
C  42.44700 38.49000 26.38400
C  43.14800 36.42500 29.38900
C  43.29900 35.96200 26.10300
O  43.44700 35.98100 24.86000
C  43.76100 34.66600 26.78300
N  41.53400 41.15800 25.10300
C  41.81400 40.07500 24.40600
C  41.59100 40.39300 22.94000
C  41.07000 41.82200 22.93000
C  41.11000 42.22000 24.35600
C  42.75500 40.01100 21.94500
C  39.61500 41.99100 22.30100
C  38.43900 41.28500 23.03800
N  40.83700 43.21400 27.10000
C  40.78700 44.00800 25.99800
C  40.36200 45.35000 26.43900
C  40.24600 45.26000 27.86900
C  40.57300 43.94900 28.20600
C  40.12400 46.52300 25.53900
C  40.02000 46.02000 29.09100
O  39.80700 47.17300 29.29900
C  40.10400 44.94700 30.23700
C  41.09200 45.42800 31.19500
O  42.29200 45.42200 31.06800
O  40.45000 45.72100 32.34000
C  41.33000 46.25300 33.36500
H  42.69400 38.72900 30.71400
H  42.53600 38.07800 24.37300
H  40.73100 44.23500 23.87200
H  41.64000 43.00100 32.29500
H  41.15400 40.19800 32.18400
H  42.94400 40.14300 33.54800
H  43.40600 41.75000 33.08200
H  44.03600 40.33700 32.15400
H  39.44300 41.08700 32.82200
H  38.94100 42.48100 31.75800
H  38.96900 43.90400 33.34700
H  40.44900 43.39900 34.12100
H  42.51800 35.54200 29.28200
H  43.03900 36.75300 30.42300
H  44.13400 36.00500 29.19400
H  43.02800 34.28300 27.49300
H  44.74800 34.64500 27.24500
H  43.55800 33.97400 25.96600
H  40.71400 39.75900 22.81100
H  41.76900 42.42700 22.35300
H  43.71400 39.90600 22.45300
H  42.82000 40.64200 21.05900
H  42.48900 39.06300 21.47700
H  39.62900 41.57800 21.29300
H  39.51000 43.06400 22.13900
H  38.82800 41.04300 24.02700
H  38.10200 40.36600 22.55900
H  37.52300 41.82600 23.27400
H  40.63700 46.39500 24.58600
H  40.50300 47.38300 26.09100
H  39.06900 46.74000 25.37100
H  39.15800 44.77000 30.74900
H  42.28000 46.62700 32.98400
H  41.51600 45.50100 34.13300
H  40.74500 47.05400 33.81700
Mg -11.03900 16.44400 42.84400
C  -7.79900 15.22900 42.29700
C  -9.97700 19.47300 41.57500
C  -14.31100 17.43000 42.55900
C  -12.04200 13.35900 44.08000
N  -9.14000 17.18500 41.77500
C  -7.96400 16.51200 41.88300
C  -6.88300 17.37800 41.35100
C  -7.48400 18.84300 41.37100
C  -8.96400 18.48700 41.68200
C  -6.79000 19.77300 42.46300
C  -6.43700 16.91800 39.91100
C  -4.92400 17.01900 39.55700
H  -4.31400 15.87200 38.66500
N  -11.98500 18.21800 42.05100
C  -11.40900 19.32000 41.52800
C  -12.39600 20.31200 41.12700
C  -13.69600 19.76200 41.54300
C  -13.40100 18.42400 42.16300
C  -11.88800 21.66000 40.62300
C  -14.95200 20.45200 41.35000
O  -14.96100 21.56500 40.84900
C  -16.19700 19.85100 41.88600
N  -12.91900 15.54600 43.20800
C  -14.10500 16.16200 43.05100
C  -15.32100 15.12300 43.30000
C  -14.56000 13.98400 43.87400
C  -13.05500 14.34700 43.82400
C  -16.40700 15.68300 44.25400
C  -14.95800 12.53900 43.31300
C  -14.83100 11.37600 44.30100
N  -10.22400 14.65800 43.15600
C  -10.69700 13.46000 43.69900
C  -9.64100 12.50200 43.81800
C  -8.48600 13.13400 43.26200
C  -8.86000 14.45400 42.86000
C  -9.74300 11.15700 44.41100
C  -7.10500 12.95100 42.94900
O  -6.40000 11.99000 43.12800
C  -6.59300 14.32400 42.35200
C  -5.59000 14.82600 43.27100
O  -5.71400 14.96800 44.45000
O  -4.42000 14.93700 42.60700
C  -3.38400 15.62600 43.35200
H  -9.46000 20.38700 41.27800
H  -15.40100 17.48900 42.51900
H  -12.38100 12.43400 44.54900
H  -6.08500 17.24300 42.08200
H  -7.35300 19.43600 40.46600
H  -6.06300 19.16500 43.00100
H  -7.61200 20.09200 43.10400
H  -6.37900 20.61800 41.91200
H  -7.06400 17.55000 39.28200
H  -6.77200 15.90700 39.67600
H  -4.36100 17.15800 40.48100
H  -4.83600 17.98800 39.06600
H  -10.91200 21.54800 40.15200
H  -11.76300 22.47000 41.34200
H  -12.63100 21.99000 39.89700
H  -16.95100 20.63300 41.97500
H  -16.01100 19.31400 42.81700
H  -16.66900 19.19000 41.15900
H  -15.89700 15.04300 42.37800
H  -14.75600 13.92900 44.94400
H  -16.97500 14.92800 44.79700
H  -17.18500 16.15600 43.65600
H  -15.95600 16.37100 44.97000
H  -14.35700 12.25400 42.45000
H  -15.98000 12.61200 42.94200
H  -15.83800 10.97600 44.41800
H  -14.41400 11.65400 45.26900
H  -14.15900 10.66900 43.81400
H  -10.12400 11.31200 45.42000
H  -8.79200 10.62600 44.35700
H  -10.57300 10.74800 43.83600
H  -6.31000 14.16200 41.31200
H  -2.37400 15.24100 43.21100
H  -3.46500 15.39000 44.41300
H  -3.40700 16.70300 43.18800

