158

Mg 6.42200 53.97400 41.36100
C  5.70000 50.58600 41.22000
C  9.63400 53.18900 40.46700
C  6.71500 57.23300 40.48200
C  3.06500 54.56900 41.82900
N  7.51700 52.04900 40.72500
C  7.04300 50.76000 40.82200
C  8.14900 49.75500 40.65100
C  9.42400 50.66300 40.68500
C  8.81600 52.08500 40.58700
C  10.18500 50.55000 41.96600
C  8.01600 49.02800 39.28000
C  7.76200 49.89100 38.00100
H  6.72100 49.27100 37.01300
N  7.98700 55.06900 40.54800
C  9.28000 54.58800 40.32300
C  10.11600 55.67400 39.97100
C  9.27200 56.81000 39.89700
C  7.89700 56.40200 40.34600
C  11.63300 55.64200 39.82500
C  9.70200 58.14300 39.54300
O  10.81300 58.25100 38.99200
C  8.96900 59.44800 39.81400
N  5.03300 55.61400 40.94900
C  5.41500 56.91200 40.74700
C  4.30000 57.91600 40.97100
C  3.06800 57.06700 41.40700
C  3.69400 55.62000 41.31000
C  4.48900 59.14800 41.78700
C  1.78800 57.25900 40.55200
C  0.63800 58.10000 41.11900
N  4.78800 52.85800 41.54600
C  3.52600 53.22300 41.85800
C  2.71400 52.10200 42.23400
C  3.54000 51.03200 41.91600
C  4.75700 51.54600 41.54700
C  1.24400 51.99300 42.61800
C  3.56600 49.64600 41.92000
O  2.81200 48.74500 42.23400
C  4.97200 49.26400 41.35700
C  4.69300 48.65800 40.05100
O  4.25800 49.24300 39.01200
O  5.00100 47.33700 40.11200
C  4.54100 46.52600 38.93300
H  10.68400 52.97200 40.26000
H  6.70600 58.30600 40.28000
H  2.01500 54.61400 42.12700
H  8.25400 49.01900 41.44900
H  10.09500 50.56600 39.83200
H  10.22600 51.58100 42.31900
H  11.23500 50.29400 41.82700
H  9.67200 49.96100 42.72600
H  7.28400 48.22100 39.25000
H  9.00800 48.59900 39.13900
H  8.64500 49.76200 37.37500
H  7.74000 50.97100 38.14300
H  12.02700 56.52700 40.32500
H  12.01000 55.55900 38.80600
H  12.01700 54.78500 40.38000
H  8.22600 59.59300 39.03000
H  9.69500 60.24300 39.64100
H  8.67600 59.56900 40.85600
H  4.13800 58.28600 39.95900
H  2.74000 57.18600 42.44000
H  4.48300 60.06100 41.19100
H  5.42500 59.08200 42.34200
H  3.69300 59.19800 42.53100
H  1.44500 56.24700 40.33600
H  2.08500 57.68700 39.59500
H  0.61500 59.11800 40.73000
H  0.63400 58.18700 42.20500
H  -0.31800 57.61900 40.91000
H  0.60200 51.41600 41.95400
H  0.84500 53.00500 42.54400
H  1.18500 51.46600 43.57000
H  5.43000 48.51200 42.00000
H  4.47000 47.08100 37.99800
H  3.53300 46.16700 39.14200
H  5.24400 45.71900 38.73100
Mg 15.92500 51.21800 25.60700
C  17.57600 50.12500 28.52800
C  13.33400 52.43400 27.53500
C  14.37100 51.89300 22.84100
C  18.63000 49.72700 23.67600
N  15.58600 51.33700 27.83000
C  16.38400 50.83400 28.80200
C  15.80200 51.20700 30.18700
C  14.35400 51.79300 29.82700
C  14.36700 51.81600 28.27600
C  13.24000 50.80500 30.33000
C  16.69600 52.18700 30.92800
C  16.86200 52.05600 32.50800
H  15.98900 51.17900 33.43400
N  14.14500 52.13200 25.26100
C  13.21400 52.63400 26.13400
C  12.13200 53.23800 25.43400
C  12.53500 53.25000 24.03400
C  13.72000 52.35700 24.00700
C  10.93000 53.83200 26.13900
C  11.91000 53.90300 22.85900
O  12.43600 53.77400 21.74200
C  10.85400 54.73800 23.07400
N  16.46800 50.85300 23.56400
C  15.52000 51.11700 22.66400
C  15.93900 50.74900 21.26000
C  17.34400 50.14300 21.45800
C  17.53700 50.28600 22.99200
C  14.89400 49.83900 20.47200
C  18.58300 50.61200 20.64100
C  19.40800 49.50400 19.95200
N  17.67400 50.05500 25.95900
C  18.69500 49.52300 25.06500
C  19.79600 49.05700 25.89100
C  19.38500 49.24500 27.25300
C  18.11200 49.88100 27.25900
C  21.07400 48.42200 25.39500
C  19.74700 48.97100 28.59300
O  20.74100 48.41000 29.05200
C  18.63600 49.60900 29.53100
C  18.13600 48.44300 30.35300
O  17.31400 47.58000 30.05100
O  18.88100 48.42600 31.50800
C  18.52800 47.22800 32.33800
H  12.59400 52.88000 28.20200
H  13.89900 51.98100 21.86000
H  19.48200 49.25300 23.18300
H  15.79200 50.29200 30.77900
H  14.23100 52.80100 30.22300
H  13.54800 50.15100 31.14600
H  12.85000 50.21200 29.50300
H  12.35700 51.37600 30.61900
H  16.43400 53.23300 30.76800
H  17.71700 52.04800 30.57300
H  16.93500 53.06500 32.91300
H  17.90300 51.73900 32.57300
H  10.65200 53.27000 27.03000
H  10.05100 53.85300 25.49500
H  11.21900 54.83300 26.46000
H  10.00500 54.07900 23.25500
H  10.49000 55.31200 22.22200
H  11.14200 55.34300 23.93400
H  16.01400 51.68300 20.70400
H  17.35700 49.05400 21.48000
H  14.90600 48.75000 20.53100
H  14.95300 50.12200 19.42100
H  13.84800 50.01400 20.72500
H  19.28600 51.16500 21.26400
H  18.18300 51.28500 19.88200
H  20.30000 49.41100 20.57000
H  19.61800 49.90000 18.95800
H  18.92600 48.52700 19.91400
H  21.00600 47.33700 25.32300
H  21.82600 48.39900 26.18300
H  21.59200 48.75600 24.49700
H  19.16700 50.38800 30.07900
H  17.49300 47.17500 32.67600
H  19.27600 47.31500 33.12600
H  18.78400 46.30100 31.82500

