158

Mg 16.82800 -1.65200 27.48700
C  15.67600 0.51100 29.94000
C  18.67800 -3.19100 29.98400
C  18.48100 -3.27100 25.20800
C  15.33300 0.24700 25.10800
N  17.23200 -1.27200 29.70900
C  16.52200 -0.39800 30.49000
C  16.88300 -0.54400 31.97800
C  17.99400 -1.64600 31.93400
C  18.02700 -2.05700 30.45800
C  19.47400 -1.15100 32.37600
C  15.65300 -0.94200 32.88200
C  15.64500 -0.29400 34.31500
H  16.93600 0.34400 34.91300
N  18.13700 -3.26900 27.58600
C  18.69400 -3.82000 28.70900
C  19.24600 -5.09700 28.43600
C  19.48700 -4.95300 27.00700
C  18.74700 -3.77800 26.50700
C  19.59200 -6.10400 29.47600
C  20.32400 -5.95500 26.14900
O  20.58500 -5.83200 24.94300
C  20.96200 -7.09300 26.76600
N  16.83400 -1.53300 25.45500
C  17.59500 -2.36200 24.63500
C  17.53100 -1.99800 23.15300
C  16.40800 -0.95300 23.17100
C  16.15200 -0.75900 24.64700
C  18.93000 -1.53900 22.61800
C  15.17700 -1.14300 22.28200
C  14.80000 0.14200 21.48500
N  15.58700 0.01000 27.53100
C  15.04300 0.61900 26.45300
C  14.18300 1.69900 26.86400
C  14.33000 1.67600 28.26000
C  15.26000 0.67300 28.61000
C  13.40600 2.65300 26.01000
C  13.90400 2.34800 29.51300
O  13.18900 3.37400 29.64600
C  14.71800 1.56100 30.61500
C  15.43600 2.50900 31.49000
O  16.52400 2.98500 31.24300
O  14.62800 2.80000 32.59100
C  15.16200 3.88600 33.40800
H  19.04400 -3.85800 30.76800
H  19.18700 -3.78800 24.55500
H  14.79900 0.78900 24.32500
H  17.25900 0.44400 32.24400
H  17.75600 -2.50800 32.55700
H  19.52100 -0.33800 33.10000
H  20.02200 -0.74500 31.52600
H  19.94900 -2.00800 32.85300
H  15.63700 -2.02700 32.98200
H  14.85200 -0.57000 32.24300
H  15.26800 -1.06200 34.99000
H  14.96200 0.55200 34.24200
H  19.19200 -7.05200 29.11700
H  19.12600 -5.89600 30.43900
H  20.65600 -6.03600 29.70000
H  21.42900 -6.80300 27.70800
H  21.79400 -7.30400 26.09400
H  20.36700 -8.00400 26.82400
H  17.21400 -2.81300 22.50300
H  16.92800 -0.05400 22.83800
H  19.57700 -1.46100 23.49200
H  18.89200 -0.57100 22.11800
H  19.32900 -2.25500 21.90000
H  14.31800 -1.32000 22.92900
H  15.26500 -2.04200 21.67100
H  15.75100 0.54100 21.13300
H  14.32700 0.79300 22.22000
H  14.17200 0.04800 20.59900
H  13.96200 3.58400 25.90000
H  12.44200 2.85600 26.47600
H  13.34900 2.13100 25.05500
H  13.93300 0.98400 31.10500
H  16.24100 3.85800 33.56100
H  14.73300 3.88500 34.41000
H  15.05000 4.88500 32.98800
Mg 17.09400 51.95900 26.45000
C  19.10500 50.41000 28.87500
C  14.83300 52.67800 29.07300
C  14.99400 53.40200 24.23900
C  19.06300 50.70800 23.87200
N  16.95200 51.64300 28.63200
C  17.98200 51.01000 29.39000
C  17.60600 51.17800 30.92400
C  16.03400 51.47000 30.88100
C  15.96000 51.96700 29.44300
C  15.16700 50.22500 31.19100
C  18.49200 52.25400 31.60400
C  18.82800 52.03100 33.06800
H  17.82800 51.21900 33.85200
N  15.15300 52.83800 26.62500
C  14.47900 53.17800 27.83700
C  13.16300 53.77400 27.49900
C  13.13500 53.77000 26.06600
C  14.40100 53.32300 25.54300
C  12.02300 53.98100 28.56800
C  12.01500 54.29100 25.15100
O  12.21500 54.38100 23.94100
C  10.68700 54.74300 25.69800
N  17.06900 52.07600 24.44900
C  16.14200 52.79100 23.72400
C  16.48700 52.85700 22.22500
C  17.82800 52.00100 22.14200
C  18.07300 51.60600 23.58600
C  15.34400 52.23300 21.32500
C  19.09200 52.63700 21.50400
C  19.71600 53.83400 22.35200
N  18.77800 50.93300 26.38300
C  19.40600 50.43200 25.21700
C  20.56900 49.61700 25.69200
C  20.53900 49.68200 27.15000
C  19.42900 50.39100 27.46700
C  21.39000 48.81000 24.90200
C  21.09100 49.17800 28.46600
O  22.05200 48.44400 28.66500
C  20.29300 49.77300 29.64400
C  19.82000 48.75800 30.61200
O  19.03900 47.85100 30.53600
O  20.58900 48.97600 31.77500
C  20.59400 47.92700 32.87900
H  14.25500 52.85000 29.98400
H  14.33600 53.78400 23.45600
H  19.80800 50.37300 23.14800
H  17.83100 50.19900 31.34800
H  15.76400 52.22700 31.61700
H  15.78600 49.33500 31.30400
H  14.42400 50.05200 30.41200
H  14.64300 50.42000 32.12700
H  18.10600 53.26300 31.46100
H  19.44700 52.17700 31.08400
H  19.11400 53.01800 33.43100
H  19.66300 51.33400 33.00400
H  12.10400 53.47000 29.52800
H  11.04300 53.59800 28.28300
H  11.98300 55.06300 28.69700
H  10.14600 53.89200 26.11100
H  10.01900 55.07600 24.90300
H  10.99000 55.50100 26.42100
H  16.69800 53.89000 21.94900
H  17.67600 51.07000 21.59600
H  14.45700 52.02400 21.92300
H  15.63000 51.31200 20.81600
H  15.13800 52.95300 20.53300
H  18.85800 53.16400 20.57900
H  19.84200 51.87400 21.29700
H  19.34000 53.97200 23.36600
H  19.58900 54.77000 21.80800
H  20.77900 53.59300 22.37700
H  21.91800 48.15100 25.59100
H  22.15400 49.32200 24.31700
H  20.89200 48.13400 24.20800
H  20.97300 50.46300 30.14400
H  20.45700 46.93600 32.44600
H  19.78100 48.20300 33.55000
H  21.48800 47.91600 33.50400

