158

Mg -0.16600 7.97000 26.31000
C  0.60600 9.90200 29.09800
C  0.11300 5.16400 28.32900
C  -0.35800 6.02400 23.63800
C  0.28000 10.78600 24.29500
N  0.29200 7.59700 28.45400
C  0.44300 8.52600 29.40300
C  0.70200 7.97200 30.76600
C  0.57800 6.41700 30.51100
C  0.29800 6.34800 29.01100
C  1.87200 5.57600 30.91400
C  -0.28300 8.49800 31.86500
C  0.20800 8.55300 33.30400
H  -0.68200 7.94200 34.47200
N  -0.25300 5.82700 26.02500
C  -0.22900 4.87700 26.99100
C  -0.49300 3.60900 26.37500
C  -0.56200 3.82700 24.97700
C  -0.34300 5.25500 24.78700
C  -0.63000 2.36900 27.20500
C  -0.67100 2.84000 23.87200
O  -1.01900 3.11000 22.71700
C  -0.48400 1.38600 24.20500
N  -0.21200 8.36500 24.27300
C  -0.32200 7.35900 23.37400
C  -0.43100 7.94400 21.93600
C  -0.35400 9.48100 22.14100
C  -0.04700 9.59400 23.61700
C  0.57200 7.30600 20.84500
C  -1.61500 10.22200 21.74200
C  -2.82800 10.26200 22.74100
N  0.19700 9.98700 26.58400
C  0.44100 10.95500 25.68900
C  0.79500 12.19400 26.38400
C  0.94700 11.79900 27.71700
C  0.56700 10.52200 27.79800
C  1.02100 13.55900 25.78400
C  1.30000 12.31600 29.06100
O  1.64400 13.45800 29.45100
C  0.95600 11.05900 29.96700
C  2.11200 10.83900 30.83800
O  3.27500 10.71800 30.46000
O  1.74300 11.14000 32.11600
C  2.77500 11.41800 33.15700
H  0.22200 4.37500 29.07600
H  -0.33700 5.48000 22.69200
H  0.12700 11.69200 23.70600
H  1.72500 8.30300 30.94800
H  -0.25100 5.96700 31.05700
H  2.29400 5.94000 31.85000
H  2.60100 5.68700 30.11200
H  1.66800 4.54100 31.19100
H  -1.14000 7.82600 31.80800
H  -0.57300 9.48200 31.49800
H  0.18400 9.62400 33.50900
H  1.25000 8.23900 33.26000
H  -1.40300 1.70100 26.82600
H  -0.75600 2.60700 28.26100
H  0.31900 1.83400 27.16400
H  -0.65300 0.79200 23.30600
H  -1.32500 1.09600 24.83600
H  0.53300 1.12500 24.49800
H  -1.45100 7.73700 21.61200
H  0.52400 9.85700 21.61600
H  1.30700 6.61700 21.26000
H  0.95900 8.00900 20.10700
H  -0.05000 6.67400 20.21000
H  -2.11400 9.94800 20.81200
H  -1.23400 11.20900 21.48100
H  -3.61200 10.57900 22.05300
H  -2.73200 11.18100 23.32000
H  -3.01500 9.36200 23.32700
H  0.80100 13.60700 24.71700
H  2.04600 13.91100 25.90200
H  0.30400 14.22900 26.26000
H  0.14300 11.39000 30.61400
H  3.74700 11.22300 32.70500
H  2.63000 10.62500 33.89100
H  2.63600 12.35900 33.68800
Mg 49.31500 35.30000 27.43600
C  47.34800 33.85900 29.87400
C  49.70600 38.08100 29.25700
C  51.26800 36.55200 24.89300
C  48.54300 32.55200 25.32800
N  48.67000 35.85800 29.37400
C  47.97400 35.11400 30.30800
C  47.71200 35.89700 31.62400
C  48.03700 37.37900 31.22100
C  48.89400 37.14500 29.93000
C  46.81100 38.37900 31.31200
C  48.64200 35.36500 32.73400
C  48.11000 34.72900 34.00800
H  48.77200 35.22200 35.29300
N  50.18300 37.14000 27.05800
C  50.31700 38.12800 27.94900
C  51.01100 39.33400 27.38600
C  51.53400 38.88300 26.12300
C  51.04500 37.42700 25.92600
C  51.12100 40.70100 28.10400
C  52.35400 39.67700 25.09400
O  52.70700 39.23400 24.01500
C  52.71900 41.07500 25.40400
N  49.86800 34.61800 25.46100
C  50.71100 35.31900 24.61400
C  51.08900 34.56000 23.33600
C  50.13900 33.30700 23.40600
C  49.37200 33.51800 24.80000
C  51.00600 35.27000 21.99300
C  50.73500 31.87400 23.14700
C  51.95200 31.76200 22.34000
N  48.20500 33.52700 27.51600
C  47.92800 32.52800 26.59900
C  47.01200 31.53900 27.20300
C  46.80300 31.99800 28.52700
C  47.56100 33.22000 28.62400
C  46.44300 30.32100 26.60700
C  46.04300 31.80100 29.79800
O  45.23500 30.92600 30.14100
C  46.55300 32.94700 30.68800
C  47.11200 32.24200 31.82900
O  48.30100 31.98200 31.94800
O  46.14200 31.85900 32.70600
C  46.59900 30.99500 33.87700
H  49.73200 39.05700 29.74500
H  51.92800 36.90700 24.09800
H  48.39100 31.70300 24.65800
H  46.69100 35.84400 32.00300
H  48.82500 37.78500 31.85500
H  45.87500 37.83700 31.17700
H  46.99200 39.11300 30.52700
H  46.82600 38.93600 32.24800
H  49.37800 36.11500 33.02100
H  49.22800 34.59800 32.22800
H  48.36600 33.67000 33.96700
H  47.02300 34.74800 33.91900
H  52.09800 40.69700 28.58800
H  50.36800 40.62600 28.88800
H  50.92500 41.62100 27.55300
H  53.28100 41.07400 26.33700
H  51.85100 41.68500 25.65700
H  53.36400 41.52500 24.64900
H  52.14400 34.36200 23.52400
H  49.33300 33.46100 22.68900
H  50.60500 36.28000 22.07700
H  50.46500 34.80600 21.16800
H  52.02600 35.44700 21.65300
H  50.00900 31.25100 22.62500
H  50.79200 31.35400 24.10300
H  52.73200 31.83600 23.09800
H  51.88200 32.51100 21.55100
H  52.02000 30.77400 21.88500
H  47.27300 29.75000 26.19000
H  45.88200 30.69500 25.75100
H  45.80800 29.83700 27.34900
H  45.72300 33.47600 31.15600
H  45.69900 30.93300 34.48900
H  47.41900 31.51600 34.37200
H  46.95900 30.01100 33.57800

