158

Mg 46.59700 24.73200 28.02900
C  47.39900 27.16500 30.51100
C  45.85400 22.53300 30.44500
C  46.32900 22.32700 25.50800
C  47.68700 26.84400 25.61800
N  46.67600 24.80700 30.24900
C  46.82600 25.99900 31.01600
C  46.54800 25.73400 32.53700
C  45.94900 24.30800 32.39700
C  46.16100 23.80100 30.98200
C  46.47800 23.16600 33.29700
C  45.52500 26.71100 33.19500
C  45.81000 27.08300 34.63800
H  44.69300 27.04200 35.62400
N  46.09000 22.75100 28.06100
C  45.78400 21.98700 29.12400
C  45.53200 20.63900 28.72900
C  45.84600 20.50600 27.34000
C  46.14600 21.88900 26.89700
C  45.05000 19.55700 29.68900
C  45.92900 19.27500 26.44900
O  46.23500 19.21500 25.26800
C  45.77700 17.92800 27.13800
N  46.95500 24.56500 25.81400
C  46.57600 23.57200 24.98700
C  46.79700 23.92600 23.48000
C  46.98000 25.46200 23.63300
C  47.27100 25.62200 25.11200
C  47.95300 23.19700 22.86500
C  45.83500 26.31400 23.00700
C  44.33700 25.95900 23.42200
N  47.39500 26.57200 27.97000
C  47.76100 27.39300 26.93000
C  48.29100 28.63900 27.31900
C  48.14400 28.59300 28.73400
C  47.54900 27.32200 29.11400
C  48.77900 29.69000 26.45400
C  48.45700 29.27900 29.93800
O  48.93100 30.41000 30.10700
C  47.80400 28.50400 31.09200
C  48.85600 28.34900 32.16600
O  49.87100 27.64300 32.08200
O  48.44600 29.07700 33.29800
C  49.29600 28.86900 34.47600
H  45.36800 21.83100 31.12500
H  46.17100 21.50500 24.80800
H  47.82400 27.66700 24.91300
H  47.51800 25.67400 33.03000
H  44.86500 24.25200 32.49200
H  46.66400 23.51600 34.31300
H  47.21800 22.50700 32.84300
H  45.62700 22.50400 33.45300
H  44.48200 26.43500 33.04400
H  45.60100 27.67100 32.68300
H  46.29300 28.05000 34.49600
H  46.53500 26.43200 35.12700
H  44.25700 18.87000 29.39600
H  44.67400 20.07300 30.57200
H  45.92200 19.00100 30.03500
H  46.54900 17.92000 27.90700
H  46.15300 17.19700 26.42100
H  44.73400 17.84000 27.44400
H  45.91200 23.62000 22.92200
H  47.91400 25.78000 23.16900
H  48.09500 23.66900 21.89300
H  47.71000 22.14600 22.70900
H  48.77000 23.38000 23.56400
H  45.83600 26.22400 21.92100
H  46.03200 27.35100 23.27800
H  43.68400 25.74100 22.57700
H  43.93100 26.78500 24.00500
H  44.29100 25.09200 24.08200
H  48.14800 30.55300 26.67000
H  48.81100 29.60100 25.36800
H  49.81900 29.85000 26.74000
H  46.96300 29.04700 31.52500
H  48.99200 27.98500 35.03800
H  49.23000 29.74600 35.12100
H  50.37000 28.75200 34.33200
Mg 8.35200 48.39900 28.21800
C  6.64300 47.46600 31.18600
C  11.33800 48.32400 29.80900
C  9.78200 49.61300 25.40700
C  5.15800 48.64100 26.54800
N  8.94900 47.87400 30.25000
C  8.06800 47.56100 31.31300
C  8.89600 47.52400 32.67200
C  10.33100 48.12900 32.15800
C  10.30500 48.09200 30.68100
C  10.86100 49.47900 32.76000
C  8.96700 46.06600 33.32400
C  8.77300 46.20400 34.81900
H  9.55000 45.25000 35.75900
N  10.28700 48.66400 27.61100
C  11.38200 48.58500 28.39000
C  12.59500 48.71000 27.56500
C  12.12200 49.12300 26.29000
C  10.65300 49.21300 26.41000
C  13.95800 48.43000 28.06100
C  12.88800 49.44700 25.02300
O  12.42700 49.92200 23.99900
C  14.31200 49.23400 24.98600
N  7.54600 49.16300 26.41200
C  8.39500 49.66500 25.46800
C  7.62800 50.26500 24.24300
C  6.15700 49.75600 24.51700
C  6.30000 49.10900 25.86800
C  7.76200 51.81000 24.21300
C  5.51300 48.75500 23.56400
C  5.89100 48.72600 22.06200
N  6.27800 48.05100 28.68300
C  5.14700 48.09500 27.87300
C  4.02000 47.76700 28.69300
C  4.54800 47.52600 29.99000
C  5.94900 47.71900 29.91100
C  2.60500 47.73000 28.22900
C  4.14300 47.15100 31.34500
O  2.99000 46.92800 31.80000
C  5.58400 47.15700 32.25300
C  5.70300 45.77300 32.86100
O  6.00700 44.77500 32.23100
O  5.42800 45.85500 34.17100
C  5.31100 44.57500 34.89000
H  12.26700 48.37800 30.38100
H  10.20000 50.06300 24.50400
H  4.29700 48.98500 25.97000
H  8.34600 48.26900 33.24600
H  11.07400 47.41600 32.51500
H  11.42200 50.04300 32.01500
H  11.51300 49.30000 33.61500
H  10.01700 50.09000 33.08100
H  9.92800 45.56000 33.22300
H  8.26500 45.39000 32.83600
H  7.73400 46.11000 35.13600
H  9.12200 47.20500 35.07400
H  13.93900 48.07300 29.09000
H  14.36700 49.43800 28.13900
H  14.63100 47.85000 27.43000
H  14.44100 48.15700 24.87300
H  14.78300 49.70200 25.85000
H  14.71700 49.80800 24.15300
H  7.95600 49.72600 23.35400
H  5.46700 50.59300 24.62400
H  8.67600 52.15300 24.69800
H  6.88000 52.25600 24.67300
H  7.68800 52.16900 23.18700
H  4.44300 48.86500 23.74200
H  5.80900 47.83800 24.07300
H  5.98000 49.72600 21.63600
H  4.95700 48.41800 21.59300
H  6.64600 47.97000 21.84900
H  2.33200 48.56500 27.58400
H  1.83800 47.70500 29.00400
H  2.46100 46.81400 27.65800
H  5.65700 47.84100 33.09800
H  4.27600 44.43800 35.20400
H  5.89600 44.60200 35.80900
H  5.63500 43.74200 34.26600

