158

Mg 54.32300 24.15900 43.62500
C  51.72500 26.44000 43.12200
C  52.20100 21.67600 42.33900
C  57.05900 22.20500 43.28900
C  56.38900 26.86500 44.30900
N  52.24000 24.06400 42.91300
C  51.40300 25.14600 42.74900
C  49.91200 24.66600 42.33300
C  50.05300 23.11500 42.29800
C  51.60600 22.97900 42.51400
C  49.35500 22.31100 43.35000
C  49.31200 25.26600 41.01800
C  50.17300 25.46500 39.68800
H  49.91200 24.40700 38.61500
N  54.61300 22.13500 43.06200
C  53.61200 21.33400 42.52900
C  54.18200 20.00900 42.20500
C  55.62500 20.11400 42.49400
C  55.85600 21.49800 42.98000
C  53.41300 18.82400 41.67400
C  56.61600 18.98900 42.21200
O  56.26500 17.97000 41.72000
C  58.08800 19.04100 42.64600
N  56.47700 24.47800 43.62400
C  57.36000 23.52800 43.58900
C  58.83200 23.95100 43.85600
C  58.54600 25.48800 44.29200
C  57.07400 25.68400 44.09200
C  59.40000 23.03100 44.91000
C  59.37700 26.47300 43.37400
C  60.84900 26.43500 43.87400
N  54.20400 26.22200 43.75000
C  55.05800 27.17300 44.16400
C  54.35700 28.42300 44.30500
C  53.07000 28.16000 43.90400
C  53.02700 26.82100 43.56500
C  54.98300 29.75100 44.56800
C  51.79800 28.87400 43.68800
O  51.47900 30.03800 43.87100
C  50.85400 27.74900 43.10900
C  50.33200 28.32100 41.86800
O  51.00500 28.45300 40.82000
O  48.98900 28.60200 41.98900
C  48.22300 29.08700 40.83100
H  51.44100 20.92200 42.11900
H  57.90400 21.53900 43.10100
H  56.99700 27.72800 44.58700
H  49.26400 24.93300 43.16700
H  49.91900 22.73500 41.28500
H  49.95000 22.41500 44.25700
H  49.18200 21.27800 43.05000
H  48.40100 22.84000 43.36800
H  48.83900 26.23000 41.20600
H  48.54100 24.53800 40.76700
H  51.21300 25.39300 40.00700
H  49.90900 26.51000 39.52300
H  53.46000 18.84900 40.58500
H  52.40600 18.96100 42.06800
H  53.81900 17.86800 42.00400
H  58.37000 18.00300 42.82400
H  58.31400 19.66300 43.51200
H  58.57600 19.52100 41.79800
H  59.35200 23.98700 42.89800
H  58.70500 25.66700 45.35500
H  59.56200 23.50700 45.87700
H  60.36400 22.76100 44.47700
H  58.87200 22.08800 45.05000
H  59.10300 27.52600 43.43200
H  59.24300 26.12700 42.34900
H  61.56900 26.14000 43.11000
H  60.88000 25.74100 44.71400
H  61.22200 27.43100 44.11400
H  54.56000 30.01500 45.53700
H  54.75700 30.52700 43.83700
H  56.07200 29.70700 44.57100
H  49.96300 27.63300 43.72600
H  48.40100 28.56200 39.89200
H  48.04900 30.15000 40.66000
H  47.20200 28.83500 41.11800
Mg 47.25900 24.99700 28.29400
C  48.37700 27.19400 30.85100
C  46.21600 22.88600 30.84100
C  46.42600 22.70900 25.95300
C  48.75700 27.02200 25.88800
N  47.31000 25.07700 30.55900
C  47.73900 26.03400 31.36700
C  47.60900 25.74100 32.87000
C  46.78800 24.36300 32.85500
C  46.72500 24.06800 31.31500
C  47.33600 23.19100 33.74300
C  46.68000 26.87500 33.41700
C  46.99300 27.63300 34.75600
H  45.96900 27.74400 35.82600
N  46.29400 23.11200 28.33200
C  46.02700 22.44400 29.49100
C  45.37500 21.17500 29.08500
C  45.31500 21.11400 27.68000
C  46.02800 22.34800 27.22800
C  44.93500 20.13100 30.08100
C  44.64200 20.12900 26.80000
O  44.69700 20.27100 25.58800
C  43.72600 19.02100 27.35500
N  47.61500 24.86700 26.17300
C  47.20800 23.74200 25.46600
C  47.70000 23.89200 24.01800
C  48.11200 25.43400 23.98800
C  48.23800 25.80700 25.42300
C  48.86100 22.96800 23.68700
C  47.03900 26.36500 23.25900
C  47.32100 26.75000 21.78400
N  48.41100 26.61000 28.30900
C  48.81300 27.39600 27.28200
C  49.56500 28.53000 27.73800
C  49.28300 28.51700 29.12900
C  48.59800 27.34400 29.45100
C  50.47900 29.53000 26.99500
C  49.61300 29.21700 30.34000
O  50.23600 30.24900 30.59800
C  48.94700 28.33200 31.54100
C  50.07200 27.87000 32.34800
O  50.75300 26.92500 32.01200
O  50.26900 28.74600 33.34900
C  51.30100 28.58400 34.47100
H  45.92400 22.23600 31.66800
H  46.27400 21.94700 25.18500
H  49.26100 27.67700 25.17400
H  48.56800 25.77200 33.38800
H  45.72100 24.40800 33.07600
H  48.14200 22.79900 33.12200
H  46.53500 22.46200 33.86300
H  47.52600 23.57200 34.74700
H  45.70000 26.41300 33.53900
H  46.40400 27.59000 32.64200
H  47.43100 28.61600 34.58500
H  47.81200 27.00900 35.11400
H  45.44000 19.18300 29.89800
H  43.88500 19.85000 30.00300
H  45.08900 20.48700 31.10000
H  42.83300 19.46200 27.79700
H  44.21800 18.45400 28.14500
H  43.44200 18.42500 26.48800
H  46.81900 23.75600 23.39100
H  49.09300 25.62200 23.55300
H  48.50800 22.32100 22.88400
H  49.07200 22.43300 24.61300
H  49.82700 23.36000 23.36700
H  46.98400 27.22900 23.92100
H  46.04700 25.91300 23.25600
H  47.13100 27.81400 21.64400
H  46.60700 26.23000 21.14500
H  48.33400 26.47100 21.49300
H  49.88500 30.13300 26.30800
H  51.16800 28.99700 26.33900
H  51.08400 30.16500 27.64300
H  48.18000 28.88800 32.08000
H  52.30700 28.89400 34.18800
H  51.32600 27.56900 34.86600
H  51.06600 29.26900 35.28500

