158

Mg 48.28300 34.46500 26.64300
C  46.54600 32.96500 29.25700
C  48.23800 37.46500 28.65800
C  49.61700 36.17800 24.13400
C  47.79900 31.64500 24.64800
N  47.49000 35.11800 28.66000
C  47.03000 34.26000 29.63700
C  47.09800 34.86300 31.04300
C  47.16300 36.34700 30.71600
C  47.75700 36.32100 29.28300
C  45.90000 37.13900 30.85200
C  48.25400 34.36900 31.90800
C  48.05600 34.03000 33.39400
H  47.25100 34.93800 34.31600
N  48.88700 36.48800 26.44600
C  48.80600 37.52900 27.34500
C  49.36300 38.69500 26.69400
C  49.80000 38.31100 25.38100
C  49.49700 36.92200 25.31800
C  49.46500 40.08000 27.26200
C  50.59300 39.14500 24.24100
O  51.03300 38.68800 23.17600
C  50.78800 40.61700 24.51200
N  48.69900 33.94600 24.74100
C  49.24700 34.82700 23.89400
C  49.38800 34.26400 22.49100
C  48.90000 32.78300 22.72100
C  48.44200 32.75500 24.11800
C  48.62200 34.96600 21.29400
C  49.94000 31.67300 22.45900
C  51.27300 31.83200 23.13100
N  47.36300 32.62500 26.83000
C  47.28000 31.54000 25.96100
C  46.32800 30.61000 26.56800
C  46.02600 31.07300 27.87200
C  46.73900 32.32300 27.99200
C  45.78200 29.41400 25.95900
C  45.44100 30.70200 29.13800
O  44.75400 29.76400 29.43800
C  45.53500 32.06200 29.93900
C  45.69300 31.75500 31.35800
O  46.48500 30.93600 31.71900
O  44.80500 32.40800 32.12900
C  44.78900 31.94000 33.56400
H  48.21300 38.36100 29.28100
H  49.87900 36.71100 23.21800
H  47.51800 30.78300 24.04000
H  46.23500 34.63100 31.66700
H  47.91300 36.87700 31.30400
H  45.93900 38.06000 30.27100
H  45.91800 37.47400 31.88900
H  45.03700 36.48300 30.73800
H  49.08600 35.06500 31.80200
H  48.56300 33.43600 31.43700
H  49.07500 34.05400 33.78000
H  47.85400 32.96700 33.52200
H  48.97900 40.03700 28.23600
H  49.09300 40.85300 26.58900
H  50.47000 40.30100 27.62100
H  49.76800 40.92900 24.74000
H  50.91900 41.11300 23.55100
H  51.52900 40.96900 25.22900
H  50.42700 34.25600 22.16200
H  48.00800 32.71400 22.09700
H  48.12100 35.80100 21.78300
H  47.90900 34.33700 20.76200
H  49.29800 35.34400 20.52600
H  50.06400 31.66900 21.37700
H  49.55700 30.66400 22.61100
H  52.07300 32.06700 22.42900
H  51.66400 30.97400 23.67600
H  51.28500 32.57700 23.92700
H  45.77400 29.56900 24.88000
H  44.80200 29.08800 26.30800
H  46.48700 28.58600 26.03800
H  44.54700 32.51100 29.83500
H  44.40900 32.69800 34.24900
H  45.76100 31.70100 33.99600
H  44.26400 30.98900 33.65900
Mg -11.86000 38.48500 42.02400
C  -9.62300 36.04800 40.74900
C  -9.70700 40.95800 40.70100
C  -14.35700 40.77500 42.28700
C  -13.98800 35.90700 42.97300
N  -9.93900 38.43200 40.88300
C  -9.23600 37.33700 40.48900
C  -8.03900 37.78000 39.64000
C  -8.05600 39.28900 39.76900
C  -9.35400 39.61800 40.45100
C  -6.83900 39.89700 40.57300
C  -8.04100 37.27900 38.16900
C  -6.94900 36.33300 37.66800
H  -5.88100 36.91400 36.73900
N  -11.96300 40.55400 41.59100
C  -10.90200 41.40300 41.23100
C  -11.39600 42.84200 41.13900
C  -12.77800 42.78100 41.58300
C  -13.11400 41.35200 41.82900
C  -10.50200 44.09600 40.85200
C  -13.72500 44.03100 41.70400
O  -13.39000 45.13600 41.29300
C  -15.08600 43.92600 42.26700
N  -13.86400 38.38800 42.44800
C  -14.64500 39.47600 42.68900
C  -16.13100 39.02900 43.26600
C  -15.95600 37.50100 43.24100
C  -14.51100 37.24300 42.77900
C  -16.40300 39.60300 44.70800
C  -17.01100 36.83200 42.28400
C  -17.03000 37.13500 40.76500
N  -11.86100 36.37700 41.91400
C  -12.69100 35.46700 42.44000
C  -12.14300 34.10700 42.40200
C  -10.93100 34.26700 41.67000
C  -10.81700 35.67700 41.39000
C  -12.79900 32.85000 42.92000
C  -9.74600 33.62100 41.04600
O  -9.38800 32.45700 40.95700
C  -8.90300 34.79600 40.46700
C  -7.58900 34.68400 41.17700
O  -7.33200 35.19100 42.23400
O  -6.76300 33.98200 40.34100
C  -5.34900 34.00100 40.66100
H  -9.16900 41.70900 40.11900
H  -15.21600 41.42200 42.48000
H  -14.63100 35.16600 43.45200
H  -7.18100 37.33700 40.14500
H  -8.30900 39.75100 38.81500
H  -6.88200 40.97300 40.74200
H  -5.87000 39.71400 40.10800
H  -6.84200 39.27300 41.46700
H  -8.13100 38.03000 37.38400
H  -8.97900 36.72800 38.11200
H  -7.43300 35.43800 37.27700
H  -6.25000 35.98900 38.43000
H  -9.53800 43.91900 41.32900
H  -10.94400 44.93200 41.39600
H  -10.44800 44.24200 39.77300
H  -15.70100 43.32200 41.60200
H  -15.51800 44.92600 42.22100
H  -15.08400 43.51900 43.27900
H  -16.87200 39.41200 42.56400
H  -16.00500 37.19800 44.28700
H  -16.01100 40.61200 44.83600
H  -16.01500 38.94200 45.48200
H  -17.44500 39.63300 45.02900
H  -17.98200 37.11200 42.69000
H  -17.00200 35.74300 42.33200
H  -15.99500 37.34600 40.49600
H  -17.73200 37.93100 40.51800
H  -17.39700 36.24000 40.26200
H  -12.15500 32.05400 42.54600
H  -13.82000 32.80700 42.54200
H  -12.61800 32.86000 43.99500
H  -8.89600 34.63900 39.38800
H  -4.67100 33.65600 39.88000
H  -5.17700 33.25100 41.43200
H  -5.10300 34.98400 41.06200

