158

Mg 1.63200 8.42200 26.42700
C  1.74900 10.54100 29.08900
C  1.33600 5.69700 28.55600
C  2.06300 6.52200 23.79200
C  1.64500 11.42600 24.27800
N  1.49900 8.17000 28.57400
C  1.43900 9.17900 29.47100
C  1.29100 8.66400 30.93500
C  1.51800 7.11700 30.74200
C  1.45700 6.94500 29.21900
C  2.80500 6.51900 31.36700
C  -0.04800 9.12200 31.58300
C  -0.31100 8.62900 33.06300
H  0.87300 8.27900 33.97000
N  1.63400 6.48500 26.13600
C  1.43900 5.45700 27.17800
C  1.52900 4.14700 26.54600
C  1.87700 4.36400 25.23400
C  1.89400 5.84100 24.96700
C  1.16100 2.88700 27.32100
C  2.14900 3.38800 24.15900
O  2.50200 3.65200 23.00800
C  2.20100 1.86800 24.53200
N  1.86600 8.93700 24.37500
C  1.95000 7.90000 23.46500
C  2.01700 8.48700 22.02900
C  1.68200 9.95600 22.19400
C  1.71700 10.17700 23.71600
C  3.31400 8.16600 21.24000
C  0.32800 10.48900 21.64200
C  -0.84300 9.69700 22.19200
N  1.72800 10.55400 26.63100
C  1.80400 11.59300 25.64000
C  2.07700 12.79700 26.35900
C  2.09300 12.44900 27.75600
C  1.87900 11.07800 27.84000
C  2.26900 14.22300 25.86700
C  2.24900 12.93200 29.09400
O  2.51200 14.07700 29.52700
C  1.86800 11.77900 30.04000
C  2.89700 11.72900 31.15500
O  4.07000 11.31400 31.10500
O  2.31700 12.22400 32.26200
C  3.20100 12.16200 33.39600
H  1.25900 4.85700 29.24900
H  2.12000 5.97100 22.85100
H  1.55300 12.34100 23.68900
H  2.02600 9.04500 31.64400
H  0.69500 6.50500 31.11100
H  2.67900 5.48800 31.69800
H  3.07100 7.22700 32.15200
H  3.64900 6.49400 30.67800
H  -0.85300 8.85600 30.89900
H  0.01600 10.20800 31.65400
H  -0.97600 7.76800 32.98400
H  -0.99400 9.37500 33.46900
H  0.90500 3.07100 28.36500
H  1.90500 2.09100 27.33200
H  0.37200 2.32100 26.82600
H  1.26100 1.56200 24.99200
H  2.99700 1.72800 25.26300
H  2.58100 1.25900 23.71100
H  1.27400 7.84000 21.56200
H  2.43900 10.54000 21.67100
H  4.02700 8.98800 21.31100
H  3.01600 7.97700 20.20900
H  3.77000 7.22500 21.54700
H  0.40600 10.54200 20.55600
H  0.17300 11.53700 21.89600
H  -1.23400 10.06200 23.14100
H  -0.75100 8.61300 22.25300
H  -1.75800 9.85800 21.62100
H  1.67900 14.27400 24.95200
H  3.28600 14.45500 25.55300
H  1.94000 15.01600 26.53800
H  0.98300 12.09400 30.59400
H  4.05700 12.80600 33.19200
H  3.53500 11.14300 33.59600
H  2.70800 12.61000 34.25800
Mg 6.22800 53.85600 39.74800
C  5.84400 50.38500 39.55300
C  9.43000 53.52800 38.48300
C  6.27500 57.09300 39.17500
C  2.78100 54.05700 40.60300
N  7.48200 52.18000 39.07800
C  7.12500 50.83100 39.16000
C  8.30500 49.97900 38.53200
C  9.52100 51.00700 38.66300
C  8.77400 52.29700 38.79100
C  10.40400 50.74400 39.95500
C  8.31300 49.49600 37.05000
C  7.30900 50.24700 36.12500
H  7.87000 51.32300 35.25400
N  7.70600 55.19100 39.02400
C  8.94600 54.84500 38.54400
C  9.59000 56.02700 38.02100
C  8.69700 57.11400 38.33900
C  7.54100 56.49500 38.89500
C  10.86800 56.08500 37.27400
C  9.02700 58.54300 38.15500
O  10.14400 58.85700 37.70900
C  8.13100 59.70200 38.51600
N  4.60600 55.42900 39.72700
C  4.98400 56.68800 39.67800
C  3.78300 57.59000 40.15800
C  2.70700 56.62100 40.69600
C  3.42700 55.27200 40.36300
C  4.19900 58.75600 41.21700
C  1.24800 56.76500 40.21100
C  0.19100 56.61300 41.34200
N  4.63900 52.54500 40.15100
C  3.26100 52.74700 40.51200
C  2.68800 51.44800 40.84300
C  3.53600 50.52600 40.39000
C  4.76400 51.22500 40.03500
C  1.39800 51.14400 41.46900
C  3.78300 49.14500 40.26700
O  3.15000 48.17000 40.48900
C  5.26500 49.04700 39.72500
C  5.34100 48.27300 38.42700
O  4.77100 48.60200 37.40200
O  6.24900 47.24500 38.57100
C  6.31300 46.40900 37.34100
H  10.43600 53.39600 38.07900
H  6.19200 58.16900 39.00900
H  1.76600 54.14500 40.99500
H  8.41800 49.08200 39.14100
H  10.28000 50.98300 37.88100
H  11.40400 50.41300 39.67300
H  9.82500 50.12300 40.63800
H  10.61600 51.68800 40.45800
H  8.11600 48.42400 37.00800
H  9.24200 49.44800 36.48100
H  6.50100 50.68000 36.71500
H  6.94700 49.48900 35.43100
H  10.65600 56.57100 36.32100
H  11.29000 55.11200 37.02500
H  11.68300 56.60800 37.77400
H  8.76000 60.57000 38.31900
H  7.89900 59.61900 39.57800
H  7.22800 59.73500 37.90700
H  3.33100 58.04700 39.27700
H  2.69700 56.71400 41.78200
H  5.26300 58.93800 41.07100
H  4.14000 58.36300 42.23200
H  3.62400 59.67500 41.10800
H  0.98800 56.00100 39.47900
H  1.15600 57.64900 39.58100
H  0.65300 56.43300 42.31200
H  -0.45400 55.74400 41.21400
H  -0.44800 57.49300 41.42000
H  0.98800 50.14000 41.36100
H  0.63200 51.85200 41.15300
H  1.58200 51.30600 42.53100
H  5.80800 48.59200 40.55400
H  6.89200 45.50500 37.52800
H  6.71200 46.96500 36.49200
H  5.34900 45.98400 37.06200

