158

Mg 26.13000 1.56900 29.39900
C  28.21200 1.22400 32.15400
C  23.54500 2.05800 31.39100
C  24.12500 1.58500 26.61000
C  28.81300 0.58100 27.25500
N  25.92600 1.56100 31.53600
C  26.90500 1.51000 32.49500
C  26.41700 1.80800 33.90200
C  24.89300 1.86400 33.58700
C  24.73300 1.86500 32.05800
C  23.80700 0.84000 34.15100
C  27.00800 3.13100 34.57300
C  27.66200 2.90400 35.87300
H  27.28600 3.81500 37.03300
N  24.12100 1.85000 29.03700
C  23.25500 1.99900 29.96900
C  21.99500 2.32200 29.38000
C  22.14200 2.05200 28.00100
C  23.48500 1.79400 27.82200
C  20.76100 2.60500 30.15200
C  21.06100 2.03700 26.96400
O  21.25500 1.74500 25.80200
C  19.65700 2.20500 27.39600
N  26.45300 1.03600 27.26900
C  25.47500 1.20800 26.30200
C  26.01400 1.22500 24.82900
C  27.47000 0.77700 25.06700
C  27.64400 0.94500 26.56100
C  25.25800 0.25300 23.86800
C  28.56600 1.53700 24.28100
C  28.52200 1.53800 22.71700
N  28.16600 1.01100 29.55300
C  29.13300 0.65200 28.68300
C  30.37800 0.43700 29.41800
C  29.99000 0.57900 30.73500
C  28.64700 1.00200 30.80600
C  31.79600 0.05900 28.95300
C  30.63000 0.59800 32.01500
O  31.81300 0.31800 32.37900
C  29.43700 0.92900 33.01500
C  29.23100 -0.30700 33.84600
O  29.30600 -1.49300 33.51200
O  29.10000 0.07600 35.12000
C  29.02500 -0.85700 36.22000
H  22.73300 2.21000 32.10500
H  23.51000 1.69500 25.71500
H  29.69000 0.29300 26.67100
H  26.63300 0.91700 34.49200
H  24.50900 2.83100 33.91400
H  23.46900 0.19400 33.34100
H  22.97800 1.34800 34.64300
H  24.29400 0.24900 34.92600
H  26.20600 3.80900 34.86400
H  27.67300 3.65400 33.88500
H  28.73500 2.98900 35.69800
H  27.58500 1.88500 36.25100
H  20.85100 2.72500 31.23200
H  20.19100 1.67600 30.12600
H  20.23800 3.48800 29.78500
H  19.08800 1.94300 26.50400
H  19.56000 3.28200 27.53300
H  19.40200 1.54800 28.22800
H  26.13000 2.25300 24.48500
H  27.52100 -0.30500 24.95000
H  24.89500 -0.56300 24.49300
H  25.87800 -0.18900 23.08800
H  24.45700 0.73000 23.30300
H  29.54600 1.20800 24.62800
H  28.43200 2.59100 24.52400
H  29.42300 1.90700 22.22600
H  27.73900 2.22900 22.40600
H  28.21800 0.54700 22.37900
H  31.89200 0.14500 27.87100
H  32.09900 -0.92600 29.30900
H  32.54500 0.73300 29.37000
H  29.69800 1.81400 33.59600
H  29.37300 -1.86000 35.97100
H  27.95500 -0.86400 36.42800
H  29.69700 -0.50800 37.00400
Mg 47.59500 24.94300 28.03600
C  48.30900 27.17100 30.55300
C  46.47100 22.67900 30.26200
C  46.93000 22.83500 25.45200
C  48.83200 27.26000 25.67500
N  47.23700 25.00200 30.18000
C  47.67000 26.02100 31.02800
C  47.43900 25.58200 32.53100
C  47.06700 24.07000 32.32700
C  46.90900 23.89600 30.83500
C  47.94300 23.01200 32.95700
C  46.32100 26.43700 33.29700
C  46.69700 27.07800 34.59300
H  45.69300 27.07400 35.79100
N  46.92200 23.03700 27.92300
C  46.45700 22.21200 28.96800
C  46.04000 20.96000 28.45000
C  46.39600 20.94300 27.05300
C  46.67800 22.33400 26.75700
C  45.24800 19.99200 29.29900
C  46.42000 19.77800 26.01200
O  46.62500 19.87400 24.77700
C  45.99300 18.38400 26.57200
N  47.82900 25.02600 25.82400
C  47.44600 24.07700 24.97000
C  47.45000 24.59100 23.50300
C  47.93100 26.04500 23.56900
C  48.26000 26.12600 25.11600
C  48.24700 23.68800 22.44100
C  46.91300 27.15800 23.09700
C  47.55400 28.35000 22.28100
N  48.54300 26.73700 28.07400
C  49.01500 27.55500 27.02600
C  49.66800 28.74900 27.59700
C  49.34800 28.61300 28.93900
C  48.60200 27.44000 29.17500
C  50.38500 29.81900 26.90500
C  49.56500 29.30100 30.22200
O  50.11900 30.32500 30.48700
C  49.00600 28.32200 31.28800
C  49.93300 27.79600 32.32500
O  50.82600 27.09600 32.06700
O  49.67000 28.21600 33.61900
C  50.64100 27.79700 34.65600
H  46.19400 21.90600 30.98200
H  46.80000 22.25800 24.53400
H  49.04200 28.01400 24.91400
H  48.41900 25.60300 33.00800
H  46.02700 23.92900 32.62000
H  48.72000 22.77600 32.23000
H  47.28900 22.14500 33.05300
H  48.24800 23.18400 33.99000
H  45.49800 25.76800 33.54800
H  45.93000 27.20600 32.63100
H  46.92200 28.11600 34.34800
H  47.58700 26.57000 34.96500
H  45.76900 19.03400 29.29600
H  44.22700 19.86800 28.93900
H  45.17900 20.22700 30.36100
H  46.66000 18.18900 27.41200
H  46.09600 17.60500 25.81700
H  44.97400 18.38200 26.96000
H  46.42100 24.72900 23.17100
H  48.92900 26.12100 23.13600
H  47.95100 24.07300 21.46600
H  47.98900 22.63800 22.58400
H  49.32700 23.79000 22.54100
H  46.47400 27.63600 23.97300
H  46.09500 26.70900 22.53300
H  48.58500 28.13600 22.00100
H  47.63700 29.14900 23.01700
H  46.86500 28.69100 21.50800
H  51.35300 29.81400 27.40400
H  49.89800 30.79400 26.88500
H  50.51300 29.49300 25.87200
H  48.32100 28.88100 31.92600
H  50.35100 26.79200 34.96400
H  50.54100 28.49300 35.48900
H  51.69400 27.68600 34.40000

