158

Mg 41.13900 9.38400 29.04800
C  43.03000 10.57700 31.66700
C  38.86000 7.96200 31.21500
C  39.39500 7.82600 26.43500
C  43.56700 10.30600 26.84200
N  40.89200 9.36700 31.14900
C  41.83900 9.87900 32.03800
C  41.30000 9.73800 33.42900
C  40.07200 8.77900 33.27900
C  39.93200 8.70100 31.81800
C  40.43300 7.35400 33.88100
C  40.92700 11.09100 34.15900
C  39.96000 10.97300 35.35000
H  40.32000 11.94800 36.54700
N  39.19900 8.24500 28.85500
C  38.46400 7.75400 29.90300
C  37.35700 7.03000 29.36500
C  37.46900 7.09500 27.89200
C  38.74300 7.74400 27.65400
C  36.36000 6.41200 30.23200
C  36.46500 6.72400 26.85100
O  36.60000 6.94600 25.60600
C  35.10300 6.38100 27.30600
N  41.41700 9.14300 26.91000
C  40.65300 8.42500 26.05700
C  41.35600 8.33700 24.62000
C  42.20200 9.63700 24.76600
C  42.49400 9.70800 26.27800
C  42.18900 6.99800 24.40400
C  41.55700 10.99800 24.24000
C  40.97600 12.00000 25.16200
N  42.93500 10.29200 29.16000
C  43.78700 10.62300 28.18000
C  44.88700 11.35400 28.75800
C  44.64000 11.42600 30.13200
C  43.46300 10.71700 30.31700
C  46.04200 11.93800 28.00100
C  45.13400 11.77600 31.48900
O  46.16700 12.35500 31.83200
C  44.08300 11.36300 32.49600
C  44.63100 10.58500 33.59100
O  45.09600 9.48500 33.50200
O  44.39600 11.31500 34.78600
C  44.69500 10.56600 36.05300
H  38.15000 7.51500 31.91400
H  39.00300 7.24600 25.59600
H  44.31200 10.70700 26.15100
H  42.09400 9.12900 33.86100
H  39.10500 9.10000 33.66500
H  40.14600 7.12000 34.90600
H  41.49900 7.12500 33.85900
H  39.89900 6.63800 33.25600
H  40.57800 11.71400 33.33600
H  41.87000 11.47400 34.54800
H  39.89400 9.93700 35.68400
H  38.94400 11.28400 35.10700
H  36.72500 6.16800 31.23000
H  36.03900 5.45300 29.82500
H  35.40700 6.93700 30.29000
H  34.40800 6.31500 26.46900
H  34.76400 7.26100 27.85300
H  34.99200 5.42000 27.80800
H  40.60900 8.45900 23.83600
H  43.16100 9.49700 24.26800
H  41.85200 6.67300 23.41900
H  41.83600 6.28700 25.15100
H  43.26200 7.18400 24.42500
H  40.77800 10.68500 23.54400
H  42.33600 11.49100 23.65900
H  40.69800 11.51700 26.09800
H  40.19000 12.51400 24.60800
H  41.78500 12.70500 25.35500
H  45.72400 12.67300 27.26200
H  46.52700 11.18400 27.38000
H  46.69800 12.54800 28.62200
H  43.68500 12.25900 32.97200
H  43.72000 10.35300 36.49300
H  45.37700 11.19200 36.62900
H  45.17200 9.59900 35.89200
Mg 54.69600 24.55100 44.63700
C  51.95900 26.69000 43.71300
C  53.07700 22.00500 43.04800
C  57.66300 22.91900 44.41300
C  56.24800 27.39900 45.99500
N  52.77200 24.46400 43.53800
C  51.88400 25.41300 43.11600
C  50.84700 24.93400 42.17600
C  50.98500 23.33400 42.37300
C  52.38000 23.22600 43.04000
C  49.81300 22.68700 43.27400
C  51.14800 25.28000 40.62100
C  50.08200 25.97200 39.60900
H  49.70000 25.29000 38.26400
N  55.26100 22.54700 44.08800
C  54.40900 21.65500 43.42100
C  55.24200 20.41400 43.19200
C  56.61100 20.73600 43.55500
C  56.56000 22.12700 44.05600
C  54.62300 19.15800 42.63000
C  57.78300 19.81200 43.45300
O  57.65400 18.73500 42.88000
C  59.13200 20.10500 43.99200
N  56.71400 25.11600 45.15500
C  57.74200 24.25900 44.92600
C  59.06000 24.90600 45.35100
C  58.62300 26.33600 45.79800
C  57.11600 26.28000 45.71400
C  59.87600 24.08500 46.38400
C  59.25700 27.46400 44.94400
C  59.63900 28.61700 45.85100
N  54.22000 26.61500 44.90000
C  54.92900 27.57300 45.58200
C  54.12600 28.78600 45.65200
C  52.97000 28.52900 44.89700
C  53.02700 27.16100 44.50400
C  54.41000 30.02400 46.42900
C  51.78100 29.04200 44.26400
O  51.36100 30.22000 44.14200
C  51.13500 27.86500 43.55800
C  50.76800 28.22900 42.18700
O  51.44400 28.80100 41.32200
O  49.43600 28.14600 42.11700
C  48.68900 28.78500 41.01100
H  52.48100 21.18900 42.63500
H  58.71600 22.63200 44.43300
H  56.72900 28.34000 46.27100
H  49.84400 25.30400 42.38600
H  51.07100 22.79700 41.42800
H  50.14600 22.39300 44.27000
H  49.45800 21.74400 42.85700
H  48.99300 23.40200 43.34200
H  51.44200 24.38900 40.06600
H  52.00800 25.94300 40.71600
H  50.52900 26.95700 39.47700
H  49.17600 26.08000 40.20400
H  53.69600 19.45600 42.14000
H  54.50200 18.40700 43.41100
H  55.28300 18.73500 41.87300
H  59.76200 19.22600 43.85100
H  59.10300 20.48100 45.01400
H  59.46100 20.96400 43.40600
H  59.66900 25.13100 44.47600
H  58.83500 26.49800 46.85500
H  59.27400 23.22900 46.69100
H  60.05700 24.68700 47.27500
H  60.76500 23.65700 45.92000
H  58.58300 27.91600 44.21700
H  60.12400 27.04400 44.43400
H  59.12100 29.53900 45.58600
H  60.70500 28.73300 45.65800
H  59.30700 28.54700 46.88700
H  55.11800 30.61300 45.84700
H  54.85100 29.84000 47.40900
H  53.46700 30.56800 46.47400
H  50.23800 27.92800 44.17400
H  47.94400 28.09100 40.62200
H  49.28900 29.06200 40.14500
H  48.28200 29.69400 41.45500

