158

Mg 35.42300 49.99400 25.73800
C  35.71500 47.97800 28.50400
C  33.77200 52.38800 27.67000
C  34.97300 51.82400 22.90000
C  36.70100 47.39800 23.80300
N  34.73000 50.08500 27.79500
C  35.06000 49.22500 28.74900
C  34.69900 49.78600 30.14700
C  33.94000 51.09600 29.87000
C  34.11700 51.22900 28.32900
C  32.44200 51.10200 30.28100
C  35.88800 50.02500 31.14000
C  35.51800 49.73300 32.62900
H  34.07400 49.71100 33.06400
N  34.50300 51.91600 25.33600
C  33.90300 52.71800 26.28400
C  33.59900 53.98100 25.60200
C  33.81000 53.79200 24.18400
C  34.44200 52.47800 24.07600
C  33.04900 55.16400 26.38300
C  33.60800 54.76800 23.07900
O  34.00400 54.60300 21.91700
C  32.73400 55.95500 23.25800
N  35.68900 49.59900 23.64600
C  35.51000 50.58700 22.70700
C  36.11900 50.10100 21.40500
C  36.76500 48.76200 21.61100
C  36.34500 48.55900 23.04200
C  35.20600 50.03100 20.14000
C  38.32700 48.77900 21.42600
C  39.12600 49.49900 22.40500
N  35.87400 48.04700 26.00400
C  36.33600 47.06600 25.09000
C  36.51300 45.85800 25.74200
C  36.30200 46.13900 27.11900
C  35.93000 47.48700 27.20800
C  37.22900 44.71600 25.14800
C  36.43600 45.62200 28.45800
O  36.76800 44.52500 28.85900
C  36.05600 46.78000 29.43200
C  34.96800 46.38100 30.26400
O  33.77800 46.54500 30.02600
O  35.47700 45.87900 31.45200
C  34.52900 45.50000 32.48900
H  33.32500 53.19200 28.25700
H  35.05100 52.41600 21.98500
H  37.21100 46.69800 23.13800
H  33.96200 49.05000 30.47000
H  34.44600 51.96900 30.28000
H  31.76600 50.97900 29.43400
H  32.27700 52.11800 30.63900
H  32.24300 50.43100 31.11600
H  36.35300 51.00600 31.04000
H  36.60500 49.32000 30.72000
H  36.07100 50.40800 33.28200
H  35.87400 48.72400 32.83800
H  33.57700 55.19500 27.33600
H  31.96400 55.14000 26.49300
H  33.42400 56.00700 25.80200
H  32.08200 55.86500 24.12600
H  32.04300 56.07200 22.42300
H  33.44000 56.77600 23.38400
H  36.78300 50.95000 21.24400
H  36.43100 47.93200 20.98900
H  34.69200 49.07000 20.11800
H  35.84100 50.11400 19.25700
H  34.47300 50.83700 20.11000
H  38.53600 49.14000 20.41900
H  38.69200 47.75700 21.32500
H  39.35500 48.74900 23.16200
H  38.73400 50.39600 22.88300
H  40.14000 49.66100 22.03800
H  38.06300 45.13200 24.58200
H  36.69500 44.05900 24.46200
H  37.66500 44.09300 25.92900
H  36.85300 46.95100 30.15600
H  34.85700 44.62400 33.04800
H  33.53300 45.23400 32.13600
H  34.46200 46.25400 33.27300
Mg 8.76500 47.13100 25.28800
C  6.45700 46.92100 28.06800
C  11.18200 47.86800 27.52600
C  10.82400 47.27200 22.69100
C  6.06700 46.89800 23.14300
N  8.81300 47.58600 27.55500
C  7.80200 47.21300 28.46300
C  8.26300 47.56900 29.90200
C  9.77300 47.91900 29.69300
C  9.95100 47.84300 28.16600
C  10.36500 49.21000 30.38000
C  8.04600 46.44700 30.96200
C  8.95800 46.42600 32.21500
H  8.28100 46.02100 33.51200
N  10.72300 47.61700 25.07400
C  11.60500 47.83900 26.13900
C  13.00600 47.97700 25.58500
C  12.90000 47.81900 24.20600
C  11.45400 47.58300 23.89900
C  14.16600 48.28700 26.42600
C  13.94200 47.71900 23.16200
O  13.75200 47.57300 21.91000
C  15.31400 47.58500 23.60800
N  8.44700 47.09700 23.16100
C  9.50000 47.11700 22.32200
C  9.02300 46.91400 20.85000
C  7.47700 46.67500 21.03000
C  7.27100 46.91000 22.51900
C  9.46800 48.06800 19.92200
C  7.00000 45.33600 20.43100
C  5.59800 45.47000 19.85600
N  6.72300 46.91200 25.52800
C  5.78000 46.78400 24.53700
C  4.47600 46.46300 25.11500
C  4.68300 46.47100 26.49600
C  6.07600 46.77500 26.66500
C  3.15700 46.20800 24.36700
C  4.10100 46.37500 27.81600
O  2.90300 46.05300 28.03200
C  5.21700 46.66100 28.89300
C  5.25700 45.44400 29.75000
O  5.83700 44.42500 29.51600
O  4.40000 45.65300 30.78400
C  4.46500 44.60700 31.78600
H  11.99100 48.03500 28.24100
H  11.43500 47.26700 21.78600
H  5.19800 46.97900 22.48600
H  7.77000 48.49800 30.18800
H  10.32600 47.00900 29.92300
H  10.52800 49.91800 29.56700
H  11.24600 49.15700 31.02100
H  9.60400 49.67900 31.00400
H  8.05300 45.45500 30.51200
H  7.04800 46.69600 31.32500
H  9.34600 47.43600 32.34600
H  9.68900 45.63400 32.04900
H  14.98300 47.56800 26.48800
H  13.83000 48.45900 27.44900
H  14.54900 49.26000 26.11800
H  15.78200 48.42300 24.12600
H  15.83500 47.47700 22.65700
H  15.47700 46.68800 24.20600
H  9.41400 45.97100 20.46700
H  6.90800 47.44600 20.51000
H  9.87300 47.61300 19.01800
H  10.29500 48.60100 20.39100
H  8.68200 48.79800 19.72700
H  7.10700 44.54300 21.17000
H  7.54100 45.09500 19.51600
H  5.71700 45.10200 18.83700
H  5.20000 46.48500 19.85800
H  4.89100 44.78600 20.32700
H  2.60300 47.12300 24.15800
H  2.52300 45.57800 24.99100
H  3.28900 45.72200 23.40000
H  4.89800 47.53100 29.46700
H  4.19100 45.17000 32.67800
H  5.47100 44.20500 31.90500
H  3.79300 43.79600 31.50300

