158

Mg 24.31300 -8.33700 47.44000
C  26.84700 -6.31600 46.51800
C  22.39100 -7.14500 44.90300
C  22.16900 -11.11400 47.74100
C  26.62100 -10.27800 49.33600
N  24.58500 -6.91200 45.91000
C  25.67200 -6.11400 45.75800
C  25.52300 -5.07600 44.64000
C  24.08300 -5.41100 44.08400
C  23.60800 -6.55000 45.02400
C  23.15300 -4.19100 43.92800
C  26.62800 -5.27300 43.50600
C  27.12800 -3.93900 42.90700
H  26.95700 -3.61800 41.43900
N  22.42500 -8.88200 46.66800
C  21.79200 -8.17100 45.64500
C  20.47800 -8.74900 45.42900
C  20.36600 -9.93500 46.27100
C  21.69900 -9.98400 46.97800
C  19.63600 -8.29200 44.28800
C  19.15500 -10.86800 46.35200
O  18.12300 -10.51500 45.79100
C  19.10100 -11.98100 47.13600
N  24.27800 -10.46500 48.45800
C  23.31000 -11.38700 48.48700
C  23.66100 -12.70900 49.19400
C  25.13600 -12.24400 49.83200
C  25.37300 -10.87200 49.21000
C  22.67400 -13.10700 50.29200
C  26.27700 -13.29900 49.52200
C  27.30900 -13.59600 50.53000
N  26.34100 -8.40900 47.82000
C  27.09500 -9.13400 48.71600
C  28.27000 -8.44300 48.93900
C  28.27100 -7.29400 48.09400
C  27.07400 -7.35200 47.40300
C  29.44100 -8.82400 49.91200
C  28.99300 -6.13100 47.66000
O  30.12100 -5.71200 48.07100
C  28.08700 -5.40600 46.56300
C  27.74700 -4.04900 47.03900
O  27.45100 -3.71000 48.15300
O  27.92700 -3.19400 46.01400
C  27.65000 -1.74900 46.24600
H  21.79300 -6.74300 44.08300
H  21.50200 -11.97800 47.78500
H  27.39400 -10.65200 50.01000
H  25.61400 -4.10100 45.11900
H  24.19400 -5.86500 43.09900
H  22.34100 -4.44000 43.24500
H  23.84200 -3.48300 43.46800
H  22.78000 -3.77900 44.86600
H  26.29000 -5.89100 42.67500
H  27.45600 -5.89300 43.85100
H  28.21000 -4.00400 43.02800
H  26.71600 -3.10300 43.47200
H  18.59100 -8.58200 44.17300
H  20.16100 -8.62600 43.39300
H  19.82800 -7.23000 44.44400
H  19.83700 -12.69800 46.77200
H  18.10600 -12.41500 47.23600
H  19.37400 -11.65700 48.14000
H  23.80500 -13.56700 48.53700
H  24.98300 -12.03400 50.89000
H  22.64200 -14.17400 50.07200
H  21.70800 -12.60400 50.23600
H  23.09400 -13.06000 51.29600
H  26.84100 -13.09900 48.61100
H  25.80300 -14.27300 49.40400
H  27.23800 -14.66900 50.70900
H  27.11100 -13.00200 51.42300
H  28.31100 -13.44100 50.13100
H  29.90200 -9.74800 49.56400
H  29.04400 -9.05800 50.90000
H  30.10500 -7.96400 50.00400
H  28.76900 -5.22400 45.73200
H  26.71500 -1.63400 46.79300
H  27.58800 -1.19900 45.30700
H  28.51400 -1.45500 46.84300
Mg 52.88300 24.18100 45.45700
C  50.08800 26.33500 44.76600
C  51.14000 21.78200 43.88700
C  55.65600 22.53600 45.53400
C  54.52000 27.11200 46.58200
N  50.89300 24.22100 44.19700
C  49.97800 25.12900 44.04300
C  48.74400 24.51200 43.26800
C  48.89900 23.01100 43.52300
C  50.40700 22.98500 43.94800
C  48.12000 22.35000 44.60500
C  48.75400 24.93700 41.76200
C  47.30100 25.04200 41.16500
H  46.89700 23.87300 40.23400
N  53.34800 22.41000 44.76500
C  52.51500 21.50500 44.21200
C  53.22700 20.25900 44.09400
C  54.55900 20.51300 44.55400
C  54.58200 21.93700 44.98900
C  52.65900 19.04700 43.37100
C  55.72600 19.48200 44.52500
O  55.51600 18.33300 44.06500
C  57.15500 19.80900 44.87400
N  54.85200 24.79800 45.86400
C  55.78500 23.87600 45.98000
C  56.95300 24.39200 46.85400
C  56.73000 25.94900 46.73600
C  55.27400 25.94300 46.38500
C  57.04300 23.81700 48.31400
C  57.54300 26.63800 45.62300
C  58.49800 27.79300 45.98200
N  52.39200 26.28200 45.87400
C  53.16100 27.32700 46.37100
C  52.29400 28.50300 46.56500
C  51.09200 28.13300 45.94900
C  51.21700 26.76600 45.51600
C  52.74400 29.89900 47.13300
C  49.73500 28.57300 45.68200
O  49.20600 29.57900 46.08100
C  49.13700 27.58300 44.72300
C  49.04800 28.25800 43.44400
O  49.93600 28.49100 42.67800
O  47.66300 28.35100 43.25400
C  47.27100 28.84400 41.91900
H  50.55100 20.99100 43.41700
H  56.50300 21.90800 45.81800
H  55.14400 27.96000 46.87400
H  47.73400 24.77900 43.57800
H  48.70600 22.48100 42.59000
H  47.42500 23.05900 45.05600
H  48.81100 21.92100 45.33000
H  47.59700 21.47900 44.21000
H  49.28800 24.24800 41.10700
H  49.24600 25.90800 41.81100
H  47.38200 25.89200 40.48800
H  46.52000 25.17200 41.91400
H  52.96000 18.90200 42.33300
H  51.58900 19.25700 43.34500
H  52.77600 18.07000 43.84000
H  57.84200 19.07100 44.46100
H  57.06500 19.82500 45.96000
H  57.43000 20.75600 44.40900
H  57.88000 24.12000 46.34900
H  56.95400 26.31000 47.73900
H  56.43000 22.92100 48.42000
H  56.76800 24.61500 49.00400
H  58.10200 23.60900 48.46400
H  56.90300 27.06900 44.85300
H  58.00900 25.82600 45.06400
H  58.41900 27.92800 47.06000
H  58.31000 28.77100 45.53900
H  59.53700 27.50200 45.82800
H  52.06700 30.26000 47.90800
H  52.75400 30.59100 46.29000
H  53.75000 29.83100 47.54700
H  48.10600 27.28200 44.91100
H  47.07400 29.91400 41.99000
H  46.33600 28.35200 41.65000
H  48.00800 28.50200 41.19200

