158

Mg 45.71300 4.96800 47.11500
C  43.64100 7.72300 46.66300
C  43.07800 2.90100 46.35200
C  47.98600 2.35000 46.95500
C  48.45800 7.16800 47.34000
N  43.75600 5.30600 46.33700
C  43.09100 6.51800 46.29900
C  41.58800 6.28600 45.80900
C  41.32900 4.79300 46.06600
C  42.81700 4.25400 46.34000
C  40.34400 4.55500 47.20300
C  41.33400 6.74900 44.34200
C  39.84200 7.21200 43.96900
H  39.53800 7.72900 42.57100
N  45.48200 2.90000 46.77500
C  44.31800 2.19700 46.59100
C  44.55500 0.78300 46.38700
C  45.98700 0.59000 46.48200
C  46.62500 1.97000 46.72100
C  43.53400 -0.27000 45.98600
C  46.70800 -0.66700 46.17900
O  46.20700 -1.75100 46.21700
C  48.15200 -0.69300 45.73300
N  47.94000 4.76400 47.24100
C  48.55900 3.56500 47.24200
C  50.07000 3.70100 47.32600
C  50.17600 5.32000 47.33400
C  48.77600 5.79600 47.35400
C  50.65000 2.94800 48.51600
C  50.87500 5.94300 46.10800
C  52.18900 6.73200 46.35200
N  46.01400 7.00700 47.11200
C  47.13200 7.74600 47.31100
C  46.84400 9.15000 47.29100
C  45.40800 9.18800 47.11600
C  45.02600 7.85900 46.97100
C  47.78200 10.32900 47.42000
C  44.24200 10.04900 46.93600
O  44.16100 11.23300 47.10100
C  43.08600 9.19300 46.55000
C  41.99600 9.29800 47.59800
O  41.94400 8.66200 48.66400
O  41.01200 10.18700 47.13700
C  39.90500 10.59900 48.04700
H  42.14400 2.37500 46.14600
H  48.66300 1.50200 46.83700
H  49.20900 7.95100 47.21400
H  41.06200 6.94800 46.49600
H  40.82000 4.25400 45.26800
H  39.62600 5.37600 47.20900
H  40.75500 4.44600 48.20600
H  39.75100 3.69500 46.89100
H  41.63500 5.90700 43.71800
H  41.95900 7.63300 44.21700
H  39.68500 8.10200 44.57800
H  39.10200 6.46100 44.24500
H  43.58600 -1.22500 46.50900
H  43.53300 -0.38400 44.90200
H  42.55500 0.17000 46.17700
H  48.34800 -1.61300 45.18200
H  48.60500 -0.59600 46.72000
H  48.50100 0.17300 45.17100
H  50.62300 3.27700 46.48700
H  50.62700 5.53700 48.30300
H  49.88800 2.51200 49.16100
H  51.41600 3.45000 49.10600
H  51.21100 2.10100 48.12000
H  50.22000 6.70500 45.68500
H  50.99600 5.20700 45.31400
H  52.31700 6.62000 47.42900
H  52.05200 7.80300 46.20200
H  53.02900 6.37700 45.75400
H  47.34100 11.26900 47.08700
H  48.66100 10.24800 46.78100
H  48.16500 10.25700 48.43800
H  42.60800 9.26000 45.57300
H  38.98000 10.11100 47.74100
H  39.72300 11.65900 47.87300
H  40.14300 10.38700 49.08900
Mg 26.77000 49.47600 25.70300
C  24.80000 50.58700 28.25400
C  29.08900 48.59900 27.99900
C  28.88300 48.80300 23.17300
C  24.46400 50.75500 23.43000
N  26.87700 49.65500 27.88900
C  25.97400 50.09300 28.76200
C  26.33200 49.72000 30.19100
C  27.83600 49.48400 30.03600
C  27.95100 49.16400 28.52400
C  28.79100 50.58600 30.46100
C  25.45400 48.59400 30.92300
C  24.85900 48.84100 32.34700
H  25.76600 49.52700 33.39600
N  28.71500 48.72200 25.62300
C  29.54100 48.38900 26.71900
C  30.79600 47.75600 26.25000
C  30.81700 47.83300 24.80000
C  29.47000 48.42000 24.42800
C  31.95200 47.26200 27.10500
C  31.90900 47.54700 23.76900
O  31.67900 47.79100 22.60200
C  33.21500 46.96900 24.28500
N  26.69700 49.74600 23.59400
C  27.69300 49.43200 22.76500
C  27.30500 49.63400 21.28800
C  25.84700 50.17800 21.37500
C  25.59800 50.18100 22.89700
C  28.29300 50.49200 20.43900
C  24.65800 49.41500 20.62400
C  24.00100 50.01500 19.40400
N  25.03700 50.53500 25.81000
C  24.17700 50.97300 24.76500
C  23.07500 51.70000 25.33300
C  23.27500 51.53400 26.74400
C  24.45700 50.78100 26.92800
C  21.92200 52.23000 24.59500
C  22.61900 51.80300 28.02400
O  21.57800 52.39000 28.33100
C  23.62900 51.15800 29.01800
C  23.97400 52.14400 30.11900
O  24.37300 53.27900 29.81300
O  23.89200 51.54700 31.40000
C  24.27400 52.35400 32.55800
H  29.83000 48.31200 28.74700
H  29.47700 48.64100 22.27100
H  23.78500 51.30600 22.77600
H  26.31000 50.68200 30.70300
H  28.07200 48.58500 30.60700
H  29.31900 51.01200 29.60900
H  29.61600 50.06700 30.95000
H  28.23900 51.37600 30.97100
H  26.01400 47.65900 30.89700
H  24.59300 48.36900 30.29500
H  24.79900 47.78200 32.59900
H  23.88400 49.31900 32.25800
H  31.85100 46.18400 26.97700
H  31.75600 47.62700 28.11200
H  32.95100 47.62000 26.85300
H  33.05300 46.03000 24.81500
H  33.76900 47.70600 24.86700
H  33.95200 46.65400 23.54600
H  27.28900 48.62100 20.88500
H  25.77800 51.20900 21.02700
H  29.17400 50.85700 20.96900
H  27.75100 51.40300 20.18600
H  28.57300 49.92800 19.54900
H  23.89000 49.28100 21.38500
H  25.00800 48.41200 20.38000
H  24.12000 49.25900 18.62700
H  24.50800 50.94100 19.13300
H  22.97000 50.17200 19.72000
H  21.63600 51.69600 23.68900
H  22.15800 53.26300 24.34100
H  21.00700 52.25800 25.18600
H  23.07900 50.36900 29.53100
H  24.16200 51.65400 33.38500
H  23.51500 53.13600 32.52600
H  25.29400 52.73800 32.55400

