158

Mg 45.60400 24.96400 28.11600
C  46.88200 27.35300 30.54800
C  44.73500 23.07000 30.67700
C  44.79800 22.80100 25.84200
C  47.05600 27.09400 25.62600
N  45.68900 25.29200 30.28800
C  46.16500 26.30300 31.08400
C  46.12600 25.95500 32.61600
C  45.51700 24.51400 32.61300
C  45.26200 24.23100 31.10100
C  46.51800 23.50000 33.30700
C  45.17800 26.94000 33.40200
C  45.74900 27.47600 34.84100
H  44.69600 27.17400 35.99000
N  44.85100 23.13100 28.27000
C  44.59700 22.48800 29.41400
C  44.15200 21.10100 29.08600
C  44.19300 20.98800 27.66600
C  44.63100 22.32500 27.19100
C  43.84500 20.02800 30.07000
C  43.90800 19.73800 26.77600
O  44.06900 19.85000 25.60000
C  43.32300 18.47000 27.40800
N  46.07400 24.99900 25.99000
C  45.41300 23.96300 25.40200
C  45.49100 24.13600 23.83000
C  46.04600 25.62200 23.72600
C  46.42800 25.94500 25.14400
C  46.31800 23.00900 23.17400
C  45.08100 26.75400 23.16900
C  45.13800 26.96700 21.62200
N  46.73500 26.89700 28.04700
C  47.30000 27.51800 26.99300
C  48.10000 28.64700 27.47900
C  47.90300 28.68300 28.86900
C  47.13500 27.56300 29.17200
C  48.96700 29.43200 26.73100
C  48.32600 29.27800 30.09200
O  49.08100 30.19800 30.37300
C  47.53500 28.55100 31.22000
C  48.58600 28.27600 32.30700
O  49.40000 27.35200 32.30600
O  48.51300 29.19200 33.27500
C  49.19700 28.90900 34.49300
H  44.49100 22.45700 31.54700
H  44.58800 22.05000 25.07800
H  47.49900 27.72000 24.84800
H  47.13600 26.03400 33.02000
H  44.53400 24.47900 33.08200
H  46.78400 22.68900 32.62900
H  46.13900 22.97300 34.18400
H  47.40600 23.99500 33.69800
H  44.23900 26.44700 33.65600
H  44.84000 27.75300 32.76000
H  46.02400 28.53100 34.83600
H  46.54100 26.78800 35.13700
H  44.33300 20.23600 31.02200
H  44.30600 19.11400 29.69600
H  42.78700 19.77200 30.13300
H  42.64400 18.63100 28.24500
H  44.20000 17.89500 27.70500
H  42.83400 17.85600 26.65200
H  44.45200 24.09700 23.50200
H  46.94700 25.58800 23.11300
H  45.61600 22.35300 22.65800
H  46.73400 22.39500 23.97300
H  47.15400 23.43100 22.61600
H  45.34000 27.73900 23.56000
H  44.11800 26.42800 23.56100
H  45.57700 26.11400 21.10500
H  45.61400 27.85900 21.21400
H  44.10300 26.84800 21.30100
H  49.89000 28.86000 26.63900
H  49.15600 30.38100 27.23300
H  48.45300 29.57900 25.78100
H  46.79600 29.26700 31.58000
H  48.96100 27.97400 35.00200
H  49.11300 29.66700 35.27000
H  50.23100 28.69600 34.22400
Mg 30.90100 59.23900 39.30200
C  28.26500 57.08800 38.27300
C  33.03500 56.66200 38.56100
C  33.40700 61.40600 39.82200
C  28.62300 61.73300 39.59400
N  30.60700 57.14900 38.55400
C  29.51500 56.49600 38.18200
C  29.71400 54.99600 37.91000
C  31.28200 54.83300 38.26100
C  31.69100 56.32600 38.44100
C  31.50100 54.11800 39.64800
C  29.34500 54.67800 36.38200
C  29.71400 55.63100 35.15600
H  28.60000 55.90100 34.12100
N  32.90100 59.05800 39.22400
C  33.61700 57.91100 38.93400
C  35.07500 58.14300 38.98200
C  35.23100 59.50300 39.45300
C  33.83600 60.09200 39.50200
C  36.05300 57.13300 38.45100
C  36.59200 60.13900 39.77800
O  37.54300 59.47400 40.02400
C  36.72600 61.64300 40.05400
N  31.01800 61.29400 39.65900
C  32.15000 62.01200 39.87400
C  31.89000 63.51600 39.95100
C  30.37000 63.54000 39.95000
C  29.95200 62.11500 39.65400
C  32.47600 64.11600 41.24100
C  29.86200 64.48000 38.83100
C  28.41600 65.03100 39.14700
N  28.84600 59.43800 39.09400
C  28.05000 60.50500 39.29400
C  26.64600 60.18900 39.08700
C  26.70400 58.84700 38.71900
C  28.06400 58.41400 38.71200
C  25.55200 61.09300 39.29900
C  25.89000 57.69900 38.32500
O  24.66700 57.66600 38.16800
C  26.88400 56.52000 38.06100
C  26.46000 55.27600 38.85200
O  26.95200 54.95500 39.98700
O  25.36400 54.67300 38.29700
C  24.58200 53.77000 39.07300
H  33.74600 55.83500 38.50600
H  34.11600 62.19400 40.08300
H  27.79400 62.43600 39.69400
H  29.13100 54.36300 38.58000
H  31.78600 54.30700 37.44900
H  31.98400 54.80700 40.34100
H  32.25600 53.34400 39.51200
H  30.53600 53.73800 39.98200
H  28.26100 54.56600 36.34300
H  29.66700 53.66500 36.13900
H  30.54200 55.10200 34.68500
H  30.12400 56.61700 35.37400
H  36.54900 57.59400 37.59700
H  35.62400 56.23100 38.01600
H  36.79000 56.93500 39.23000
H  37.74900 61.94900 40.27000
H  36.13800 61.74400 40.96600
H  36.33300 62.08300 39.13700
H  32.44500 64.00200 39.14800
H  29.89600 63.76700 40.90500
H  33.17300 64.93800 41.07800
H  32.92000 63.40400 41.93600
H  31.72500 64.71600 41.75500
H  29.79200 63.92700 37.89400
H  30.54900 65.31600 38.70100
H  28.03300 64.67700 40.10400
H  27.73000 64.77200 38.34000
H  28.41500 66.10400 39.34000
H  24.59200 60.61100 39.11600
H  25.71200 61.75800 38.45000
H  25.62100 61.53700 40.29200
H  26.68900 56.45000 36.99100
H  25.10500 52.84600 39.32100
H  23.69700 53.58800 38.46300
H  24.25400 54.38400 39.91300

