158

Mg 47.66200 44.95400 42.94700
C  44.44300 43.98600 43.05300
C  48.48800 41.57100 42.21700
C  50.68000 45.83800 42.10900
C  46.66300 48.23600 42.96100
N  46.50600 43.09500 42.45600
C  45.22100 42.92600 42.72000
C  44.82800 41.46400 42.62300
C  46.14100 40.74600 42.37100
C  47.12800 41.85700 42.31500
C  46.49300 39.65800 43.44400
C  43.74900 41.18600 41.52100
C  43.50300 42.10900 40.31600
H  43.29500 41.56200 38.88800
N  49.37200 43.85700 42.39400
C  49.58300 42.49600 42.15900
C  50.94200 42.18700 41.86500
C  51.58800 43.41700 41.71700
C  50.56000 44.43700 42.10600
C  51.52700 40.77600 41.60700
C  53.03900 43.61900 41.17700
O  53.73600 42.69900 40.80500
C  53.58700 44.99800 40.96500
N  48.51800 46.70000 42.54700
C  49.83700 46.87700 42.37800
C  50.28400 48.30700 42.52200
C  48.94900 49.09500 42.52100
C  47.97500 47.90900 42.69500
C  51.13600 48.59600 43.75800
C  48.58400 49.84900 41.20900
C  48.71300 51.40100 41.20100
N  45.91800 45.97000 43.02300
C  45.64700 47.28500 43.07100
C  44.20700 47.48800 43.30000
C  43.76600 46.14400 43.39400
C  44.81800 45.30400 43.16900
C  43.41500 48.72700 43.49800
C  42.53900 45.39200 43.67900
O  41.42400 45.80600 44.05800
C  42.90000 43.92500 43.45300
C  42.69100 43.16400 44.72900
O  43.40800 43.24700 45.66100
O  41.58200 42.43800 44.68400
C  41.20900 41.77300 45.89700
H  48.59700 40.49000 42.11200
H  51.70600 46.19900 42.00900
H  46.50800 49.31600 42.94000
H  44.45700 41.12900 43.59100
H  46.30700 40.23300 41.42400
H  45.58500 39.07000 43.57500
H  46.69400 40.18400 44.37800
H  47.39000 39.05400 43.30700
H  42.80500 41.03800 42.04600
H  44.08000 40.23700 41.10100
H  44.11000 43.00400 40.18100
H  42.47400 42.41500 40.50600
H  52.06400 40.42700 42.49000
H  52.15900 40.69400 40.72300
H  50.73200 40.03200 41.57200
H  52.91400 45.57200 40.32700
H  54.61300 45.06300 40.60400
H  53.61900 45.46600 41.94900
H  50.89800 48.58400 41.66500
H  48.80900 49.75200 43.38000
H  51.31600 47.65000 44.26900
H  50.54700 49.09000 44.53000
H  52.10800 49.03300 43.53000
H  47.52000 49.72400 41.00700
H  49.04500 49.46900 40.29700
H  49.46300 51.73800 40.48400
H  48.96700 51.77900 42.19200
H  47.73500 51.82400 40.97000
H  43.33500 49.20900 42.52300
H  43.89500 49.35800 44.24600
H  42.41800 48.45700 43.84600
H  42.20200 43.43400 42.77600
H  40.53800 40.93600 45.70300
H  40.71500 42.49500 46.54700
H  42.07000 41.32500 46.39300
Mg -4.74300 25.07700 25.67200
C  -3.57900 26.95100 28.40500
C  -5.90400 22.81800 28.12300
C  -5.88500 23.36300 23.21200
C  -3.19500 27.39000 23.59400
N  -4.79800 24.95600 28.02900
C  -4.35200 25.89800 28.85900
C  -4.87600 25.67100 30.32700
C  -5.35700 24.17100 30.24900
C  -5.27000 23.90600 28.74600
C  -4.57900 23.10100 31.08300
C  -5.85500 26.74900 30.71600
C  -5.76700 27.32800 32.18300
H  -5.31700 26.31500 33.22200
N  -5.81900 23.36200 25.61500
C  -6.12600 22.54200 26.73900
C  -6.98900 21.38700 26.15700
C  -7.10100 21.64600 24.77900
C  -6.14300 22.76100 24.45300
C  -7.67400 20.34300 26.98200
C  -7.92900 20.89300 23.68900
O  -7.98100 21.13000 22.50800
C  -8.78100 19.71100 24.11700
N  -4.57000 25.36700 23.73200
C  -5.19900 24.53000 22.85600
C  -4.93400 24.91900 21.37900
C  -4.26900 26.37200 21.53400
C  -3.93700 26.36100 23.07600
C  -4.14400 23.82700 20.58200
C  -5.07600 27.62300 21.20500
C  -5.79900 27.55100 19.83300
N  -3.47900 26.79800 25.86900
C  -2.91600 27.57600 24.96900
C  -2.16300 28.63500 25.64000
C  -2.35500 28.35100 26.99200
C  -3.16900 27.24600 27.07000
C  -1.47600 29.75800 24.93600
C  -2.15400 28.96000 28.26100
O  -1.56000 29.98400 28.54900
C  -2.88900 28.03800 29.29900
C  -1.88800 27.48100 30.25700
O  -1.09700 26.60600 29.93000
O  -2.10500 28.00400 31.50400
C  -1.36900 27.35900 32.52200
H  -6.35500 22.07900 28.78700
H  -6.24500 22.86900 22.30700
H  -2.72500 28.13300 22.94700
H  -4.00600 25.79500 30.97100
H  -6.41100 24.11200 30.52000
H  -5.24000 22.43400 31.63500
H  -3.80700 23.47200 31.75700
H  -4.07900 22.38800 30.42700
H  -6.81600 26.24200 30.62800
H  -5.88700 27.54500 29.97200
H  -6.78900 27.59900 32.45000
H  -5.20300 28.26000 32.20600
H  -7.67700 19.36800 26.49400
H  -8.75400 20.47900 27.03700
H  -7.25400 20.18200 27.97400
H  -8.13800 18.86900 24.37400
H  -9.42500 19.46300 23.27300
H  -9.42300 20.02600 24.94000
H  -5.90200 25.19000 20.95700
H  -3.34100 26.58000 21.00100
H  -3.89700 22.95500 21.18800
H  -3.32100 24.09800 19.92100
H  -4.86100 23.29400 19.95700
H  -4.32500 28.40000 21.34300
H  -5.75400 27.79700 22.04100
H  -5.48500 26.70200 19.22500
H  -5.59800 28.45000 19.25100
H  -6.87200 27.40500 19.95900
H  -1.40200 29.56900 23.86500
H  -0.52900 29.79200 25.47300
H  -2.07800 30.66600 24.95000
H  -3.70200 28.50700 29.85300
H  -0.30600 27.58400 32.43000
H  -1.36600 26.27100 32.44900
H  -1.78600 27.77500 33.43900

