158

Mg 49.39000 45.01700 43.50400
C  45.88300 45.33700 42.73000
C  49.28800 41.76800 42.74800
C  52.66200 45.27400 43.24800
C  49.24400 48.71300 43.84800
N  47.76600 43.77500 42.80900
C  46.44100 44.05400 42.61400
C  45.66100 42.73000 42.44600
C  46.73600 41.62100 42.85500
C  48.05900 42.38600 42.76400
C  46.65900 40.86100 44.15500
C  45.03300 42.47900 41.03900
C  45.69600 43.14700 39.83500
H  45.62700 42.55800 38.39900
N  50.83800 43.69600 43.00300
C  50.61300 42.35800 42.87200
C  51.90600 41.70400 42.79700
C  52.90400 42.69500 42.80300
C  52.12900 43.99700 43.04400
C  52.10000 40.23300 42.65000
C  54.36900 42.51400 42.67200
O  54.83000 41.39600 42.60700
C  55.40800 43.66900 42.62300
N  50.77200 46.76400 43.39200
C  52.07700 46.53300 43.35400
C  52.87600 47.84800 43.58700
C  51.80100 48.96300 43.68400
C  50.49500 48.12900 43.64900
C  53.92600 47.80700 44.73300
C  51.83100 50.03600 42.51700
C  52.02500 51.50500 42.86800
N  47.86400 46.67000 43.58100
C  48.01700 48.08000 43.75500
C  46.73500 48.65400 43.70500
C  45.85500 47.67000 43.30100
C  46.64400 46.48300 43.17000
C  46.43700 50.11400 43.92500
C  44.51000 47.38000 42.87000
O  43.58600 48.14100 42.86900
C  44.48800 45.88600 42.36600
C  43.46100 45.09800 43.04600
O  42.72800 44.28200 42.50600
O  43.43100 45.47300 44.37200
C  42.26900 45.02700 45.13200
H  49.29800 40.67800 42.80700
H  53.75100 45.32200 43.31800
H  49.29200 49.78700 44.04000
H  44.98400 42.69200 43.29900
H  46.77800 40.93900 42.00500
H  46.54800 39.81900 43.85700
H  45.76200 41.10600 44.72200
H  47.50900 41.02700 44.81700
H  44.00700 42.84700 41.01500
H  45.00600 41.41000 40.82500
H  46.74600 43.34500 40.04700
H  45.12800 44.07100 39.72600
H  52.69100 39.86900 43.49000
H  52.58400 40.16500 41.67500
H  51.12700 39.74500 42.69800
H  55.22100 44.27900 41.73900
H  56.36800 43.17000 42.49000
H  55.42300 44.18300 43.58400
H  53.37000 48.01200 42.62900
H  51.75000 49.50100 44.63000
H  54.95800 47.83600 44.38100
H  53.95300 46.85400 45.26200
H  53.73000 48.57100 45.48500
H  50.89100 49.98000 41.96600
H  52.70500 49.89400 41.88100
H  51.20900 52.01800 42.36000
H  52.98900 51.90300 42.55300
H  51.98500 51.59100 43.95400
H  45.37700 50.34000 44.04200
H  46.95200 50.80600 43.26000
H  46.92000 50.44100 44.84600
H  44.25800 45.93300 41.30200
H  42.59700 45.04100 46.17200
H  42.07300 43.99900 44.82700
H  41.43400 45.72800 45.16800
Mg 17.34500 51.14700 26.56600
C  19.42800 49.83600 29.13000
C  15.12100 52.13100 29.00800
C  15.47100 52.37600 24.18600
C  19.61300 49.92100 24.20600
N  17.27600 51.00900 28.85400
C  18.24800 50.44000 29.62100
C  17.74900 50.53000 31.10400
C  16.23100 50.90300 30.97300
C  16.19100 51.41500 29.53600
C  15.17800 49.80400 31.28200
C  18.63000 51.39900 32.02900
C  18.68900 50.95300 33.51500
H  17.82100 51.50700 34.61500
N  15.58000 52.14400 26.59000
C  14.79300 52.51900 27.67000
C  13.73700 53.48500 27.20600
C  13.73800 53.31600 25.78000
C  14.92300 52.57300 25.44200
C  12.79500 54.07700 28.16500
C  12.78300 53.91600 24.76900
O  12.85100 53.68500 23.58400
C  11.66800 54.68200 25.30100
N  17.47100 51.03800 24.48400
C  16.63800 51.73100 23.74600
C  16.94900 51.74400 22.26300
C  18.46300 51.25500 22.34100
C  18.53300 50.71800 23.71100
C  15.93900 50.90100 21.39000
C  19.46900 52.32400 21.95000
C  20.29300 51.93600 20.70200
N  19.04100 49.94700 26.58100
C  19.88100 49.57200 25.51900
C  21.02400 48.90800 26.06200
C  20.89900 49.00800 27.47500
C  19.66900 49.68000 27.76000
C  22.19200 48.37500 25.17900
C  21.51600 48.63300 28.73800
O  22.59300 48.14700 29.02000
C  20.50900 49.11300 29.82500
C  20.07500 47.86100 30.58200
O  19.16600 47.10300 30.21900
O  20.74500 47.77800 31.74100
C  20.07800 46.91000 32.76700
H  14.48200 52.53000 29.79800
H  14.86200 52.71600 23.34600
H  20.31700 49.63000 23.42300
H  17.74800 49.50100 31.46300
H  16.08000 51.77200 31.61400
H  14.68900 50.08900 32.21300
H  15.64900 48.83200 31.13600
H  14.44600 49.66900 30.48500
H  18.15700 52.38000 32.07200
H  19.65600 51.57000 31.70300
H  19.72200 51.16700 33.78700
H  18.60900 49.86600 33.53600
H  13.23800 54.06500 29.16100
H  11.87000 53.50100 28.19900
H  12.59600 55.14600 28.09600
H  12.00700 55.55900 25.85300
H  11.09300 54.00400 25.93300
H  11.09700 55.04600 24.44700
H  16.94100 52.78400 21.93600
H  18.55400 50.36800 21.71500
H  15.64900 51.48400 20.51600
H  15.09900 50.47700 21.94100
H  16.46700 50.08800 20.89200
H  20.20100 52.44500 22.74800
H  18.99600 53.30500 21.89100
H  20.29200 52.75300 19.98100
H  19.89300 51.13300 20.08300
H  21.35500 51.80000 20.90700
H  21.74700 47.67400 24.47300
H  22.96500 47.92200 25.80000
H  22.58100 49.25000 24.65900
H  21.01300 49.64300 30.63300
H  20.78700 46.23000 33.24000
H  19.22600 46.29500 32.47600
H  19.75200 47.47000 33.64400

