158

Mg 17.67000 -1.49400 28.15200
C  16.29200 0.52700 30.66200
C  19.38800 -3.12700 30.65300
C  19.32700 -3.29900 25.86000
C  15.97300 0.20500 25.74200
N  17.76500 -1.18000 30.43200
C  17.13300 -0.37500 31.25900
C  17.48500 -0.62000 32.77500
C  18.63400 -1.66700 32.68400
C  18.65200 -2.01400 31.18100
C  20.09200 -1.18100 33.07600
C  16.14500 -0.92500 33.51500
C  16.09100 -0.30700 34.93100
H  17.03400 -0.83600 35.99100
N  19.06600 -3.02100 28.27800
C  19.62900 -3.57300 29.38200
C  20.43900 -4.73100 28.97400
C  20.55300 -4.71000 27.53000
C  19.64000 -3.65900 27.15800
C  21.11400 -5.63000 29.99800
C  21.24600 -5.67900 26.63200
O  21.24500 -5.71800 25.39400
C  22.05800 -6.87500 27.21100
N  17.74300 -1.39500 26.07200
C  18.47800 -2.31900 25.39600
C  18.17600 -2.14900 23.85000
C  17.12400 -1.01000 23.75400
C  16.93000 -0.71600 25.26200
C  19.46200 -1.86000 23.06000
C  15.69400 -1.43900 23.08200
C  14.93000 -0.40700 22.15600
N  16.52800 0.10700 28.08300
C  15.84200 0.73200 27.06100
C  15.04700 1.80500 27.59200
C  15.19900 1.71200 28.93300
C  16.09200 0.67200 29.24900
C  14.00100 2.63600 26.87400
C  14.74500 2.38200 30.20500
O  13.93400 3.26400 30.47600
C  15.56500 1.70800 31.31500
C  16.55100 2.72600 31.87100
O  17.53600 3.08800 31.23200
O  16.22800 3.10600 33.14300
C  17.18400 3.95200 33.86300
H  19.88600 -3.63600 31.48100
H  19.91200 -3.82100 25.10000
H  15.34000 0.77600 25.06000
H  17.93700 0.28700 33.17800
H  18.37600 -2.57300 33.23200
H  20.67000 -2.06300 33.35200
H  20.14100 -0.46300 33.89400
H  20.54500 -0.68500 32.21800
H  16.23800 -2.00200 33.65000
H  15.23700 -0.61600 32.99800
H  15.12600 -0.63900 35.31400
H  16.05300 0.77700 34.82500
H  22.11800 -5.70400 29.58100
H  20.54500 -6.55800 30.06500
H  21.32500 -5.26700 31.00300
H  21.36100 -7.19700 27.98500
H  23.00500 -6.58600 27.66700
H  22.06600 -7.67300 26.46900
H  17.80400 -3.12100 23.52400
H  17.63200 -0.17200 23.27800
H  20.18100 -1.35000 23.70100
H  19.26600 -1.21500 22.20400
H  19.96700 -2.78600 22.78300
H  15.01100 -1.55300 23.92400
H  15.79300 -2.37500 22.53300
H  14.56500 -0.86800 21.23800
H  15.48000 0.51900 21.99000
H  14.10400 -0.00300 22.74100
H  14.46800 3.48900 26.38200
H  13.16200 2.93600 27.50200
H  13.62500 1.95700 26.11000
H  14.93200 1.37000 32.13600
H  16.84600 3.60800 34.84100
H  16.85900 4.99000 33.79000
H  18.18700 3.86600 33.44600
Mg 29.99900 58.32100 39.39300
C  27.10300 56.43200 38.70100
C  31.83700 55.57600 38.67600
C  32.66500 60.29800 39.40400
C  27.86200 61.05000 40.07000
N  29.52600 56.24400 38.73700
C  28.26700 55.71700 38.56100
C  28.38800 54.17200 38.24200
C  29.85200 53.84600 38.57800
C  30.45600 55.26100 38.72700
C  30.17900 52.98500 39.81400
C  27.97800 53.66100 36.86000
C  28.69300 54.17900 35.63300
H  27.79500 54.63400 34.52600
N  32.05900 58.01300 39.09300
C  32.64300 56.76400 38.81500
C  34.08600 56.91200 38.66300
C  34.29600 58.34200 38.66800
C  32.99100 58.95700 39.04100
C  34.99100 55.78600 38.36000
C  35.55000 59.07900 38.35600
O  36.57500 58.46700 38.14800
C  35.50800 60.55600 38.31100
N  30.18000 60.37900 39.67600
C  31.43900 60.90600 39.66300
C  31.36900 62.45600 40.06800
C  29.87300 62.65100 40.42700
C  29.23100 61.31000 40.05600
C  32.44900 62.94400 41.09900
C  29.20100 63.86200 39.80200
C  28.22900 64.69300 40.67700
N  27.89200 58.66800 39.45500
C  27.16600 59.84900 39.69000
C  25.78700 59.62700 39.60400
C  25.62700 58.24200 39.22300
C  26.98800 57.72300 39.16200
C  24.71900 60.51200 39.95200
C  24.70400 57.12200 38.88300
O  23.49400 56.97700 38.79300
C  25.72100 55.87800 38.62100
C  25.54700 54.91000 39.76800
O  25.83400 55.04400 40.88700
O  24.98900 53.67100 39.29200
C  24.74500 52.68600 40.31700
H  32.46100 54.68400 38.59700
H  33.50800 60.99200 39.39700
H  27.22000 61.84300 40.45900
H  27.80200 53.70900 39.03700
H  30.36200 53.29000 37.79200
H  30.84300 53.45400 40.54000
H  30.70800 52.11500 39.42400
H  29.25200 52.54400 40.18000
H  26.89600 53.74300 36.76200
H  28.23900 52.60300 36.82200
H  29.26900 53.40300 35.12900
H  29.47000 54.92200 35.80900
H  35.99600 56.18500 38.50200
H  34.84700 55.47900 37.32500
H  34.93900 54.89800 38.99000
H  35.45500 61.10700 39.25000
H  34.71800 60.67500 37.56900
H  36.44800 60.76600 37.80100
H  31.47800 63.00700 39.13400
H  29.80800 62.83800 41.49900
H  33.16000 62.14200 41.30100
H  31.91200 63.11800 42.03100
H  32.74600 63.90200 40.67100
H  28.62200 63.57100 38.92500
H  29.98700 64.56200 39.51800
H  27.38800 64.96900 40.04100
H  28.77000 65.60400 40.93400
H  27.88000 64.10800 41.52800
H  23.86000 60.16500 39.37900
H  25.02100 61.52800 39.70000
H  24.34300 60.54500 40.97500
H  25.45100 55.44400 37.65800
H  23.75100 52.31000 40.07500
H  24.91800 52.95000 41.36000
H  25.42100 51.83200 40.28000

