158

Mg 30.84400 58.91100 40.50100
C  28.01000 57.06300 39.49400
C  32.77700 56.19200 39.60000
C  33.53400 60.80000 40.96800
C  28.78400 61.66500 40.88300
N  30.42500 56.92200 39.29400
C  29.23700 56.39000 39.19700
C  29.39200 55.05900 38.47900
C  30.85100 54.69500 38.92500
C  31.40200 56.03800 39.31100
C  30.86900 53.68500 40.05500
C  29.20400 55.27100 36.98100
C  27.90900 54.64200 36.41400
H  27.15000 55.33700 35.31800
N  32.89000 58.54100 40.33100
C  33.48700 57.38100 39.96500
C  34.92600 57.55600 39.94900
C  35.16200 58.86900 40.28600
C  33.79900 59.49100 40.54900
C  35.91700 56.51600 39.52600
C  36.45900 59.53600 40.31700
O  37.52800 58.96700 40.11900
C  36.72600 61.01900 40.39500
N  31.12400 60.94200 41.01400
C  32.35200 61.52500 41.13300
C  32.24500 63.02500 41.35200
C  30.71000 63.31200 41.09100
C  30.12800 61.91700 41.02300
C  32.76100 63.44900 42.73000
C  30.47500 64.17300 39.78400
C  29.57200 65.38000 39.96100
N  28.71600 59.33100 40.36100
C  28.10000 60.51300 40.58600
C  26.66500 60.31300 40.42700
C  26.55100 58.95700 40.12100
C  27.85900 58.43200 39.98600
C  25.64400 61.30900 40.52300
C  25.67700 57.83500 39.87900
O  24.45500 57.82100 39.77000
C  26.54300 56.62200 39.36800
C  26.22000 55.44300 40.15300
O  26.76000 54.98900 41.14900
O  25.12100 54.92200 39.54500
C  24.61900 53.60600 40.04200
H  33.41100 55.30200 39.59100
H  34.30800 61.56600 41.05500
H  28.07300 62.49400 40.88200
H  28.71900 54.28400 38.84500
H  31.52400 54.48300 38.09400
H  31.45600 54.17000 40.83500
H  31.46700 52.82800 39.74400
H  29.88900 53.33700 40.38000
H  30.03100 54.78600 36.46200
H  29.17100 56.33200 36.73400
H  27.22100 54.38300 37.21900
H  28.23700 53.67800 36.02400
H  36.47500 55.92200 40.25000
H  36.63100 56.97800 38.84500
H  35.42400 55.69900 39.00000
H  36.52100 61.42600 41.38500
H  36.04200 61.49400 39.69200
H  37.73100 61.30700 40.08500
H  32.87500 63.31200 40.51100
H  30.26400 63.75800 41.98000
H  33.82200 63.22600 42.83500
H  32.16600 62.99200 43.52100
H  32.65500 64.53100 42.64400
H  29.88700 63.63100 39.04300
H  31.41200 64.54000 39.36500
H  28.88100 65.34400 39.11800
H  30.21600 66.25500 39.87100
H  28.90800 65.34100 40.82400
H  25.83700 61.89800 41.41900
H  24.62400 60.93100 40.45200
H  25.75400 61.90900 39.61900
H  26.40000 56.49900 38.29400
H  25.11200 53.30400 40.96600
H  24.75800 52.82500 39.29400
H  23.56900 53.71800 40.31300
Mg 17.17200 51.50800 25.95200
C  18.93200 50.16300 28.66400
C  14.70700 52.53600 28.24400
C  15.40100 52.51200 23.38900
C  19.74900 50.38700 23.85000
N  16.82500 51.31500 28.22600
C  17.71100 50.76000 29.09200
C  17.26000 51.05900 30.56200
C  15.82700 51.72300 30.38000
C  15.80300 51.86500 28.85100
C  14.60600 50.96700 30.95800
C  18.28400 51.90600 31.39200
C  18.57600 51.36400 32.78900
H  17.84100 51.98200 33.89500
N  15.41100 52.32800 25.85100
C  14.48700 52.71200 26.84600
C  13.27600 53.23400 26.23000
C  13.46400 53.26600 24.82000
C  14.80400 52.63900 24.65500
C  12.14800 53.88800 26.95200
C  12.51300 53.82900 23.71900
O  12.92500 53.94300 22.56200
C  11.13900 54.33300 23.96900
N  17.45700 51.27700 23.84800
C  16.58500 51.94200 23.03600
C  17.07300 51.83500 21.59000
C  18.48500 51.18900 21.75600
C  18.61800 50.86700 23.19300
C  16.02500 51.13000 20.71900
C  19.50900 52.15800 20.97900
C  20.82500 51.51700 20.47400
N  18.89400 50.45000 26.11700
C  19.86600 50.07300 25.24000
C  21.00400 49.41500 25.87100
C  20.60800 49.48500 27.21500
C  19.40500 50.09600 27.34600
C  22.21100 48.77600 25.17000
C  21.11900 49.20700 28.59200
O  22.14700 48.64900 28.98400
C  20.05800 49.73100 29.52200
C  19.73500 48.60900 30.34300
O  19.10800 47.61000 29.95600
O  20.30300 48.82700 31.58400
C  20.11200 47.67800 32.47800
H  14.00900 53.01500 28.93400
H  14.91900 52.90400 22.49100
H  20.64200 50.13200 23.27400
H  17.17000 50.08600 31.04500
H  15.87000 52.72100 30.81800
H  13.98400 51.66300 31.52100
H  15.05100 50.27200 31.66900
H  14.15900 50.35300 30.17600
H  17.86600 52.89200 31.59400
H  19.21600 52.09300 30.85800
H  19.58600 51.59600 33.12600
H  18.53500 50.27600 32.75500
H  11.20600 53.43200 26.64500
H  12.05600 54.94800 26.71700
H  12.23100 53.80600 28.03600
H  10.74900 54.66300 23.00600
H  11.35800 55.23300 24.54400
H  10.48700 53.60000 24.44400
H  17.15200 52.83400 21.16300
H  18.60200 50.20600 21.30000
H  16.26400 50.15700 20.28900
H  15.66000 51.86200 19.99900
H  15.20700 50.88500 21.39700
H  19.71800 52.98500 21.65800
H  19.05900 52.40800 20.01800
H  20.71000 51.46400 19.39100
H  21.08600 50.57200 20.95100
H  21.57700 52.25600 20.75200
H  22.47600 47.98800 25.87500
H  23.02900 49.49000 25.25500
H  22.22400 48.45100 24.13000
H  20.58700 50.52100 30.05400
H  20.51400 46.72600 32.13100
H  19.04000 47.54900 32.62500
H  20.55900 47.75200 33.46900

