158

Mg 43.19800 41.44500 26.41400
C  42.29100 43.77600 28.85400
C  44.37200 39.43900 28.84800
C  44.07800 39.28200 23.98800
C  42.43900 43.82900 23.96600
N  43.39900 41.63900 28.66000
C  42.74100 42.56300 29.41400
C  42.82100 42.15600 30.91800
C  43.58500 40.82400 30.78500
C  43.87500 40.67000 29.34300
C  44.90300 40.59100 31.65100
C  41.40000 42.08800 31.57300
C  41.25100 42.89900 32.84900
H  40.71300 42.12100 34.10500
N  44.19500 39.62400 26.42700
C  44.58700 38.92900 27.55300
C  45.27400 37.67000 27.07500
C  45.12500 37.63400 25.65600
C  44.47300 38.86000 25.25200
C  45.76700 36.60500 28.02200
C  45.59900 36.52700 24.60900
O  45.68500 36.72100 23.38700
C  45.98100 35.20600 25.27300
N  43.42800 41.58800 24.26300
C  43.67700 40.50600 23.48500
C  43.42000 40.84600 21.98700
C  42.91100 42.33000 22.01300
C  42.87500 42.59700 23.54000
C  44.65900 40.67200 21.11100
C  41.56000 42.57500 21.37700
C  41.37500 43.97200 20.71700
N  42.37500 43.32400 26.39400
C  42.20300 44.17100 25.29700
C  41.57200 45.42100 25.74400
C  41.58400 45.34200 27.19500
C  42.17200 44.05200 27.51500
C  41.22800 46.52600 24.92600
C  41.45200 46.06600 28.45700
O  41.18000 47.24400 28.62700
C  41.77800 45.03200 29.60300
C  42.89500 45.59300 30.40000
O  44.09900 45.49100 30.15700
O  42.40800 46.06300 31.61000
C  43.42400 46.13600 32.71400
H  44.79000 38.76900 29.60300
H  44.05800 38.54700 23.18100
H  42.27000 44.52900 23.14500
H  43.50500 42.88600 31.35100
H  42.91400 39.98200 30.95100
H  44.80900 39.60800 32.11400
H  44.83600 41.22500 32.53500
H  45.80900 40.66000 31.04800
H  41.21700 41.03800 31.80300
H  40.78900 42.33200 30.70400
H  40.53200 43.64300 32.50700
H  42.19700 43.40800 33.03600
H  45.33200 35.60800 28.08100
H  45.87100 37.03000 29.02100
H  46.76800 36.34800 27.67500
H  45.23700 34.94100 26.02300
H  46.97200 35.38700 25.68800
H  46.01000 34.47900 24.46100
H  42.59800 40.25000 21.59000
H  43.61300 43.08200 21.65200
H  44.65400 41.54900 20.46500
H  44.50500 39.71600 20.60900
H  45.55200 40.67600 21.73600
H  40.77500 42.54300 22.13200
H  41.41900 41.79300 20.63100
H  40.64400 44.45300 21.36800
H  40.92500 43.79400 19.74100
H  42.33300 44.49100 20.69000
H  40.31500 46.94900 25.34300
H  40.94100 46.13900 23.94800
H  42.02700 47.25200 24.77200
H  40.84200 44.75800 30.09100
H  44.12200 45.30100 32.66300
H  43.02000 46.04000 33.72200
H  43.91500 47.10400 32.82200
Mg 5.93200 53.72800 41.39200
C  5.50000 50.24300 41.12400
C  9.18500 53.15400 40.13100
C  6.45300 56.98100 41.32100
C  2.77300 54.05900 42.60700
N  7.15800 51.91300 40.51400
C  6.71800 50.60900 40.57700
C  7.74700 49.74100 39.87700
C  9.03500 50.60200 39.84600
C  8.40900 52.01500 40.10700
C  9.99500 50.18300 40.97600
C  7.37500 49.24700 38.40800
C  6.61700 50.24700 37.44400
H  5.88400 49.61000 36.36400
N  7.63600 54.93300 40.85400
C  8.79100 54.48000 40.40800
C  9.67500 55.62700 40.32000
C  8.98600 56.75300 40.72500
C  7.63200 56.29500 40.95400
C  11.12400 55.57100 39.85300
C  9.49000 58.22200 40.86500
O  10.64900 58.58500 40.67200
C  8.60500 59.36200 41.39600
N  4.66700 55.30100 41.61600
C  5.17700 56.54200 41.65700
C  4.07100 57.52000 42.15300
C  2.85900 56.61300 42.54300
C  3.44000 55.25300 42.19500
C  4.55900 58.51400 43.30700
C  1.44000 56.88100 41.94700
C  0.85500 58.23400 42.31100
N  4.31400 52.44200 41.66300
C  3.12600 52.66800 42.28800
C  2.40800 51.47500 42.51600
C  3.35200 50.43700 42.13200
C  4.45000 51.13000 41.62500
C  0.98900 51.33800 43.18300
C  3.56800 49.06600 42.06400
O  2.87100 48.08500 42.27900
C  4.98600 48.89500 41.44400
C  4.75300 48.01300 40.27600
O  4.14900 48.33000 39.22100
O  5.33700 46.71600 40.52900
C  5.07500 45.67300 39.57200
H  10.15600 53.05600 39.64100
H  6.62000 58.05800 41.39200
H  1.89500 54.19900 43.24200
H  7.88200 48.89700 40.55300
H  9.48200 50.63500 38.85300
H  11.04200 50.19400 40.67200
H  9.80800 49.19800 41.40100
H  9.86900 50.78100 41.87900
H  6.90900 48.26100 38.41800
H  8.29100 48.97300 37.88400
H  7.36100 50.92000 37.01900
H  5.88100 50.83800 37.98900
H  11.74500 56.17800 40.51200
H  11.21700 55.88900 38.81400
H  11.58200 54.58300 39.80000
H  9.24300 60.23300 41.54700
H  8.24200 59.12400 42.39600
H  7.87300 59.56400 40.61400
H  3.74100 58.14900 41.32600
H  2.77400 56.68100 43.62700
H  4.85500 59.44400 42.82300
H  5.40000 58.04800 43.82100
H  3.80200 58.54300 44.09000
H  0.81200 56.01600 42.16300
H  1.49900 57.03600 40.87000
H  1.22600 58.63900 43.25200
H  -0.22300 58.11700 42.41700
H  0.95900 59.08000 41.63100
H  1.12400 51.14200 44.24600
H  0.43000 50.52400 42.72100
H  0.42400 52.26700 43.10700
H  5.70900 48.42600 42.11100
H  5.21000 44.70000 40.04400
H  5.80200 45.72000 38.76100
H  4.06800 45.66500 39.15700

