158

Mg 25.97300 0.85700 29.05000
C  28.03000 0.37600 31.93300
C  23.39700 1.34100 31.19500
C  24.00100 0.81600 26.37400
C  28.73500 -0.00000 27.10200
N  25.81500 0.60100 31.38000
C  26.75300 0.61900 32.32600
C  26.06200 0.91300 33.74900
C  24.58200 1.14200 33.36300
C  24.62700 1.09800 31.83100
C  23.52400 0.18400 33.87600
C  26.67700 2.19900 34.42500
C  26.06500 2.70300 35.73400
H  26.98400 2.88600 36.96900
N  23.95400 0.99700 28.85200
C  23.04600 1.22800 29.81700
C  21.67200 1.27000 29.27700
C  21.90600 1.14500 27.81300
C  23.34600 1.08400 27.60900
C  20.44800 1.41300 30.10800
C  20.88200 1.32400 26.71500
O  21.17300 1.22100 25.53500
C  19.45100 1.65600 27.02500
N  26.38500 0.63100 26.98700
C  25.34800 0.54700 26.07400
C  25.95400 0.29400 24.65800
C  27.48200 0.19000 24.92900
C  27.60000 0.36200 26.42500
C  25.28700 -0.85100 23.83800
C  28.32800 1.20100 24.23700
C  28.05300 2.72100 24.60300
N  28.02300 0.35400 29.34600
C  29.02900 0.01400 28.51400
C  30.19400 -0.34500 29.25000
C  29.86400 -0.11500 30.62100
C  28.56100 0.29700 30.56300
C  31.58100 -0.72700 28.72300
C  30.38100 -0.29800 32.03200
O  31.44900 -0.63200 32.51900
C  29.15300 0.26900 32.86300
C  28.98100 -0.81000 33.85400
O  28.35400 -1.82200 33.62100
O  29.63700 -0.48700 34.99500
C  29.24900 -1.37600 36.10300
H  22.51700 1.40500 31.83800
H  23.40000 0.80600 25.46200
H  29.59000 -0.38800 26.54300
H  26.23100 0.06200 34.40800
H  24.35100 2.18000 33.60300
H  23.05800 -0.44000 33.11300
H  22.67900 0.73800 34.28600
H  23.92300 -0.35300 34.73600
H  26.77900 2.95100 33.64400
H  27.69900 1.87600 34.62400
H  25.33100 1.97500 36.08200
H  25.64800 3.67300 35.46600
H  20.00400 2.35200 29.77800
H  20.69600 1.38100 31.16900
H  19.86900 0.53800 29.81300
H  19.28700 1.03100 27.90300
H  18.93600 1.36000 26.11100
H  19.36100 2.70600 27.30600
H  25.79600 1.19200 24.06100
H  27.84500 -0.81800 24.72800
H  24.76900 -0.49400 22.94800
H  24.49500 -1.16700 24.51600
H  26.07400 -1.59000 23.68700
H  28.42500 0.90600 23.19200
H  29.35700 0.97400 24.51500
H  27.08800 2.96800 25.04400
H  27.99100 3.37000 23.73000
H  28.86000 3.11400 25.22200
H  31.50600 -1.00300 27.67200
H  32.05600 -1.48300 29.34900
H  32.20700 0.15400 28.86800
H  29.40000 1.19300 33.38600
H  29.07600 -2.37400 35.70000
H  28.30800 -1.00900 36.51200
H  30.09700 -1.40000 36.78700
Mg -5.67800 25.29300 26.17900
C  -4.21900 26.97800 28.95000
C  -7.21100 23.15200 28.48700
C  -6.60800 23.45700 23.67000
C  -3.51800 27.13900 24.14000
N  -5.70600 25.15700 28.49100
C  -5.10900 26.00400 29.39300
C  -5.56700 25.71500 30.87200
C  -6.17200 24.26800 30.71700
C  -6.47100 24.19200 29.16600
C  -5.18800 23.14700 31.11900
C  -6.46700 26.81700 31.39400
C  -6.69600 26.94700 32.89700
H  -6.21300 25.70100 33.75300
N  -6.97300 23.71200 26.06000
C  -7.46800 23.00400 27.10000
C  -8.34200 21.99000 26.61100
C  -8.21600 22.03200 25.18900
C  -7.26300 23.14900 24.88000
C  -9.14800 20.99200 27.55100
C  -8.87600 21.09600 24.08900
O  -8.62400 21.19900 22.85600
C  -9.81500 20.06700 24.49000
N  -5.04600 25.20400 24.22900
C  -5.65400 24.41100 23.35700
C  -5.17000 24.55800 21.93300
C  -4.38500 25.88300 21.99400
C  -4.26900 26.09200 23.58400
C  -4.29500 23.41700 21.44700
C  -5.04300 27.02400 21.24200
C  -4.26800 27.67500 20.03900
N  -4.19200 26.76900 26.39500
C  -3.45400 27.46600 25.49700
C  -2.64400 28.48300 26.11900
C  -2.86700 28.29200 27.44100
C  -3.87200 27.27100 27.63500
C  -1.67100 29.38500 25.42300
C  -2.45600 28.79700 28.73200
O  -1.72500 29.75800 29.00600
C  -3.22200 27.91600 29.78300
C  -2.29200 27.05500 30.53900
O  -1.82000 25.96800 30.21600
O  -2.22200 27.59400 31.82900
C  -1.46100 26.89900 32.89600
H  -7.62100 22.46800 29.23300
H  -6.84500 22.73300 22.88700
H  -2.81600 27.59400 23.43700
H  -4.64900 25.59100 31.44600
H  -7.07100 24.21700 31.33000
H  -5.76700 22.34900 31.58300
H  -4.39900 23.42400 31.81800
H  -4.76400 22.79100 30.18000
H  -7.42800 26.63200 30.91500
H  -6.07800 27.79200 31.10100
H  -7.75600 27.18600 32.98200
H  -5.99900 27.74800 33.14100
H  -10.12200 20.61300 27.24300
H  -9.41700 21.30400 28.56000
H  -8.50400 20.12400 27.69600
H  -10.17900 19.66100 23.54700
H  -10.64800 20.62500 24.91900
H  -9.28700 19.32200 25.08600
H  -5.99700 24.63800 21.22800
H  -3.37000 25.92000 21.59800
H  -4.18100 22.68000 22.24300
H  -3.30600 23.65200 21.05500
H  -4.86400 23.01000 20.61100
H  -5.03200 27.77700 22.03000
H  -6.11800 26.95800 21.07300
H  -3.25500 27.27400 19.99300
H  -4.15400 28.75600 20.12500
H  -4.82000 27.39800 19.14100
H  -2.24800 29.95900 24.69800
H  -0.77200 28.90400 25.03700
H  -1.22500 30.15000 26.05900
H  -3.81800 28.55100 30.43700
H  -2.06500 26.12500 33.36900
H  -0.94800 27.60600 33.54800
H  -0.64400 26.35400 32.42300

