158

Mg 45.67000 3.85100 47.33900
C  43.67100 6.56500 46.89400
C  42.70500 1.78800 47.35500
C  47.55900 0.98800 46.98600
C  48.48100 5.72600 46.88400
N  43.48800 4.13100 47.01900
C  42.90600 5.36600 46.86400
C  41.44300 5.23700 46.63500
C  41.11300 3.80300 47.21400
C  42.49000 3.19400 47.26200
C  40.42400 3.72100 48.55800
C  40.96600 5.52800 45.13100
C  40.00100 6.64000 44.84700
H  40.26200 7.45500 43.54300
N  45.19700 1.69800 47.10900
C  43.91500 1.08400 47.19300
C  44.13100 -0.31900 46.96800
C  45.50100 -0.57400 46.79900
C  46.16800 0.75800 46.93600
C  42.96200 -1.29200 46.89800
C  46.06800 -1.84600 46.52900
O  45.33800 -2.81700 46.53000
C  47.53100 -2.04100 46.16800
N  47.62900 3.37000 47.12100
C  48.19700 2.22700 47.04500
C  49.75900 2.35300 47.04800
C  49.99700 3.79800 46.81800
C  48.59000 4.36300 46.93900
C  50.52200 1.76800 48.26500
C  50.65700 3.99300 45.40400
C  49.71400 3.84200 44.14800
N  46.08800 5.78600 47.06400
C  47.26700 6.45900 46.91600
C  47.02100 7.87200 47.07600
C  45.62800 7.96100 47.07600
C  45.06700 6.69700 47.04000
C  48.01800 9.00000 47.10500
C  44.54500 8.90800 47.02800
O  44.57900 10.10300 47.04900
C  43.18700 8.05400 46.86300
C  42.23900 8.32600 47.90300
O  42.04700 7.62100 48.90800
O  41.48500 9.37800 47.45800
C  40.29500 9.68400 48.31200
H  41.83500 1.12800 47.33900
H  48.30700 0.19200 46.96300
H  49.41700 6.28000 46.78500
H  41.00400 5.99600 47.28200
H  40.55500 3.23200 46.47200
H  39.95200 4.65400 48.86800
H  41.02900 3.20100 49.30100
H  39.53600 3.09400 48.49000
H  40.52800 4.64000 44.67700
H  41.81300 5.65500 44.45700
H  40.05200 7.33500 45.68600
H  38.98100 6.25800 44.88300
H  43.10200 -1.86200 45.97900
H  41.96700 -0.84600 46.90600
H  42.94500 -1.89900 47.80300
H  48.21900 -1.88600 47.00000
H  47.79000 -1.23300 45.48400
H  47.73100 -3.03200 45.76000
H  50.15900 1.78200 46.21000
H  50.61800 4.20300 47.61700
H  51.22800 2.43200 48.76500
H  51.02700 0.86700 47.91700
H  49.75600 1.41300 48.95400
H  51.41300 3.26600 45.10600
H  51.10100 4.98900 45.40800
H  49.77100 4.66900 43.44000
H  48.69300 3.57700 44.42000
H  50.06000 2.94700 43.63000
H  48.82800 8.66700 46.45700
H  48.40900 9.14700 48.11200
H  47.50600 9.88000 46.71500
H  42.62500 8.14400 45.93400
H  40.20200 10.77000 48.30800
H  40.21600 9.37500 49.35500
H  39.44300 9.42500 47.68400
Mg 9.48800 48.62600 25.47600
C  7.37100 49.29700 28.16000
C  12.12300 49.98000 27.26200
C  11.63100 48.14400 22.77200
C  6.81100 48.03100 23.45500
N  9.73400 49.52200 27.45200
C  8.73400 49.57700 28.42000
C  9.38700 49.94900 29.73400
C  10.66600 50.72500 29.24500
C  10.88200 50.01700 27.90100
C  10.56600 52.30900 29.28800
C  9.61800 48.61600 30.56000
C  9.18700 48.77900 32.02100
H  8.97200 47.44000 32.88300
N  11.57900 48.86900 25.22000
C  12.48900 49.49300 26.01500
C  13.80600 49.35800 25.38900
C  13.65700 48.66500 24.16900
C  12.25600 48.52700 24.03100
C  15.07500 49.77900 26.15400
C  14.74400 48.06000 23.19700
O  14.46300 47.36600 22.24900
C  16.12000 48.32700 23.41100
N  9.20400 48.19500 23.37700
C  10.22800 47.91900 22.48300
C  9.69300 47.41500 21.15300
C  8.15400 47.38200 21.46900
C  8.01900 47.83700 22.83400
C  10.10300 48.25100 19.89500
C  7.48700 45.94300 21.22200
C  6.02300 45.90300 20.65700
N  7.45600 48.76100 25.68600
C  6.45700 48.46100 24.76800
C  5.20100 48.56800 25.37000
C  5.53000 48.80300 26.78200
C  6.92000 48.97800 26.87100
C  3.86800 48.22400 24.72200
C  4.97100 48.90000 28.09900
O  3.91100 48.65300 28.42000
C  6.09200 49.35100 29.06500
C  5.97500 48.23000 30.16100
O  6.46800 47.12300 30.04300
O  5.14400 48.64500 31.12800
C  4.76300 47.70200 32.20500
H  12.87300 50.33500 27.97100
H  12.24000 47.91000 21.89600
H  5.90900 47.90400 22.85300
H  8.76400 50.70400 30.21400
H  11.49000 50.45200 29.90500
H  10.70100 52.69600 30.29700
H  9.58400 52.67700 28.99300
H  11.31900 52.75600 28.63800
H  10.63400 48.22200 30.54800
H  9.03800 47.81900 30.09400
H  8.30400 49.41400 32.10500
H  9.86900 49.47700 32.50600
H  15.49000 48.81600 26.45300
H  14.80400 50.38500 27.01900
H  15.74300 50.36700 25.52600
H  16.27600 49.38200 23.18200
H  16.69800 47.67100 22.76000
H  16.14100 48.16100 24.48800
H  10.18100 46.44100 21.20400
H  7.60400 48.14500 20.91900
H  10.77400 49.09700 20.04700
H  9.20100 48.66300 19.44300
H  10.49900 47.66600 19.06500
H  7.35700 45.43400 22.17800
H  8.12200 45.31700 20.59600
H  5.75900 46.94400 20.47300
H  5.42500 45.50700 21.47800
H  5.88500 45.28800 19.76700
H  3.26500 47.46700 25.22400
H  3.94800 47.95900 23.66700
H  3.22100 49.10100 24.71900
H  5.85200 50.32100 29.50100
H  4.98600 46.65400 32.00700
H  3.68500 47.84800 32.27400
H  5.01000 47.94000 33.24000

