158

Mg 48.92100 46.68700 42.56900
C  45.78600 47.24600 41.34200
C  48.84200 43.62400 41.13100
C  52.31200 46.57800 43.25100
C  49.22200 50.32400 43.06900
N  47.50000 45.67100 41.14300
C  46.22900 45.98500 41.00600
C  45.50800 44.90900 40.16800
C  46.41800 43.62800 40.37100
C  47.69600 44.33000 40.89500
C  45.84500 42.53000 41.36900
C  45.36400 45.24400 38.61500
C  44.00300 45.21000 37.92500
H  43.89000 44.35100 36.68000
N  50.38600 45.23700 42.31500
C  50.14500 44.03000 41.68400
C  51.37200 43.18900 41.72200
C  52.28800 44.03200 42.42100
C  51.68600 45.36900 42.65700
C  51.46800 41.76400 41.16700
C  53.78000 43.53700 42.81000
O  54.05200 42.38600 42.53500
C  54.77100 44.38400 43.53000
N  50.54800 48.24000 43.02300
C  51.77900 47.87200 43.34600
C  52.61700 49.04600 43.89700
C  51.74000 50.31900 43.63000
C  50.42400 49.65900 43.11700
C  52.90500 48.83900 45.40000
C  52.35300 51.38400 42.65200
C  52.30700 52.86100 43.08800
N  47.74100 48.40600 42.41300
C  47.96200 49.82000 42.73800
C  46.63800 50.48300 42.67700
C  45.74900 49.51000 42.13500
C  46.50500 48.29100 41.92100
C  46.26500 51.88200 43.04300
C  44.44100 49.27700 41.61700
O  43.44900 49.99300 41.64800
C  44.41400 47.77600 41.03100
C  43.27600 47.01200 41.60600
O  42.41500 46.45900 40.97000
O  43.52200 46.86400 42.96300
C  42.62000 46.02900 43.70400
H  48.99900 42.59100 40.81300
H  53.36700 46.40800 43.47700
H  49.32500 51.38100 43.32400
H  44.55400 44.77000 40.67700
H  46.63500 43.06500 39.46300
H  45.68500 41.55200 40.91400
H  44.90300 42.92500 41.74800
H  46.51500 42.22800 42.17500
H  46.08900 44.66500 38.04400
H  45.67500 46.27900 38.46800
H  43.75100 46.23500 37.65200
H  43.24000 44.88300 38.63100
H  52.50900 41.48700 40.99500
H  51.01800 41.76800 40.17400
H  51.00000 41.09400 41.88800
H  55.71400 43.84500 43.44100
H  54.39200 44.61800 44.52500
H  54.94300 45.31000 42.98200
H  53.62800 49.19700 43.51700
H  51.48700 50.90600 44.51300
H  52.65500 47.81300 45.67000
H  52.30700 49.46500 46.06200
H  53.98500 48.84000 45.54100
H  51.94600 51.26300 41.64800
H  53.41200 51.18700 42.48200
H  52.67300 52.98600 44.10700
H  51.32200 53.30800 42.95800
H  52.99300 53.40300 42.43600
H  46.95800 52.53000 42.50700
H  46.36800 51.95600 44.12600
H  45.24600 52.19300 42.81500
H  44.35600 47.95800 39.95800
H  41.58500 46.31500 43.51700
H  42.90600 46.17900 44.74600
H  42.77700 45.00900 43.35600
Mg -1.30300 34.26600 27.24200
C  -3.02200 32.56400 29.89600
C  -0.02100 36.38700 29.75900
C  0.16400 35.95800 24.90700
C  -3.03700 32.28100 24.92200
N  -1.58500 34.41200 29.69300
C  -2.31500 33.65100 30.50100
C  -2.00600 34.05500 31.89900
C  -1.12900 35.41300 31.82600
C  -0.89600 35.42600 30.30400
C  -1.83700 36.65100 32.38500
C  -1.31800 32.92700 32.74300
C  -1.97100 32.60000 34.08200
H  -0.93400 32.49300 35.22800
N  -0.17000 35.96500 27.28700
C  0.39500 36.59400 28.40900
C  1.36800 37.59300 27.95800
C  1.42800 37.52000 26.56400
C  0.37100 36.51500 26.17500
C  2.17200 38.53900 28.89600
C  2.28900 38.32200 25.57300
O  2.33300 38.13600 24.33300
C  3.13100 39.42500 26.05500
N  -1.46700 34.24900 25.22600
C  -0.75000 35.08700 24.41100
C  -0.93900 34.65700 22.92200
C  -1.95700 33.46000 22.93600
C  -2.11400 33.30800 24.49600
C  -1.27200 35.85400 21.91200
C  -1.56600 32.26700 22.14900
C  -0.86100 31.08600 22.88600
N  -2.64900 32.68600 27.32100
C  -3.33100 32.08300 26.27700
C  -4.15700 31.03000 26.86000
C  -3.98500 31.13800 28.25100
C  -3.09300 32.17200 28.49000
C  -5.09900 30.10800 26.07500
C  -4.41200 30.54800 29.50200
O  -5.12300 29.58300 29.71400
C  -3.92000 31.50300 30.62900
C  -5.09800 32.21100 31.30400
O  -5.84600 33.07300 30.82300
O  -5.28200 31.64600 32.52500
C  -6.38300 32.22200 33.29600
H  0.36200 37.05300 30.53500
H  0.70100 36.46400 24.10300
H  -3.50600 31.55500 24.25500
H  -2.94200 34.43900 32.30600
H  -0.21800 35.26100 32.40500
H  -2.71300 36.48400 33.01200
H  -1.96500 37.40200 31.60500
H  -1.04900 37.07900 33.00600
H  -0.24000 33.03200 32.86600
H  -1.53200 31.99400 32.22200
H  -2.26600 31.55100 34.10100
H  -2.78100 33.22900 34.45300
H  2.08500 39.57500 28.56900
H  3.21900 38.23900 28.94700
H  1.90100 38.43500 29.94600
H  3.69800 39.80000 25.20300
H  3.73200 38.97000 26.84300
H  2.52000 40.22300 26.47800
H  0.10200 34.38500 22.74800
H  -2.97800 33.75700 22.69800
H  -0.49200 36.11900 21.19800
H  -1.33000 36.76900 22.50100
H  -2.21800 35.76700 21.37700
H  -0.88300 32.40600 21.31100
H  -2.54500 31.91500 21.82600
H  -1.68100 30.36900 22.93300
H  -0.63400 31.47400 23.87800
H  -0.11200 30.55100 22.30200
H  -5.26700 30.59800 25.11600
H  -6.11500 30.10700 26.47000
H  -4.81300 29.06300 25.95500
H  -3.36100 30.95400 31.38700
H  -7.11100 32.79200 32.72000
H  -5.92100 32.91100 34.00300
H  -6.89800 31.47100 33.89600

