158

Mg 16.53300 -2.77300 28.00600
C  15.35100 -0.75000 30.80100
C  18.74100 -4.26400 30.40000
C  17.76100 -4.52200 25.58700
C  14.41500 -0.92500 25.94100
N  16.95700 -2.54500 30.37800
C  16.29100 -1.66200 31.24600
C  16.72700 -2.02600 32.72200
C  17.85800 -3.04300 32.60200
C  17.87800 -3.32000 31.08400
C  19.24900 -2.75900 33.19400
C  15.56100 -2.52200 33.59100
C  15.31000 -1.77000 34.87100
H  16.47000 -1.17200 35.77600
N  18.04600 -4.19700 28.00700
C  18.78500 -4.64900 29.03200
C  19.65800 -5.72100 28.59400
C  19.30700 -5.95700 27.23300
C  18.37700 -4.81300 26.83700
C  20.83400 -6.38700 29.39400
C  19.88900 -7.03600 26.32500
O  19.70200 -6.99000 25.07700
C  20.50600 -8.27400 26.93200
N  16.13500 -2.70100 26.04300
C  16.71600 -3.63800 25.24800
C  16.33600 -3.38800 23.75200
C  14.98700 -2.48500 23.99200
C  15.23900 -1.91900 25.37000
C  17.39100 -2.69200 23.01300
C  13.59500 -3.20100 23.87700
C  12.36200 -2.54200 23.22200
N  15.16200 -1.18200 28.24500
C  14.32500 -0.49700 27.29900
C  13.53000 0.44300 27.94800
C  13.92200 0.35400 29.33300
C  14.93300 -0.56300 29.44800
C  12.49700 1.38800 27.38200
C  13.64800 0.95700 30.59400
O  13.00200 1.90100 31.00000
C  14.61300 0.25800 31.64100
C  15.50400 1.22800 32.28100
O  16.60800 1.56400 31.90800
O  14.91300 1.86500 33.42400
C  15.55300 3.00000 34.07100
H  19.44900 -4.79500 31.03900
H  18.11400 -5.08200 24.71900
H  13.55000 -0.53800 25.39900
H  17.14400 -1.08000 33.06600
H  17.57200 -4.05500 32.88800
H  19.34400 -1.73600 33.55600
H  19.93600 -2.92100 32.36300
H  19.53900 -3.52400 33.91500
H  15.55200 -3.58700 33.82200
H  14.67000 -2.50600 32.96300
H  14.64300 -2.44400 35.40800
H  14.78100 -0.84800 34.63100
H  21.13700 -5.68000 30.16600
H  21.75400 -6.57900 28.84100
H  20.49300 -7.25100 29.96300
H  20.13400 -8.54900 27.91900
H  21.56600 -8.08600 27.10200
H  20.46700 -9.18000 26.32700
H  16.21200 -4.29700 23.16400
H  14.95300 -1.69200 23.24600
H  18.01500 -3.42500 22.50200
H  18.05300 -2.19100 23.72000
H  17.09200 -1.86900 22.36400
H  13.19300 -3.46200 24.85600
H  13.82500 -4.17000 23.43400
H  11.73300 -3.24700 22.67800
H  12.65500 -1.79100 22.48900
H  11.82800 -2.00800 24.00900
H  12.94300 2.36900 27.21300
H  11.57900 1.55100 27.94600
H  12.07300 1.04800 26.43700
H  14.03600 -0.35200 32.33700
H  16.43600 3.39300 33.56700
H  15.84100 2.75600 35.09300
H  14.82700 3.81300 34.09300
Mg 42.74300 42.30200 27.42700
C  41.96200 44.61200 29.90000
C  43.52200 40.07100 29.74600
C  43.44400 40.29700 24.92700
C  42.42500 44.95300 24.98100
N  42.63900 42.27900 29.59300
C  42.23100 43.35400 30.43500
C  42.24400 42.90600 31.92800
C  42.93300 41.54300 31.83300
C  43.02300 41.22600 30.31500
C  44.29400 41.32200 32.50400
C  40.81400 42.92100 32.39800
C  40.59300 43.75700 33.70000
H  39.91100 42.96100 34.86900
N  43.44800 40.40000 27.32400
C  43.64000 39.64200 28.39500
C  43.99900 38.31400 27.91800
C  43.87800 38.35400 26.45900
C  43.58000 39.73900 26.17100
C  44.42400 37.26900 28.82700
C  44.07100 37.27000 25.41800
O  44.05800 37.42300 24.15100
C  44.50800 35.88100 25.92200
N  42.94300 42.63400 25.24700
C  43.16000 41.55200 24.47400
C  42.95900 41.86400 22.96000
C  42.46300 43.32300 23.09100
C  42.65200 43.71500 24.50900
C  44.23400 41.65100 21.96700
C  40.95800 43.63900 22.59100
C  39.87100 44.05700 23.60200
N  42.23900 44.32900 27.36600
C  42.18400 45.28400 26.32700
C  41.67900 46.55600 26.90800
C  41.60900 46.36300 28.29900
C  41.93400 45.00300 28.52800
C  41.36600 47.86000 26.18100
C  41.31800 46.97300 29.53400
O  40.88800 48.11700 29.77400
C  41.53200 45.90400 30.68200
C  42.48800 46.45100 31.70600
O  43.74100 46.43900 31.53300
O  41.76500 46.89900 32.80600
C  42.45400 47.13600 34.05600
H  43.92700 39.41100 30.51600
H  43.30500 39.60300 24.09500
H  42.26700 45.79100 24.29800
H  42.86800 43.60000 32.49100
H  42.21900 40.79600 32.18200
H  45.07000 41.00200 31.80800
H  44.27000 40.63400 33.34800
H  44.61800 42.28700 32.89500
H  40.43100 41.95200 32.71700
H  40.12200 43.19300 31.60000
H  40.03000 44.65700 33.45000
H  41.56300 44.14600 34.01000
H  43.55900 36.60800 28.88700
H  44.67700 37.65400 29.81500
H  45.29500 36.71200 28.48300
H  43.84800 35.46400 26.68300
H  45.51700 35.98400 26.32200
H  44.44600 35.18500 25.08600
H  42.12700 41.26600 22.58800
H  42.96200 43.85000 22.27700
H  43.93500 41.12200 21.06200
H  45.08100 41.24200 22.51800
H  44.50300 42.65000 21.62200
H  40.63700 42.88000 21.87700
H  41.19200 44.52100 21.99500
H  39.02400 43.69900 23.01600
H  39.70000 45.13200 23.65500
H  39.83400 43.60800 24.59400
H  40.44800 47.68200 25.62000
H  42.16000 48.11200 25.47800
H  41.27900 48.66400 26.91200
H  40.55200 45.77600 31.14200
H  42.51800 46.24300 34.67800
H  41.87200 47.87600 34.60500
H  43.45500 47.51100 33.84500

