158

Mg 9.18300 47.00400 27.20600
C  7.48300 46.49100 30.25300
C  12.07100 47.50300 28.95700
C  10.64400 48.18800 24.37500
C  6.19600 47.17300 25.55400
N  9.76500 46.76400 29.54500
C  8.85000 46.63400 30.55800
C  9.56100 46.97300 31.88600
C  10.97000 47.52600 31.41700
C  10.97700 47.24200 29.85700
C  11.33400 48.96100 31.77900
C  9.68600 45.80700 32.91300
C  9.37500 46.16000 34.34600
H  9.70800 45.01200 35.32900
N  11.08800 47.69800 26.77700
C  12.16700 47.68200 27.57000
C  13.40700 47.89600 26.74300
C  12.95400 48.12100 25.42000
C  11.53900 47.94900 25.45600
C  14.85900 47.87600 27.27700
C  13.78500 48.36000 24.18800
O  13.24000 48.58700 23.12000
C  15.33900 48.28200 24.26200
N  8.45300 47.60600 25.22400
C  9.30800 48.01400 24.24700
C  8.56300 48.20200 22.89000
C  7.12700 47.66400 23.26500
C  7.22600 47.43300 24.72800
C  8.52400 49.75100 22.39700
C  6.76100 46.39600 22.51800
C  5.35700 46.45100 21.83400
N  7.23200 46.73100 27.70900
C  6.10600 46.79600 26.94500
C  4.90200 46.71000 27.79000
C  5.45300 46.48300 29.05300
C  6.85800 46.56200 29.00300
C  3.41100 46.61300 27.29100
C  5.05800 46.19900 30.43200
O  3.96100 46.02400 30.95300
C  6.37000 46.25800 31.27300
C  6.55800 45.00200 31.97200
O  6.66600 43.90100 31.47700
O  6.49000 45.20900 33.33400
C  6.46300 43.91400 34.08700
H  12.92100 47.65600 29.62600
H  10.99200 48.51900 23.39400
H  5.26500 47.33400 25.00600
H  8.94300 47.71700 32.38900
H  11.72100 46.89600 31.89500
H  11.57300 49.67200 30.98800
H  12.19400 48.87200 32.44300
H  10.59600 49.41500 32.44000
H  10.69500 45.40100 32.98400
H  9.01200 45.02500 32.56300
H  8.34400 46.47000 34.51600
H  9.88900 47.09500 34.57100
H  15.44700 47.08300 26.81600
H  14.78400 47.65700 28.34200
H  15.21300 48.89600 27.12500
H  15.86700 48.89800 24.99100
H  15.56700 48.76000 23.30900
H  15.67700 47.24600 24.24600
H  8.99900 47.50800 22.17100
H  6.38800 48.46500 23.26900
H  9.45900 50.24500 22.66000
H  7.67000 50.26800 22.83500
H  8.52500 49.73700 21.30700
H  6.76600 45.47000 23.09200
H  7.49800 46.32100 21.71900
H  5.40000 46.32000 20.75200
H  4.81000 47.37900 22.00700
H  4.92800 45.56600 22.30300
H  2.79500 45.90600 27.84700
H  3.26200 46.29800 26.25800
H  2.95600 47.57600 27.51900
H  6.28700 47.13700 31.91200
H  7.30900 43.26500 33.86200
H  5.58200 43.29600 33.91300
H  6.43100 44.12000 35.15700
Mg -0.13300 43.31500 26.40600
C  2.30600 42.76500 28.77400
C  -2.50300 42.89300 29.08800
C  -2.65800 43.58000 24.13300
C  2.27700 43.44300 23.84900
N  -0.02800 43.04300 28.65900
C  1.06800 42.87100 29.42200
C  0.81900 42.83600 30.96400
C  -0.74200 42.71500 30.93700
C  -1.12300 42.84900 29.46500
C  -1.23000 41.34600 31.49400
C  1.28900 44.10000 31.75000
C  0.81200 44.38100 33.19000
H  0.42000 43.24200 34.10800
N  -2.22700 43.27000 26.59900
C  -3.00700 43.00900 27.72000
C  -4.43100 42.97500 27.28100
C  -4.46600 43.21600 25.94500
C  -3.06600 43.37900 25.49600
C  -5.42300 42.55900 28.29900
C  -5.72900 43.26900 25.06800
O  -5.60000 43.45100 23.85200
C  -7.13600 43.01800 25.64400
N  -0.17100 43.51400 24.39200
C  -1.32600 43.57600 23.65600
C  -1.04400 43.58300 22.18500
C  0.47400 43.74000 22.10600
C  0.94400 43.53100 23.54000
C  -1.73100 42.47500 21.30900
C  1.01600 45.11400 21.50000
C  1.56300 44.99400 20.07500
N  1.83600 43.19500 26.26400
C  2.71900 43.26300 25.19700
C  4.10400 43.25700 25.71000
C  3.96800 43.14200 27.04900
C  2.57000 43.04700 27.40000
C  5.41500 43.33300 24.90900
C  4.69200 43.08300 28.33400
O  5.89900 43.06600 28.50500
C  3.64200 42.79100 29.49500
C  4.11100 41.60800 30.29100
O  4.39200 40.54200 29.85500
O  4.06800 41.95800 31.64800
C  4.60900 40.85600 32.48100
H  -3.09800 42.82400 30.00100
H  -3.49300 43.69100 23.43900
H  3.05800 43.46900 23.08700
H  1.26400 41.92400 31.36000
H  -1.20200 43.55300 31.46000
H  -0.51900 40.97700 32.23300
H  -1.23800 40.57900 30.72000
H  -2.22500 41.49600 31.91400
H  1.13100 44.96100 31.10100
H  2.36000 44.30200 31.76900
H  0.01400 45.09800 32.99500
H  1.53800 44.99500 33.72200
H  -4.87700 42.23400 29.18400
H  -5.77800 41.63400 27.84600
H  -6.22000 43.26600 28.52900
H  -7.25700 42.00800 26.03600
H  -7.87700 43.09000 24.84800
H  -7.35500 43.80300 26.36900
H  -1.49400 44.49800 21.80200
H  0.77600 42.88600 21.50000
H  -2.07400 41.66300 21.95100
H  -1.04100 41.98300 20.62300
H  -2.60000 42.96500 20.86900
H  1.86100 45.41600 22.11800
H  0.32500 45.94800 21.62600
H  2.64900 45.07700 20.09500
H  1.13500 45.77600 19.44700
H  1.39400 43.99300 19.67700
H  5.93500 44.26600 25.12600
H  5.23800 43.25900 23.83600
H  6.00900 42.46500 25.19700
H  3.64000 43.69800 30.10100
H  4.20200 41.06900 33.46900
H  5.69100 40.72300 32.48100
H  4.13800 39.91300 32.20400

