158

Mg 0.61300 7.63600 25.67700
C  1.32300 9.70600 28.62100
C  1.03300 5.03700 27.89800
C  0.20800 5.72700 23.12600
C  0.61000 10.57700 23.84100
N  1.17400 7.40500 28.04900
C  1.22400 8.39000 29.02600
C  1.49000 7.74300 30.37100
C  1.64600 6.21600 30.07100
C  1.16600 6.18300 28.61600
C  3.00100 5.57500 30.36800
C  0.39000 8.12400 31.30100
C  0.71600 7.98400 32.81200
H  1.76300 6.96700 33.33900
N  0.62900 5.63900 25.53600
C  0.79200 4.72900 26.53500
C  0.67200 3.38800 25.99500
C  0.41900 3.52900 24.55400
C  0.37500 5.00400 24.36600
C  0.71700 2.16200 26.77200
C  0.27700 2.52900 23.46400
O  -0.07900 2.85700 22.33300
C  0.46800 1.08400 23.72100
N  0.63600 8.14900 23.75400
C  0.36100 7.13400 22.80400
C  0.11300 7.79900 21.39800
C  -0.17300 9.29200 21.75600
C  0.40000 9.35000 23.21600
C  1.30600 7.46900 20.43100
C  -1.73600 9.59600 21.77700
C  -2.19100 10.93000 21.21900
N  0.98700 9.74800 26.09500
C  0.92000 10.81700 25.18300
C  1.38600 12.04100 25.87400
C  1.50100 11.70000 27.25000
C  1.28800 10.30100 27.31500
C  1.41200 13.48000 25.25200
C  1.70200 12.20600 28.55800
O  1.95200 13.34900 28.92300
C  1.63400 10.97700 29.49700
C  2.84800 10.81300 30.35300
O  3.87300 10.17300 30.08000
O  2.62400 11.43700 31.52000
C  3.67200 11.37400 32.54200
H  1.04800 4.15500 28.54100
H  0.04100 5.17700 22.19700
H  0.41300 11.40300 23.15500
H  2.42600 8.15600 30.74600
H  0.86100 5.70800 30.63200
H  3.40800 5.36200 29.37900
H  2.90000 4.64200 30.92300
H  3.46300 6.31300 31.02300
H  -0.48800 7.48300 31.22500
H  0.13600 9.15600 31.05800
H  -0.19300 7.71200 33.34900
H  1.04100 8.97900 33.11600
H  -0.00400 1.42400 26.42000
H  0.36900 2.40900 27.77500
H  1.71200 1.72300 26.85500
H  1.35600 0.92800 24.33300
H  0.48800 0.46400 22.82400
H  -0.37000 0.78700 24.35100
H  -0.78700 7.38000 20.94900
H  0.27600 9.92200 20.98900
H  1.95600 6.80500 21.00200
H  1.84800 8.38800 20.20600
H  0.87300 7.04300 19.52600
H  -1.96000 9.66600 22.84100
H  -2.38100 8.80900 21.38600
H  -1.31900 11.44400 20.81400
H  -2.72500 11.54000 21.94800
H  -2.87800 10.76200 20.38900
H  0.62700 14.13600 25.62900
H  1.22800 13.54200 24.18000
H  2.34200 13.98900 25.50300
H  0.82900 11.20200 30.19700
H  4.27500 12.27800 32.44800
H  4.33100 10.51800 32.39600
H  3.11400 11.41600 33.47700
Mg 31.11900 58.27300 39.65500
C  28.02400 56.41800 39.09300
C  32.80800 55.35400 38.83200
C  33.80900 60.06000 39.22100
C  29.13400 61.18400 39.80200
N  30.41400 56.15000 38.91400
C  29.15000 55.67500 38.85200
C  29.26300 54.28700 38.27000
C  30.70500 53.79900 38.81300
C  31.40400 55.20700 38.70300
C  30.70300 53.30800 40.33600
C  29.22100 54.44900 36.67100
C  28.11000 53.66200 35.92900
H  27.37200 54.28600 34.73900
N  33.13200 57.76400 39.16600
C  33.63100 56.53700 38.85900
C  34.94400 56.68500 38.44000
C  35.31200 58.04800 38.57900
C  34.05900 58.70300 39.04900
C  35.78700 55.56700 37.92200
C  36.69200 58.70100 38.27100
O  37.70100 58.02800 38.13800
C  36.86300 60.21600 38.13700
N  31.41700 60.28200 39.57700
C  32.67100 60.73800 39.55500
C  32.66000 62.21000 39.78100
C  31.11300 62.61200 40.09800
C  30.53100 61.22600 39.80800
C  33.63600 62.69700 40.83400
C  30.60000 63.77500 39.19800
C  29.73900 64.78800 39.89600
N  29.01800 58.69300 39.52700
C  28.38200 59.92800 39.72400
C  26.92300 59.67300 39.85700
C  26.77100 58.31000 39.59300
C  28.02300 57.83000 39.32800
C  25.84400 60.73800 39.97900
C  25.71700 57.29700 39.53600
O  24.51400 57.40700 39.74800
C  26.46100 56.07200 39.06800
C  26.10100 54.91200 39.93400
O  26.57600 54.69800 41.06900
O  25.20400 54.08700 39.30300
C  24.88600 52.87400 40.06000
H  33.32300 54.40100 38.69700
H  34.67600 60.72000 39.29500
H  28.53200 62.07700 39.98300
H  28.50900 53.61500 38.67900
H  31.13300 53.06700 38.12800
H  31.20000 53.92700 41.08300
H  31.17900 52.32800 40.30000
H  29.63500 53.25500 40.55000
H  30.16900 54.31500 36.15000
H  29.00700 55.50100 36.48700
H  27.33500 53.44100 36.66200
H  28.64300 52.78000 35.57400
H  35.17400 54.67800 37.77800
H  36.49500 55.47100 38.74500
H  36.17700 56.02300 37.01100
H  36.85700 60.53400 39.18000
H  36.11000 60.61500 37.45800
H  37.80800 60.49100 37.66900
H  32.86600 62.62000 38.79200
H  31.11600 62.93500 41.13900
H  34.55800 63.08600 40.40100
H  33.91600 61.84200 41.45000
H  33.20300 63.49400 41.43800
H  30.10500 63.37900 38.31200
H  31.35500 64.41100 38.73600
H  30.31500 65.62400 40.29500
H  29.14800 64.22900 40.62200
H  28.99600 65.23100 39.23300
H  26.13700 61.52600 39.28500
H  25.91000 61.12600 40.99500
H  24.82800 60.41300 39.75700
H  26.11800 55.78300 38.07500
H  24.48600 53.10600 41.04700
H  25.79800 52.27900 40.11800
H  24.26800 52.23500 39.42900

