158

Mg 44.49600 5.08500 46.85500
C  42.49700 7.89500 46.29800
C  41.76300 3.09500 46.46700
C  46.61700 2.51500 46.60500
C  47.36300 7.31100 46.77000
N  42.32500 5.49600 46.50600
C  41.75000 6.68100 46.33000
C  40.21100 6.49300 46.17000
C  39.99400 4.92700 46.46700
C  41.45800 4.45000 46.63700
C  39.02000 4.68100 47.72800
C  39.69300 6.93900 44.68500
C  38.56600 7.96400 44.50800
H  38.81400 8.93100 43.35100
N  44.25800 3.08400 46.65000
C  43.02200 2.48000 46.39200
C  43.28200 1.09900 46.29800
C  44.65800 0.84200 46.49300
C  45.27500 2.17500 46.60100
C  42.22600 0.10700 45.97100
C  45.33200 -0.50300 46.54500
O  44.70100 -1.46600 46.29300
C  46.77100 -0.63600 46.82400
N  46.68700 4.92900 46.37500
C  47.31600 3.77200 46.57400
C  48.80200 3.84900 46.77000
C  49.03200 5.36900 46.85500
C  47.61300 5.94000 46.61900
C  49.32900 3.14000 48.01000
C  50.12200 5.92500 45.90500
C  51.30100 6.62800 46.57000
N  44.91200 7.10900 46.58200
C  46.06800 7.87100 46.61500
C  45.69700 9.23600 46.45200
C  44.30700 9.27100 46.39700
C  43.89300 7.98200 46.43200
C  46.53700 10.50100 46.37900
C  43.22600 10.12800 46.33100
O  43.20400 11.35900 46.37700
C  41.93100 9.30100 46.24900
C  41.17100 9.60800 47.45800
O  41.28800 9.02500 48.53000
O  40.27000 10.62200 47.25000
C  39.23500 10.65700 48.29100
H  40.89500 2.43300 46.48900
H  47.31800 1.68000 46.64700
H  48.29500 7.87400 46.85700
H  39.75900 7.07100 46.97600
H  39.43600 4.43500 45.67000
H  38.66600 5.57800 48.23700
H  39.63700 4.34700 48.56200
H  38.13500 4.07200 47.54000
H  39.27400 6.10700 44.11800
H  40.51800 7.40300 44.14600
H  38.41800 8.50600 45.44200
H  37.65000 7.39800 44.33900
H  41.22600 0.48000 45.75000
H  42.08100 -0.74900 46.63000
H  42.51100 -0.27700 44.99100
H  47.08800 -0.00500 47.65500
H  47.33500 -0.51200 45.89900
H  46.93400 -1.65200 47.18300
H  49.38800 3.41000 45.96300
H  49.20800 5.73100 47.86800
H  49.21200 2.05900 47.94100
H  48.71000 3.50900 48.82800
H  50.38700 3.40500 48.00100
H  49.59600 6.57800 45.20800
H  50.57600 5.23300 45.19700
H  51.68200 7.38000 45.88000
H  52.06500 5.89900 46.84000
H  50.98900 7.20100 47.44300
H  45.84500 11.33900 46.45800
H  46.98700 10.46400 45.38700
H  47.24300 10.61100 47.20100
H  41.53800 9.65600 45.29600
H  39.53000 10.48600 49.32600
H  38.62900 9.79200 48.02000
H  38.78600 11.64600 48.38500
Mg -12.90900 16.57200 42.81300
C  -9.78400 14.77300 42.63600
C  -11.31700 19.20800 41.48000
C  -15.96700 17.97700 42.70600
C  -14.42700 13.36200 43.59100
N  -10.77500 16.81800 42.06500
C  -9.70900 16.02100 42.02600
C  -8.52300 16.64900 41.36400
C  -9.01500 18.08200 41.11700
C  -10.50200 18.05000 41.54400
C  -8.06700 19.15600 41.79300
C  -8.06100 15.83000 40.06300
C  -6.46600 15.54100 39.97900
H  -6.04100 14.18800 39.31600
N  -13.60400 18.43100 42.15800
C  -12.78100 19.40300 41.66600
C  -13.61000 20.58100 41.38000
C  -14.91900 20.29400 41.76900
C  -14.91100 18.89000 42.27800
C  -13.10300 21.87400 40.87100
C  -16.06400 21.27000 41.64700
O  -15.85800 22.46800 41.37400
C  -17.47300 20.81400 42.04400
N  -14.99400 15.74200 42.99000
C  -15.98200 16.59000 43.07300
C  -17.28000 15.80200 43.46200
C  -16.87800 14.34500 43.58900
C  -15.29600 14.43500 43.37800
C  -18.22300 16.32300 44.64300
C  -17.50300 13.47100 42.54200
C  -18.67900 12.59100 42.98100
N  -12.30000 14.44000 43.24000
C  -13.03100 13.31900 43.44200
C  -12.02400 12.17700 43.47200
C  -10.74100 12.71900 43.33100
C  -10.95000 14.14000 43.10300
C  -12.30000 10.71500 43.69700
C  -9.29600 12.36400 43.31100
O  -8.66000 11.35400 43.55400
C  -8.62500 13.77600 42.87200
C  -7.67500 14.15800 43.99000
O  -7.95800 14.51000 45.12600
O  -6.39500 14.16200 43.53300
C  -5.35600 14.56500 44.47100
H  -10.70400 20.00100 41.04600
H  -17.03800 18.19300 42.70800
H  -14.92000 12.45000 43.93400
H  -7.67400 16.70100 42.04500
H  -8.93900 18.29600 40.05100
H  -7.66700 19.74400 40.96700
H  -7.35500 18.67800 42.46500
H  -8.78300 19.77300 42.33500
H  -8.20500 16.44800 39.17700
H  -8.68200 14.93500 40.08700
H  -6.02800 15.45100 40.97300
H  -6.07800 16.38600 39.41000
H  -13.73400 22.08200 40.00700
H  -12.04800 21.96100 40.60800
H  -13.22800 22.74400 41.51600
H  -17.89800 20.18700 41.26100
H  -18.02400 21.74000 42.20800
H  -17.49600 20.26700 42.98600
H  -17.89900 15.91900 42.57200
H  -17.06500 14.05100 44.62100
H  -19.10000 16.84900 44.26800
H  -17.61100 16.87000 45.36100
H  -18.59300 15.51200 45.27000
H  -16.82000 12.71000 42.16400
H  -17.75500 14.00000 41.62300
H  -18.34400 11.55400 42.97000
H  -19.49300 12.74000 42.27200
H  -19.11500 12.91800 43.92500
H  -13.32400 10.41000 43.91300
H  -11.66900 10.32400 44.49500
H  -11.94200 10.27100 42.76900
H  -8.03200 13.72400 41.95900
H  -5.73500 14.69300 45.48500
H  -4.78700 15.41500 44.09600
H  -4.52500 13.86600 44.56700

