158

Mg 30.20500 59.39600 39.73800
C  27.40900 57.64900 38.78800
C  32.19300 56.67300 38.68700
C  32.93700 61.34500 39.73900
C  28.26800 62.33500 39.81100
N  29.83400 57.36800 38.76200
C  28.60100 56.87500 38.56300
C  28.74300 55.54700 37.86000
C  30.21200 55.07300 38.07600
C  30.80100 56.46700 38.60400
C  30.35100 53.90800 39.09200
C  28.37400 55.67700 36.29600
C  27.45000 54.63600 35.76200
H  26.55600 55.07800 34.54300
N  32.29700 58.98800 39.56400
C  32.83600 57.80600 39.10900
C  34.27500 57.98400 39.19400
C  34.55900 59.27300 39.60800
C  33.20000 59.90700 39.69400
C  35.30200 56.98900 38.68100
C  35.91800 59.82300 39.83800
O  36.92100 59.17200 39.62200
C  36.13400 61.12100 40.59100
N  30.48900 61.53400 39.65600
C  31.74100 62.06200 39.74700
C  31.74700 63.55600 39.97700
C  30.20300 63.92500 40.01800
C  29.65400 62.48600 39.88400
C  32.54900 64.07900 41.18200
C  29.76800 64.76300 38.82100
C  28.81400 65.90400 39.09600
N  28.19000 59.86900 39.56400
C  27.50500 61.05600 39.61300
C  26.07200 60.87800 39.36900
C  26.02600 59.51600 39.07500
C  27.31900 58.97100 39.16600
C  24.92100 61.88700 39.20600
C  25.17700 58.49000 38.48100
O  24.00500 58.55100 38.14100
C  26.02200 57.18900 38.25500
C  25.45900 56.12200 39.06500
O  25.41100 56.09000 40.28800
O  24.89000 55.18100 38.19300
C  24.33900 54.02100 38.85000
H  32.90400 55.85400 38.56200
H  33.76900 62.05000 39.78500
H  27.63600 63.22400 39.86700
H  28.12700 54.81400 38.38100
H  30.71700 54.70300 37.18400
H  31.37400 53.64300 39.36000
H  29.93000 53.06200 38.54900
H  29.72200 54.17600 39.94100
H  29.28000 55.55300 35.70300
H  27.99500 56.69300 36.18600
H  26.76500 54.29000 36.53700
H  28.07200 53.79000 35.47100
H  35.78200 57.42000 37.80200
H  34.93900 55.98600 38.45800
H  36.06400 56.90400 39.45600
H  37.18200 61.17600 40.88500
H  35.37100 60.99500 41.36000
H  35.85700 61.93300 39.91900
H  32.12000 64.01400 39.06100
H  29.95900 64.40600 40.96500
H  33.55600 64.38900 40.90200
H  32.59300 63.26800 41.91000
H  31.96600 64.82500 41.72200
H  29.39100 64.10600 38.03800
H  30.57100 65.19100 38.22200
H  29.27200 66.87100 38.88800
H  28.40000 65.85600 40.10300
H  27.94400 65.81800 38.44500
H  24.20800 61.75600 40.01900
H  24.45800 61.67800 38.24200
H  25.13800 62.95500 39.21300
H  26.09300 56.74700 37.26100
H  23.78100 54.30500 39.74200
H  25.10900 53.32100 39.17300
H  23.68700 53.54900 38.11400
Mg 8.95500 48.29800 27.71800
C  7.08600 47.89100 30.64900
C  11.65900 48.90900 29.78100
C  10.73800 49.33700 25.08100
C  6.05900 48.70400 25.95000
N  9.24800 48.67100 29.95800
C  8.42900 48.18400 30.91800
C  9.07600 48.26700 32.36800
C  10.49800 48.80900 32.12400
C  10.49000 48.74700 30.49200
C  10.85800 50.22500 32.65200
C  8.98700 46.98800 33.28000
C  8.40400 47.18100 34.67200
H  8.50100 45.94300 35.59000
N  10.94500 48.85300 27.46700
C  11.90400 48.91500 28.42000
C  13.18000 49.18300 27.82900
C  12.91100 49.31700 26.42000
C  11.48400 49.16800 26.23700
C  14.46200 49.37600 28.67200
C  13.92700 49.50600 25.31000
O  13.51400 49.66000 24.13100
C  15.35000 49.48900 25.63200
N  8.50800 48.91500 25.71300
C  9.44300 49.28300 24.83300
C  8.75100 49.78700 23.59600
C  7.23600 49.48800 23.87300
C  7.27300 48.93300 25.25100
C  9.11300 51.21800 23.06300
C  6.53100 48.56800 22.84500
C  6.86200 48.76400 21.33100
N  6.92100 48.11900 28.08000
C  5.83700 48.27700 27.25300
C  4.62000 48.01200 28.04000
C  5.05800 47.89900 29.38300
C  6.47800 47.91300 29.34400
C  3.25500 48.03900 27.51200
C  4.64000 47.78200 30.78600
O  3.51600 47.73300 31.31000
C  5.92800 47.68300 31.63200
C  5.87200 46.21400 32.21000
O  6.12500 45.12300 31.68800
O  5.47600 46.32500 33.52300
C  5.40800 45.09100 34.27100
H  12.47200 49.16400 30.46400
H  11.27300 49.58300 24.16100
H  5.14600 48.90300 25.38600
H  8.48000 49.04200 32.85100
H  11.26300 48.13200 32.50200
H  10.07000 50.60400 33.30300
H  11.00400 50.95500 31.85600
H  11.78900 50.23900 33.21900
H  9.96400 46.58700 33.54900
H  8.50900 46.14200 32.78600
H  7.40700 47.58700 34.50400
H  8.96000 47.98100 35.16000
H  14.57200 50.46000 28.64300
H  15.33600 49.02100 28.12600
H  14.39200 48.94700 29.67100
H  15.71300 50.18900 26.38500
H  15.84200 49.81000 24.71400
H  15.66400 48.49200 25.94000
H  8.99700 49.06400 22.81800
H  6.76000 50.46200 23.98800
H  8.23900 51.83700 23.26800
H  9.37100 51.30400 22.00800
H  9.85000 51.74300 23.67100
H  5.48500 48.87300 22.87100
H  6.68300 47.52300 23.11200
H  7.27400 49.76700 21.22100
H  5.93300 48.81000 20.76200
H  7.52300 47.99500 20.93200
H  3.22200 48.93100 26.88700
H  2.45800 48.03600 28.25600
H  3.20800 47.12600 26.91900
H  5.97100 48.42700 32.42700
H  4.62200 44.39700 33.97200
H  5.35300 45.37500 35.32200
H  6.32600 44.52800 34.10200

