158

Mg 8.78700 47.86600 26.99100
C  7.28800 47.54500 30.16000
C  11.76400 48.41500 28.52700
C  9.89900 48.85200 24.09000
C  5.46800 47.64300 25.65900
N  9.43700 47.97700 29.16300
C  8.68600 47.68900 30.22800
C  9.55000 47.80200 31.52300
C  10.95900 48.35200 30.98900
C  10.72300 48.26100 29.47500
C  11.42800 49.82300 31.44300
C  9.68800 46.53100 32.43400
C  9.48300 46.90300 33.91300
H  9.64100 45.84300 34.94800
N  10.56700 48.33900 26.35400
C  11.69400 48.58600 27.16200
C  12.79700 48.75100 26.24600
C  12.32400 48.79100 24.95200
C  10.89600 48.76000 25.04400
C  14.23700 48.69000 26.74700
C  13.09700 48.82600 23.55200
O  12.51400 48.90300 22.45900
C  14.58700 48.83000 23.59100
N  7.86000 48.03200 25.10200
C  8.54700 48.60500 24.07300
C  7.63100 48.92000 22.86500
C  6.23100 48.44600 23.35300
C  6.52400 47.96400 24.79900
C  7.74700 50.39000 22.34400
C  5.63800 47.37200 22.36800
C  5.12000 47.83700 21.03700
N  6.78800 47.62900 27.68600
C  5.61300 47.53900 27.04000
C  4.55300 47.49800 28.04300
C  5.20200 47.52900 29.24100
C  6.56900 47.64400 28.97700
C  3.07800 47.33700 27.76100
C  4.90900 47.56300 30.63000
O  3.85600 47.48000 31.19800
C  6.29900 47.43900 31.27600
C  6.33400 46.11100 31.95100
O  6.64400 45.01800 31.46400
O  5.96000 46.32800 33.17900
C  6.14300 45.23100 34.12700
H  12.73700 48.60000 28.98500
H  10.27000 49.19900 23.12400
H  4.45700 47.76600 25.26500
H  9.14400 48.60200 32.14100
H  11.75300 47.61800 31.12600
H  12.48700 49.79900 31.69900
H  10.89200 50.13800 32.33700
H  11.18300 50.60600 30.72500
H  10.67600 46.08300 32.32800
H  8.91600 45.83000 32.11400
H  8.49000 47.33500 34.03800
H  10.26500 47.63100 34.12700
H  14.59800 49.64300 26.36000
H  14.83600 47.82500 26.46400
H  14.25100 48.65800 27.83600
H  14.99300 49.58000 24.27000
H  15.03500 48.98000 22.60800
H  14.86600 47.83300 23.93100
H  7.94200 48.29100 22.03100
H  5.59400 49.32600 23.45100
H  8.32100 51.06000 22.98500
H  6.76200 50.73200 22.02600
H  8.17000 50.39400 21.33900
H  4.76900 46.96900 22.88800
H  6.28600 46.51300 22.19700
H  5.39300 48.88700 20.92700
H  4.03100 47.79200 21.01100
H  5.63800 47.30000 20.24200
H  2.64300 46.71900 28.54600
H  2.90400 46.76300 26.85100
H  2.76000 48.38000 27.75600
H  6.42400 48.27800 31.96100
H  6.27500 45.64900 35.12500
H  7.02500 44.63100 33.90600
H  5.30600 44.55600 34.30800
Mg -9.95300 40.03700 42.59200
C  -8.68500 36.84000 41.67200
C  -7.24000 41.47600 41.08200
C  -11.52600 42.98100 42.88500
C  -12.95600 38.37000 43.46900
N  -8.16000 39.19700 41.55000
C  -7.82500 37.88700 41.21600
C  -6.59700 37.78700 40.41000
C  -6.11100 39.27500 40.47700
C  -7.16400 40.05400 41.22500
C  -4.69000 39.54600 41.08700
C  -6.97500 37.29500 38.99200
C  -6.02100 36.27600 38.37200
H  -5.09200 36.72700 37.26400
N  -9.42500 41.95200 42.00600
C  -8.24100 42.35400 41.51700
C  -8.17300 43.77900 41.62200
C  -9.43100 44.26400 42.16600
C  -10.23300 43.05900 42.37600
C  -6.93900 44.46600 41.19100
C  -9.87700 45.73000 42.36100
O  -9.10500 46.61600 41.88400
C  -11.19200 46.16300 43.05100
N  -12.00100 40.59600 42.99200
C  -12.36700 41.85500 43.18400
C  -13.88300 41.94200 43.68600
C  -14.21300 40.45600 43.81100
C  -13.02300 39.73000 43.32200
C  -14.13900 42.89500 44.90600
C  -15.54900 40.02900 43.13800
C  -16.76000 39.87600 43.92400
N  -10.64100 37.96900 42.79500
C  -11.84700 37.49100 43.14100
C  -11.83800 36.03000 43.05500
C  -10.57900 35.73700 42.48000
C  -9.94800 36.91900 42.22400
C  -12.96600 35.19600 43.50000
C  -9.76700 34.64400 42.00300
O  -10.04000 33.45100 41.93500
C  -8.49400 35.35800 41.37400
C  -7.23800 34.79500 41.94900
O  -6.98600 34.60300 43.08500
O  -6.39100 34.53500 40.92800
C  -5.04800 33.96700 41.15600
H  -6.36700 41.85500 40.54700
H  -12.04000 43.92900 43.05600
H  -13.89500 37.94500 43.83200
H  -5.89300 37.08000 40.85000
H  -6.05100 39.76600 39.50500
H  -3.99300 38.72900 40.89800
H  -4.67300 39.71000 42.16400
H  -4.24900 40.42600 40.62000
H  -7.10200 38.11000 38.27900
H  -7.97000 36.85100 38.96400
H  -6.62400 35.48600 37.92500
H  -5.45100 35.69000 39.09300
H  -6.84400 44.48300 40.10500
H  -6.10600 43.92600 41.64100
H  -7.03500 45.49800 41.52800
H  -12.09100 45.90700 42.49100
H  -11.23100 47.25200 43.08000
H  -11.11300 45.91900 44.11000
H  -14.53200 42.34100 42.90700
H  -14.33800 40.24700 44.87400
H  -14.48900 42.45500 45.83900
H  -14.72500 43.74900 44.56500
H  -13.13900 43.26900 45.12300
H  -15.39800 39.15700 42.50200
H  -15.73700 40.75900 42.35100
H  -17.01000 38.84700 44.18500
H  -17.59200 40.33200 43.38800
H  -16.67700 40.38400 44.88500
H  -12.71400 34.14800 43.34000
H  -13.89300 35.45300 42.98600
H  -13.15800 35.40000 44.55300
H  -8.57600 35.07500 40.32500
H  -4.25100 34.70200 41.04500
H  -4.87200 33.31700 40.29900
H  -5.02900 33.41700 42.09700

