158

Mg 26.56000 50.29100 26.94000
C  24.56900 51.53500 29.55300
C  29.03300 49.70500 29.17000
C  28.41700 49.10300 24.43900
C  24.11200 51.58700 24.72700
N  26.81400 50.84100 29.09700
C  25.76500 51.01900 29.95500
C  26.14900 50.68800 31.38100
C  27.63300 50.58900 31.21700
C  27.86400 50.30700 29.70200
C  28.52100 51.68200 31.82400
C  25.47200 49.42000 32.03100
C  24.56100 49.69100 33.27000
H  24.82900 48.75800 34.44800
N  28.52700 49.55700 26.85900
C  29.34700 49.42600 27.85200
C  30.57600 48.79500 27.32700
C  30.47500 48.81000 25.96300
C  29.03000 49.14400 25.67000
C  31.75400 48.61800 28.23300
C  31.51000 48.60600 24.91500
O  31.25800 48.65400 23.69700
C  32.90400 48.12000 25.27200
N  26.44300 50.55500 24.85400
C  27.30600 49.87600 24.01900
C  26.79400 49.93100 22.54400
C  25.37500 50.60000 22.72300
C  25.30400 51.02800 24.17100
C  27.76600 50.70000 21.60700
C  24.23900 49.62300 22.27900
C  23.97400 48.45800 23.24600
N  24.73100 51.34800 27.06500
C  23.79500 51.64700 26.12900
C  22.66100 52.19900 26.68100
C  22.88900 52.05100 28.09700
C  24.16800 51.69300 28.21100
C  21.49100 52.77800 25.98000
C  22.28900 52.17400 29.36400
O  21.19300 52.53800 29.77800
C  23.48300 51.90700 30.42200
C  23.66400 53.03600 31.30000
O  24.36600 54.00600 31.04100
O  22.92700 52.86900 32.47100
C  23.13800 53.88900 33.58100
H  29.72600 49.34500 29.93300
H  28.89700 48.70300 23.54400
H  23.33600 51.92100 24.03600
H  25.79700 51.44700 32.08000
H  28.04200 49.67400 31.64600
H  29.13000 51.41900 32.68900
H  27.80500 52.44200 32.13700
H  29.08000 52.15200 31.01500
H  26.22600 48.74000 32.42700
H  24.91300 48.90100 31.25200
H  23.50700 49.51000 33.05700
H  24.73500 50.69800 33.65000
H  31.54300 48.65500 29.30100
H  32.40100 49.45400 27.96500
H  32.24300 47.70200 27.90200
H  33.51600 48.90700 25.71300
H  33.30300 47.89600 24.28300
H  32.80600 47.19000 25.83300
H  26.60800 48.91400 22.19900
H  25.35700 51.49100 22.09600
H  28.60100 51.03400 22.22200
H  27.37000 51.62500 21.18700
H  28.07000 50.03600 20.79700
H  24.41500 49.13700 21.32000
H  23.37900 50.29200 22.23300
H  24.22100 47.56000 22.68000
H  22.89600 48.46200 23.40900
H  24.39200 48.58300 24.24500
H  21.49400 52.13200 25.10200
H  21.67400 53.78300 25.60200
H  20.66500 52.55900 26.65600
H  23.24700 51.00100 30.98000
H  23.60700 54.76900 33.14000
H  23.85900 53.47700 34.28700
H  22.21800 54.28300 34.01300
Mg -5.79400 24.93500 26.11000
C  -4.52000 26.66900 28.91200
C  -7.40300 22.89200 28.21000
C  -7.02000 23.37500 23.39300
C  -3.79300 26.92200 24.00100
N  -6.01900 24.85800 28.36300
C  -5.43100 25.67000 29.30500
C  -5.79600 25.20000 30.70800
C  -6.42300 23.81300 30.41900
C  -6.60200 23.80100 28.87800
C  -5.64100 22.59200 31.07800
C  -6.79400 26.20900 31.35000
C  -6.85600 26.36100 32.90200
H  -6.19700 25.29600 33.79600
N  -7.07100 23.47100 25.84400
C  -7.69700 22.73200 26.88200
C  -8.64700 21.81500 26.28500
C  -8.57900 21.96500 24.88600
C  -7.48000 22.92500 24.67100
C  -9.49600 20.88500 27.11500
C  -9.31400 21.27400 23.80500
O  -9.02500 21.42600 22.64500
C  -10.46000 20.35400 24.14700
N  -5.59400 25.25600 24.02500
C  -6.09500 24.42600 23.13600
C  -5.90400 24.87600 21.63100
C  -4.93900 26.11600 21.92400
C  -4.82200 26.18400 23.41400
C  -5.26400 23.74500 20.69700
C  -5.38600 27.45100 21.31400
C  -4.60800 27.91400 20.01700
N  -4.40300 26.45000 26.35400
C  -3.60900 27.14100 25.41000
C  -2.60500 27.92800 26.19600
C  -2.97300 27.81300 27.48900
C  -4.02600 26.91700 27.55300
C  -1.60000 28.88000 25.58000
C  -2.70400 28.37800 28.87100
O  -1.87400 29.21900 29.28400
C  -3.64000 27.55300 29.81900
C  -2.82100 26.67900 30.69300
O  -2.38200 25.59500 30.36300
O  -2.70200 27.24600 31.91900
C  -1.99000 26.32600 32.87200
H  -7.92200 22.23800 28.91400
H  -7.26000 22.80700 22.49200
H  -3.14200 27.59000 23.43300
H  -4.96900 25.22800 31.41700
H  -7.44700 23.79700 30.79100
H  -6.32700 22.13100 31.78900
H  -4.76700 22.91400 31.64500
H  -5.53400 21.86300 30.27500
H  -7.79300 26.03000 30.95200
H  -6.48800 27.18200 30.96300
H  -7.90000 26.49200 33.18300
H  -6.34700 27.29300 33.14900
H  -9.35400 19.93700 26.59600
H  -10.56000 21.12300 27.12200
H  -9.18000 20.70100 28.14200
H  -11.03000 19.96100 23.30400
H  -11.12500 20.77400 24.90100
H  -9.98900 19.40700 24.41100
H  -6.93500 25.19300 21.47400
H  -3.92400 25.84800 21.62800
H  -4.30800 24.08300 20.29800
H  -6.04200 23.48100 19.98100
H  -5.11600 22.84200 21.28900
H  -5.24300 28.20100 22.09200
H  -6.46000 27.52200 21.13900
H  -3.87300 27.12000 19.88600
H  -4.04400 28.80500 20.29500
H  -5.29300 28.05000 19.18000
H  -0.68600 28.80200 26.16900
H  -1.96500 29.89200 25.75500
H  -1.42600 28.71200 24.51800
H  -4.20500 28.26300 30.42200
H  -1.13800 25.77400 32.47600
H  -2.76800 25.70400 33.31300
H  -1.52600 27.02300 33.57000

