158

Mg 35.90300 49.57200 25.51700
C  36.00800 48.01500 28.57800
C  34.75700 52.47600 27.05700
C  35.43500 50.95900 22.42100
C  36.69400 46.45800 23.96500
N  35.29100 50.10700 27.51800
C  35.52200 49.32200 28.65000
C  35.33600 50.07100 29.94700
C  34.64000 51.47900 29.38800
C  34.89000 51.37400 27.91300
C  33.19800 51.76100 29.91500
C  36.63500 50.28900 30.78400
C  36.44300 50.25200 32.33700
H  35.00400 50.66100 32.93700
N  35.26300 51.51100 24.81300
C  34.86600 52.52800 25.59900
C  34.74100 53.73300 24.71800
C  35.01300 53.32500 23.34600
C  35.27100 51.88300 23.50000
C  34.46400 55.08600 25.34200
C  35.10900 54.13300 22.07900
O  35.26100 53.66000 21.00100
C  34.62300 55.61200 22.22600
N  36.07600 48.85300 23.47900
C  35.78400 49.58900 22.38300
C  36.01600 48.82700 21.13200
C  36.62600 47.40700 21.67000
C  36.46900 47.58700 23.12800
C  34.68500 48.82900 20.25300
C  38.13200 47.19500 21.22800
C  39.15400 48.27000 21.62100
N  36.29300 47.64100 26.10400
C  36.64600 46.52900 25.37300
C  36.95300 45.43300 26.28300
C  36.69300 45.97100 27.61100
C  36.31400 47.29600 27.39300
C  37.39700 44.14900 25.77800
C  36.69400 45.62900 29.08500
O  37.06900 44.64400 29.69700
C  36.20200 46.98300 29.74500
C  34.90200 46.68800 30.40600
O  33.85300 46.59100 29.78200
O  35.07900 46.66200 31.76300
C  33.91700 46.53700 32.60400
H  34.40000 53.37500 27.56400
H  35.45500 51.28600 21.38000
H  37.06000 45.50500 23.57900
H  34.67400 49.61100 30.68000
H  35.27200 52.28400 29.76200
H  32.83400 50.85900 30.40500
H  32.53000 52.10400 29.12500
H  33.14100 52.58000 30.63200
H  37.05900 51.27500 30.59300
H  37.34900 49.54400 30.43600
H  37.18800 50.97800 32.66300
H  36.74900 49.28300 32.73000
H  35.01500 55.78100 24.70800
H  34.79400 55.27900 26.36300
H  33.37800 55.15800 25.29200
H  35.46400 56.18700 22.61400
H  33.80000 55.71900 22.93200
H  34.31600 55.90200 21.22100
H  36.71100 49.42800 20.54500
H  36.05300 46.61400 21.18900
H  33.83500 49.11700 20.87300
H  34.48100 47.85900 19.80100
H  34.72000 49.62100 19.50500
H  38.18300 47.32800 20.14700
H  38.46900 46.18600 21.46600
H  38.75600 49.07200 22.24300
H  39.69900 48.56400 20.72400
H  39.87400 47.78300 22.27900
H  37.60600 43.54600 26.66200
H  38.31300 44.24000 25.19500
H  36.55800 43.70700 25.24000
H  36.99100 47.34700 30.40400
H  33.08100 47.07000 32.15100
H  34.27100 46.98700 33.53200
H  33.68000 45.49400 32.81400
Mg 16.31100 52.47600 24.52700
C  17.83900 51.62200 27.53800
C  13.46700 53.41700 26.47000
C  14.63000 53.23300 21.70400
C  18.85300 50.95300 22.71300
N  15.75500 52.46600 26.79100
C  16.63500 52.23100 27.76500
C  15.98300 52.50400 29.20700
C  14.57300 52.97900 28.80900
C  14.49300 52.95000 27.24600
C  13.36100 52.17400 29.45600
C  16.80200 53.48700 30.06600
C  17.20000 52.99700 31.54400
H  16.35100 51.95600 32.23700
N  14.39300 53.23500 24.15900
C  13.34000 53.51600 25.06000
C  12.23200 54.10800 24.42000
C  12.52100 54.21100 22.98800
C  13.91700 53.50100 22.90200
C  11.06100 54.57700 25.24500
C  11.69400 54.75700 21.82900
O  12.10700 54.88000 20.68900
C  10.27600 55.28400 22.01700
N  16.63100 52.16100 22.49700
C  15.77800 52.54600 21.53300
C  16.32700 52.17800 20.19900
C  17.87100 51.69600 20.47300
C  17.80500 51.57600 21.96100
C  15.47900 50.99100 19.67100
C  19.03100 52.59900 20.00700
C  19.17700 52.99200 18.53000
N  18.00500 51.50400 24.95900
C  18.93900 50.91400 24.11500
C  20.04100 50.52600 24.89500
C  19.62600 50.70700 26.24400
C  18.40500 51.28400 26.24700
C  21.21300 49.92400 24.44100
C  20.02500 50.53400 27.61600
O  21.15600 50.20100 28.05500
C  18.89500 51.10000 28.48100
C  18.38800 50.01600 29.28900
O  17.64800 49.06800 29.04200
O  19.09700 50.01200 30.48600
C  18.95600 48.87300 31.38300
H  12.67500 53.82400 27.10300
H  14.02800 53.52100 20.84000
H  19.68700 50.54900 22.13500
H  15.95900 51.51200 29.65700
H  14.39100 54.01000 29.11500
H  12.56000 52.06300 28.72500
H  12.81900 52.74000 30.21400
H  13.78900 51.31800 29.97700
H  16.16500 54.36900 30.13600
H  17.72000 53.72300 29.52900
H  17.12500 53.86200 32.20400
H  18.20700 52.58100 31.53300
H  10.15000 54.55100 24.64700
H  11.19900 55.60300 25.58600
H  10.81200 53.98200 26.12400
H  10.29700 56.12900 22.70600
H  9.60200 54.45800 22.24600
H  9.93800 55.69000 21.06300
H  16.30300 53.03000 19.52000
H  17.98000 50.66400 20.14000
H  16.01800 50.04700 19.59000
H  15.23400 51.32700 18.66400
H  14.66200 50.67500 20.32000
H  19.82600 51.87900 20.20200
H  19.24900 53.39100 20.72300
H  19.44200 54.04700 18.47200
H  18.22100 52.82200 18.03600
H  19.93700 52.33900 18.10000
H  21.08200 49.54900 23.42600
H  21.36200 49.13400 25.17800
H  21.95800 50.71500 24.52000
H  19.21200 52.01600 28.97900
H  18.88800 47.92100 30.85500
H  18.13300 48.94900 32.09400
H  19.90600 48.80300 31.91200

