158

Mg 34.90000 3.91300 30.02800
C  32.41900 5.06700 32.26100
C  37.04300 3.67300 32.51800
C  37.24100 3.45000 27.83700
C  32.61100 4.73800 27.49600
N  34.71900 4.30600 32.17600
C  33.60100 4.69800 32.89800
C  33.95900 4.62800 34.37100
C  35.55800 4.50500 34.44500
C  35.79100 4.13000 32.96600
C  36.32500 5.77000 34.83500
C  33.16000 3.38400 34.89100
C  32.43300 3.55300 36.22500
H  33.01700 4.53300 37.16500
N  36.81600 3.44700 30.17400
C  37.52400 3.29200 31.25000
C  38.84800 2.86200 30.89500
C  38.90000 2.72900 29.50800
C  37.60900 3.21000 29.11200
C  39.89800 2.70500 32.04200
C  40.01300 2.26000 28.64300
O  39.90500 1.85300 27.50800
C  41.41500 2.09700 29.28000
N  34.92800 4.09700 27.95400
C  36.09000 3.90100 27.25400
C  35.90900 4.31400 25.75400
C  34.40100 4.77700 25.74200
C  33.95100 4.47100 27.14500
C  36.93500 5.42500 25.35400
C  33.49400 4.06700 24.62500
C  32.70300 2.80600 24.91300
N  32.81500 4.51600 29.82300
C  32.03800 4.81400 28.74900
C  30.72600 5.14400 29.16400
C  30.83700 5.21900 30.55700
C  32.15100 4.92600 30.88900
C  29.48900 5.41900 28.29100
C  30.06600 5.78600 31.71000
O  29.01000 6.41300 31.85400
C  31.05900 5.46400 32.88200
C  31.16900 6.66700 33.70700
O  32.06300 7.48300 33.64200
O  30.22900 6.75500 34.70100
C  30.45800 7.70700 35.83900
H  37.74400 3.64600 33.35500
H  38.01800 3.29700 27.08600
H  32.10500 5.19700 26.64400
H  33.51600 5.53500 34.78200
H  35.90800 3.64800 35.02200
H  36.92400 6.17300 34.01900
H  37.09800 5.60000 35.58500
H  35.73400 6.61700 35.18200
H  33.80400 2.55500 35.18400
H  32.46600 2.91700 34.19200
H  32.49600 2.64900 36.83100
H  31.41800 3.86200 35.97700
H  40.63300 1.93900 31.79500
H  39.50300 2.40400 33.01300
H  40.30700 3.62600 32.45900
H  42.08000 2.22900 28.42700
H  41.58600 1.08700 29.65400
H  41.73500 2.87700 29.97100
H  35.96100 3.40800 25.15100
H  34.36100 5.85000 25.55300
H  36.37300 6.34000 25.16500
H  37.34100 5.09300 24.39900
H  37.70900 5.62900 26.09400
H  34.13800 3.85800 23.77100
H  32.83500 4.80800 24.17100
H  31.64500 2.98800 24.72200
H  32.90100 2.54400 25.95300
H  33.00500 1.94200 24.32100
H  28.72900 4.65300 28.44600
H  29.76300 5.35800 27.23700
H  29.07200 6.42300 28.36000
H  30.68400 4.64600 33.49600
H  29.71100 7.41400 36.57600
H  30.30800 8.66600 35.34200
H  31.46300 7.59400 36.24700
Mg 17.55500 50.82900 26.63200
C  19.48200 49.27800 29.09100
C  15.21900 51.71800 28.93000
C  15.42500 51.45500 24.09300
C  19.72100 49.30700 24.14500
N  17.31000 50.39400 28.73700
C  18.35800 49.98500 29.57300
C  17.98100 50.18300 31.00000
C  16.45600 50.68800 30.88800
C  16.28900 50.99900 29.41800
C  15.43600 49.64900 31.47200
C  18.94900 51.24500 31.53700
C  18.74500 51.73400 32.95900
H  17.83700 50.89800 33.91200
N  15.74000 51.79000 26.50500
C  14.92500 52.03700 27.56800
C  13.76600 52.68400 27.13600
C  13.80900 52.64800 25.71900
C  15.05000 51.91900 25.37900
C  12.85800 53.36800 28.16700
C  12.88700 53.34100 24.76200
O  13.14400 53.54100 23.57600
C  11.60200 53.95900 25.24900
N  17.50200 50.27600 24.48200
C  16.46700 50.66300 23.70400
C  16.79800 50.46300 22.18000
C  18.25800 50.05300 22.26000
C  18.56200 49.88300 23.70100
C  15.78900 49.46200 21.45300
C  19.25100 51.04700 21.55100
C  20.24900 50.40300 20.51400
N  19.25800 49.54400 26.55200
C  20.02400 49.03300 25.53100
C  21.07700 48.18300 26.11700
C  20.93600 48.29000 27.48800
C  19.87800 49.16400 27.74200
C  22.18000 47.57000 25.20700
C  21.46200 47.77800 28.79100
O  22.41200 47.07600 29.02200
C  20.61200 48.52800 29.87800
C  20.10600 47.62200 30.95800
O  19.33400 46.69700 30.79400
O  20.73700 48.02400 32.16200
C  20.21300 47.30000 33.32400
H  14.61900 52.13400 29.74200
H  14.69500 51.54700 23.28500
H  20.42100 48.99300 23.36800
H  18.03200 49.23400 31.53400
H  16.34800 51.56500 31.52700
H  15.89300 48.83200 32.03100
H  14.97600 49.10200 30.64900
H  14.70400 50.07200 32.16000
H  18.81200 52.15000 30.94600
H  20.01400 51.05100 31.41500
H  18.34700 52.74300 32.85300
H  19.74000 51.82400 33.39500
H  13.31600 54.33500 28.37600
H  12.76800 52.83700 29.11400
H  11.83000 53.35300 27.80500
H  10.89200 53.29100 25.73700
H  11.19000 54.41000 24.34700
H  11.85800 54.77300 25.92800
H  16.73200 51.43400 21.68900
H  18.25300 49.07300 21.78200
H  14.98700 49.27900 22.16700
H  16.36100 48.56100 21.23000
H  15.43000 49.84300 20.49700
H  19.95700 51.55400 22.21000
H  18.73700 51.83300 20.99700
H  20.16400 50.76800 19.49100
H  19.95700 49.35600 20.43400
H  21.29300 50.35300 20.82300
H  23.00000 47.19600 25.81900
H  22.55300 48.34900 24.54200
H  21.70400 46.78700 24.61600
H  21.22500 49.27900 30.37600
H  20.01800 46.23600 33.19200
H  19.43000 47.84600 33.85200
H  21.13100 47.27700 33.91000

