158

Mg 46.95600 35.31600 28.35100
C  45.53900 33.52800 31.05700
C  47.43200 37.94200 30.50400
C  48.04000 37.19800 25.74100
C  46.23900 32.78900 26.22800
N  46.85000 35.53700 30.64200
C  46.10200 34.73800 31.45800
C  46.21400 35.33600 32.86700
C  46.37500 36.85200 32.57900
C  46.90000 36.81500 31.15600
C  45.11300 37.71600 32.81900
C  47.49600 34.72100 33.55300
C  47.46900 34.54800 35.03600
H  46.50100 35.29900 35.87100
N  47.68200 37.21400 28.15400
C  47.93100 38.10500 29.18200
C  48.64700 39.23600 28.68900
C  48.67600 39.13700 27.25300
C  48.13400 37.78700 27.00800
C  49.12100 40.42700 29.60500
C  49.20900 40.14200 26.23600
O  49.22200 39.91700 24.99700
C  49.60600 41.49000 26.74900
N  46.84200 35.19200 26.17100
C  47.44300 36.01700 25.32300
C  47.43900 35.54300 23.86600
C  47.10400 34.03900 24.17100
C  46.67800 33.98300 25.56500
C  46.51700 36.36600 22.82100
C  48.36900 33.12700 23.90700
C  48.59800 32.70300 22.50200
N  46.04800 33.57400 28.49900
C  45.92600 32.61100 27.57500
C  45.37100 31.39000 28.15900
C  45.07800 31.82800 29.43500
C  45.62300 33.05200 29.67000
C  44.94000 30.11700 27.40500
C  44.47800 31.36600 30.71600
O  43.93100 30.37200 30.99400
C  44.54000 32.57800 31.68400
C  44.92400 32.06200 33.00800
O  46.07600 31.95400 33.44700
O  43.85800 31.82000 33.78400
C  44.18500 31.54800 35.15000
H  47.51500 38.76500 31.21700
H  48.18800 37.87500 24.89700
H  46.01000 31.92000 25.60800
H  45.31400 35.01700 33.39200
H  47.12000 37.31100 33.22900
H  44.83800 38.22700 31.89600
H  45.41000 38.41800 33.59800
H  44.28300 37.12600 33.20700
H  48.33500 35.38400 33.34100
H  47.58400 33.69200 33.20400
H  48.40900 34.95200 35.41200
H  47.45900 33.51300 35.38000
H  49.17800 40.16100 30.66100
H  48.35800 41.19900 29.51100
H  50.14600 40.72300 29.38100
H  50.49200 41.64300 27.36500
H  48.77500 42.05800 27.16800
H  49.80600 42.15100 25.90600
H  48.43000 35.57500 23.41400
H  46.25100 33.66300 23.60500
H  45.44900 36.15000 22.82400
H  46.85700 36.31300 21.78700
H  46.52800 37.37700 23.22800
H  48.17200 32.19400 24.43500
H  49.28600 33.56900 24.29700
H  49.66000 32.91400 22.37200
H  48.04300 33.33800 21.81100
H  48.40100 31.64300 22.33900
H  44.07700 30.50300 26.86300
H  44.67700 29.41300 28.19500
H  45.72500 29.86900 26.69100
H  43.62000 33.10900 31.92800
H  43.29900 31.19900 35.68100
H  44.49900 32.49400 35.59200
H  44.90000 30.72500 35.16900
Mg 9.14600 47.49500 25.34300
C  7.13300 47.43700 28.50400
C  11.74000 48.34300 27.19200
C  10.89300 47.51400 22.52000
C  6.11300 47.44500 23.55900
N  9.29300 47.85500 27.57500
C  8.41500 47.76400 28.71300
C  9.14000 48.08300 30.02500
C  10.48800 48.80300 29.44900
C  10.53300 48.25800 27.96300
C  10.46000 50.35900 29.46700
C  9.39000 46.82400 30.95900
C  9.07100 47.22800 32.44000
H  8.72700 46.16500 33.50200
N  11.11800 47.77600 24.92100
C  12.06700 48.12800 25.83400
C  13.35900 48.22800 25.12900
C  13.17100 47.87800 23.79800
C  11.69700 47.69700 23.71100
C  14.61700 48.58900 25.86500
C  14.12500 47.66600 22.60800
O  13.59800 47.47800 21.48200
C  15.59800 47.58500 22.84400
N  8.60200 47.65900 23.39900
C  9.52400 47.56000 22.35000
C  8.86200 47.61600 20.93500
C  7.37900 47.39900 21.24900
C  7.35300 47.46500 22.83500
C  9.16400 48.92200 20.14000
C  6.67300 46.12900 20.57600
C  5.24700 46.52600 20.08800
N  7.06100 47.47200 25.86800
C  5.99300 47.47300 25.00700
C  4.70400 47.42200 25.76500
C  5.15300 47.29300 27.15600
C  6.55900 47.34900 27.16100
C  3.31500 47.49300 25.25200
C  4.71300 47.15200 28.51400
O  3.63000 46.84100 28.96600
C  5.99500 47.23400 29.41800
C  6.04800 45.90300 30.22800
O  6.42400 44.83400 29.75500
O  5.63700 46.16500 31.46300
C  5.52800 45.04400 32.42200
H  12.57200 48.53400 27.87400
H  11.32800 47.27600 21.54800
H  5.13100 47.39200 23.08500
H  8.46100 48.75900 30.54400
H  11.37100 48.46600 29.99100
H  10.55500 50.74100 28.45000
H  11.23200 50.72000 30.14700
H  9.67100 50.90900 29.98000
H  10.35600 46.32000 30.98300
H  8.79100 45.91700 30.87200
H  8.27600 47.96800 32.53400
H  9.80900 47.98500 32.70700
H  15.29900 47.74200 25.79500
H  14.43200 48.70200 26.93300
H  14.98500 49.56000 25.53500
H  15.67500 48.50700 23.42000
H  16.09800 47.71500 21.88400
H  15.88000 46.72100 23.44500
H  9.33700 46.76500 20.44600
H  6.84300 48.29800 20.94500
H  9.92200 48.75700 19.37500
H  9.64900 49.63200 20.81100
H  8.26500 49.18900 19.58300
H  6.47700 45.35100 21.31300
H  7.10800 45.72600 19.66200
H  5.23500 46.22900 19.03900
H  5.07100 47.60100 20.12900
H  4.43200 45.97700 20.55900
H  3.08000 46.47600 24.93700
H  3.44400 48.27700 24.50500
H  2.74700 47.95000 26.06200
H  6.03000 48.03100 30.16100
H  5.84800 44.04700 32.11900
H  4.49000 45.01600 32.75400
H  6.11500 45.29700 33.30500

