158

Mg 26.47300 -0.20500 28.81500
C  28.13800 -0.38400 31.87700
C  23.53800 0.53700 30.64200
C  24.67900 -0.26200 25.99000
C  29.32600 -0.83300 27.15700
N  25.91300 -0.01600 31.05200
C  26.81400 -0.05000 32.09600
C  26.14200 0.35900 33.35900
C  24.65400 0.67300 33.01300
C  24.67500 0.34400 31.47700
C  23.61300 -0.15300 33.84700
C  26.80400 1.58000 34.10900
C  26.98300 1.42000 35.63400
H  25.96900 0.61900 36.50300
N  24.39600 0.15200 28.36400
C  23.35800 0.36100 29.25000
C  22.16200 0.51600 28.49300
C  22.43500 0.15300 27.16900
C  23.87600 -0.04100 27.11400
C  20.86200 0.85900 29.13200
C  21.56000 -0.04700 25.98700
O  21.98000 -0.50100 24.95600
C  20.04300 0.28900 26.12400
N  26.96400 -0.48600 26.89000
C  26.08200 -0.41800 25.82900
C  26.75100 -0.59500 24.50100
C  28.28800 -0.53600 24.80300
C  28.21200 -0.65100 26.38200
C  26.37100 -1.83100 23.65900
C  28.86100 0.79600 24.29400
C  30.14800 0.72800 23.48600
N  28.29900 -0.79400 29.39500
C  29.40500 -0.96700 28.56100
C  30.60400 -1.11000 29.39700
C  30.12300 -0.98400 30.74600
C  28.74300 -0.71100 30.67400
C  32.02700 -1.32300 28.91900
C  30.47300 -1.03400 32.16500
O  31.51700 -1.18500 32.75300
C  29.20300 -0.60100 32.99800
C  28.79600 -1.61400 33.97400
O  28.17000 -2.62000 33.74000
O  29.42500 -1.34300 35.22500
C  29.41500 -2.42400 36.26400
H  22.66100 0.88700 31.19100
H  24.24500 -0.50600 25.01800
H  30.29800 -0.75300 26.66600
H  26.23300 -0.44900 34.08500
H  24.51500 1.75300 33.05900
H  23.91100 -0.76100 34.70100
H  23.04600 -0.79800 33.17500
H  22.98000 0.66000 34.20100
H  26.24200 2.51100 34.03700
H  27.79300 1.71600 33.67300
H  27.10100 2.42500 36.03700
H  27.92700 0.90700 35.81500
H  20.93500 1.21100 30.16100
H  20.24100 -0.03600 29.14000
H  20.25500 1.58300 28.58800
H  19.66800 0.19700 25.10500
H  19.96200 1.32000 26.47100
H  19.74500 -0.38400 26.92800
H  26.43200 0.21800 23.85000
H  28.83800 -1.37900 24.38500
H  27.21400 -2.41900 23.29600
H  25.81400 -1.60900 22.74900
H  25.70200 -2.46600 24.24000
H  29.10900 1.35700 25.19500
H  28.11500 1.24300 23.63600
H  31.08800 1.21600 23.74400
H  29.95000 1.13500 22.49400
H  30.40700 -0.30200 23.24500
H  32.71300 -0.93800 29.67400
H  32.15300 -0.94800 27.90300
H  32.22700 -2.39300 28.87500
H  29.56000 0.24400 33.58700
H  29.43600 -3.42900 35.84300
H  28.53800 -2.36900 36.90900
H  30.30000 -2.30500 36.88900
Mg 46.87600 24.61600 29.33700
C  47.49700 27.18300 31.66900
C  45.75800 22.65100 31.93700
C  46.72700 22.05400 27.19400
C  48.37300 26.61900 26.88000
N  46.68900 24.93700 31.59800
C  46.99400 26.07900 32.34300
C  46.37000 25.91800 33.79700
C  45.94000 24.39800 33.84200
C  46.07000 23.96800 32.36800
C  46.91800 23.52400 34.70000
C  45.29800 26.93700 34.29200
C  45.64200 27.61900 35.63400
H  46.35400 26.83300 36.70100
N  46.51000 22.60600 29.58500
C  45.99100 22.00100 30.73200
C  45.49400 20.65900 30.34400
C  45.64000 20.53000 28.98500
C  46.38200 21.71400 28.53400
C  44.78400 19.67900 31.34600
C  45.33700 19.30800 28.03300
O  45.64300 19.26300 26.87100
C  44.62200 18.11500 28.51900
N  47.60100 24.30700 27.29800
C  47.30500 23.17200 26.62800
C  47.89100 23.19600 25.20900
C  48.28700 24.73400 25.02000
C  48.06500 25.28600 26.50400
C  48.95600 22.08900 24.90500
C  47.48000 25.54300 23.91500
C  46.21700 26.22800 24.33500
N  47.67700 26.50900 29.20700
C  48.30500 27.13300 28.15800
C  48.79000 28.47500 28.60700
C  48.39500 28.52500 29.94600
C  47.78900 27.28600 30.27400
C  49.47100 29.47300 27.84300
C  48.56300 29.34500 31.12700
O  48.97400 30.46600 31.27100
C  47.86000 28.51700 32.29800
C  48.77800 28.26100 33.41500
O  49.62900 27.39100 33.40000
O  48.64100 29.17700 34.41600
C  49.58000 29.08800 35.53700
H  45.20100 22.06800 32.67400
H  46.74500 21.20100 26.51200
H  48.67300 27.25500 26.04400
H  47.29100 26.15400 34.33000
H  44.91000 24.25400 34.16800
H  47.52100 24.17900 35.32800
H  47.62400 22.89900 34.15200
H  46.37800 22.84500 35.35900
H  44.41000 26.36800 34.56500
H  45.18400 27.67300 33.49600
H  44.71800 27.82100 36.17500
H  45.98700 28.62200 35.38100
H  45.21300 18.70600 31.10700
H  43.73100 19.85500 31.12800
H  44.93800 19.90800 32.40000
H  45.32200 17.58000 29.16200
H  44.36700 17.45500 27.69000
H  43.66300 18.43300 28.92700
H  46.96800 22.88700 24.71800
H  49.36000 24.82800 24.85800
H  49.23000 21.49200 25.77500
H  49.79900 22.62500 24.47000
H  48.48600 21.34200 24.26600
H  47.37600 24.89800 23.04300
H  48.25000 26.28900 23.72000
H  45.37000 25.66200 23.94800
H  46.14100 27.27800 24.05100
H  46.08900 26.20800 25.41700
H  48.71200 29.75400 27.11300
H  50.31300 29.00400 27.33500
H  49.91500 30.31400 28.37600
H  46.91600 28.98400 32.57600
H  49.15000 28.50700 36.35200
H  49.70900 30.09000 35.94600
H  50.59000 28.74800 35.30800

