158

Mg 25.67500 1.32800 29.62500
C  27.65700 0.95900 32.53000
C  22.91100 1.41900 31.70100
C  23.81900 1.38400 26.85000
C  28.60800 0.91000 27.67500
N  25.33000 0.99600 31.90300
C  26.29200 1.03100 32.87700
C  25.64100 1.28400 34.31800
C  24.05400 1.20800 33.91700
C  24.08800 1.23900 32.41300
C  23.31900 -0.07000 34.37600
C  26.08900 2.60400 35.05300
C  26.38800 2.35500 36.52400
H  25.68200 3.22900 37.57200
N  23.66700 1.32100 29.31000
C  22.68500 1.45900 30.25500
C  21.46700 1.73800 29.59500
C  21.73300 1.85800 28.19600
C  23.12800 1.47600 28.08600
C  20.23000 1.97400 30.38400
C  20.80200 2.12200 27.06800
O  21.01900 1.75900 25.88300
C  19.43300 2.77000 27.44200
N  26.17500 1.11300 27.62000
C  25.18900 1.23900 26.61600
C  25.78600 1.10400 25.23700
C  27.37200 1.06000 25.48300
C  27.43000 0.98300 27.00800
C  25.35900 -0.17900 24.43800
C  27.97400 2.36700 24.82400
C  28.63600 2.23600 23.42400
N  27.67600 1.02600 29.92400
C  28.77400 0.89200 29.03900
C  29.95200 0.53200 29.79700
C  29.57800 0.59100 31.15800
C  28.18400 0.97000 31.20600
C  31.14400 -0.03400 29.11900
C  30.09100 0.35300 32.52400
O  31.21600 0.04400 32.90600
C  28.81200 0.70500 33.47000
C  28.65600 -0.39300 34.45600
O  28.26500 -1.53300 34.23000
O  28.90500 0.05800 35.75100
C  28.72100 -0.88000 36.90500
H  22.08600 1.66900 32.37100
H  23.24700 1.45500 25.92200
H  29.52100 0.87800 27.07600
H  26.02800 0.42800 34.87100
H  23.48000 2.02900 34.34600
H  22.41200 0.30200 34.85200
H  23.89800 -0.59800 35.13300
H  23.00900 -0.75600 33.58700
H  25.25100 3.29800 35.00200
H  26.90600 3.08200 34.51400
H  27.47400 2.26500 36.54400
H  25.96700 1.37400 36.74400
H  19.40000 1.36000 30.03200
H  19.97700 3.03400 30.35300
H  20.28200 1.75900 31.45100
H  18.59200 2.08100 27.51900
H  19.21900 3.49500 26.65700
H  19.49000 3.40900 28.32300
H  25.36300 1.96800 24.72600
H  27.97200 0.25300 25.06200
H  26.26000 -0.73600 24.18000
H  24.81900 0.24500 23.59200
H  24.75900 -0.75700 25.14100
H  28.76000 2.79800 25.44500
H  27.15200 3.08200 24.86400
H  28.15600 1.34400 23.02000
H  29.72300 2.15700 23.41000
H  28.42200 3.05400 22.73600
H  31.43400 -0.92000 29.68400
H  32.04200 0.58100 29.05600
H  30.91900 -0.44200 28.13400
H  29.06800 1.57600 34.07400
H  28.10600 -0.42900 37.68400
H  29.68200 -1.08700 37.37500
H  28.28800 -1.82500 36.57700
Mg 0.45700 43.28300 25.43700
C  2.23000 43.05900 28.28600
C  -2.46300 42.52500 27.23200
C  -1.16400 42.26400 22.59900
C  3.33100 43.87100 23.54000
N  -0.06600 42.81000 27.56100
C  0.82800 42.91800 28.59700
C  0.21800 42.83300 30.00900
C  -1.29800 42.72300 29.54100
C  -1.28800 42.61400 28.03800
C  -2.13800 41.56300 30.27800
C  0.51900 44.02800 31.07700
C  0.92200 43.74100 32.46600
H  0.61300 42.30600 33.16400
N  -1.47200 42.57900 24.92500
C  -2.49800 42.51800 25.83300
C  -3.75000 42.43600 25.08500
C  -3.39300 42.20700 23.73600
C  -1.96000 42.35100 23.73400
C  -5.08200 42.63300 25.81800
C  -4.32100 41.98200 22.42900
O  -3.92100 42.11800 21.29700
C  -5.72700 41.74900 22.66700
N  1.05000 42.99500 23.31600
C  0.15800 42.57600 22.40200
C  0.83700 42.64400 20.98400
C  2.13600 43.50900 21.31300
C  2.18000 43.46100 22.83900
C  1.14800 41.31700 20.29200
C  2.19800 44.99400 20.75700
C  2.26000 46.12300 21.76100
N  2.46900 43.41900 25.80200
C  3.51800 43.70300 24.93500
C  4.70100 43.83100 25.77300
C  4.26200 43.61800 27.08200
C  2.85100 43.30200 27.05800
C  6.10000 44.19300 25.35000
C  4.67300 43.51300 28.45700
O  5.79000 43.62500 28.95100
C  3.43900 43.09800 29.28900
C  3.73300 41.89300 30.14700
O  3.38100 40.75300 29.88200
O  4.37700 42.30500 31.33100
C  4.83400 41.19700 32.18900
H  -3.35700 42.47400 27.85700
H  -1.69900 41.78100 21.77800
H  4.23100 44.26800 23.06600
H  0.60100 41.93900 30.50100
H  -1.81200 43.64200 29.82300
H  -2.84600 42.08700 30.92000
H  -1.48800 40.88200 30.82800
H  -2.74600 41.09900 29.50200
H  -0.41000 44.58500 31.20100
H  1.23500 44.72300 30.63800
H  0.37900 44.30800 33.22100
H  1.97500 44.00300 32.57500
H  -5.83400 43.09000 25.17500
H  -4.99500 43.32000 26.66000
H  -5.56300 41.78500 26.30500
H  -5.85200 41.03300 23.48000
H  -6.22900 41.42700 21.75500
H  -6.26200 42.69200 22.77200
H  0.09800 43.20200 20.40900
H  3.05100 42.98000 21.04900
H  1.24500 40.60500 21.11200
H  2.13500 41.32000 19.83100
H  0.39900 41.11100 19.52800
H  1.45000 45.31600 20.03200
H  3.16000 44.93000 20.24700
H  1.28600 46.14400 22.25000
H  2.38000 47.14800 21.41200
H  2.93600 46.04700 22.61200
H  6.32500 45.11800 25.88100
H  6.24400 44.21700 24.27000
H  6.85500 43.50500 25.73000
H  3.48000 43.90200 30.02500
H  5.54400 40.63700 31.58200
H  3.93800 40.67100 32.51800
H  5.28200 41.73000 33.02800

