158

Mg 9.68400 49.06800 25.53100
C  7.77100 49.41600 28.42600
C  12.49100 49.90600 27.30900
C  11.49100 48.77100 22.63900
C  6.75700 48.42100 23.75700
N  10.04300 49.78200 27.55800
C  9.14500 49.64600 28.59000
C  9.82800 49.97500 29.94700
C  11.18100 50.47200 29.46800
C  11.28700 49.99500 28.04700
C  11.31300 52.02200 29.42900
C  9.79900 48.82300 30.94600
C  10.87500 48.76200 32.04100
H  10.52700 47.75200 33.14400
N  11.72800 49.27900 25.04700
C  12.76900 49.52000 25.97200
C  14.04700 49.43700 25.23900
C  13.71800 49.14700 23.89300
C  12.25100 49.02800 23.77900
C  15.43900 49.59200 25.89700
C  14.77600 48.88900 22.76800
O  14.49100 48.82300 21.57600
C  16.30600 48.75900 23.11300
N  9.22800 48.73500 23.49100
C  10.12700 48.69000 22.48300
C  9.46500 48.05800 21.20800
C  7.93500 48.04100 21.56200
C  7.99100 48.40400 23.01500
C  9.90300 48.69800 19.86100
C  7.27000 46.71300 21.23200
C  7.55500 45.54700 22.20800
N  7.62700 49.03500 25.94100
C  6.56100 48.71500 25.17400
C  5.35100 48.78200 25.89400
C  5.78800 49.04400 27.16700
C  7.14200 49.22700 27.16200
C  4.00100 48.31100 25.37700
C  5.34100 49.09800 28.51200
O  4.23400 48.86200 28.93500
C  6.58000 49.28100 29.47200
C  6.76300 48.02400 30.25000
O  7.45300 47.03300 29.98300
O  5.93700 48.02200 31.33300
C  6.10900 46.93400 32.39100
H  13.43600 50.02600 27.84300
H  12.02300 48.59800 21.70100
H  5.85300 48.23800 23.17200
H  9.37000 50.81500 30.46900
H  12.07800 50.06100 29.93000
H  10.71500 52.37600 28.58900
H  12.32100 52.38000 29.22000
H  11.02500 52.43500 30.39600
H  9.71100 47.92400 30.33600
H  8.92100 48.90500 31.58700
H  11.09900 49.76100 32.41600
H  11.78200 48.41700 31.54500
H  15.94400 48.62800 25.97100
H  15.43400 49.94500 26.92800
H  16.04000 50.34300 25.38500
H  16.54200 47.90100 23.74300
H  16.75000 49.71800 23.38200
H  16.76800 48.33700 22.22100
H  9.67000 46.99700 21.06300
H  7.23000 48.71500 21.07700
H  9.10400 49.30200 19.43200
H  10.29600 47.90000 19.23100
H  10.68600 49.39300 20.16500
H  7.60900 46.38100 20.25100
H  6.23200 46.99600 21.05600
H  8.25600 45.76900 23.01300
H  7.97900 44.65700 21.74300
H  6.57300 45.41500 22.66300
H  3.50700 49.07400 24.77600
H  3.30600 48.09900 26.19000
H  4.15500 47.44400 24.73500
H  6.28800 50.10700 30.12100
H  5.97800 47.38900 33.37300
H  7.18000 46.73800 32.35500
H  5.53800 46.06400 32.06700
Mg -10.62700 38.75600 41.46500
C  -8.56100 35.92400 40.74100
C  -8.40700 40.59000 39.59800
C  -12.91600 41.22600 41.39800
C  -13.05700 36.58600 42.62200
N  -8.62300 38.28600 40.49500
C  -8.02800 37.10000 40.20600
C  -6.79900 37.26000 39.34100
C  -6.72600 38.76300 39.15400
C  -7.98000 39.26300 39.77900
C  -5.50100 39.49400 39.72500
C  -6.96700 36.48700 37.92200
C  -5.75800 35.76600 37.47600
H  -5.10500 36.14000 36.14900
N  -10.64800 40.67400 40.71600
C  -9.61100 41.26400 40.01700
C  -10.04600 42.66900 39.75800
C  -11.32400 42.87100 40.20100
C  -11.68800 41.55900 40.79900
C  -9.15100 43.61100 38.93000
C  -12.19400 44.13100 39.91000
O  -11.72900 45.14000 39.43400
C  -13.72500 44.21100 40.26600
N  -12.65800 38.91200 41.89200
C  -13.46400 39.99600 41.82600
C  -14.87600 39.79400 42.39000
C  -14.82100 38.26300 42.78700
C  -13.39900 37.91300 42.45500
C  -15.09600 40.77600 43.55600
C  -15.86400 37.26400 42.09700
C  -16.67100 36.33000 42.99700
N  -10.74100 36.67600 41.72900
C  -11.75800 35.96700 42.27600
C  -11.38900 34.61000 42.33200
C  -10.13500 34.56900 41.79100
C  -9.77300 35.84600 41.34800
C  -12.17200 33.48000 42.94000
C  -9.09900 33.64400 41.40400
O  -8.98800 32.40600 41.53500
C  -7.99000 34.54200 40.69100
C  -6.69900 34.44100 41.50700
O  -5.88200 33.54600 41.30600
O  -6.63200 35.40700 42.47700
C  -5.50700 35.28300 43.38600
H  -7.69100 41.23700 39.08700
H  -13.66200 42.01200 41.53600
H  -13.86600 35.95500 42.99500
H  -6.04200 36.85500 40.01200
H  -6.72200 39.07100 38.10900
H  -5.72900 40.25500 40.47100
H  -4.87900 39.88400 38.91900
H  -4.83600 38.74100 40.14900
H  -7.39800 37.20100 37.21900
H  -7.81000 35.79500 37.91400
H  -5.89500 34.69700 37.63400
H  -4.96100 36.02400 38.17300
H  -8.88500 44.35200 39.68300
H  -9.60900 44.03900 38.03700
H  -8.34200 43.01200 38.51200
H  -13.71400 44.38800 41.34100
H  -14.23300 43.29200 39.97200
H  -14.26400 45.02000 39.77100
H  -15.61600 40.02700 41.62400
H  -15.07300 38.12900 43.83900
H  -14.11600 40.95900 43.99700
H  -15.75800 40.52200 44.38300
H  -15.41200 41.75900 43.20700
H  -15.41000 36.65300 41.31700
H  -16.63700 37.91000 41.67900
H  -16.88600 36.86000 43.92500
H  -16.10200 35.42900 43.22300
H  -17.62200 36.22300 42.47500
H  -12.24500 33.57300 44.02400
H  -11.70300 32.53600 42.66300
H  -13.16700 33.41800 42.50100
H  -7.67500 34.07900 39.75600
H  -5.28200 36.22300 43.88900
H  -4.61800 34.92000 42.86900
H  -5.82300 34.55000 44.12900

