158

Mg 34.94500 48.62000 26.42800
C  35.34100 46.74500 29.37100
C  33.66600 51.20600 28.27100
C  34.04600 50.10900 23.54100
C  35.81300 45.70100 24.60100
N  34.49600 48.81200 28.62000
C  34.91200 48.04700 29.59700
C  34.90900 48.74600 30.98000
C  34.17100 50.09000 30.61300
C  34.08600 50.01600 29.03200
C  32.71900 50.10900 31.26700
C  36.33500 48.98000 31.60400
C  36.38000 48.60100 33.16500
H  35.15300 48.40200 33.92600
N  34.17900 50.46700 26.01700
C  33.77100 51.48500 26.86200
C  33.51400 52.73700 26.13300
C  33.49300 52.31100 24.75200
C  33.89300 50.89500 24.72800
C  33.19100 54.05300 26.81800
C  33.06400 53.16200 23.57100
O  33.19300 52.67400 22.42300
C  32.56400 54.62700 23.63900
N  35.00500 48.10200 24.43700
C  34.51800 48.77100 23.43800
C  34.50900 48.07600 22.05800
C  35.40700 46.86700 22.47000
C  35.46900 46.94600 23.97600
C  33.16800 47.68200 21.44000
C  36.75200 46.73400 21.77500
C  37.64800 48.00000 22.00600
N  35.56200 46.60500 26.87200
C  35.88200 45.58500 26.01100
C  36.21800 44.41800 26.79500
C  36.00300 44.77100 28.14500
C  35.59200 46.17400 28.12500
C  36.66100 43.15500 26.27600
C  36.01400 44.36900 29.51800
O  36.21300 43.25600 29.92600
C  35.62300 45.61000 30.36700
C  34.39000 45.07300 31.00600
O  33.25800 45.11600 30.52100
O  34.63000 44.52300 32.19900
C  33.47100 43.85300 32.85000
H  33.31700 52.06100 28.85400
H  33.72200 50.50100 22.57400
H  36.02900 44.90500 23.88400
H  34.30400 48.11400 31.62900
H  34.81000 50.91800 30.91800
H  32.44800 49.22800 31.84900
H  32.00700 50.20100 30.44700
H  32.51700 50.92800 31.95700
H  36.53100 50.05200 31.59900
H  37.17500 48.51300 31.09000
H  36.98200 49.34600 33.68400
H  37.05000 47.75000 33.04400
H  33.73200 54.88100 26.35900
H  33.50000 54.06100 27.86300
H  32.10700 54.16500 26.80500
H  32.54500 55.10000 22.65700
H  33.30800 55.19200 24.20100
H  31.56500 54.64600 24.07400
H  35.04900 48.87200 21.54500
H  34.87600 45.93600 22.27300
H  33.03700 46.62400 21.21500
H  33.15100 48.21800 20.49100
H  32.33200 47.95400 22.08500
H  36.72900 46.63300 20.69000
H  37.32200 45.87400 22.12700
H  38.16300 48.09700 21.05000
H  38.27600 47.80000 22.87400
H  37.12300 48.94500 22.14800
H  36.93600 43.32100 25.23400
H  36.01400 42.27900 26.32200
H  37.52800 42.79900 26.83200
H  36.27600 45.93300 31.17700
H  33.50500 42.78800 32.62500
H  32.49600 44.28900 32.63400
H  33.61500 43.86900 33.93100
Mg 6.93200 55.55800 39.80500
C  5.00600 52.58000 39.80700
C  9.78200 53.58300 38.97000
C  8.67200 58.48200 39.40300
C  3.86900 57.36800 39.59800
N  7.25600 53.42900 39.19300
C  6.34900 52.38800 39.33400
C  6.97900 51.03800 39.02100
C  8.56400 51.30800 39.02400
C  8.51900 52.87500 39.05400
C  9.32800 50.62100 40.17200
C  6.55700 50.37300 37.72200
C  5.93300 51.24300 36.55900
H  6.47300 51.16100 35.14400
N  8.99000 56.01700 39.30600
C  9.96900 55.05000 39.01900
C  11.26300 55.81700 38.95300
C  10.94700 57.16200 39.02900
C  9.47900 57.28700 39.29300
C  12.60600 55.19500 38.74600
C  11.94900 58.28000 38.97800
O  13.15500 58.02100 38.90900
C  11.50400 59.58800 39.18400
N  6.31200 57.57800 39.50800
C  7.25300 58.60300 39.41900
C  6.50600 59.92000 39.79200
C  4.99500 59.58200 39.37200
C  5.04400 58.07500 39.51900
C  6.65500 60.53600 41.19200
C  4.43500 60.24600 38.12900
C  3.03700 60.86100 38.09200
N  4.87900 55.17600 39.95100
C  3.77000 56.00100 39.77800
C  2.58800 55.16100 39.91600
C  3.07200 53.83500 40.13300
C  4.46500 53.89000 40.05200
C  1.15400 55.65700 39.73600
C  2.55500 52.50200 40.33000
O  1.42900 52.16100 40.55300
C  3.85600 51.67100 40.21900
C  3.73300 50.42500 39.39300
O  3.26400 50.39800 38.24700
O  4.13800 49.32400 40.15800
C  4.02900 47.98400 39.57400
H  10.70000 53.01600 38.80000
H  9.05200 59.50200 39.48100
H  3.00600 58.03200 39.51300
H  6.70100 50.29000 39.76300
H  9.05700 50.97900 38.11000
H  9.48000 51.32800 40.98800
H  10.30000 50.30300 39.79300
H  8.90900 49.70100 40.57700
H  5.87800 49.58500 38.04600
H  7.43900 49.85800 37.34200
H  5.90300 52.31600 36.75000
H  4.94100 50.79300 36.60700
H  13.08600 55.58800 37.85000
H  12.41900 54.12600 38.64800
H  13.16600 55.38800 39.66100
H  12.34300 60.27600 39.07500
H  11.22400 59.72400 40.22800
H  10.79000 59.81100 38.39100
H  6.98300 60.55900 39.05000
H  4.38800 59.91600 40.21300
H  7.39200 60.00400 41.79300
H  5.82400 60.62200 41.89200
H  7.07200 61.53700 41.08300
H  4.42400 59.47100 37.36300
H  5.24900 60.91000 37.84100
H  2.51600 60.39400 37.25600
H  3.24700 61.91800 37.92400
H  2.49100 60.74100 39.02700
H  0.62500 55.60700 40.68800
H  0.74400 55.14500 38.86500
H  1.26700 56.69900 39.43700
H  3.97100 51.27800 41.22900
H  3.86100 47.98800 38.49700
H  3.20600 47.45000 40.04900
H  4.93400 47.40900 39.77200

