158

Mg 26.92600 50.36300 27.50200
C  24.84600 51.76900 29.80400
C  29.38500 49.80000 29.93900
C  29.13500 49.31400 25.13600
C  24.73200 51.49300 24.92700
N  27.09600 50.79200 29.59000
C  25.98900 51.18400 30.36300
C  26.26900 50.93100 31.78500
C  27.74100 50.58900 31.79900
C  28.13700 50.33200 30.34400
C  28.55800 51.70800 32.43000
C  25.37700 49.86700 32.52900
C  24.28200 50.45200 33.53300
H  24.27400 49.70700 34.92000
N  28.95900 49.66100 27.54900
C  29.72100 49.38800 28.62200
C  31.02000 48.79000 28.23200
C  31.00000 48.81900 26.85200
C  29.72500 49.30800 26.41300
C  32.11900 48.38900 29.21600
C  32.01900 48.39800 25.88600
O  31.97800 48.87400 24.75700
C  33.26300 47.51700 26.38500
N  26.97100 50.48200 25.34100
C  27.97300 49.85500 24.57500
C  27.43900 49.60800 23.11600
C  26.06300 50.31000 23.12500
C  25.88300 50.80000 24.54100
C  28.34400 50.05500 21.99200
C  24.88700 49.22200 22.82600
C  23.68300 49.70400 21.96400
N  25.14400 51.50600 27.25800
C  24.26300 51.77400 26.23000
C  23.07000 52.53700 26.76200
C  23.27600 52.56500 28.14500
C  24.52300 51.90900 28.39800
C  22.02900 53.18000 25.90800
C  22.70400 53.04400 29.36200
O  21.72000 53.69300 29.61300
C  23.62500 52.44500 30.50800
C  23.92300 53.47900 31.54700
O  24.86000 54.20800 31.48200
O  22.98500 53.45200 32.56700
C  23.23400 54.43000 33.62900
H  30.10000 49.49900 30.70700
H  29.81400 48.84700 24.42000
H  23.93500 51.74300 24.22400
H  26.05900 51.91900 32.19600
H  27.85400 49.67500 32.38200
H  29.45700 51.92300 31.85200
H  29.00200 51.27300 33.32500
H  28.16100 52.66200 32.77600
H  25.84100 49.06600 33.10300
H  24.93100 49.41900 31.64100
H  23.32900 50.35200 33.01300
H  24.42800 51.52800 33.62600
H  32.96900 48.83600 28.70000
H  32.19700 47.30500 29.30900
H  32.04300 48.67100 30.26600
H  33.46400 46.82800 25.56500
H  33.02000 46.96600 27.29300
H  34.21600 48.00100 26.60100
H  27.28400 48.54600 22.92700
H  26.09000 51.18400 22.47400
H  28.52200 49.15700 21.40000
H  29.35500 50.42700 22.15700
H  27.75600 50.74200 21.38200
H  24.40100 48.74600 23.67800
H  25.34000 48.39600 22.27700
H  23.79000 49.34600 20.94000
H  23.74200 50.78400 21.82600
H  22.68000 49.63400 22.38400
H  21.08700 52.81600 26.31900
H  22.24700 52.91900 24.87300
H  22.10800 54.22700 26.20300
H  23.14700 51.57500 30.95800
H  23.19400 55.50500 33.45200
H  24.26500 54.24100 33.92600
H  22.58200 54.22900 34.47900
Mg 0.37900 43.68600 26.43500
C  2.78700 43.69400 28.89800
C  -2.06300 43.59700 28.76500
C  -1.72500 43.26400 23.88200
C  3.02600 43.45700 24.00000
N  0.41200 43.53000 28.55400
C  1.48600 43.65000 29.38800
C  1.02600 43.60600 30.91600
C  -0.50900 43.30700 30.85800
C  -0.80000 43.47800 29.33700
C  -0.89900 41.86400 31.27100
C  1.40700 44.80800 31.81100
C  2.11600 44.49500 33.12100
H  1.49400 43.30200 33.83500
N  -1.68800 43.43500 26.34400
C  -2.49600 43.51300 27.43700
C  -3.88300 43.66600 26.92600
C  -3.82900 43.59000 25.54100
C  -2.39900 43.36300 25.17000
C  -5.06300 43.90600 27.86400
C  -4.90300 43.79600 24.52700
O  -4.66100 43.80100 23.28800
C  -6.46400 44.14900 24.96800
N  0.65900 43.27500 24.24100
C  -0.40300 43.29600 23.43600
C  -0.04700 43.03500 21.97500
C  1.52000 43.20300 21.95200
C  1.79400 43.28600 23.49000
C  -0.56600 41.62200 21.51700
C  2.11900 44.47000 21.27800
C  1.77700 45.80900 21.80200
N  2.52600 43.66300 26.40600
C  3.40000 43.57600 25.35800
C  4.74000 43.72500 25.91700
C  4.52600 43.67300 27.28600
C  3.17600 43.69000 27.57000
C  6.03000 43.77100 25.18600
C  5.18900 43.76800 28.60100
O  6.34000 43.96800 28.83500
C  4.04900 43.77800 29.70500
C  4.29700 42.74900 30.67700
O  3.80000 41.62300 30.75300
O  5.18000 43.25200 31.58400
C  5.40000 42.50100 32.86200
H  -2.77400 43.55100 29.59200
H  -2.45300 43.47000 23.09400
H  3.85500 43.41900 23.29000
H  1.52800 42.74900 31.36400
H  -1.15000 43.97300 31.43600
H  -0.02600 41.21700 31.35200
H  -1.59700 41.42000 30.56000
H  -1.35000 41.80600 32.26200
H  0.57900 45.48100 32.03400
H  2.09700 45.51700 31.35400
H  1.99700 45.33800 33.80100
H  3.17300 44.35000 32.89600
H  -5.44900 44.89800 27.62700
H  -4.78600 43.94100 28.91800
H  -5.68500 43.02400 27.71300
H  -6.86500 43.22600 25.38600
H  -7.02800 44.38400 24.06500
H  -6.45800 45.00400 25.64400
H  -0.41600 43.64000 21.14600
H  2.09800 42.35400 21.58600
H  0.19700 40.84700 21.59500
H  -0.96900 41.62000 20.50400
H  -1.41300 41.28700 22.11500
H  1.73500 44.47100 20.25700
H  3.20200 44.35300 21.31400
H  2.73800 46.23800 22.08600
H  1.17800 45.73700 22.71000
H  1.26500 46.42100 21.06000
H  6.73000 44.50400 25.58600
H  5.90500 44.01200 24.13000
H  6.39400 42.74800 25.28300
H  4.14000 44.69400 30.28900
H  6.44000 42.18000 32.80300
H  4.77500 41.61900 33.00600
H  5.17200 43.13900 33.71600

