158

Mg 24.41100 -7.32200 47.41400
C  26.84400 -4.98500 46.46200
C  22.20700 -5.92900 45.20700
C  22.37000 -10.15700 47.66900
C  26.75500 -8.95300 49.24700
N  24.57700 -5.61500 45.98900
C  25.63400 -4.78900 45.75100
C  25.27200 -3.78500 44.70600
C  23.76600 -3.98500 44.45100
C  23.46300 -5.27600 45.26800
C  22.91000 -2.78600 44.80500
C  26.09800 -3.91400 43.40200
C  26.75500 -2.70600 42.84100
H  26.05100 -1.92400 41.69600
N  22.42300 -7.92800 46.59700
C  21.70800 -7.14800 45.70400
C  20.50600 -7.84900 45.34900
C  20.40100 -9.01200 46.23800
C  21.79200 -9.13800 46.84600
C  19.45100 -7.15400 44.42300
C  19.26200 -10.00000 46.33800
O  18.26800 -9.77000 45.67400
C  19.35100 -11.27600 47.07300
N  24.51800 -9.22900 48.35600
C  23.53600 -10.20000 48.42000
C  24.05300 -11.48800 49.02500
C  25.41700 -11.07300 49.58400
C  25.61000 -9.63300 49.06500
C  23.12600 -12.19800 50.05300
C  26.49400 -12.07800 49.03000
C  27.64200 -12.30700 50.11600
N  26.46300 -7.07500 47.75800
C  27.22100 -7.75600 48.65000
C  28.49200 -7.07500 48.71300
C  28.38500 -6.00500 47.89100
C  27.14500 -6.02000 47.27600
C  29.68700 -7.46700 49.51600
C  29.11500 -4.81400 47.34400
O  30.25100 -4.43400 47.52300
C  28.07800 -4.13700 46.40600
C  27.77200 -2.71200 46.76700
O  27.26700 -2.35100 47.79100
O  28.14200 -1.85300 45.75600
C  27.77300 -0.46400 45.89300
H  21.58300 -5.36200 44.51300
H  21.78900 -11.06800 47.82600
H  27.55100 -9.37600 49.86300
H  25.42700 -2.81300 45.17500
H  23.52700 -4.20400 43.41000
H  21.91500 -2.74900 44.36000
H  23.40600 -1.93500 44.34000
H  22.68900 -2.59300 45.85500
H  25.52300 -4.31900 42.57000
H  26.82200 -4.69700 43.62800
H  27.80400 -2.87300 42.59600
H  26.95400 -1.99100 43.63900
H  18.76500 -7.92800 44.07900
H  20.00500 -6.67100 43.61900
H  18.83200 -6.46300 44.99500
H  20.21200 -11.89800 46.83100
H  18.51900 -11.97000 46.95600
H  19.39000 -10.98600 48.12300
H  24.16700 -12.12700 48.14900
H  25.42200 -11.15300 50.67100
H  22.38100 -11.52300 50.47400
H  23.79700 -12.55600 50.83300
H  22.59900 -13.02800 49.58100
H  26.91100 -11.63600 48.12600
H  26.07500 -13.04200 48.74300
H  27.71100 -11.46500 50.80500
H  28.59000 -12.39400 49.58600
H  27.53900 -13.28200 50.59400
H  29.84600 -8.52900 49.33000
H  29.82400 -7.16600 50.55500
H  30.49700 -6.98200 48.97000
H  28.45500 -4.15300 45.38300
H  28.36800 0.08500 45.16400
H  27.81000 -0.00700 46.88200
H  26.77800 -0.25300 45.50000
Mg -10.25500 17.72200 42.94200
C  -6.81000 16.70100 42.63000
C  -9.10400 20.96400 41.99300
C  -13.37000 18.55200 42.13300
C  -11.04200 14.40600 43.34900
N  -8.22900 18.71100 42.25200
C  -6.95500 18.10200 42.39500
C  -5.80100 19.10200 42.15600
C  -6.53600 20.42600 42.18200
C  -8.00500 20.01500 42.20700
C  -6.18300 21.36800 43.36300
C  -5.02400 18.96600 40.81700
C  -5.74700 18.57300 39.52200
H  -4.95800 18.64900 38.20200
N  -11.13300 19.49900 42.22400
C  -10.51200 20.71000 41.95100
C  -11.48500 21.63100 41.56000
C  -12.77500 20.97600 41.55500
C  -12.51200 19.62400 41.94200
C  -11.15300 23.00700 41.01900
C  -14.13700 21.61700 40.99200
O  -14.15100 22.78100 40.61200
C  -15.37700 20.86600 40.85400
N  -11.91500 16.62100 42.70000
C  -13.09900 17.22900 42.50000
C  -14.27900 16.22500 42.68900
C  -13.54400 14.87900 42.95100
C  -12.05500 15.31100 42.97000
C  -15.41400 16.61600 43.73400
C  -13.78200 13.83200 41.81800
C  -13.80000 12.31000 42.19800
N  -9.20000 15.89800 43.08500
C  -9.66100 14.58000 43.15000
C  -8.60800 13.61700 43.14400
C  -7.46000 14.39300 42.97100
C  -7.85500 15.78300 42.87300
C  -8.83000 12.15200 43.42200
C  -5.96300 14.33200 42.89100
O  -5.12300 13.47900 42.89200
C  -5.51800 15.84300 42.50000
C  -4.46000 16.23800 43.48800
O  -3.26200 16.28000 43.35600
O  -5.04900 16.82400 44.59300
C  -4.06000 17.34500 45.62300
H  -8.80600 21.99800 41.80800
H  -14.43300 18.76100 41.99200
H  -11.40500 13.41300 43.62200
H  -5.06600 19.02600 42.95800
H  -6.37700 21.07100 41.31800
H  -5.35300 20.98500 43.95800
H  -7.01600 21.51500 44.05000
H  -5.83100 22.32600 42.97900
H  -4.38400 18.08800 40.91000
H  -4.39600 19.83900 40.64200
H  -6.67100 19.13500 39.38500
H  -6.07300 17.54300 39.66900
H  -11.76000 23.47000 40.24100
H  -10.19000 23.00700 40.50700
H  -10.99900 23.69500 41.85000
H  -15.84700 20.59800 41.80100
H  -15.16200 19.98600 40.24700
H  -16.11200 21.49400 40.35200
H  -14.97800 16.18700 41.85400
H  -13.71500 14.47200 43.94800
H  -16.35400 16.99500 43.33200
H  -14.89200 17.26500 44.43700
H  -15.61600 15.65800 44.21200
H  -12.95100 13.87700 41.11500
H  -14.59400 14.06400 41.12900
H  -14.85600 12.08200 42.04700
H  -13.48700 12.25100 43.24100
H  -13.14200 11.73400 41.54700
H  -8.85200 11.53000 42.52800
H  -9.70500 11.94400 44.03900
H  -7.95300 11.82300 43.97900
H  -5.21300 15.77700 41.45500
H  -3.30600 16.60200 45.88000
H  -4.58000 17.49700 46.56900
H  -3.59400 18.28000 45.31100

