158

Mg 1.87700 8.33400 25.29000
C  2.30200 9.99900 28.34800
C  1.59500 5.29300 27.11400
C  1.23900 6.65300 22.42800
C  2.28100 11.25200 23.55200
N  2.04400 7.71200 27.49800
C  2.15000 8.62700 28.52500
C  2.18200 7.88000 29.88600
C  2.31500 6.34100 29.44100
C  1.92500 6.41600 27.92000
C  3.68600 5.67000 29.75000
C  0.99500 8.26800 30.76900
C  1.29000 8.48800 32.27700
H  2.46600 7.67500 32.99300
N  1.44700 6.21200 24.79400
C  1.33000 5.18100 25.72400
C  0.93200 4.05900 24.96700
C  0.98900 4.36500 23.57700
C  1.23200 5.78600 23.53200
C  0.57700 2.78300 25.65200
C  0.77800 3.48100 22.34600
O  0.86100 3.88200 21.17500
C  0.49600 2.06900 22.51700
N  2.13300 8.84100 23.30100
C  1.76700 7.96400 22.26700
C  2.00000 8.54900 20.89300
C  2.00000 10.12000 21.21100
C  2.24600 10.11500 22.79100
C  3.29700 8.04000 20.18800
C  0.56000 10.75300 20.89400
C  0.67500 11.89000 19.88400
N  2.19100 10.20700 25.78600
C  2.35000 11.32300 24.95400
C  2.44800 12.53900 25.78100
C  2.38900 12.05400 27.09400
C  2.36600 10.59700 27.05800
C  2.37200 13.96500 25.34300
C  2.41900 12.44100 28.49600
O  2.63200 13.49100 29.01400
C  2.35000 11.11300 29.36000
C  3.38900 10.94700 30.37400
O  4.42400 10.27100 30.23200
O  3.08900 11.77400 31.48500
C  4.26200 11.97600 32.30200
H  1.60200 4.37000 27.69800
H  1.12300 6.11800 21.48300
H  2.22400 12.18900 22.99400
H  3.10300 8.18400 30.38400
H  1.66300 5.62600 29.94200
H  4.53500 6.33600 29.90800
H  3.80400 5.01400 28.88800
H  3.53800 5.06800 30.64600
H  0.18500 7.54100 30.71600
H  0.56600 9.23200 30.49600
H  0.37600 8.33400 32.85000
H  1.47000 9.56200 32.33200
H  1.38000 2.07800 25.43800
H  -0.31400 2.42000 25.14000
H  0.27600 2.81900 26.69900
H  0.61400 1.44000 21.63500
H  -0.55100 2.06200 22.81900
H  1.19700 1.63000 23.22700
H  1.28600 8.35500 20.09200
H  2.77500 10.58400 20.60200
H  2.92300 7.05400 19.91300
H  4.15000 7.97600 20.86400
H  3.53200 8.70300 19.35600
H  0.04800 11.16900 21.76200
H  -0.09400 10.00500 20.44500
H  1.08800 11.50200 18.95300
H  1.33800 12.68200 20.23400
H  -0.35900 12.23500 19.87900
H  1.82300 14.39400 26.18100
H  1.80300 14.06000 24.41800
H  3.37500 14.39300 25.31500
H  1.44900 11.19700 29.96600
H  4.71500 11.04800 32.65200
H  3.98900 12.49600 33.22000
H  4.92800 12.60600 31.71300
Mg -4.87700 24.89000 26.59500
C  -3.34800 26.31000 29.38000
C  -6.30500 22.46500 28.60600
C  -6.23900 23.42600 23.88900
C  -3.08200 27.14700 24.58300
N  -4.83000 24.44800 28.72800
C  -4.28200 25.30000 29.63100
C  -4.80600 24.95900 31.06400
C  -5.47500 23.49100 30.91400
C  -5.58700 23.48000 29.31800
C  -4.76900 22.35000 31.73200
C  -5.81600 26.11200 31.48800
C  -6.01000 26.16600 32.99100
H  -5.52200 25.03000 33.88400
N  -6.00600 23.16300 26.28900
C  -6.50300 22.26500 27.26100
C  -7.30100 21.25300 26.59600
C  -7.29100 21.52300 25.22600
C  -6.46700 22.74700 25.05700
C  -8.00800 20.19000 27.41000
C  -8.03400 20.84800 24.01100
O  -7.86500 21.17000 22.86800
C  -8.97900 19.68100 24.32500
N  -4.78000 25.27300 24.56600
C  -5.49900 24.56400 23.66000
C  -5.07000 25.00900 22.26800
C  -4.05700 26.19600 22.44800
C  -3.98100 26.16900 23.97900
C  -4.47000 23.88800 21.27700
C  -4.35300 27.61700 21.86400
C  -3.08800 28.26700 21.10700
N  -3.50300 26.42100 26.94300
C  -2.86300 27.24700 26.01200
C  -2.06800 28.31100 26.70700
C  -2.23200 27.93100 28.10500
C  -3.07700 26.76500 28.08200
C  -1.13200 29.35400 26.09200
C  -1.76100 28.21000 29.48300
O  -1.02200 29.12400 29.88500
C  -2.63800 27.27400 30.35200
C  -1.62900 26.61500 31.26100
O  -0.67900 25.91000 30.95900
O  -1.99700 26.96900 32.56300
C  -1.08500 26.49700 33.59600
H  -6.78400 21.80000 29.32700
H  -6.61200 23.00800 22.95200
H  -2.41000 27.66600 23.89600
H  -3.89000 24.91900 31.65400
H  -6.50100 23.56600 31.27300
H  -5.35100 21.82300 32.48800
H  -3.85500 22.77400 32.14800
H  -4.52700 21.57900 31.00000
H  -6.83500 25.86300 31.19000
H  -5.33500 27.07000 31.29200
H  -7.08300 26.17800 33.18200
H  -5.61800 27.10900 33.37000
H  -9.03700 19.94700 27.14600
H  -8.17200 20.38900 28.46900
H  -7.39100 19.29200 27.45900
H  -8.35700 18.92700 24.80800
H  -9.36600 19.38000 23.35200
H  -9.83200 19.97500 24.93600
H  -5.98400 25.39500 21.81700
H  -3.05800 25.98100 22.07000
H  -3.43700 23.66000 21.53800
H  -4.48300 24.27700 20.25800
H  -5.14600 23.03500 21.33200
H  -4.71200 28.30900 22.62700
H  -5.17300 27.48000 21.15900
H  -3.23300 28.28100 20.02700
H  -2.12900 27.76200 21.23200
H  -2.84100 29.25200 21.50100
H  -0.26200 29.45300 26.74000
H  -1.58700 30.31400 25.85100
H  -0.71700 28.93400 25.17500
H  -3.32000 27.84500 30.98100
H  -1.63400 26.22600 34.49800
H  -0.38500 27.32800 33.68800
H  -0.53300 25.61100 33.28500

