158

Mg 44.98800 3.13200 46.65200
C  42.63900 5.54500 45.81200
C  42.30900 0.84300 46.43500
C  47.04600 0.61300 46.85200
C  47.39400 5.52600 46.71800
N  42.82400 3.12700 45.95600
C  42.07200 4.29500 45.78400
C  40.53100 4.01200 45.43800
C  40.43900 2.60000 46.15300
C  41.94100 2.14200 46.23800
C  39.50900 2.59300 47.40100
C  40.41700 4.07800 43.82700
C  39.45200 5.17600 43.16400
H  39.99000 5.88900 41.85600
N  44.69600 0.99900 46.65800
C  43.52500 0.21400 46.54100
C  43.84800 -1.20800 46.62700
C  45.23000 -1.26100 46.76900
C  45.74700 0.12300 46.67800
C  42.83000 -2.26300 46.55800
C  46.07400 -2.56100 46.81500
O  45.42100 -3.57700 46.84300
C  47.55600 -2.61900 46.87600
N  47.05600 3.06100 46.74500
C  47.65500 1.89300 46.97900
C  49.20100 2.07800 46.95700
C  49.23100 3.66900 47.12700
C  47.84200 4.13700 46.83600
C  49.88500 1.31900 48.12900
C  50.33700 4.35400 46.23200
C  51.71900 4.33300 46.92700
N  45.11300 5.15800 46.30000
C  46.10700 6.00600 46.52600
C  45.62800 7.41700 46.31000
C  44.27600 7.23400 46.00900
C  44.02400 5.86500 45.99400
C  46.43000 8.69900 46.50500
C  43.03200 7.97400 45.68700
O  42.77300 9.10700 45.49600
C  41.96400 6.87600 45.59400
C  40.90700 7.24600 46.60800
O  40.78300 6.79500 47.71300
O  39.98200 8.01700 45.92400
C  38.86900 8.47400 46.77500
H  41.37300 0.29000 46.33000
H  47.80400 -0.16100 46.98500
H  48.10800 6.35100 46.70400
H  39.85600 4.68700 45.96600
H  40.06400 1.86900 45.43700
H  38.93400 3.51900 47.42300
H  40.13700 2.60100 48.29200
H  38.87900 1.70300 47.39200
H  40.09600 3.07100 43.55900
H  41.43700 4.20200 43.46400
H  39.21000 5.92400 43.91900
H  38.51000 4.68300 42.92500
H  41.92800 -1.89100 47.04400
H  42.95900 -3.22600 47.05100
H  42.55300 -2.41800 45.51500
H  47.89200 -2.21000 45.92300
H  47.88700 -3.65600 46.92300
H  47.84900 -2.04800 47.75700
H  49.67600 1.68100 46.06100
H  49.46100 4.00600 48.13700
H  50.72800 0.73800 47.75600
H  49.28600 0.59700 48.68500
H  50.29300 2.05500 48.82100
H  50.04000 5.39600 46.11500
H  50.55200 3.83900 45.29600
H  51.68800 3.75400 47.85100
H  52.11600 5.31400 47.18900
H  52.49700 4.01600 46.23200
H  47.11000 9.00600 45.71100
H  46.87000 8.72300 47.50200
H  45.70800 9.50700 46.62800
H  41.62200 6.97100 44.56300
H  38.33000 9.32300 46.35400
H  39.26600 8.88200 47.70500
H  38.29700 7.56200 46.94300
Mg 52.80000 24.09400 44.62700
C  49.87800 25.98700 43.76200
C  51.11300 21.34600 43.26400
C  55.70000 22.38200 44.93600
C  54.39300 27.07400 45.58800
N  50.74900 23.78500 43.57600
C  49.80700 24.71200 43.24600
C  48.62500 24.04800 42.59100
C  48.84500 22.52500 43.09500
C  50.33900 22.52600 43.33900
C  47.91700 22.10500 44.28800
C  48.75400 24.40600 41.09300
C  47.45800 24.47600 40.27100
H  47.45100 23.66500 38.94800
N  53.37900 22.18700 44.09100
C  52.54700 21.20700 43.54000
C  53.24400 19.91300 43.52800
C  54.53600 20.18600 44.03100
C  54.62700 21.64000 44.36300
C  52.70400 18.63200 42.98700
C  55.66500 19.16300 44.17800
O  55.45500 17.97000 44.00800
C  57.14600 19.59200 44.47500
N  55.00800 24.70900 44.85100
C  55.93200 23.76900 45.11800
C  57.13000 24.44400 45.82900
C  56.83600 25.92300 45.80900
C  55.28400 25.94600 45.43800
C  57.45900 23.85600 47.23400
C  57.64300 26.82600 44.75000
C  58.74200 27.59500 45.35400
N  52.26200 26.05000 44.85700
C  52.99100 27.13100 45.29600
C  52.11800 28.22800 45.28000
C  50.92500 27.83100 44.76400
C  51.04400 26.48300 44.44500
C  52.41200 29.60200 45.75600
C  49.61500 28.23100 44.46700
O  49.10600 29.33000 44.56400
C  48.85800 27.10300 43.73700
C  48.49400 27.61800 42.39900
O  49.11800 28.22200 41.58300
O  47.14700 27.30700 42.24800
C  46.51800 27.84200 41.03400
H  50.57800 20.45600 42.92600
H  56.49100 21.67700 45.20000
H  54.74200 28.02800 45.98900
H  47.70300 24.28700 43.12200
H  48.57200 21.86300 42.27300
H  46.92000 22.54300 44.24400
H  48.42800 22.44600 45.18700
H  47.84000 21.01800 44.32000
H  49.42900 23.72900 40.56900
H  49.18900 25.40400 41.02900
H  47.24300 25.51800 40.03500
H  46.63700 24.06700 40.86100
H  53.56600 18.24800 42.44100
H  51.85600 18.73100 42.30900
H  52.53800 17.94500 43.81700
H  57.49500 20.38500 43.81200
H  57.84300 18.77100 44.30600
H  57.25400 19.68700 45.55500
H  57.93300 24.19500 45.13600
H  56.86500 26.27800 46.84000
H  58.52700 23.65700 47.32600
H  56.97500 22.88900 47.37100
H  57.13300 24.46800 48.07500
H  56.92100 27.35500 44.12800
H  58.09700 26.20600 43.97800
H  59.04000 26.90500 46.14200
H  58.22100 28.49900 45.66900
H  59.57300 27.73800 44.66200
H  52.09500 30.27500 44.95900
H  53.48100 29.74500 45.91600
H  51.88200 29.82800 46.68200
H  48.07800 26.83500 44.45000
H  46.34900 28.90500 41.20800
H  45.52600 27.42100 40.87200
H  47.17000 27.69800 40.17300

