158

Mg -2.19100 16.90800 26.53500
C  -2.43800 14.61800 28.95900
C  -3.07500 19.44200 28.89500
C  -2.13400 19.24700 24.06300
C  -2.16900 14.36400 24.05800
N  -2.82300 17.03200 28.61000
C  -2.59800 15.92700 29.46300
C  -2.74900 16.33400 30.90400
C  -3.00100 17.87700 30.81800
C  -3.03300 18.15800 29.36100
C  -4.35100 18.30200 31.37900
C  -1.62100 15.93500 31.89900
C  -1.18500 16.95500 32.94800
H  -0.95200 16.32100 34.38600
N  -2.44700 19.02400 26.48600
C  -2.83600 19.85400 27.56100
C  -2.78900 21.22200 27.08100
C  -2.56000 21.15300 25.67100
C  -2.36300 19.76000 25.37800
C  -3.07900 22.44700 28.00600
C  -2.63500 22.25900 24.64600
O  -2.42500 22.12800 23.44800
C  -2.96700 23.63000 25.10000
N  -2.20400 16.87600 24.27200
C  -2.13600 17.97100 23.49100
C  -1.99300 17.60700 22.01100
C  -1.82000 15.98200 22.06700
C  -2.08000 15.69000 23.60400
C  -3.12700 18.14300 21.16700
C  -0.54500 15.33300 21.49000
C  0.70800 15.41300 22.41400
N  -2.28500 14.89600 26.40600
C  -2.27500 13.97200 25.42200
C  -2.15700 12.62700 25.96500
C  -2.24800 12.86300 27.31900
C  -2.29400 14.26400 27.54500
C  -2.20300 11.34900 25.27600
C  -2.26100 12.19000 28.56800
O  -2.34400 11.00800 28.80500
C  -2.46300 13.27400 29.67000
C  -1.38400 13.12500 30.66800
O  -0.22800 13.39500 30.44800
O  -1.89200 12.55600 31.84200
C  -0.77900 11.92200 32.58300
H  -3.28100 20.28400 29.55900
H  -2.04800 19.91700 23.20600
H  -2.24400 13.54000 23.34500
H  -3.58600 15.70900 31.21400
H  -2.24300 18.48100 31.31700
H  -4.13700 19.00700 32.18300
H  -4.89600 17.52800 31.91900
H  -5.03100 18.85500 30.73100
H  -0.75000 15.54200 31.37300
H  -1.96500 15.05200 32.43700
H  -1.84000 17.81400 33.09700
H  -0.23100 17.36600 32.61800
H  -2.30500 23.20200 27.87700
H  -3.16900 22.26700 29.07800
H  -4.04500 22.82200 27.66900
H  -3.88800 23.67700 25.68000
H  -3.13800 24.18300 24.17600
H  -2.26200 24.13400 25.76100
H  -0.99600 17.83700 21.63400
H  -2.71400 15.55900 21.61000
H  -2.66500 18.67900 20.33700
H  -3.66900 18.80400 21.84300
H  -3.79100 17.39500 20.73500
H  -0.31500 15.86200 20.56600
H  -0.77600 14.29800 21.23800
H  0.52700 15.56000 23.47900
H  1.27600 16.26500 22.03900
H  1.49600 14.66200 22.36100
H  -1.95300 11.41600 24.21700
H  -3.19800 10.97300 25.51600
H  -1.48500 10.64400 25.69500
H  -3.35400 13.18300 30.29100
H  -0.35800 11.17700 31.90900
H  -1.25800 11.47800 33.45600
H  -0.14800 12.73900 32.93300
Mg 17.44900 -1.75300 27.91900
C  16.36600 0.46900 30.31400
C  19.12800 -3.48000 30.26900
C  18.94500 -3.45400 25.44200
C  16.14200 0.52200 25.40200
N  17.66900 -1.53300 29.95700
C  17.14500 -0.57500 30.82100
C  17.54500 -0.84600 32.25700
C  18.78300 -1.77400 32.13700
C  18.49200 -2.29200 30.67000
C  20.23800 -1.21600 32.44500
C  16.35800 -1.34000 33.19700
C  16.54600 -1.03200 34.77300
H  17.99400 -0.97000 35.23800
N  18.61400 -3.47500 27.91400
C  19.23800 -4.05600 28.99100
C  19.92800 -5.23200 28.51900
C  19.97800 -5.12500 27.08000
C  19.07400 -4.02700 26.73400
C  20.56800 -6.08300 29.48200
C  20.62000 -6.10700 26.08200
O  20.42800 -6.00600 24.91100
C  21.42800 -7.21200 26.65600
N  17.44300 -1.54000 25.77600
C  18.25400 -2.36100 25.00900
C  18.11700 -1.92600 23.47900
C  17.19300 -0.68200 23.52100
C  16.91400 -0.52900 25.00000
C  19.35800 -1.68600 22.74400
C  15.95800 -0.83600 22.59300
C  14.80800 -1.66500 23.20100
N  16.38500 0.02300 27.84000
C  15.84700 0.72100 26.77700
C  15.02400 1.80300 27.32200
C  15.18400 1.65400 28.67900
C  16.06700 0.59600 28.99600
C  14.16100 2.75800 26.47900
C  14.80600 2.25500 29.96800
O  13.93800 3.09200 30.23200
C  15.54000 1.54900 31.10900
C  16.38000 2.65800 31.78900
O  17.56200 2.82400 31.66400
O  15.55000 3.20800 32.79200
C  16.25800 3.97100 33.81000
H  19.80100 -3.88500 31.02800
H  19.59900 -3.85600 24.66500
H  15.84900 1.17700 24.57900
H  17.85100 0.10300 32.69600
H  18.62900 -2.63200 32.79000
H  20.17100 -0.16900 32.74100
H  20.75400 -1.36400 31.49700
H  20.77200 -1.77000 33.21700
H  16.24700 -2.42400 33.15800
H  15.42100 -0.84300 32.94700
H  16.06900 -1.84200 35.32400
H  15.95100 -0.15600 35.02800
H  20.46600 -7.14900 29.27800
H  20.20900 -5.73900 30.45200
H  21.63500 -5.89500 29.36600
H  22.17200 -6.73800 27.29600
H  22.07100 -7.72200 25.93900
H  20.76900 -7.86300 27.23100
H  17.66900 -2.70700 22.86400
H  17.64300 0.26600 23.22700
H  19.44500 -2.28600 21.83800
H  20.18700 -2.00200 23.37800
H  19.56800 -0.63000 22.57500
H  16.17400 -1.31600 21.63800
H  15.63600 0.17500 22.34200
H  13.98400 -1.06700 23.59000
H  15.13200 -2.39400 23.94400
H  14.44100 -2.31700 22.40800
H  14.12800 3.69300 27.03900
H  13.19200 2.26300 26.54500
H  14.53500 2.84300 25.45900
H  14.85200 1.03300 31.77800
H  16.71400 4.88800 33.43700
H  17.02100 3.28500 34.17700
H  15.64900 4.27100 34.66300

