158

Mg 1.52400 -1.94300 44.16900
C  4.92100 -1.05900 43.70500
C  0.75300 1.06500 42.60500
C  -1.61000 -3.04700 43.94400
C  2.65600 -5.19700 44.98000
N  2.69000 -0.17900 43.27700
C  4.10500 -0.03200 43.23900
C  4.54600 1.26700 42.58900
C  3.15900 2.06100 42.51300
C  2.08000 0.95400 42.84500
C  2.93600 3.33100 43.36200
C  5.18800 0.96500 41.26500
C  6.64100 1.55700 41.11500
H  6.64800 2.54400 39.90800
N  -0.19800 -1.15700 43.34800
C  -0.31700 0.10300 42.73600
C  -1.61400 0.27500 42.17200
C  -2.41600 -0.90000 42.51700
C  -1.44300 -1.78100 43.31600
C  -1.94900 1.35700 41.23500
C  -3.80700 -1.15900 42.10500
O  -4.35500 -0.22800 41.48400
C  -4.49900 -2.46500 42.45300
N  0.71300 -3.84100 44.39200
C  -0.68000 -3.99500 44.42400
C  -1.14700 -5.48400 44.66500
C  0.27000 -6.11700 44.88500
C  1.27000 -4.96400 44.84400
C  -2.06400 -5.72500 45.93200
C  0.46200 -7.26600 43.80200
C  0.01100 -8.69200 44.23800
N  3.43700 -2.96100 44.52400
C  3.75500 -4.25800 44.83200
C  5.17800 -4.39700 44.89400
C  5.62800 -3.14500 44.62900
C  4.55200 -2.32700 44.26300
C  5.80600 -5.70600 45.20700
C  6.81900 -2.44000 44.48000
O  7.98400 -2.79600 44.70300
C  6.40600 -1.01700 43.96300
C  6.78000 0.09600 44.88600
O  6.10600 0.43800 45.78400
O  7.91000 0.76200 44.47900
C  8.37600 2.02100 45.17800
H  0.62200 2.06100 42.17700
H  -2.68100 -3.25100 43.88300
H  3.01200 -6.17500 45.31000
H  5.22200 1.81200 43.24800
H  2.85400 2.37800 41.51500
H  3.97600 3.62700 43.50500
H  2.47900 3.15800 44.33600
H  2.45000 4.18300 42.88700
H  4.57900 1.34000 40.44200
H  5.21300 -0.09200 40.99900
H  7.35100 0.74100 40.98000
H  6.89900 2.04800 42.05400
H  -2.30200 0.95400 40.28600
H  -1.13300 2.00700 40.91800
H  -2.67700 1.98700 41.74600
H  -5.45200 -2.54600 41.93100
H  -4.63900 -2.54900 43.53000
H  -3.92900 -3.28600 42.01700
H  -1.57400 -5.73700 43.69500
H  0.42400 -6.63800 45.83000
H  -3.09100 -5.53500 45.62200
H  -1.64800 -5.04500 46.67500
H  -2.08100 -6.71100 46.39500
H  1.51300 -7.28900 43.51500
H  -0.00900 -6.90000 42.89000
H  -0.71100 -9.07900 43.51900
H  -0.46100 -8.67500 45.22000
H  0.86100 -9.37000 44.31400
H  5.58200 -6.36300 44.36700
H  5.47500 -6.08200 46.17500
H  6.85300 -5.48200 45.41100
H  6.92700 -0.85600 43.01900
H  8.18900 2.94800 44.63700
H  9.45500 2.06300 45.32600
H  7.88400 2.07900 46.14900
Mg 30.48100 58.37800 40.28800
C  27.49200 56.71300 39.13300
C  32.38300 55.83100 39.09100
C  33.06800 60.32700 41.05100
C  28.42300 61.27500 40.41200
N  30.00300 56.52900 39.29600
C  28.72300 55.97400 39.05500
C  28.82000 54.57700 38.47500
C  30.40500 54.25100 38.55700
C  31.02000 55.65300 38.96100
C  30.80900 53.10800 39.59800
C  28.33100 54.52000 36.93600
C  28.84600 55.73600 35.99200
H  27.87100 56.02400 34.86500
N  32.44000 58.03900 40.17600
C  33.12600 56.92800 39.64100
C  34.51800 57.08200 39.71800
C  34.73700 58.39500 40.31400
C  33.41400 59.01400 40.56500
C  35.50100 56.06400 39.06900
C  36.09400 58.88500 40.59500
O  37.07200 58.24300 40.21900
C  36.22800 60.15000 41.44300
N  30.73800 60.57500 40.67500
C  31.90800 61.08300 41.09000
C  31.79500 62.60600 41.23500
C  30.27300 62.91700 41.02800
C  29.72100 61.47800 40.79600
C  32.47500 63.27900 42.49000
C  29.90400 63.93800 39.92000
C  29.18400 65.18500 40.28100
N  28.34600 58.92100 40.06700
C  27.69300 60.12800 40.09100
C  26.31500 60.02500 39.70600
C  26.18700 58.68600 39.39800
C  27.44400 58.07400 39.54000
C  25.32500 61.18300 39.65400
C  25.25400 57.72500 39.02000
O  24.05200 57.75200 38.84100
C  26.08300 56.41200 38.85800
C  25.46300 55.35200 39.65900
O  25.47400 55.25500 40.87100
O  25.03100 54.34100 38.85900
C  24.10000 53.31100 39.54600
H  32.90200 54.90900 38.82200
H  33.89800 61.00200 41.26700
H  27.74900 62.13300 40.45600
H  28.18300 54.00300 39.14900
H  30.79000 53.98300 37.57200
H  31.22000 52.25000 39.06600
H  29.90400 52.86300 40.15500
H  31.58000 53.38800 40.31500
H  27.26000 54.31800 36.90800
H  28.79400 53.61200 36.54800
H  29.77700 55.39700 35.53800
H  29.08700 56.61200 36.59300
H  36.24300 55.79600 39.82200
H  35.94100 56.44800 38.14900
H  34.98100 55.11900 38.91000
H  35.61500 60.01600 42.33500
H  35.86000 61.05600 40.96100
H  37.21900 60.56600 41.62600
H  32.31800 63.00300 40.36500
H  29.89000 63.23700 41.99700
H  32.90700 62.58000 43.20600
H  31.74400 63.87600 43.03600
H  33.22500 64.02600 42.22800
H  29.40400 63.41300 39.10600
H  30.82200 64.30800 39.46400
H  28.72000 65.48200 39.34100
H  29.92500 65.90200 40.63700
H  28.47800 64.98200 41.08600
H  24.41700 60.85400 39.14800
H  25.80600 61.96700 39.06800
H  25.15300 61.47300 40.69100
H  25.97800 56.08800 37.82300
H  23.64400 52.85200 38.66900
H  23.35900 53.78800 40.18600
H  24.58700 52.53200 40.13300

