158

Mg 6.77500 54.49200 42.29100
C  5.97200 51.18900 41.71800
C  9.99100 53.94800 41.35000
C  7.15400 57.93700 41.65200
C  3.27900 55.14500 42.93800
N  7.83600 52.75800 41.41300
C  7.34600 51.47600 41.39700
C  8.51900 50.54000 40.98400
C  9.77300 51.40500 41.34900
C  9.16700 52.80100 41.30300
C  10.36200 50.93900 42.65000
C  8.52600 50.07700 39.48100
C  8.34600 51.18000 38.44800
H  7.02000 51.19800 37.70900
N  8.36200 55.69600 41.68400
C  9.63600 55.34500 41.35800
C  10.47800 56.49000 40.96300
C  9.66000 57.61300 41.14100
C  8.31100 57.10300 41.55300
C  11.92400 56.28500 40.51200
C  10.20500 59.03900 40.89700
O  11.35400 59.27500 40.55800
C  9.28200 60.22700 41.06200
N  5.39500 56.32200 42.23200
C  5.82600 57.60100 42.15400
C  4.78700 58.65300 42.56500
C  3.56300 57.77800 42.88800
C  4.05400 56.31800 42.70500
C  5.25300 59.56600 43.78400
C  2.24000 57.97700 42.07100
C  0.87600 57.79700 42.84300
N  4.96800 53.41200 42.47500
C  3.68900 53.75600 42.78500
C  2.86000 52.55400 43.01700
C  3.73600 51.54200 42.58800
C  4.99000 52.08000 42.26000
C  1.44500 52.52300 43.52300
C  3.83900 50.14900 42.33100
O  3.03000 49.24300 42.47100
C  5.28800 49.86500 41.75200
C  5.16500 49.31900 40.40200
O  4.64200 49.77700 39.37800
O  5.77800 48.07800 40.44800
C  5.71600 47.13700 39.30200
H  11.06400 53.74300 41.36300
H  7.12300 59.02200 41.53400
H  2.21900 55.21400 43.19000
H  8.46800 49.57800 41.49500
H  10.53700 51.20000 40.59800
H  9.65700 50.34700 43.23400
H  10.73000 51.80000 43.20600
H  11.19100 50.30900 42.32600
H  7.61700 49.48900 39.35500
H  9.39500 49.44200 39.30700
H  9.15400 51.05000 37.72700
H  8.37600 52.18100 38.87900
H  11.84900 55.98800 39.46600
H  12.41000 55.46100 41.03500
H  12.49000 57.19500 40.70700
H  9.75700 61.15300 40.73800
H  8.89000 60.25500 42.07800
H  8.45600 60.01700 40.38200
H  4.66600 59.31500 41.70700
H  3.21700 57.96400 43.90500
H  6.30300 59.41200 44.03100
H  4.54500 59.49500 44.61100
H  5.19600 60.59400 43.42700
H  2.29000 57.20300 41.30500
H  2.26900 58.96400 41.61100
H  0.10700 58.54700 42.65600
H  1.15400 57.78500 43.89700
H  0.40500 56.85800 42.55000
H  1.05700 51.52700 43.30800
H  0.91200 53.23300 42.89000
H  1.50700 52.67600 44.60100
H  5.85300 49.19200 42.39600
H  5.31000 46.17300 39.60700
H  6.73800 47.08800 38.92800
H  5.08000 47.48400 38.48700
Mg -10.60600 16.59200 42.62300
C  -7.36500 17.61200 42.51600
C  -11.49400 19.91400 41.79700
C  -13.81300 15.64900 42.49900
C  -9.58400 13.23100 43.11800
N  -9.53400 18.51500 42.04500
C  -8.15600 18.68400 42.14700
C  -7.75900 20.04700 41.67500
C  -9.06100 20.85600 41.89200
C  -10.08800 19.74900 41.89500
C  -8.98600 21.75500 43.13100
C  -7.14200 19.94200 40.22200
C  -5.61400 20.31500 39.97400
H  -4.76700 19.36500 39.33000
N  -12.41600 17.65500 42.27000
C  -12.54700 18.95600 41.95900
C  -13.92200 19.20600 41.65400
C  -14.58000 17.96100 41.78100
C  -13.59500 17.00700 42.23000
C  -14.51100 20.54000 41.22200
C  -16.03600 17.72300 41.53400
O  -16.67500 18.74400 41.28800
C  -16.80000 16.43700 41.72200
N  -11.51300 14.70100 42.67000
C  -12.87400 14.62600 42.73200
C  -13.35500 13.21700 43.02500
C  -12.07300 12.38900 43.29400
C  -10.94800 13.46100 42.89000
C  -14.44300 13.07400 44.03700
C  -11.81800 11.08500 42.46700
C  -11.28600 9.98600 43.32300
N  -8.84900 15.60200 42.78500
C  -8.54600 14.26800 43.12200
C  -7.09100 14.17700 43.17800
C  -6.63000 15.48000 43.06200
C  -7.72700 16.28300 42.74300
C  -6.35300 12.90600 43.27000
C  -5.38500 16.28700 43.04500
O  -4.20000 15.95500 43.21500
C  -5.87100 17.78800 42.75700
C  -5.58000 18.47000 44.08100
O  -6.22500 18.20400 45.07300
O  -4.46000 19.25700 44.08600
C  -4.08900 19.98400 45.24400
H  -11.76700 20.92600 41.48900
H  -14.84100 15.28300 42.45400
H  -9.27500 12.23600 43.44500
H  -6.91200 20.27600 42.32200
H  -9.14500 21.57900 41.08100
H  -7.94200 21.85900 43.42600
H  -9.63300 21.25000 43.84900
H  -9.42800 22.67800 42.75600
H  -7.65900 20.62800 39.55100
H  -7.24100 18.92600 39.83800
H  -5.19100 20.50500 40.96100
H  -5.58500 21.22900 39.38100
H  -15.04100 20.51100 40.27000
H  -13.74600 21.31400 41.15700
H  -15.22800 20.83800 41.98700
H  -17.77200 16.60300 41.25900
H  -16.94300 16.04000 42.72700
H  -16.41500 15.64200 41.08300
H  -13.79300 12.86600 42.09000
H  -12.01300 12.24600 44.37300
H  -15.35400 12.72600 43.55000
H  -14.74300 13.94500 44.62000
H  -14.20100 12.20400 44.64700
H  -11.05100 11.21600 41.70400
H  -12.73500 10.79300 41.95300
H  -12.10000 9.28800 43.51800
H  -10.97700 10.46500 44.25200
H  -10.44900 9.43400 42.89500
H  -5.30300 13.00400 42.99500
H  -6.86400 12.21800 42.59600
H  -6.32800 12.51500 44.28700
H  -5.24500 18.33300 42.05000
H  -4.80400 20.20300 46.03700
H  -3.64400 20.91800 44.89900
H  -3.27600 19.39600 45.67000

