158

Mg 35.74600 2.89900 30.28500
C  33.19600 3.70900 32.44300
C  38.08500 3.12900 32.79200
C  38.16300 2.25400 27.97600
C  33.41200 2.86200 27.69500
N  35.62400 3.27900 32.32000
C  34.47100 3.54600 33.05700
C  34.76400 3.39800 34.51000
C  36.29200 3.71300 34.57200
C  36.70800 3.30300 33.08900
C  36.67600 5.14600 34.91500
C  34.35400 2.08600 35.20700
C  33.88300 2.27500 36.65900
H  34.66100 3.32200 37.47100
N  37.85800 2.64400 30.36000
C  38.61100 2.71100 31.57100
C  40.01100 2.43800 31.22200
C  40.08900 2.19800 29.77000
C  38.68200 2.36400 29.29000
C  41.01700 2.45000 32.31100
C  41.19600 1.79300 28.90600
O  41.19000 1.70300 27.68400
C  42.49600 1.45600 29.57200
N  35.71000 2.66200 28.11300
C  36.86700 2.50500 27.40400
C  36.57400 2.11100 25.93300
C  35.01700 2.28300 25.86600
C  34.66300 2.43700 27.31500
C  37.39100 2.82900 24.90200
C  34.40400 1.00900 25.23300
C  34.00400 1.18900 23.73000
N  33.76700 3.32600 30.12200
C  32.94400 3.21900 28.97700
C  31.58900 3.63200 29.32400
C  31.57200 3.73500 30.70000
C  32.94400 3.56100 31.11400
C  30.46900 3.55100 28.43800
C  30.85400 3.88100 31.89800
O  29.64800 3.96300 32.16200
C  31.91000 3.86900 33.06200
C  31.73500 5.11900 33.85900
O  31.66600 6.23600 33.40200
O  31.75900 4.82200 35.20900
C  31.64300 5.95900 36.10800
H  38.81600 3.32800 33.57900
H  38.88600 1.96200 27.21200
H  32.61000 2.94200 26.95900
H  34.21400 4.25000 34.90800
H  36.80200 3.00400 35.22400
H  35.95100 5.70700 35.50400
H  37.02400 5.70700 34.04700
H  37.53500 5.08100 35.58300
H  35.09700 1.29000 35.17000
H  33.51500 1.66600 34.65200
H  33.85000 1.31600 37.17700
H  32.81000 2.47100 36.66200
H  41.60900 3.29600 31.96000
H  41.56000 1.51000 32.40400
H  40.69600 2.68600 33.32600
H  43.22300 1.36700 28.76400
H  42.41100 0.47400 30.03500
H  42.99700 2.15500 30.24200
H  36.92400 1.07900 25.95300
H  34.76500 3.24500 25.42100
H  38.22400 2.19400 24.60000
H  37.87800 3.76000 25.19300
H  36.73300 2.95100 24.04100
H  33.50700 0.68900 25.76400
H  35.08500 0.16300 25.32700
H  34.79400 1.63500 23.12600
H  33.10400 1.80300 23.69100
H  33.55900 0.26400 23.36400
H  30.57300 2.93000 27.54800
H  30.09200 4.53200 28.14900
H  29.69900 3.00900 28.98700
H  31.84100 2.96500 33.66600
H  32.33600 6.74800 35.81800
H  31.90900 5.62200 37.11000
H  30.58900 6.22800 36.03800
Mg 41.09600 9.00900 29.35900
C  42.88500 10.09600 32.20600
C  38.78100 7.57900 31.36900
C  39.54800 7.94800 26.56000
C  43.72100 10.21100 27.39100
N  40.88400 8.84400 31.63100
C  41.68600 9.41400 32.59900
C  41.12600 9.19300 34.02200
C  39.91800 8.25700 33.69500
C  39.86700 8.15000 32.15800
C  40.15000 6.88200 34.34600
C  40.70600 10.54400 34.73700
C  40.33700 10.37700 36.19500
H  41.02700 11.26300 37.25100
N  39.38300 7.89500 28.99200
C  38.52000 7.46200 29.98400
C  37.41600 6.82100 29.31900
C  37.58300 6.90400 27.85200
C  38.88300 7.65400 27.72200
C  36.32400 6.15100 30.09300
C  36.72700 6.44900 26.69600
O  36.93800 6.59000 25.52600
C  35.49300 5.84000 27.01800
N  41.67200 8.96100 27.35300
C  40.82400 8.53000 26.36800
C  41.38400 8.70700 24.90000
C  42.62800 9.64700 25.19600
C  42.70000 9.55200 26.76200
C  41.58100 7.44400 24.04900
C  42.55600 11.06100 24.60000
C  41.61400 11.98400 25.40400
N  42.96600 9.85400 29.74200
C  43.89300 10.41200 28.79200
C  44.85600 11.14000 29.45200
C  44.54900 11.00100 30.83700
C  43.38900 10.23700 30.88900
C  46.10900 11.83000 28.90200
C  45.05700 11.32100 32.12700
O  46.07400 11.91300 32.48900
C  43.89000 10.86400 33.12700
C  44.45300 9.94900 34.18100
O  45.33100 9.17700 34.04500
O  43.76700 10.16300 35.39200
C  44.03200 9.10800 36.42300
H  38.07600 7.19200 32.10800
H  39.05200 7.73500 25.61100
H  44.42300 10.75900 26.75900
H  41.77100 8.54600 34.61700
H  38.96400 8.63400 34.06300
H  40.33100 6.19200 33.52200
H  39.29600 6.55300 34.93800
H  40.95000 6.76700 35.07900
H  39.78000 10.81800 34.23100
H  41.43800 11.34000 34.60500
H  40.56600 9.33500 36.41700
H  39.27500 10.61900 36.23800
H  36.47000 5.09300 29.87700
H  35.32100 6.44800 29.78700
H  36.37100 6.38300 31.15700
H  34.87100 6.59600 27.49800
H  35.70600 4.99100 27.66600
H  35.01200 5.52800 26.09100
H  40.53400 9.22400 24.45400
H  43.59000 9.17800 24.98900
H  42.60500 7.46000 23.67600
H  40.93400 7.46900 23.17200
H  41.27500 6.54600 24.58600
H  42.10200 10.85900 23.63000
H  43.55500 11.44600 24.39500
H  41.63200 11.81600 26.48100
H  40.58100 11.85300 25.08200
H  41.78200 13.01600 25.09300
H  45.87400 12.22900 27.91500
H  46.96800 11.17400 29.04200
H  46.25900 12.66500 29.58500
H  43.28700 11.70800 33.46000
H  45.09800 9.20200 36.62800
H  43.88500 8.06700 36.13700
H  43.54800 9.40800 37.35300

