158

Mg 5.90000 56.18400 41.13100
C  3.97400 53.26800 40.77400
C  8.38200 54.67100 39.40400
C  7.17700 59.27100 40.48000
C  3.00200 57.82100 42.39100
N  6.13200 54.26900 40.00700
C  5.23700 53.22500 40.09800
C  5.78200 51.90400 39.48200
C  7.29300 52.33600 39.34200
C  7.32300 53.81300 39.66400
C  8.37200 51.49800 40.00400
C  5.15400 51.65500 38.14200
C  4.80600 50.12900 37.95500
H  5.17400 49.55000 36.57600
N  7.63700 56.86500 40.27900
C  8.59700 56.08700 39.58200
C  9.67700 56.89900 39.20000
C  9.38900 58.19000 39.67000
C  8.00200 58.16900 40.20300
C  10.98500 56.42000 38.60700
C  10.34600 59.39300 39.48300
O  11.41500 59.29900 38.86100
C  9.96800 60.76400 40.07800
N  5.16400 58.27600 41.32400
C  5.93700 59.31600 40.94400
C  5.13800 60.65100 41.23200
C  3.92200 60.18800 41.96000
C  3.96400 58.67600 41.80500
C  5.94100 61.76200 41.96300
C  2.62900 60.91800 41.53400
C  2.29200 62.19200 42.35900
N  4.05800 55.69900 41.76100
C  3.01600 56.43800 42.29900
C  1.93700 55.51100 42.76200
C  2.31100 54.27200 42.23100
C  3.49200 54.48500 41.52700
C  0.54200 55.89600 43.30600
C  1.91100 52.86600 42.12100
O  1.03600 52.14800 42.60800
C  3.00600 52.22700 41.14600
C  2.10500 51.96800 39.98000
O  1.47500 52.77100 39.29500
O  2.09700 50.63000 39.75100
C  0.96400 50.04300 39.05400
H  9.28000 54.24800 38.94800
H  7.66800 60.18000 40.12600
H  2.06600 58.26500 42.73400
H  5.51800 51.14500 40.21900
H  7.46600 52.50700 38.27900
H  9.10200 51.86900 40.72500
H  8.87800 51.04300 39.15300
H  7.91000 50.73700 40.63300
H  5.85800 51.88100 37.34100
H  4.27500 52.29600 38.06600
H  3.71600 50.15500 37.96500
H  5.25900 49.60700 38.79800
H  11.00700 56.94000 37.65000
H  10.96600 55.38600 38.26200
H  11.80200 56.67500 39.28200
H  10.74900 61.51300 40.20400
H  9.53600 60.48700 41.04000
H  9.28000 61.29300 39.41900
H  4.85000 60.89500 40.21000
H  3.93300 60.36700 43.03500
H  5.88100 62.57000 41.23400
H  6.96600 61.39400 41.91000
H  5.74700 61.97300 43.01500
H  1.80400 60.20600 41.56700
H  2.58200 61.16700 40.47400
H  2.04000 63.04800 41.73200
H  3.09300 62.45400 43.05000
H  1.38000 62.09100 42.94700
H  -0.13800 56.33600 42.57700
H  0.68900 56.58200 44.14000
H  0.05200 54.98300 43.64400
H  3.49800 51.35900 41.58600
H  0.22900 50.77300 38.71400
H  0.54900 49.21300 39.62700
H  1.33300 49.67800 38.09600
Mg 16.99700 53.46200 26.48600
C  19.26600 51.78000 28.66000
C  14.96600 54.00300 29.04900
C  15.19600 55.21800 24.37300
C  19.18100 52.52600 23.77500
N  17.14300 52.92100 28.66500
C  18.18400 52.33700 29.32000
C  17.89400 52.38600 30.80300
C  16.35900 52.92800 30.84600
C  16.09200 53.31900 29.45300
C  15.41200 51.85700 31.38400
C  18.93200 53.33800 31.57400
C  19.36700 53.04300 33.02400
H  18.31900 52.60500 33.97300
N  15.29700 54.46200 26.68200
C  14.55400 54.51500 27.80500
C  13.32400 55.10900 27.49200
C  13.29700 55.51400 26.12700
C  14.64800 55.05200 25.65200
C  12.28600 55.32500 28.54200
C  12.21900 56.12900 25.28000
O  12.27400 56.28600 24.07900
C  10.87200 56.51300 25.93500
N  17.16800 53.85800 24.39300
C  16.29700 54.70100 23.81400
C  16.60900 54.87700 22.31000
C  18.06900 54.30400 22.23500
C  18.21200 53.55900 23.57000
C  15.59400 54.22800 21.32300
C  19.22300 55.30500 21.88600
C  19.71100 55.16100 20.46500
N  18.87300 52.36900 26.24500
C  19.56100 52.00600 25.07100
C  20.75200 51.27100 25.48000
C  20.69800 51.21000 26.87800
C  19.51000 51.78400 27.29900
C  21.71600 50.77700 24.47400
C  21.38400 50.66000 28.05100
O  22.42300 50.08400 28.24100
C  20.45200 51.05100 29.26600
C  20.06300 49.83700 30.03400
O  19.32300 48.91500 29.69200
O  20.58900 49.92500 31.31200
C  19.91600 49.09000 32.30700
H  14.40700 54.23300 29.95900
H  14.52800 55.85200 23.78600
H  19.85100 52.30500 22.94100
H  18.03200 51.42200 31.29100
H  16.38100 53.74000 31.57300
H  14.75000 52.29500 32.13200
H  15.93800 50.97500 31.74900
H  14.71300 51.71500 30.56000
H  18.48800 54.32600 31.45800
H  19.82200 53.48300 30.96100
H  19.89400 53.91500 33.41000
H  20.00800 52.17000 32.90200
H  11.40600 54.75100 28.25400
H  12.05800 56.38800 28.62700
H  12.56700 54.94400 29.52300
H  10.52300 55.80300 26.68500
H  10.15700 56.33100 25.13300
H  10.91800 57.56600 26.21200
H  16.64800 55.93500 22.05400
H  17.96700 53.56100 21.44400
H  16.09100 54.30800 20.35600
H  14.85300 55.02500 21.38600
H  15.32500 53.19200 21.52900
H  19.88800 54.97800 22.68500
H  19.01600 56.36800 22.01000
H  19.09400 54.46800 19.89300
H  20.73900 54.80700 20.38700
H  19.66600 56.10800 19.92800
H  21.15100 50.45100 23.60000
H  22.34000 50.00300 24.92100
H  22.39200 51.57700 24.17000
H  20.96000 51.73300 29.94800
H  18.86000 49.24900 32.52500
H  20.31000 49.19900 33.31800
H  19.91900 48.02200 32.09200

