158

Mg 54.07000 24.68600 44.80800
C  51.02300 26.30700 44.02300
C  52.47300 21.66300 44.08000
C  57.03100 23.28600 44.86800
C  55.48400 27.66100 45.74800
N  52.05000 24.10400 43.88600
C  50.94700 24.89300 43.75800
C  49.74900 24.00600 43.33100
C  50.13100 22.61700 43.92700
C  51.68100 22.79800 43.97600
C  49.43200 22.38300 45.33700
C  49.46800 23.99800 41.75800
C  48.00300 23.75500 41.20100
H  47.87200 23.65500 39.69100
N  54.67200 22.79600 44.33300
C  53.92200 21.67700 44.06100
C  54.73600 20.55900 43.85700
C  56.03100 21.00300 44.04700
C  56.00300 22.40500 44.46000
C  54.34300 19.15100 43.40800
C  57.33700 20.14200 43.69300
O  57.31600 18.97400 43.34500
C  58.64200 20.73900 43.99900
N  56.01600 25.40800 45.06500
C  57.10300 24.65000 45.09300
C  58.47000 25.33200 45.47600
C  57.84200 26.73400 45.94800
C  56.34600 26.61200 45.58900
C  59.41900 24.59800 46.42600
C  58.43700 27.97600 45.14500
C  58.99100 29.21400 45.93300
N  53.42100 26.57900 44.90000
C  54.11200 27.70400 45.37500
C  53.18600 28.81600 45.45400
C  51.98800 28.34000 44.88300
C  52.18000 27.00300 44.49700
C  53.46400 30.22300 45.98600
C  50.60900 28.69900 44.52900
O  49.98600 29.72100 44.74300
C  49.98500 27.41600 43.84500
C  49.84200 27.69400 42.41100
O  50.72400 28.17400 41.69500
O  48.52900 27.48400 41.96000
C  48.17100 27.95400 40.67200
H  51.94200 20.73400 43.86000
H  58.08000 22.98200 44.83300
H  55.82100 28.66900 46.00200
H  48.82900 24.34700 43.80400
H  49.93600 21.82400 43.20400
H  50.19300 22.14200 46.07900
H  48.65500 21.62200 45.26400
H  49.11000 23.35300 45.71400
H  49.96600 23.12700 41.33300
H  49.81600 24.91100 41.27600
H  47.33500 24.55900 41.51100
H  47.67300 22.86000 41.72900
H  53.27100 18.98500 43.31100
H  54.66200 18.38000 44.11000
H  54.75000 18.97600 42.41200
H  58.57600 21.59400 43.32600
H  59.40300 20.08700 43.57100
H  58.91900 20.96400 45.02900
H  58.94700 25.51600 44.51300
H  57.95500 26.83900 47.02700
H  60.37900 24.33700 45.98000
H  58.98000 23.65700 46.75700
H  59.56900 25.16100 47.34800
H  57.71000 28.30500 44.40200
H  59.41900 27.76200 44.72500
H  59.14200 28.96200 46.98300
H  58.36400 30.09600 45.80200
H  59.99900 29.48400 45.61900
H  52.54000 30.77200 45.80100
H  54.39200 30.54200 45.51200
H  53.51000 30.13300 47.07200
H  49.03800 27.08000 44.26800
H  48.92800 28.16900 39.91700
H  47.71000 28.93100 40.81800
H  47.43200 27.23900 40.31100
Mg 16.86600 52.69500 26.51800
C  18.83900 51.33700 29.04300
C  14.57400 53.65400 28.93900
C  14.82600 53.76800 24.06000
C  18.92100 51.28200 24.09900
N  16.79500 52.59000 28.72500
C  17.71900 52.05700 29.53900
C  17.37400 52.25500 30.98800
C  15.81300 52.48400 30.88800
C  15.73100 52.99900 29.41800
C  14.91600 51.22700 31.13100
C  18.20800 53.44300 31.54500
C  18.75800 53.31400 32.92100
H  17.81700 52.55700 33.86300
N  14.95100 53.56300 26.48500
C  14.28100 54.00400 27.59800
C  13.20600 54.92900 27.22400
C  13.26600 54.92800 25.80500
C  14.36000 54.05600 25.37100
C  12.35300 55.68600 28.20900
C  12.31700 55.67900 24.89700
O  12.43600 55.68500 23.69900
C  11.07000 56.38000 25.31900
N  16.77600 52.44800 24.29300
C  15.86200 53.03500 23.52000
C  16.15100 52.92300 22.05900
C  17.45900 52.10000 22.02100
C  17.76800 51.93900 23.53800
C  14.98300 52.37100 21.12000
C  18.50800 52.85700 21.20000
C  19.41600 53.99900 21.79600
N  18.52700 51.59600 26.48000
C  19.26600 51.09700 25.41800
C  20.46600 50.39600 25.92200
C  20.25700 50.43600 27.33500
C  19.13700 51.18100 27.61900
C  21.61300 49.76800 25.19000
C  20.84900 50.02100 28.55300
O  21.90600 49.43600 28.76400
C  19.92900 50.64600 29.74000
C  19.48000 49.64000 30.64600
O  18.51500 48.94100 30.38400
O  20.18700 49.65200 31.84200
C  19.66600 48.64400 32.81800
H  13.89600 53.90500 29.75700
H  14.25300 54.23700 23.25800
H  19.59700 50.87000 23.34600
H  17.55100 51.33900 31.55200
H  15.56300 53.25300 31.61900
H  14.21300 51.55800 31.89500
H  15.41000 50.33100 31.50700
H  14.43500 50.82300 30.24000
H  17.72000 54.40500 31.39000
H  19.13300 53.44600 30.96900
H  18.90800 54.30100 33.36000
H  19.70700 52.78600 33.01300
H  12.79800 55.69700 29.20400
H  11.31600 55.35300 28.24500
H  12.35000 56.73500 27.91400
H  11.41500 57.16600 25.99100
H  10.41400 55.69900 25.86000
H  10.42200 56.76600 24.53200
H  16.48900 53.90700 21.73400
H  17.21400 51.13200 21.58500
H  15.29600 51.55800 20.46500
H  14.58100 53.17400 20.50300
H  14.22100 51.98800 21.79900
H  17.96500 53.30100 20.36500
H  19.25400 52.19400 20.76400
H  19.07200 54.12400 22.82300
H  19.13100 54.94200 21.32900
H  20.49200 53.87500 21.67500
H  21.32300 49.66300 24.14400
H  21.81900 48.78600 25.61700
H  22.49200 50.37900 25.39300
H  20.49500 51.38700 30.30500
H  18.60300 48.44600 32.68200
H  19.74700 49.03800 33.83100
H  20.28900 47.74900 32.84600

