158

Mg -1.86800 33.90100 26.59000
C  -3.66700 32.58800 29.24500
C  -0.26900 35.92200 28.68500
C  -0.62400 35.37300 23.90800
C  -3.90100 31.79200 24.44100
N  -2.01300 34.23300 28.68100
C  -2.71100 33.55000 29.58100
C  -2.41400 34.03400 31.00100
C  -1.34400 35.14500 30.77600
C  -1.18000 35.17200 29.28700
C  -1.68800 36.50800 31.43400
C  -1.93900 32.95900 31.92300
C  -2.66700 32.75400 33.23200
H  -1.79000 32.33100 34.49100
N  -0.52900 35.35700 26.35600
C  0.06700 36.03300 27.40000
C  1.03200 36.92400 26.80900
C  0.92100 36.81900 25.37900
C  -0.08000 35.75600 25.16400
C  1.91000 37.87900 27.58300
C  1.65500 37.60800 24.35900
O  1.45500 37.50800 23.13800
C  2.71500 38.46100 24.80200
N  -2.27200 33.58700 24.40200
C  -1.60900 34.34200 23.53900
C  -1.96700 33.99900 22.10300
C  -2.76500 32.62000 22.30900
C  -3.01200 32.64000 23.78000
C  -2.72100 35.21900 21.32400
C  -2.03900 31.32000 21.88500
C  -1.50000 31.16900 20.43900
N  -3.39700 32.48000 26.78700
C  -4.08600 31.69800 25.85400
C  -4.96800 30.79300 26.54600
C  -4.88700 31.16000 27.92800
C  -3.92100 32.16700 27.93800
C  -5.85800 29.79000 25.90200
C  -5.40400 30.84900 29.21800
O  -6.19900 30.00100 29.62600
C  -4.57900 31.74800 30.17400
C  -5.67400 32.57400 30.84100
O  -6.03700 33.63300 30.48600
O  -6.03900 31.91800 32.02000
C  -7.14300 32.59800 32.76600
H  0.24800 36.49700 29.45600
H  -0.15000 35.73300 22.99200
H  -4.38900 31.10300 23.74900
H  -3.35500 34.47000 31.33600
H  -0.37900 34.70900 31.03600
H  -0.77100 36.91000 31.86500
H  -2.39900 36.37000 32.24800
H  -2.05200 37.22600 30.70000
H  -0.86400 33.02700 32.08700
H  -2.06300 32.07600 31.29700
H  -3.35600 31.94200 32.99800
H  -3.23400 33.66000 33.44400
H  1.64100 37.85100 28.63900
H  1.85300 38.92100 27.26800
H  2.90200 37.43600 27.49100
H  3.45300 37.92000 25.39600
H  2.25000 39.27500 25.35800
H  3.20300 39.02400 24.00700
H  -0.98400 33.83100 21.66200
H  -3.72500 32.65800 21.79400
H  -1.91700 35.52500 20.65400
H  -3.05000 35.98400 22.02700
H  -3.64900 34.86600 20.87400
H  -2.75400 30.52300 22.09000
H  -1.24600 31.13300 22.60900
H  -0.44100 31.42500 20.43000
H  -1.99600 31.84600 19.74300
H  -1.60100 30.09500 20.28800
H  -5.30700 28.85100 25.86000
H  -6.27000 30.08900 24.93900
H  -6.69100 29.60600 26.58100
H  -3.94200 31.13800 30.81400
H  -6.91400 33.63000 33.03100
H  -7.39600 32.00900 33.64700
H  -8.08300 32.67800 32.22000
Mg -12.48000 16.70000 41.85900
C  -9.39400 14.97400 41.35400
C  -10.97100 19.49400 40.43200
C  -15.45400 18.10700 41.66300
C  -13.95600 13.71900 42.87500
N  -10.49200 17.09800 40.80500
C  -9.36600 16.21300 40.78300
C  -8.20600 16.93400 40.17900
C  -8.68000 18.45500 40.03300
C  -10.16100 18.39500 40.46400
C  -7.80500 19.54200 40.61900
C  -7.80700 16.30800 38.78500
C  -6.37800 15.78500 38.67600
H  -5.70400 16.34200 37.37200
N  -13.15500 18.58400 41.25700
C  -12.35700 19.59400 40.69900
C  -13.17700 20.76200 40.46500
C  -14.51500 20.37400 40.79700
C  -14.44300 18.97000 41.28000
C  -12.76400 22.12800 39.97500
C  -15.70500 21.30300 40.72100
O  -15.50700 22.47600 40.41100
C  -17.14800 20.86100 41.00100
N  -14.46100 15.94500 42.01800
C  -15.49200 16.73800 41.95800
C  -16.83300 16.03900 42.20400
C  -16.27100 14.75900 42.90300
C  -14.79500 14.78000 42.62600
C  -17.94400 16.73400 43.05800
C  -16.94100 13.47600 42.35400
C  -17.57800 12.56100 43.40000
N  -11.87400 14.64900 42.04800
C  -12.54200 13.60300 42.62100
C  -11.67400 12.46300 42.74800
C  -10.41600 12.95200 42.25600
C  -10.54400 14.31000 41.91400
C  -12.15200 11.12200 43.23600
C  -8.96200 12.59900 41.89400
O  -8.45100 11.48200 41.85800
C  -8.26700 13.89900 41.34200
C  -7.15700 14.19200 42.33800
O  -7.27900 14.14300 43.55300
O  -6.00200 14.64400 41.70000
C  -4.99000 15.13600 42.62600
H  -10.58500 20.33700 39.85600
H  -16.45000 18.55300 41.68500
H  -14.47100 12.81500 43.20700
H  -7.38600 16.90100 40.89600
H  -8.62500 18.77800 38.99300
H  -8.26500 19.88800 41.54500
H  -7.85000 20.36900 39.91000
H  -6.81000 19.16000 40.84500
H  -7.99700 17.00600 37.96900
H  -8.44000 15.43200 38.64400
H  -6.51900 14.70400 38.64100
H  -5.75600 16.21300 39.46100
H  -12.85100 22.22700 38.89300
H  -11.68000 22.19800 40.06800
H  -13.02500 22.99000 40.58800
H  -17.13900 20.43100 42.00300
H  -17.28100 20.06100 40.27300
H  -17.95700 21.57700 40.85700
H  -17.29000 15.90700 41.22300
H  -16.39600 14.76400 43.98600
H  -17.99800 16.29700 44.05500
H  -18.86500 16.39600 42.58400
H  -17.83400 17.81800 43.03500
H  -16.29400 12.91700 41.67700
H  -17.81800 13.76500 41.77500
H  -17.51700 11.53600 43.03300
H  -18.62600 12.82000 43.55200
H  -17.09500 12.54400 44.37700
H  -11.33500 10.41400 43.37400
H  -12.92600 10.69900 42.59600
H  -12.57700 11.33800 44.21600
H  -7.80300 13.62600 40.39500
H  -4.58400 14.28600 43.17600
H  -5.42100 15.83100 43.34600
H  -4.40300 15.83600 42.03200

