158

Mg 2.55700 -1.31400 44.24300
C  6.05200 -1.22500 43.81400
C  2.23200 1.37300 42.21600
C  -0.74200 -1.95500 44.25000
C  3.12000 -4.20300 46.24300
N  4.01600 -0.21900 43.03200
C  5.39800 -0.24900 43.04100
C  5.98200 0.85300 42.25800
C  4.69000 1.92700 42.16500
C  3.53500 1.00900 42.53200
C  4.78900 3.09100 43.18700
C  6.54900 0.54500 40.84200
C  7.68600 1.37000 40.26200
H  7.41700 2.43300 39.18600
N  0.93700 -0.42600 43.33700
C  1.04800 0.67300 42.51900
C  -0.32500 1.03900 42.20700
C  -1.16600 0.11600 42.72400
C  -0.37400 -0.84500 43.47400
C  -0.53700 2.42100 41.50000
C  -2.75200 0.16300 42.62000
O  -3.29600 1.14300 42.05800
C  -3.61300 -0.77800 43.27600
N  1.35500 -2.97200 44.89300
C  -0.01100 -2.81400 44.96400
C  -0.69400 -3.92000 45.75300
C  0.56700 -4.69600 46.35300
C  1.82600 -3.92800 45.81300
C  -1.69900 -3.50100 46.80900
C  0.57200 -6.24300 46.16400
C  1.11000 -7.01600 47.38600
N  4.22000 -2.42000 44.92400
C  4.27300 -3.53200 45.75500
C  5.65000 -3.91900 46.05700
C  6.41400 -2.92500 45.37600
C  5.49800 -2.12900 44.63800
C  6.26900 -5.09400 46.94400
C  7.76700 -2.51400 45.10700
O  8.79900 -2.89700 45.67800
C  7.53300 -1.41500 43.99400
C  8.16900 -0.20300 44.69400
O  8.14200 0.02800 45.88500
O  8.89700 0.60600 43.81600
C  9.36200 1.95300 44.36600
H  2.21200 2.25200 41.56900
H  -1.80700 -1.98400 44.48900
H  3.32900 -5.09500 46.83700
H  6.63200 1.35800 42.97200
H  4.56700 2.31500 41.15400
H  5.28200 3.87900 42.61800
H  5.25200 2.64200 44.06600
H  3.82200 3.46300 43.52600
H  5.73000 0.60000 40.12600
H  6.88100 -0.49300 40.81200
H  8.52200 0.72700 39.98700
H  8.00100 1.87600 41.17400
H  -1.53600 2.79600 41.27500
H  -0.14900 2.33700 40.48500
H  0.00900 3.21500 42.01000
H  -4.58000 -0.65900 42.78700
H  -3.60200 -0.44800 44.31500
H  -3.34500 -1.82300 43.12500
H  -1.27300 -4.50700 45.04000
H  0.46100 -4.35300 47.38300
H  -1.83300 -2.42100 46.75000
H  -1.41400 -3.83200 47.80700
H  -2.66600 -3.97500 46.64000
H  1.24200 -6.50800 45.34600
H  -0.42500 -6.58900 45.89000
H  0.50100 -7.90800 47.53500
H  1.16000 -6.35200 48.24900
H  2.11700 -7.31400 47.09200
H  6.72100 -5.80400 46.25100
H  5.43700 -5.59900 47.43500
H  6.98300 -4.67500 47.65300
H  8.17700 -1.57000 43.12800
H  10.19900 1.75400 45.03500
H  8.58200 2.46700 44.92900
H  9.72700 2.61600 43.58100
Mg 35.77900 1.63300 29.89900
C  33.52300 2.79400 32.19700
C  38.23600 1.90200 32.36200
C  38.16600 1.13500 27.50700
C  33.39500 2.04100 27.52600
N  35.90900 2.54400 31.98800
C  34.80200 2.69700 32.71100
C  35.08300 2.76000 34.21900
C  36.69900 2.72700 34.24300
C  36.98300 2.31400 32.77900
C  37.32600 4.12100 34.62400
C  34.32500 1.61300 34.97500
C  33.81600 1.94000 36.40400
H  34.36600 3.32800 36.95500
N  37.87600 1.36800 29.92100
C  38.63800 1.42600 31.07400
C  39.93200 0.97800 30.71600
C  39.98200 0.69200 29.30500
C  38.64700 1.04000 28.84600
C  41.11600 0.79600 31.67800
C  41.09400 0.26400 28.39600
O  41.00600 -0.08500 27.27500
C  42.50800 0.27300 28.98100
N  35.83400 1.67900 27.79700
C  36.90600 1.39900 27.00000
C  36.48700 1.41700 25.47100
C  34.92900 1.72200 25.59800
C  34.72300 1.72900 27.09800
C  37.42800 2.26100 24.51300
C  34.00100 0.62700 24.77500
C  33.33100 1.37300 23.53400
N  33.76100 2.20500 29.80400
C  32.92000 2.34100 28.78100
C  31.66900 2.85800 29.17800
C  31.82400 2.98700 30.60100
C  33.11600 2.65900 30.85300
C  30.44700 3.04900 28.34700
C  31.17200 3.42200 31.79600
O  30.06800 3.90600 32.00500
C  32.19800 3.27100 32.91400
C  32.33300 4.69600 33.45900
O  33.09500 5.57800 33.03100
O  31.55500 4.94900 34.52900
C  31.49500 6.35400 35.06300
H  38.97300 1.95700 33.16500
H  38.89800 0.97400 26.71300
H  32.76400 2.19000 26.64800
H  34.79300 3.70300 34.68200
H  37.20200 1.97700 34.85300
H  38.25600 3.93200 35.16000
H  36.70000 4.81700 35.18200
H  37.67700 4.62200 33.72100
H  35.01800 0.77400 35.03400
H  33.51000 1.18900 34.38900
H  34.19200 1.14100 37.04200
H  32.72800 1.94200 36.45100
H  41.90500 1.54700 31.64700
H  41.60400 -0.15600 31.46900
H  40.67600 0.72600 32.67300
H  43.22700 0.04600 28.19400
H  42.70800 -0.58400 29.62400
H  42.64400 1.24400 29.45700
H  36.66300 0.38300 25.17300
H  34.70500 2.71100 25.19800
H  36.84900 3.04700 24.02600
H  37.90100 1.53200 23.85600
H  38.09100 2.81300 25.17900
H  33.20100 0.20200 25.38200
H  34.61000 -0.13200 24.28400
H  32.89400 0.60400 22.89500
H  33.99100 1.94500 22.88200
H  32.50100 1.98900 23.87700
H  30.26300 2.11100 27.82500
H  30.75200 3.77200 27.59100
H  29.65700 3.44600 28.98500
H  31.67100 2.58300 33.57500
H  32.52300 6.70000 35.17400
H  31.15700 6.39100 36.09800
H  30.79800 6.84300 34.38200

