158

Mg 9.28200 4.38700 28.03400
C  10.81600 2.88100 30.90300
C  7.25000 6.17700 30.20000
C  7.73900 5.55000 25.43400
C  11.10700 2.06700 26.11100
N  9.02800 4.39900 30.30300
C  9.90500 3.94700 31.30900
C  9.52900 4.58300 32.65400
C  8.24100 5.41400 32.31800
C  8.06200 5.25000 30.83400
C  7.06200 5.02300 33.18600
C  10.76600 5.52200 33.08500
C  10.82200 5.94700 34.58800
H  11.79300 5.20700 35.58100
N  7.81600 5.88300 27.82600
C  7.07000 6.41400 28.80600
C  6.21200 7.38700 28.16500
C  6.44400 7.36200 26.81800
C  7.34500 6.23000 26.62400
C  5.17800 8.17400 28.89500
C  5.82900 8.20500 25.69000
O  6.05600 7.97100 24.55200
C  5.00600 9.25700 25.93900
N  9.27600 3.71700 26.05000
C  8.57000 4.47100 25.13600
C  9.06200 4.14800 23.76800
C  10.01000 2.92700 23.92900
C  10.20200 2.89500 25.47800
C  7.92900 3.89800 22.75700
C  11.40400 2.90900 23.12400
C  11.55700 1.81900 22.07000
N  10.71300 2.80500 28.39800
C  11.35000 1.91600 27.50700
C  12.11400 0.86600 28.16600
C  11.98300 1.26100 29.53900
C  11.10200 2.42900 29.60200
C  12.79300 -0.35600 27.58400
C  12.39600 0.92700 30.94800
O  13.01000 -0.02700 31.39000
C  11.68900 2.01300 31.86900
C  10.87100 1.26300 32.90200
O  9.74600 0.79300 32.83100
O  11.60700 1.21700 34.03000
C  11.12300 0.69200 35.26200
H  6.63200 6.85600 30.79200
H  7.40700 6.01000 24.50100
H  11.73500 1.51700 25.40700
H  9.25700 3.83400 33.39900
H  8.42800 6.48100 32.43500
H  6.38700 4.37600 32.62600
H  6.53800 5.87600 33.61800
H  7.38200 4.55100 34.11500
H  10.90200 6.38400 32.43200
H  11.63900 4.91000 32.85600
H  9.76300 5.79000 34.79300
H  10.98800 7.02000 34.69300
H  5.54800 9.16100 29.17200
H  4.88300 7.67300 29.81700
H  4.21900 8.07200 28.38800
H  4.01200 8.95400 26.26700
H  4.75900 9.80200 25.02800
H  5.58100 9.92900 26.57600
H  9.57200 5.08500 23.54100
H  9.40700 2.04100 23.73400
H  6.96900 3.88900 23.27300
H  8.12300 2.97400 22.21100
H  8.00800 4.74000 22.06900
H  12.18800 2.82200 23.87700
H  11.43800 3.90000 22.67200
H  10.67200 1.76300 21.43500
H  11.69500 0.82200 22.48700
H  12.41200 2.02600 21.42600
H  13.55700 -0.58300 28.32800
H  13.24900 -0.12500 26.62200
H  12.02000 -1.11900 27.68500
H  12.38700 2.66600 32.39300
H  10.52600 -0.20200 35.08100
H  10.46800 1.34100 35.84400
H  11.91800 0.44800 35.96700
Mg 24.54000 -5.48200 45.86600
C  27.00500 -3.71300 44.30300
C  22.18600 -4.20900 43.66700
C  22.50500 -8.01700 46.80600
C  27.06800 -6.83100 48.01400
N  24.58000 -4.03700 44.27300
C  25.73700 -3.52800 43.72800
C  25.51600 -2.61400 42.50100
C  23.91800 -2.60800 42.43400
C  23.51800 -3.73800 43.50400
C  23.26300 -1.20700 42.77900
C  26.14400 -3.00800 41.16500
C  26.87600 -1.93800 40.43700
H  27.27200 -2.06200 38.92300
N  22.58900 -5.98800 45.40600
C  21.76300 -5.24900 44.49100
C  20.47900 -5.95500 44.49700
C  20.41500 -6.95800 45.49700
C  21.89100 -7.02500 45.97800
C  19.50800 -5.51800 43.47800
C  19.30800 -7.65300 45.98600
O  18.20100 -7.52500 45.48700
C  19.27100 -8.53100 47.30500
N  24.86700 -7.28100 47.02300
C  23.77100 -8.11800 47.36500
C  24.15500 -9.14000 48.39800
C  25.55000 -8.60600 48.97900
C  25.86400 -7.45700 48.00700
C  23.05900 -9.42000 49.49400
C  26.74500 -9.64900 49.06500
C  27.20000 -10.01600 50.48800
N  26.59200 -5.23500 46.18300
C  27.48700 -5.87900 47.03500
C  28.75300 -5.25700 46.97100
C  28.68100 -4.38200 45.87900
C  27.35500 -4.48600 45.41300
C  30.02900 -5.67200 47.70400
C  29.42100 -3.46400 44.97000
O  30.57000 -3.15100 44.89100
C  28.26900 -2.82500 44.09200
C  28.18000 -1.39500 44.49300
O  28.18700 -0.95100 45.62700
O  28.43800 -0.70500 43.35200
C  28.90500 0.65100 43.46800
H  21.48000 -3.63600 43.06200
H  21.84900 -8.83400 47.11600
H  27.76700 -7.04800 48.82400
H  25.76400 -1.61300 42.85400
H  23.54200 -3.04500 41.51000
H  22.46500 -1.13200 42.04100
H  23.79000 -0.25500 42.70600
H  22.72100 -1.23600 43.72400
H  25.38600 -3.31300 40.44300
H  26.83300 -3.82500 41.37600
H  27.83000 -1.81100 40.94700
H  26.33500 -1.00100 40.57500
H  20.00900 -5.37600 42.52000
H  19.16000 -4.53300 43.79000
H  18.64000 -6.15800 43.32300
H  18.25000 -8.63800 47.67400
H  19.98200 -8.18300 48.05400
H  19.65700 -9.52300 47.07100
H  24.39900 -10.04300 47.83800
H  25.29700 -8.04600 49.87900
H  22.60900 -10.41200 49.48000
H  22.25900 -8.68100 49.44300
H  23.42800 -9.26600 50.50800
H  27.64400 -9.27200 48.57600
H  26.42200 -10.51100 48.48200
H  27.01300 -11.08900 50.53700
H  26.64600 -9.44300 51.23100
H  28.20800 -9.69200 50.74400
H  30.65300 -6.31100 47.07900
H  29.73500 -6.17700 48.62400
H  30.60200 -4.74700 47.77400
H  28.58100 -2.91300 43.05100
H  29.69100 0.66500 44.22300
H  28.18100 1.43000 43.71100
H  29.33700 0.83500 42.48400

