158

Mg 25.47600 1.83100 29.67100
C  27.71200 1.69300 32.54300
C  23.00800 2.02500 31.85800
C  23.47200 1.45000 27.07000
C  28.24700 0.74400 27.74100
N  25.35400 2.00700 31.96300
C  26.39400 2.00000 32.91800
C  25.87900 2.36600 34.30300
C  24.30700 2.32800 34.04400
C  24.14700 2.14700 32.54500
C  23.53400 1.28300 34.87500
C  26.37000 3.72100 34.86800
C  27.39000 3.73600 36.06000
H  26.93600 4.57600 37.37500
N  23.54400 1.77400 29.46800
C  22.65100 1.90100 30.51800
C  21.28900 1.77500 30.01800
C  21.39400 1.66800 28.60100
C  22.83800 1.60500 28.30000
C  20.12700 2.02800 30.94400
C  20.35800 1.49700 27.50100
O  20.58700 1.26300 26.32200
C  18.93600 1.61400 27.85900
N  25.79100 1.18500 27.65300
C  24.81700 1.35900 26.73800
C  25.38400 1.24500 25.32900
C  26.90700 1.05900 25.51900
C  27.00600 0.93300 27.07300
C  24.72000 0.24100 24.33000
C  27.65200 2.41600 24.98900
C  27.65900 3.74400 25.84200
N  27.52700 1.45600 29.99100
C  28.49800 0.94800 29.08800
C  29.79100 0.82800 29.77100
C  29.46400 0.97400 31.09200
C  28.10600 1.35100 31.21800
C  31.07400 0.54600 29.00600
C  30.09500 0.93900 32.42900
O  31.21600 0.66100 32.75300
C  28.96800 1.47700 33.39400
C  28.78600 0.50100 34.52700
O  28.08100 -0.51300 34.49100
O  29.46900 0.98200 35.64800
C  29.30900 0.05900 36.75800
H  22.17000 2.09100 32.55600
H  22.82900 1.46500 26.18800
H  29.17200 0.66100 27.16600
H  26.09200 1.51500 34.95000
H  23.77600 3.22900 34.35200
H  22.45400 1.42900 34.87000
H  24.02200 1.10100 35.83300
H  23.51000 0.35600 34.30300
H  25.55300 4.42900 35.00300
H  26.85800 4.19300 34.01500
H  28.37100 4.13400 35.80100
H  27.49900 2.71100 36.41600
H  19.93700 3.10100 30.92800
H  20.25300 1.68000 31.97000
H  19.20700 1.60100 30.54500
H  18.33300 1.27400 27.01800
H  18.75000 2.64900 28.14700
H  18.82300 0.92100 28.69300
H  25.20600 2.26600 24.99200
H  27.40900 0.19000 25.09400
H  24.02700 -0.35300 24.92500
H  25.40700 -0.44800 23.83800
H  24.20200 0.81800 23.56400
H  27.24600 2.71900 24.02400
H  28.71000 2.20000 24.83700
H  27.07000 3.52400 26.73300
H  27.23600 4.56700 25.26800
H  28.59900 4.03400 26.31100
H  31.04600 0.10700 28.00800
H  31.73600 -0.02100 29.66000
H  31.57800 1.50400 28.87200
H  29.19600 2.45800 33.81100
H  29.32200 -0.96600 36.38900
H  28.47000 0.39300 37.36900
H  30.19700 0.11400 37.38800
Mg 35.96200 48.63400 24.62500
C  36.41500 46.83700 27.58500
C  34.77600 51.32600 26.44100
C  35.65200 50.32200 21.81500
C  37.31200 45.94500 22.92100
N  35.52600 48.93400 26.80900
C  35.85800 48.10100 27.84200
C  35.59600 48.77500 29.14700
C  34.90400 50.11700 28.74800
C  35.06900 50.17800 27.27200
C  33.36600 50.25900 29.02100
C  36.86000 48.98800 30.04000
C  36.76000 48.73800 31.53500
H  35.43700 48.82200 32.29600
N  35.24100 50.47000 24.19000
C  34.82700 51.42800 25.06500
C  34.54800 52.65700 24.33700
C  34.70300 52.28600 23.00100
C  35.18200 50.95200 22.94000
C  34.18900 53.92600 25.07300
C  34.39900 53.21200 21.78800
O  34.59300 52.89600 20.62200
C  34.02100 54.60500 21.98600
N  36.44600 48.23100 22.67000
C  36.09400 49.04800 21.67900
C  36.46800 48.49900 20.33600
C  37.00500 47.07100 20.66600
C  36.90800 47.06400 22.17600
C  35.40200 48.53900 19.25700
C  38.45800 46.59300 20.13200
C  39.67300 47.05300 20.93300
N  36.72700 46.77700 25.05700
C  37.10800 45.72400 24.29100
C  37.59200 44.64000 25.07600
C  37.31600 45.03600 26.38200
C  36.71800 46.36600 26.30200
C  38.24600 43.41700 24.50200
C  37.44300 44.56500 27.73700
O  37.86700 43.52300 28.16200
C  36.72800 45.66600 28.60500
C  35.46100 45.27600 29.15900
O  34.43800 44.86000 28.57400
O  35.62100 45.35200 30.56400
C  34.54300 44.68000 31.33000
H  34.46000 52.16900 27.05900
H  35.73500 50.95400 20.92800
H  37.72600 45.10500 22.36000
H  35.04600 48.00300 29.68600
H  35.44500 50.97600 29.14700
H  32.86900 49.43600 29.53400
H  32.74300 50.42300 28.14200
H  33.25000 51.03200 29.78100
H  37.27400 49.98500 29.88600
H  37.59400 48.26500 29.68400
H  37.47900 49.41500 31.99700
H  37.03200 47.70300 31.74300
H  33.37400 54.48000 24.60600
H  35.13300 54.45100 25.21900
H  33.75400 53.78200 26.06200
H  34.56700 55.14400 22.76000
H  33.01500 54.57900 22.40400
H  34.00200 55.17100 21.05500
H  37.32900 49.10300 20.04800
H  36.22000 46.42200 20.27800
H  34.43600 48.53800 19.76000
H  35.31900 47.66000 18.61800
H  35.58900 49.44200 18.67500
H  38.54800 46.94900 19.10600
H  38.62500 45.52100 20.02700
H  39.40200 48.00200 21.39600
H  40.59200 47.35100 20.42900
H  39.99900 46.36600 21.71400
H  38.28200 42.52100 25.12200
H  39.10500 43.78500 23.94200
H  37.55300 42.97200 23.78800
H  37.34100 46.03200 29.42900
H  34.86500 44.79600 32.36400
H  34.50400 43.62800 31.04700
H  33.58900 45.18400 31.17700

