158

Mg 40.55000 8.83500 29.77700
C  42.25000 10.34700 32.57600
C  38.23700 7.67500 32.10900
C  38.90000 7.55800 27.23300
C  43.05400 9.96400 27.78100
N  40.38100 8.92500 32.14100
C  41.10900 9.61900 33.00800
C  40.53900 9.50800 34.40900
C  39.21900 8.66300 34.26700
C  39.26400 8.40700 32.72500
C  39.29600 7.46800 35.22800
C  40.36200 10.89200 35.15400
C  39.37400 10.82400 36.38600
H  39.60900 11.84800 37.57800
N  38.80600 7.79200 29.76000
C  37.96200 7.41300 30.73700
C  36.88000 6.74800 30.12700
C  36.98700 6.72000 28.68800
C  38.27000 7.32000 28.50000
C  35.82200 6.07300 31.08000
C  36.04000 6.29100 27.55700
O  36.31400 6.38500 26.38100
C  34.73100 5.82400 27.99700
N  41.04800 8.58600 27.92500
C  40.17800 8.02800 26.98700
C  40.82700 7.95000 25.62300
C  42.12100 8.69600 25.77400
C  42.09400 9.16800 27.28600
C  40.89300 6.58800 24.92400
C  42.34400 9.82000 24.60900
C  41.58100 11.04900 24.85300
N  42.28200 9.91300 30.03100
C  43.13200 10.37300 29.13500
C  44.14800 11.24200 29.73300
C  43.79200 11.29100 31.10100
C  42.70300 10.47800 31.22400
C  45.26600 11.83700 29.03100
C  44.21200 11.72400 32.37800
O  45.19200 12.39500 32.69400
C  43.11100 11.15700 33.33900
C  43.76100 10.50400 34.55200
O  44.33300 9.42900 34.54900
O  43.71600 11.40000 35.59700
C  44.33100 10.86900 36.75600
H  37.47400 7.30000 32.79300
H  38.47600 7.06300 26.35600
H  43.87700 10.09900 27.07500
H  41.26300 8.86500 34.91000
H  38.34600 9.22300 34.60500
H  39.99500 7.57500 36.05700
H  39.65900 6.57400 34.71900
H  38.34500 7.31600 35.73700
H  40.11400 11.76500 34.55100
H  41.32400 11.14500 35.59900
H  39.29700 9.81800 36.80000
H  38.47700 11.13000 35.84800
H  35.37900 5.18000 30.63800
H  35.00400 6.77100 31.25700
H  36.30200 5.65400 31.96400
H  34.69900 4.85600 28.49700
H  34.06700 5.87200 27.13400
H  34.35600 6.57300 28.69400
H  40.28000 8.59300 24.93400
H  43.00700 8.06300 25.72300
H  40.11000 6.45500 24.17800
H  40.75500 5.76900 25.63100
H  41.83500 6.33600 24.43800
H  41.92100 9.53500 23.64500
H  43.39800 10.00600 24.40400
H  41.01800 11.55100 24.06600
H  42.24100 11.83100 25.22800
H  40.74100 10.80600 25.50300
H  45.14700 11.80000 27.94800
H  46.11300 11.16700 29.17800
H  45.44800 12.79500 29.51800
H  42.58000 12.03500 33.70600
H  44.61400 9.81700 36.72200
H  43.65300 10.95400 37.60500
H  45.16900 11.48000 37.09100
Mg -1.63600 34.52500 26.71700
C  -3.34200 32.61500 29.06600
C  -0.77900 36.77400 29.17800
C  -0.80400 36.63000 24.29600
C  -3.10400 32.39300 24.17800
N  -1.90100 34.61000 28.92200
C  -2.53900 33.63200 29.66000
C  -2.46400 34.04200 31.17800
C  -1.75500 35.45300 31.16500
C  -1.49000 35.66300 29.67800
C  -2.68200 36.53600 31.88800
C  -1.73600 33.01700 32.18000
C  -2.40500 32.68300 33.58000
H  -1.63600 32.59300 34.88700
N  -0.68600 36.27900 26.70400
C  -0.35900 37.03900 27.82000
C  0.47800 38.14300 27.32100
C  0.44000 38.25000 25.93500
C  -0.37500 37.00900 25.57200
C  1.25700 38.94900 28.31500
C  1.03000 39.17200 24.98700
O  0.91600 38.99000 23.78700
C  1.95400 40.37500 25.48800
N  -1.77500 34.45000 24.53500
C  -1.44900 35.46300 23.81400
C  -1.70200 35.23700 22.29700
C  -2.27800 33.80600 22.26100
C  -2.32300 33.45500 23.76200
C  -2.59900 36.41900 21.60400
C  -1.59800 32.87400 21.30600
C  -0.38000 32.08000 21.90000
N  -2.79700 32.79000 26.62500
C  -3.32900 32.08100 25.53900
C  -4.14100 30.96400 26.04900
C  -4.22100 31.16900 27.42900
C  -3.39200 32.28100 27.76300
C  -4.89700 29.95200 25.23100
C  -4.77200 30.68700 28.66200
O  -5.53900 29.79500 28.82500
C  -4.08800 31.53800 29.80200
C  -5.15200 32.01600 30.76800
O  -5.92700 32.94700 30.66400
O  -5.20300 31.13100 31.79700
C  -6.19600 31.45100 32.83300
H  -0.52700 37.49300 29.96000
H  -0.52600 37.34000 23.51400
H  -3.59100 31.85500 23.36100
H  -3.48500 34.15200 31.54500
H  -0.82600 35.41300 31.73500
H  -3.54000 36.02100 32.32100
H  -3.09600 37.22300 31.14900
H  -1.99500 37.00000 32.59500
H  -0.71200 33.25000 32.47400
H  -1.78600 32.07200 31.63800
H  -3.05200 31.80800 33.51200
H  -3.03300 33.56400 33.70900
H  1.21500 38.65300 29.36300
H  0.88600 39.97200 28.27100
H  2.30100 38.93500 28.00100
H  2.80800 39.91700 25.98800
H  1.39600 40.91600 26.25200
H  2.46700 41.04100 24.79500
H  -0.75100 35.18500 21.76700
H  -3.30500 33.91000 21.90900
H  -2.02700 36.74600 20.73600
H  -2.70500 37.28300 22.26100
H  -3.54500 35.98600 21.27900
H  -1.26100 33.28500 20.35500
H  -2.36300 32.15300 21.01900
H  -0.07200 32.45600 22.87600
H  0.46700 32.25500 21.23600
H  -0.65300 31.04100 22.08700
H  -4.26600 29.78700 24.35800
H  -5.87100 30.33200 24.92100
H  -4.97200 28.97800 25.71400
H  -3.39000 30.82700 30.24500
H  -7.23500 31.26100 32.56300
H  -6.21200 32.48600 33.17700
H  -5.97300 30.85300 33.71600

