158

Mg -0.92900 44.06100 26.09300
C  1.48000 43.39000 28.53000
C  -3.35800 43.36200 28.53100
C  -3.19200 43.55800 23.76700
C  1.56900 44.18200 23.61900
N  -0.89100 43.33800 28.28200
C  0.21000 43.46200 29.10200
C  -0.04700 43.21900 30.57900
C  -1.60900 42.95500 30.49800
C  -2.04000 43.34400 29.00700
C  -2.11300 41.55900 30.99000
C  0.42600 44.45500 31.42500
C  0.77000 44.07400 32.91600
H  0.18000 42.71600 33.37900
N  -3.08200 43.64800 26.13900
C  -3.90200 43.59400 27.22400
C  -5.24300 43.56600 26.77600
C  -5.19400 43.34400 25.40500
C  -3.71000 43.43300 25.06200
C  -6.41900 43.61900 27.74100
C  -6.31600 43.18600 24.50800
O  -6.15900 43.10000 23.35000
C  -7.75300 43.15900 25.04400
N  -0.87000 44.16400 24.01800
C  -1.92800 43.78700 23.32300
C  -1.70400 43.93700 21.76000
C  -0.18100 44.24600 21.74600
C  0.24900 44.20200 23.22600
C  -2.03000 42.64700 20.86900
C  0.16000 45.63200 21.09700
C  0.05200 46.91200 21.94800
N  1.13000 44.05400 26.06000
C  2.06800 44.07200 24.98300
C  3.39100 43.89100 25.51400
C  3.23300 43.68400 26.92900
C  1.81600 43.76700 27.19800
C  4.63500 44.02400 24.66500
C  3.89400 43.39300 28.12800
O  5.08000 43.22400 28.43100
C  2.78300 43.14500 29.16700
C  2.99500 41.84400 29.83800
O  2.78900 40.77900 29.32700
O  3.56200 42.04400 31.09600
C  3.90600 40.86900 31.91400
H  -4.15000 43.11300 29.24000
H  -3.87900 43.19200 23.00100
H  2.24400 44.22600 22.76200
H  0.41600 42.25700 30.79900
H  -2.13300 43.66700 31.13400
H  -2.59100 40.97400 30.20300
H  -2.83900 41.72300 31.78600
H  -1.24100 41.05300 31.40300
H  -0.41400 45.14000 31.53900
H  1.31000 44.92700 30.99500
H  0.38400 44.84900 33.57700
H  1.85700 44.15400 32.93400
H  -6.95000 42.66800 27.78300
H  -6.98300 44.42000 27.26200
H  -6.07900 44.06600 28.67500
H  -8.52500 42.92900 24.30900
H  -8.09200 44.12700 25.41200
H  -7.82800 42.33000 25.74800
H  -2.39400 44.68500 21.37000
H  0.37600 43.52200 21.15200
H  -2.08600 41.78800 21.53800
H  -1.32700 42.45100 20.06000
H  -3.01800 42.83700 20.45000
H  -0.35000 45.74500 20.14000
H  1.21500 45.55500 20.83500
H  -0.33100 47.77300 21.39900
H  1.05100 47.24600 22.23000
H  -0.52200 46.81700 22.86900
H  5.47900 44.35900 25.26800
H  4.37500 44.70300 23.85300
H  4.85700 43.00000 24.36800
H  2.92200 43.84500 29.99100
H  3.43800 40.66000 32.87600
H  4.92000 40.94300 32.30700
H  3.72400 39.98700 31.30000
Mg -5.68100 25.14900 25.95800
C  -4.11400 26.89400 28.61200
C  -6.78500 22.75800 28.04300
C  -6.98500 23.76000 23.28800
C  -3.96800 27.53700 23.77900
N  -5.51100 24.84700 28.10200
C  -4.85400 25.71900 28.95600
C  -5.30400 25.32600 30.44300
C  -5.80700 23.84100 30.24300
C  -6.07400 23.80400 28.70000
C  -4.89400 22.77400 30.74100
C  -6.36700 26.28400 31.05100
C  -6.61400 26.26800 32.50200
H  -6.07400 25.12700 33.30200
N  -6.91500 23.62000 25.71900
C  -7.25600 22.70200 26.74700
C  -8.09600 21.68400 26.13900
C  -8.18300 22.00100 24.74400
C  -7.33300 23.20300 24.52600
C  -8.79200 20.56100 26.90600
C  -8.93400 21.21100 23.69500
O  -9.04000 21.59300 22.56300
C  -9.59900 19.87200 24.08800
N  -5.54800 25.66000 23.83300
C  -6.07600 24.77200 22.98000
C  -5.79900 25.22800 21.57900
C  -4.87400 26.48900 21.69700
C  -4.79800 26.56500 23.20400
C  -5.17600 24.11900 20.61800
C  -5.45600 27.83300 21.01000
C  -4.73900 28.54100 19.84600
N  -4.18800 26.77200 26.16700
C  -3.65600 27.65100 25.19900
C  -2.75400 28.58400 25.84100
C  -2.85800 28.32600 27.21400
C  -3.84100 27.25200 27.31200
C  -1.96600 29.71800 25.12400
C  -2.41400 28.72700 28.55100
O  -1.56800 29.59700 28.79800
C  -3.31600 27.87500 29.46000
C  -2.43700 27.33300 30.54600
O  -1.49800 26.55400 30.43200
O  -2.85600 27.79500 31.80700
C  -2.24400 27.26400 33.06200
H  -7.13200 21.98300 28.73000
H  -7.29200 23.34200 22.32700
H  -3.43800 28.15500 23.05200
H  -4.47700 25.41500 31.14700
H  -6.74200 23.73000 30.79300
H  -3.89100 23.09700 30.46200
H  -5.11200 21.82800 30.24600
H  -4.92400 22.62900 31.82100
H  -7.32300 25.93900 30.65800
H  -6.24900 27.34600 30.83700
H  -7.67600 26.29100 32.74700
H  -6.17200 27.17800 32.90900
H  -8.71300 19.58600 26.42500
H  -9.86300 20.76500 26.91900
H  -8.56600 20.41200 27.96200
H  -10.40300 20.05000 24.80300
H  -8.85100 19.17700 24.46900
H  -10.08600 19.32800 23.27800
H  -6.73600 25.61000 21.17400
H  -3.86200 26.27800 21.35100
H  -4.11800 24.31300 20.44100
H  -5.62100 24.11300 19.62300
H  -5.20700 23.09500 20.99000
H  -5.43500 28.53600 21.84200
H  -6.51600 27.80700 20.75800
H  -3.96200 27.94700 19.36400
H  -4.26800 29.43200 20.26000
H  -5.46300 29.01400 19.18300
H  -1.11300 29.78500 25.79800
H  -2.59500 30.60800 25.10900
H  -1.65100 29.40200 24.12900
H  -4.02200 28.45800 30.05100
H  -3.06400 27.28700 33.78000
H  -1.38100 27.81500 33.43400
H  -1.91200 26.23000 32.97200

