158

Mg 34.36800 3.06800 29.27700
C  32.27100 4.16600 32.00500
C  36.82100 2.71800 31.44500
C  36.34600 2.66900 26.49900
C  31.49500 3.45100 27.22500
N  34.49200 3.40900 31.43800
C  33.53400 3.81900 32.42400
C  34.15300 3.91600 33.80800
C  35.64400 3.47600 33.54300
C  35.66600 3.21800 32.01700
C  36.72400 4.51300 33.94800
C  33.27300 3.19500 34.92600
C  34.21500 2.70100 36.05600
H  35.09300 3.79100 36.77900
N  36.31900 2.68400 28.97100
C  37.13000 2.50300 30.03200
C  38.39300 2.06600 29.54300
C  38.37800 2.27800 28.12200
C  36.96900 2.61000 27.74400
C  39.45000 1.56200 30.48100
C  39.47700 2.01600 27.14200
O  39.30500 2.17400 25.94200
C  40.74100 1.54200 27.58400
N  33.95800 3.20300 27.23400
C  34.90200 2.87200 26.33400
C  34.33600 3.02200 24.86400
C  32.83300 2.75200 25.17400
C  32.71400 3.09700 26.65300
C  34.67400 4.44600 24.35100
C  32.41600 1.23500 25.08200
C  31.14100 0.89600 24.21500
N  32.27200 3.56500 29.53600
C  31.22800 3.78500 28.60800
C  29.99700 4.16500 29.26900
C  30.40600 4.40900 30.56300
C  31.75500 3.99700 30.70700
C  28.64100 4.39200 28.67400
C  29.91700 4.80100 31.81800
O  28.75500 5.16400 32.11700
C  31.11500 4.67700 32.87500
C  31.20400 5.96300 33.70800
O  31.52500 7.08000 33.39100
O  30.64500 5.63400 34.93600
C  30.29700 6.59800 35.99900
H  37.68200 2.78100 32.11300
H  36.88400 2.50300 25.56300
H  30.68300 3.63400 26.51800
H  34.14400 4.96600 34.10200
H  35.82400 2.52800 34.05200
H  37.33200 4.22100 34.80500
H  36.22900 5.47500 34.07900
H  37.38800 4.72300 33.10900
H  32.69900 2.42200 34.41500
H  32.59900 3.90800 35.40100
H  34.84300 1.89800 35.66900
H  33.61100 2.31800 36.87800
H  39.13000 1.66800 31.51800
H  40.43400 2.03200 30.48400
H  39.72700 0.51100 30.40800
H  40.72500 0.49500 27.88400
H  41.15600 2.17400 28.36900
H  41.39400 1.65800 26.72000
H  34.68900 2.27800 24.14900
H  32.26400 3.40200 24.51100
H  35.05100 4.40700 23.32800
H  35.48200 4.90800 24.91700
H  33.78400 5.06700 24.45300
H  32.40600 0.81700 26.08800
H  33.21100 0.65900 24.60800
H  30.60000 1.78500 23.89100
H  30.37800 0.36600 24.78400
H  31.38900 0.26400 23.36200
H  28.46200 3.84500 27.74900
H  28.24800 5.40900 28.67700
H  27.97500 3.68200 29.16300
H  30.77100 3.91200 33.57100
H  30.91200 6.44500 36.88600
H  29.28300 6.29200 36.25400
H  30.23000 7.63900 35.68300
Mg -12.06700 16.30600 41.34900
C  -9.18400 14.37300 40.93100
C  -10.17600 18.98100 40.04400
C  -14.83200 17.98700 40.86000
C  -13.87800 13.41200 42.46200
N  -9.96300 16.71100 40.63600
C  -8.94900 15.71300 40.54400
C  -7.71300 16.30300 40.00300
C  -7.88900 17.86400 40.00400
C  -9.41300 17.90600 40.21500
C  -7.15200 18.70400 41.15000
C  -7.42100 15.75300 38.52300
C  -6.16900 15.03400 38.17700
H  -5.43700 15.57800 36.85700
N  -12.48000 18.28800 40.66700
C  -11.59400 19.15200 40.15900
C  -12.25600 20.34900 39.77700
C  -13.63200 20.15600 40.05900
C  -13.71500 18.74500 40.55400
C  -11.49300 21.57100 39.15600
C  -14.76100 21.05000 39.63700
O  -14.65300 21.97700 38.86200
C  -16.20100 20.75000 39.99100
N  -14.13400 15.72900 41.44800
C  -15.08800 16.63400 41.22200
C  -16.48300 15.99400 41.46600
C  -16.17400 14.64400 42.24000
C  -14.62400 14.56300 42.04800
C  -17.60800 16.93900 42.07100
C  -16.97400 13.32200 41.83600
C  -17.44500 12.56300 43.06300
N  -11.56700 14.28400 41.76700
C  -12.44900 13.21600 42.16400
C  -11.60700 11.98800 42.23700
C  -10.32600 12.38200 41.71100
C  -10.35700 13.81200 41.52400
C  -12.05600 10.55700 42.70300
C  -8.97300 11.98300 41.31500
O  -8.47900 10.88300 41.22900
C  -8.15300 13.29200 41.00600
C  -7.14400 13.64200 41.98800
O  -7.31100 13.88400 43.14300
O  -5.95200 13.50800 41.35700
C  -4.79800 13.88500 42.21500
H  -9.61600 19.89200 39.82000
H  -15.69700 18.65300 40.88700
H  -14.43500 12.54000 42.81000
H  -6.95500 16.02200 40.73400
H  -7.80300 18.39000 39.05300
H  -6.29900 18.10900 41.47900
H  -7.80700 18.94700 41.98700
H  -6.74800 19.62800 40.73700
H  -7.42600 16.62900 37.87500
H  -8.26400 15.14300 38.19700
H  -6.43300 13.97700 38.13800
H  -5.48100 15.25500 38.99300
H  -12.23800 22.36700 39.17400
H  -11.21500 21.34300 38.12700
H  -10.64300 21.93700 39.73200
H  -16.83500 21.60400 39.75400
H  -16.21200 20.70000 41.08000
H  -16.59400 19.91000 39.41800
H  -16.85800 15.68600 40.49000
H  -16.54200 14.86000 43.24300
H  -18.12900 16.41700 42.87400
H  -18.41500 17.38000 41.48500
H  -17.19600 17.79900 42.59800
H  -16.34400 12.64000 41.26600
H  -17.78600 13.63600 41.18000
H  -18.24200 13.16700 43.49800
H  -16.62700 12.51900 43.78200
H  -17.75300 11.52300 42.95300
H  -12.30800 9.78400 41.97800
H  -12.90400 10.57500 43.38900
H  -11.23100 10.22700 43.33400
H  -7.66600 13.15200 40.04100
H  -4.36100 14.86600 42.03200
H  -4.14800 13.07700 41.87800
H  -4.92000 13.72600 43.28700

