158

Mg 30.21400 58.95200 39.60500
C  27.76200 56.53000 39.16700
C  32.54200 56.61800 38.64500
C  32.53900 61.39300 39.59000
C  27.71800 61.27400 40.24300
N  30.09200 56.80100 39.01000
C  28.98500 56.00600 38.86500
C  29.29600 54.71700 38.34200
C  30.90400 54.66300 38.39300
C  31.19300 56.11700 38.74000
C  31.51000 53.71100 39.37300
C  28.75500 54.78500 36.86500
C  27.93500 53.54800 36.55100
H  27.41500 53.48100 35.09800
N  32.30400 58.95200 39.27100
C  33.07300 57.91400 38.89500
C  34.45000 58.27100 38.64800
C  34.46300 59.70700 38.76300
C  33.11700 60.06800 39.29500
C  35.51500 57.20900 38.29400
C  35.63700 60.50300 38.41800
O  36.68000 59.98800 37.91900
C  35.63300 61.97300 38.69400
N  30.14800 60.94700 39.88300
C  31.25600 61.73800 39.90200
C  30.88900 63.22900 40.10900
C  29.39300 63.17600 40.38800
C  29.05800 61.68500 40.07600
C  31.58200 63.96700 41.26400
C  28.58300 64.26000 39.51700
C  27.94900 65.37000 40.34100
N  28.11400 58.98600 39.79500
C  27.26600 59.96900 40.08800
C  25.94100 59.44300 40.29700
C  26.08300 58.09300 39.85400
C  27.41800 57.87500 39.55300
C  24.74000 60.26200 40.61900
C  25.34200 56.88200 39.49700
O  24.19300 56.60400 39.51300
C  26.43700 55.82300 39.14100
C  26.51000 54.84500 40.25700
O  26.81100 55.13500 41.38800
O  25.99500 53.66600 39.82400
C  26.07100 52.63700 40.87200
H  33.15300 55.89200 38.10400
H  33.36500 62.10400 39.65200
H  26.97000 62.04400 40.44100
H  28.88400 53.90100 38.93600
H  31.37600 54.48900 37.42600
H  30.79900 52.88400 39.36500
H  31.69600 54.15100 40.35200
H  32.45900 53.45600 38.90200
H  29.59500 54.67000 36.17900
H  28.15200 55.65200 36.59600
H  27.00300 53.41300 37.09900
H  28.52900 52.64600 36.70000
H  35.27600 56.23200 38.71300
H  36.54700 57.38500 38.59900
H  35.39400 57.04100 37.22400
H  34.83000 62.43600 38.12100
H  36.56600 62.47500 38.43600
H  35.50400 62.22500 39.74700
H  31.12700 63.67500 39.14300
H  29.16200 63.25500 41.45000
H  31.78700 63.29300 42.09600
H  31.09900 64.88100 41.60900
H  32.58800 64.31000 41.02100
H  27.84700 63.72300 38.91800
H  29.20600 64.80100 38.80400
H  28.12300 65.19300 41.40200
H  26.87900 65.39900 40.13400
H  28.29900 66.31100 39.91400
H  24.68200 61.09600 39.91900
H  24.70400 60.71700 41.60900
H  23.91400 59.57300 40.44800
H  26.17600 55.41100 38.16600
H  25.16200 52.80200 41.45000
H  26.97400 52.71500 41.47800
H  26.05700 51.61900 40.48300
Mg -2.84900 35.09300 27.05900
C  -4.67000 33.24200 29.47300
C  -1.42200 36.70200 29.57600
C  -1.64200 37.18500 24.76500
C  -4.62400 33.29700 24.54900
N  -2.98200 34.85700 29.23200
C  -3.72100 34.09700 30.05500
C  -3.44100 34.30700 31.56700
C  -2.41800 35.44100 31.58900
C  -2.23800 35.71100 30.04800
C  -2.78800 36.71500 32.49600
C  -3.01500 33.01900 32.25900
C  -3.76600 32.65700 33.61900
H  -2.94600 31.83200 34.59900
N  -1.70000 36.68100 27.12200
C  -1.07900 37.08600 28.26100
C  -0.07700 38.10400 27.91400
C  -0.19400 38.35000 26.52600
C  -1.23300 37.41400 26.07400
C  0.79500 38.85300 28.97300
C  0.63300 39.30000 25.65600
O  0.39200 39.34200 24.42200
C  1.80700 40.07300 26.28400
N  -3.22800 35.28500 25.00300
C  -2.45000 36.15700 24.27400
C  -2.63800 35.96600 22.78000
C  -3.38400 34.63500 22.77000
C  -3.77500 34.39800 24.17200
C  -3.49200 37.10700 22.09400
C  -2.53500 33.38700 22.31200
C  -2.34900 33.18300 20.83200
N  -4.43200 33.61900 26.98300
C  -4.94500 32.90400 25.90100
C  -5.78800 31.89200 26.32700
C  -5.76500 32.05000 27.73500
C  -4.88900 33.08400 28.09200
C  -6.58000 30.83700 25.59500
C  -6.30100 31.52800 28.93400
O  -7.12900 30.59600 29.07700
C  -5.63100 32.28500 30.14100
C  -6.74800 33.03700 30.85200
O  -7.53900 33.86500 30.31000
O  -6.81700 32.68600 32.18000
C  -7.84300 33.42900 32.96900
H  -0.91400 37.20900 30.39900
H  -1.17600 37.74200 23.94900
H  -4.89800 32.62700 23.73200
H  -4.32800 34.72100 32.04700
H  -1.52600 35.01800 32.05000
H  -3.36300 37.47300 31.96500
H  -1.85400 37.11500 32.89100
H  -3.30200 36.31600 33.37100
H  -1.96900 32.82900 32.50000
H  -3.41200 32.24800 31.59900
H  -4.61600 32.06800 33.27700
H  -4.02000 33.51600 34.23900
H  0.68200 39.93700 29.00700
H  1.78300 38.51400 28.66100
H  0.75700 38.44600 29.98300
H  1.37700 40.83000 26.93900
H  2.45900 40.53900 25.54400
H  2.44000 39.41700 26.88100
H  -1.64800 35.90600 22.33000
H  -4.33300 34.61600 22.23300
H  -2.80300 37.78500 21.59100
H  -3.86700 37.67300 22.94700
H  -4.37600 36.83700 21.51600
H  -3.15300 32.51500 22.52500
H  -1.61200 33.20400 22.86200
H  -3.02800 33.86400 20.32000
H  -2.53100 32.15600 20.51500
H  -1.32400 33.38800 20.52300
H  -6.28200 30.76400 24.55000
H  -7.64300 31.07800 25.57300
H  -6.41900 29.86000 26.05000
H  -5.31500 31.45500 30.77300
H  -7.64100 33.40200 34.04000
H  -8.59900 32.67600 32.74400
H  -8.06500 34.42900 32.59700

