158

Mg 46.85200 46.48000 43.91000
C  43.51900 46.40200 43.04500
C  47.19100 43.35200 42.30600
C  50.08700 46.64700 44.43200
C  46.49500 49.96900 44.39200
N  45.60700 45.23500 42.68600
C  44.21400 45.26900 42.64000
C  43.67700 44.25700 41.62800
C  44.79100 43.19200 41.68800
C  46.00500 43.98800 42.22200
C  44.33600 41.93500 42.56100
C  43.34000 44.91400 40.20300
C  42.05500 44.48900 39.56400
H  42.22900 43.42200 38.50500
N  48.40900 45.12800 43.48200
C  48.40900 43.90600 42.78200
C  49.74100 43.35500 42.75600
C  50.61500 44.31600 43.31200
C  49.70500 45.41100 43.80900
C  50.08200 41.97100 42.02000
C  52.11100 44.17100 43.50700
O  52.66300 43.19000 43.10900
C  52.95100 45.37400 43.95000
N  48.08600 48.09400 44.27100
C  49.43900 47.87300 44.60200
C  50.12700 49.24300 45.05200
C  48.95800 50.28100 44.80200
C  47.73800 49.41000 44.45900
C  50.60500 49.27200 46.50200
C  49.25400 51.29700 43.66600
C  49.02800 50.90600 42.18600
N  45.24900 48.00500 43.92600
C  45.26900 49.36600 44.06800
C  43.89700 49.81400 44.05800
C  43.15400 48.68800 43.66500
C  44.01400 47.61900 43.56200
C  43.48900 51.24100 44.23200
C  41.88700 48.16900 43.26900
O  40.89600 48.76700 43.06600
C  42.01400 46.68900 42.95000
C  41.05800 45.88500 43.74600
O  40.03200 45.49400 43.29500
O  41.46000 45.76400 45.06400
C  40.57100 44.99200 45.93900
H  47.25400 42.37500 41.82300
H  51.08800 46.71800 44.86200
H  46.46600 51.04100 44.59500
H  42.71400 43.86600 41.95700
H  45.09900 42.75300 40.74000
H  44.43200 41.01100 41.99100
H  43.29900 41.94700 42.89700
H  44.88700 41.97900 43.50100
H  44.06500 44.56300 39.46800
H  43.43700 45.99600 40.28800
H  41.58800 45.32900 39.04900
H  41.32100 44.07200 40.25400
H  49.18500 41.44700 41.69000
H  50.62300 41.27100 42.65800
H  50.70400 42.28000 41.18000
H  52.75000 46.27100 43.36400
H  54.00300 45.09100 43.96900
H  52.65500 45.55700 44.98300
H  51.00100 49.48900 44.44900
H  48.67100 50.87100 45.67300
H  51.67500 49.47900 46.49700
H  50.42400 48.33600 47.03100
H  50.14300 50.06200 47.09400
H  50.15500 51.91000 43.69300
H  48.52100 52.09400 43.78400
H  47.97800 50.74600 41.94300
H  49.58600 49.99200 41.98400
H  49.41700 51.69200 41.53800
H  44.29900 51.96900 44.20500
H  42.88600 51.29200 45.13800
H  42.97400 51.41600 43.28700
H  41.67800 46.55000 41.92300
H  40.86400 45.34300 46.92800
H  40.77200 43.93000 46.07500
H  39.52500 45.06600 45.64400
Mg -1.13800 33.87300 27.67900
C  -2.58200 32.18800 30.51600
C  0.66200 35.83100 29.89800
C  -0.43500 35.80300 25.11900
C  -3.48000 32.18000 25.58700
N  -0.95100 33.88500 29.98500
C  -1.65000 33.18900 30.98800
C  -1.24100 33.55000 32.43400
C  -0.14700 34.63500 32.09200
C  -0.12500 34.83600 30.56700
C  -0.39400 35.96700 32.88900
C  -0.68300 32.29200 33.12200
C  -1.16100 31.95600 34.50600
H  -0.23200 32.41700 35.67500
N  -0.03200 35.62200 27.53000
C  0.74800 36.26500 28.53900
C  1.51600 37.31400 27.82200
C  1.24200 37.31900 26.42500
C  0.21400 36.24100 26.33100
C  2.49400 38.16400 28.57800
C  1.81100 38.09100 25.26100
O  1.57700 37.95100 24.07400
C  2.93900 39.04300 25.52800
N  -2.07800 34.09400 25.71000
C  -1.48000 34.87900 24.82800
C  -1.73900 34.47300 23.37800
C  -2.61900 33.22900 23.44500
C  -2.75000 33.16900 25.00500
C  -2.29300 35.62200 22.58300
C  -2.09600 31.90900 22.87100
C  -1.15500 30.98200 23.73800
N  -2.62900 32.47600 27.93800
C  -3.50500 31.84900 26.96700
C  -4.36900 30.89700 27.72000
C  -4.02600 31.08100 29.05300
C  -2.96500 31.98400 29.18900
C  -5.49600 30.13500 27.16000
C  -4.38300 30.62100 30.38500
O  -5.15000 29.74400 30.72700
C  -3.43800 31.29000 31.34000
C  -4.26900 31.99700 32.31400
O  -4.48100 33.21900 32.29700
O  -4.66400 31.16800 33.33000
C  -5.43600 31.75300 34.39300
H  1.29700 36.45300 30.53300
H  -0.03000 36.14600 24.16500
H  -4.05100 31.57300 24.88100
H  -2.04800 33.98400 33.02400
H  0.85200 34.31600 32.39000
H  0.50200 36.42100 33.31200
H  -1.05100 35.70100 33.71700
H  -0.87900 36.61400 32.15800
H  0.39900 32.38900 33.21600
H  -0.75500 31.45700 32.42500
H  -1.13900 30.87300 34.63000
H  -2.09100 32.47900 34.73000
H  3.49600 37.93400 28.21500
H  2.49300 37.88100 29.63000
H  2.15600 39.19000 28.72000
H  3.21700 39.52500 24.59100
H  3.78100 38.43900 25.86600
H  2.56400 39.69200 26.32000
H  -0.81600 34.07000 22.96100
H  -3.58500 33.41300 22.97500
H  -1.63900 35.61600 21.71100
H  -2.29000 36.59500 23.07300
H  -3.30400 35.42200 22.22600
H  -1.43500 32.17700 22.04700
H  -2.85100 31.29900 22.37600
H  -0.97800 31.32600 24.75700
H  -0.17200 30.96700 23.26700
H  -1.61200 29.99400 23.79300
H  -6.41500 30.39200 27.68800
H  -5.39900 29.05000 27.16500
H  -5.65400 30.31800 26.09800
H  -2.81100 30.61100 31.91800
H  -6.28100 32.36600 34.08100
H  -4.77700 32.34500 35.02800
H  -5.94900 30.93900 34.90500

