158

Mg 35.92800 2.19700 30.30300
C  33.45300 3.22100 32.66900
C  38.27300 2.20800 32.79400
C  38.18800 1.41300 27.94600
C  33.50400 2.70600 27.74500
N  35.85000 2.69900 32.42500
C  34.74700 3.02200 33.18400
C  35.08400 3.13600 34.63500
C  36.64900 3.14200 34.64500
C  36.99400 2.64200 33.20400
C  37.26400 4.53600 35.16400
C  34.53200 1.94300 35.43900
C  33.78200 2.34700 36.72000
H  34.13900 3.70500 37.39800
N  37.94200 1.83200 30.38300
C  38.66300 1.80600 31.51300
C  40.01400 1.38900 31.21300
C  40.04700 1.08800 29.83200
C  38.70600 1.47200 29.27100
C  41.07500 1.05600 32.28400
C  41.20000 0.58400 29.06000
O  40.98700 0.39800 27.80100
C  42.55500 0.20100 29.73200
N  35.89300 2.05000 28.16500
C  36.93200 1.71800 27.44600
C  36.69800 1.79700 25.97200
C  35.15000 1.80900 25.90500
C  34.79500 2.23100 27.36400
C  37.50100 2.99700 25.31100
C  34.49500 0.46700 25.41500
C  33.57400 0.73700 24.19900
N  33.95500 2.89100 30.14600
C  33.09900 2.92700 29.02100
C  31.73700 3.26800 29.51800
C  31.88600 3.45600 30.93000
C  33.19000 3.13000 31.30900
C  30.46400 3.27100 28.71400
C  31.14000 3.83400 32.13700
O  30.00600 4.20400 32.32200
C  32.20600 3.62800 33.30100
C  32.38000 4.98500 33.97200
O  33.08200 5.94000 33.58700
O  31.44300 5.10400 34.91000
C  31.12500 6.42300 35.45100
H  38.98000 2.15700 33.62500
H  38.93400 1.35800 27.15100
H  32.77500 2.77500 26.93500
H  34.68000 4.07600 35.01000
H  37.00700 2.39300 35.35100
H  37.93100 4.89800 34.38200
H  37.76000 4.31300 36.10900
H  36.46900 5.26500 35.31800
H  35.28300 1.19000 35.67600
H  33.87100 1.42800 34.74100
H  33.91500 1.57000 37.47300
H  32.71700 2.23400 36.51600
H  41.12500 -0.03200 32.29600
H  40.66900 1.12600 33.29400
H  42.05900 1.48200 32.08700
H  43.16100 -0.12300 28.88600
H  42.43600 -0.69100 30.34700
H  43.03600 1.09800 30.12200
H  37.09400 0.85400 25.59700
H  34.94200 2.61800 25.20400
H  38.43700 3.19200 25.83500
H  36.87100 3.88600 25.32600
H  37.78800 2.64700 24.31900
H  33.88500 0.09000 26.23600
H  35.30200 -0.23800 25.21300
H  32.59700 0.39400 24.54100
H  33.85100 0.21200 23.28500
H  33.44800 1.80000 23.99200
H  30.46400 2.38500 28.08000
H  30.51200 4.09500 28.00100
H  29.59900 3.22800 29.37600
H  31.82900 2.92600 34.04500
H  32.01000 7.04200 35.59800
H  30.50300 6.32900 36.34000
H  30.61100 6.92300 34.62900
Mg 47.97400 16.64400 28.80300
C  45.90500 16.17600 31.65100
C  50.02600 18.63600 30.83800
C  49.81300 17.32000 26.07400
C  45.66600 14.97900 26.86400
N  47.94400 17.34300 30.99000
C  47.09200 16.84900 31.97100
C  47.48300 17.39700 33.38900
C  48.74800 18.27600 32.99600
C  48.93700 18.14000 31.49600
C  48.71700 19.77800 33.34500
C  47.79400 16.28800 34.46400
C  47.24900 16.40900 35.86800
H  47.10400 17.86500 36.41100
N  49.63800 17.90800 28.45500
C  50.38800 18.57900 29.45300
C  51.59700 19.08500 28.87000
C  51.61400 18.69400 27.50200
C  50.33300 17.90400 27.30100
C  52.62100 19.88200 29.64000
C  52.65300 18.97400 26.48600
O  52.50200 18.65700 25.31100
C  53.94300 19.69100 26.81400
N  47.72500 16.24400 26.67800
C  48.64800 16.62600 25.78300
C  48.28700 16.10600 24.39700
C  47.13600 15.00500 24.68400
C  46.76500 15.44500 26.15000
C  47.99600 17.15600 23.23200
C  47.56400 13.54800 24.63800
C  46.47700 12.65800 24.04000
N  46.18700 15.71300 29.15500
C  45.37000 15.03600 28.23300
C  44.17900 14.56900 28.91700
C  44.33500 14.98000 30.22800
C  45.60700 15.61200 30.32800
C  43.10700 13.82000 28.32000
C  43.71500 14.95300 31.56700
O  42.69800 14.44700 31.97800
C  44.79800 15.65700 32.54700
C  44.05200 16.62300 33.36000
O  43.74300 17.75700 33.02800
O  43.94300 16.11500 34.57800
C  43.01300 16.96300 35.44700
H  50.74300 19.19800 31.44000
H  50.47200 17.50700 25.22300
H  44.95100 14.37700 26.29800
H  46.54000 17.89400 33.61400
H  49.62900 17.85300 33.47800
H  47.88600 19.90100 34.04000
H  48.46500 20.39000 32.47900
H  49.65400 20.08000 33.81400
H  48.86900 16.26700 34.64700
H  47.37200 15.40800 33.98000
H  47.91200 15.84500 36.52500
H  46.25100 15.97200 35.89600
H  52.92200 20.67500 28.95600
H  53.47600 19.23800 29.85000
H  52.13000 20.42200 30.45000
H  53.73900 20.76100 26.78900
H  54.60000 19.61500 25.94800
H  54.50100 19.39900 27.70400
H  49.13300 15.44500 24.20700
H  46.19000 15.26900 24.21300
H  46.98100 17.02500 22.85700
H  48.72000 17.07500 22.42000
H  48.09100 18.14300 23.68600
H  47.75600 13.19500 25.65100
H  48.44600 13.38800 24.01800
H  46.91900 11.69300 23.79200
H  46.04400 13.05600 23.12200
H  45.68800 12.51900 24.77900
H  42.31800 13.63700 29.04900
H  43.46000 12.89700 27.85900
H  42.49900 14.31800 27.56600
H  45.06500 14.75700 33.10100
H  42.04200 17.14900 34.98800
H  43.41200 17.96200 35.62600
H  42.89900 16.48500 36.42000

