158

Mg 24.42700 1.47600 29.02700
C  26.60500 1.08900 31.83400
C  21.80000 1.38900 31.18400
C  22.49400 1.23100 26.28800
C  27.20100 1.01400 26.98800
N  24.23800 1.02000 31.28700
C  25.27000 1.28700 32.16300
C  24.77400 1.58600 33.59400
C  23.22000 1.64800 33.37000
C  23.04000 1.34500 31.83700
C  22.45800 0.63900 34.17200
C  25.48500 2.88400 34.10600
C  26.18300 2.75200 35.44900
H  26.16500 3.94300 36.45800
N  22.46200 1.33300 28.78400
C  21.49700 1.41200 29.75400
C  20.22200 1.38900 29.12700
C  20.37700 1.25100 27.71100
C  21.80200 1.18200 27.56100
C  19.05100 1.27500 30.00200
C  19.34000 1.22500 26.53200
O  19.64600 1.02100 25.34700
C  17.80500 1.27800 26.85700
N  24.79200 1.30100 26.89500
C  23.83900 1.31300 25.98100
C  24.41400 1.36100 24.56500
C  25.90700 1.18000 24.79900
C  26.00600 1.10900 26.30400
C  23.84500 0.36000 23.45200
C  26.79500 2.36900 24.21600
C  27.26800 3.51100 25.11100
N  26.47200 1.09500 29.29000
C  27.50600 0.94200 28.37100
C  28.73900 0.66800 29.03500
C  28.43900 0.70900 30.40400
C  27.07900 0.93900 30.54600
C  30.07300 0.41000 28.40100
C  29.02400 0.69800 31.69800
O  30.21300 0.55600 32.04500
C  27.79800 0.93300 32.73600
C  27.71300 -0.22400 33.64000
O  27.08600 -1.21100 33.41100
O  28.27100 0.06700 34.80000
C  27.86300 -0.84700 35.91100
H  21.03500 1.68400 31.90500
H  21.98600 1.04400 25.34000
H  28.03400 0.92100 26.28800
H  25.10600 0.76800 34.23300
H  22.83200 2.64300 33.58800
H  22.15600 -0.24400 33.61000
H  21.53400 1.16500 34.41200
H  23.04200 0.26700 35.01400
H  24.86600 3.78100 34.14800
H  26.27200 3.15200 33.40100
H  27.25300 2.64300 35.26800
H  25.72300 1.91500 35.97400
H  18.61300 2.25900 30.16700
H  19.18200 0.70000 30.91900
H  18.25800 0.76900 29.45100
H  17.59300 2.11300 27.52500
H  17.42500 0.35900 27.30300
H  17.33400 1.25200 25.87500
H  24.10400 2.33700 24.19000
H  26.28200 0.28600 24.30200
H  24.63300 -0.06400 22.83000
H  23.18200 0.82900 22.72500
H  23.42000 -0.51200 23.95100
H  26.26800 2.81400 23.37300
H  27.62600 1.82400 23.76800
H  26.54400 3.47600 25.92500
H  27.09400 4.46800 24.61900
H  28.29700 3.49400 25.47000
H  30.17100 -0.67500 28.35900
H  30.91400 0.81300 28.96500
H  30.06900 0.73400 27.36000
H  28.03300 1.79200 33.36500
H  27.49100 -1.84800 35.69400
H  27.04800 -0.33400 36.42000
H  28.68500 -0.91800 36.62300
Mg 27.31200 49.99200 26.71700
C  25.07600 50.73500 29.25100
C  29.89600 49.57000 28.96000
C  29.38700 49.45200 24.15900
C  24.78600 50.90400 24.27700
N  27.42800 50.18400 28.83300
C  26.37400 50.32200 29.68100
C  26.83100 50.13400 31.15600
C  28.43300 49.91700 31.10400
C  28.60600 50.03500 29.53800
C  29.30700 50.89800 31.86900
C  26.12700 48.88500 31.77500
C  25.45600 49.05100 33.18300
H  26.36400 49.08700 34.40100
N  29.34600 49.58000 26.49900
C  30.20600 49.37200 27.57300
C  31.47900 49.01200 27.08500
C  31.34000 48.91800 25.68300
C  30.01100 49.33200 25.37000
C  32.61900 48.68100 27.98800
C  32.32400 48.48700 24.60400
O  32.06900 48.43200 23.39800
C  33.78300 48.30900 24.93200
N  27.07600 50.24200 24.47000
C  28.09100 49.83300 23.68100
C  27.65200 49.73100 22.22200
C  26.13800 50.05000 22.33400
C  25.97700 50.42400 23.82500
C  28.40100 50.66400 21.16300
C  25.19600 48.84500 21.90200
C  24.65800 47.88700 23.00300
N  25.37600 50.82400 26.67200
C  24.50000 51.16800 25.66900
C  23.24700 51.63100 26.30000
C  23.45300 51.55100 27.68500
C  24.71400 50.98200 27.84100
C  22.07200 52.08000 25.49500
C  22.83800 51.72600 28.97600
O  21.78400 52.25100 29.30200
C  23.87200 51.18600 29.99400
C  24.16100 52.36900 30.97800
O  24.60200 53.40600 30.50800
O  23.96000 52.03100 32.24200
C  24.35100 53.03400 33.19800
H  30.68600 49.50900 29.71100
H  30.01900 49.19800 23.30600
H  23.97800 50.95600 23.54500
H  26.45600 51.03100 31.64900
H  28.76700 48.90800 31.34700
H  29.54500 50.60800 32.89200
H  28.79500 51.85700 31.94600
H  30.30000 51.00200 31.43200
H  26.86700 48.09500 31.90300
H  25.29900 48.61500 31.11900
H  24.70500 48.28000 33.35700
H  24.87400 49.97200 33.13900
H  32.50500 47.79500 28.61100
H  32.87400 49.54500 28.60100
H  33.54100 48.61000 27.41100
H  34.35800 48.06300 24.03900
H  33.81300 47.48600 25.64500
H  34.32900 49.13200 25.39500
H  27.85900 48.69800 21.94100
H  25.76100 50.79100 21.62900
H  29.29500 51.06600 21.63900
H  27.78300 51.43000 20.69400
H  28.84400 49.98800 20.43200
H  25.76800 48.28800 21.16000
H  24.33100 49.26200 21.38700
H  25.35000 47.87900 23.84500
H  24.77500 46.85100 22.68400
H  23.59900 48.05400 23.20200
H  22.03000 51.46600 24.59600
H  22.13800 53.13300 25.21900
H  21.18800 51.94700 26.12000
H  23.49200 50.37200 30.61200
H  25.05400 53.77500 32.82000
H  24.87700 52.64000 34.06800
H  23.53100 53.64400 33.57800

