158

Mg -0.79000 7.65900 25.87800
C  0.14300 9.32000 28.92600
C  -0.89900 4.76900 27.87100
C  -1.39000 5.87800 22.98800
C  0.18100 10.44100 24.09700
N  -0.46300 7.12800 28.15900
C  -0.13100 7.99000 29.14000
C  -0.05800 7.27600 30.48200
C  -0.33400 5.77400 30.17600
C  -0.59000 5.87600 28.63600
C  0.78800 4.77900 30.61900
C  -1.09800 7.92800 31.59800
C  -0.64800 8.10000 33.00400
H  0.76200 7.59400 33.46900
N  -1.17300 5.64100 25.48000
C  -1.22100 4.63100 26.48000
C  -1.49200 3.41500 25.81100
C  -1.71400 3.70300 24.45700
C  -1.42000 5.16300 24.20000
C  -1.69100 2.10100 26.62200
C  -2.19100 2.78000 23.29900
O  -2.56900 3.17600 22.19700
C  -2.35300 1.27900 23.58200
N  -0.56300 7.99200 23.89400
C  -0.98600 7.19600 22.86500
C  -0.98500 7.87200 21.49200
C  -0.45000 9.30400 21.86900
C  -0.15000 9.26400 23.37100
C  -0.02300 7.25900 20.38600
C  -1.53200 10.36500 21.50400
C  -2.91900 10.16400 22.19800
N  0.05500 9.57600 26.35300
C  0.35200 10.59500 25.46000
C  0.69500 11.78200 26.27200
C  0.74400 11.30100 27.54100
C  0.27400 9.95300 27.61700
C  1.11200 13.15000 25.73300
C  1.01800 11.69700 28.85700
O  1.39600 12.76500 29.31500
C  0.71500 10.45400 29.76500
C  1.97200 10.10900 30.49700
O  2.84600 9.36300 30.12900
O  2.06500 10.81300 31.67700
C  3.36000 10.63100 32.41300
H  -0.82000 3.80900 28.38500
H  -1.52100 5.47800 21.98000
H  0.22800 11.28000 23.40000
H  0.96600 7.41600 30.82900
H  -1.29800 5.35000 30.45500
H  1.52000 5.20800 31.30400
H  1.28400 4.44800 29.70700
H  0.23700 3.99800 31.14400
H  -1.99900 7.31600 31.55500
H  -1.34600 8.93500 31.26200
H  -1.29000 7.48900 33.64000
H  -0.82000 9.10300 33.39400
H  -0.86100 1.40000 26.70600
H  -2.55500 1.55700 26.23900
H  -1.95000 2.43200 27.62800
H  -2.63000 0.82600 22.63000
H  -3.17600 1.11500 24.27700
H  -1.41300 0.85700 23.93800
H  -2.00800 7.79900 21.12400
H  0.49200 9.48200 21.35000
H  0.16000 8.03800 19.64500
H  -0.53600 6.49800 19.79800
H  0.95000 6.97000 20.78400
H  -1.61200 10.20900 20.42800
H  -1.23000 11.41200 21.53200
H  -3.41100 11.12000 22.01400
H  -2.66600 10.12600 23.25700
H  -3.32000 9.23200 21.80000
H  0.31100 13.42500 25.04600
H  2.06300 13.13200 25.20000
H  1.13000 13.88800 26.53500
H  0.04100 10.77800 30.55800
H  4.22700 10.14300 31.96900
H  3.19500 10.13600 33.37100
H  3.58900 11.67200 32.64300
Mg -11.53600 38.41800 41.16300
C  -9.72300 35.35700 40.46300
C  -8.86000 40.13000 39.87200
C  -13.48300 41.17900 41.11200
C  -14.30700 36.41000 41.69500
N  -9.58000 37.77500 40.12300
C  -9.03100 36.44800 40.03700
C  -7.63900 36.47800 39.56300
C  -7.25000 38.01500 39.38900
C  -8.63600 38.70800 39.82600
C  -5.93400 38.45400 40.13400
C  -7.41900 35.77600 38.24000
C  -6.12800 34.87400 38.12500
H  -5.07700 35.42700 37.14500
N  -11.13200 40.38600 40.80100
C  -10.00100 40.93800 40.23700
C  -10.06100 42.38800 40.26800
C  -11.40000 42.71300 40.61300
C  -12.07500 41.37700 40.84500
C  -8.98800 43.31400 39.79600
C  -12.04200 44.07000 40.76300
O  -11.44900 45.08800 40.24200
C  -13.33500 44.25000 41.43800
N  -13.67500 38.73300 41.29200
C  -14.16700 39.95800 41.35200
C  -15.70500 39.92000 41.55800
C  -15.90500 38.44200 42.03400
C  -14.54400 37.78600 41.67800
C  -16.23200 41.04800 42.59800
C  -17.21300 37.83800 41.53700
C  -17.11500 37.19100 40.13300
N  -12.01000 36.35900 41.18300
C  -13.11600 35.66000 41.46600
C  -12.84200 34.19700 41.55200
C  -11.50600 34.05600 41.26600
C  -11.03500 35.38400 40.95500
C  -13.75000 33.20900 42.19800
C  -10.45100 33.04600 41.15500
O  -10.38900 31.83300 41.26600
C  -9.27900 33.92200 40.56000
C  -8.08500 33.58800 41.31700
O  -7.44400 32.57500 41.06700
O  -7.73100 34.62400 42.16800
C  -6.40800 34.60400 42.75300
H  -8.03300 40.78500 39.59100
H  -14.28000 41.91400 40.98400
H  -15.17200 35.81500 41.99300
H  -7.02700 36.16000 40.40700
H  -7.27100 38.33500 38.34700
H  -5.69200 37.89700 41.04000
H  -6.02600 39.50600 40.40100
H  -4.99900 38.45500 39.57400
H  -7.56700 36.38600 37.34900
H  -8.18300 35.00000 38.19900
H  -6.47500 33.87700 37.85500
H  -5.75900 34.75500 39.14400
H  -8.11100 42.84900 39.34600
H  -8.61900 43.99500 40.56300
H  -9.43300 43.96500 39.04300
H  -13.51500 43.59700 42.29200
H  -14.07600 44.20500 40.64000
H  -13.22500 45.26300 41.82600
H  -16.23300 39.98000 40.60600
H  -15.79800 38.49900 43.11700
H  -17.04700 40.66300 43.21000
H  -16.76000 41.79800 42.00800
H  -15.42200 41.50800 43.16300
H  -17.93700 38.65300 41.52700
H  -17.52700 37.17100 42.33900
H  -16.54600 37.70800 39.36000
H  -18.12200 37.23900 39.71700
H  -16.72500 36.17500 40.18900
H  -13.35000 32.20100 42.29800
H  -14.73800 33.34100 41.75600
H  -13.83000 33.59500 43.21500
H  -9.06100 33.59500 39.54300
H  -5.69800 34.95200 42.00300
H  -6.05400 33.65300 43.15200
H  -6.35300 35.28700 43.60000

