158

Mg 16.93200 52.81600 26.62300
C  18.75900 51.32200 29.22600
C  14.51700 53.62400 28.89600
C  14.82300 53.73800 24.12100
C  19.27900 51.76100 24.34900
N  16.76900 52.64500 28.84400
C  17.63400 52.04700 29.67300
C  17.07300 51.91300 31.12400
C  15.67700 52.66400 31.00900
C  15.58900 52.96700 29.47200
C  14.43300 51.84200 31.61200
C  17.83700 52.62800 32.22000
C  17.60900 51.69800 33.47800
H  17.21100 52.52400 34.71500
N  15.03000 53.56300 26.53200
C  14.17200 53.87400 27.55300
C  12.89600 54.41900 27.11500
C  13.06800 54.68000 25.71400
C  14.36100 53.94100 25.41300
C  11.91800 54.83700 28.04600
C  12.20300 55.30800 24.71400
O  12.52100 55.44900 23.54400
C  10.93400 55.95500 25.11800
N  17.19000 52.94100 24.55000
C  16.12700 53.19500 23.72100
C  16.49200 53.05600 22.19800
C  18.07800 52.75800 22.35800
C  18.24700 52.50800 23.81400
C  15.87400 51.93400 21.38600
C  19.04500 53.98100 21.96200
C  20.36000 53.76100 21.08000
N  18.73100 51.80600 26.74100
C  19.51700 51.39900 25.66800
C  20.55100 50.58200 26.18700
C  20.35400 50.53700 27.57300
C  19.19400 51.29500 27.87600
C  21.53300 49.86700 25.26400
C  20.72300 49.92200 28.83500
O  21.65200 49.15200 29.05900
C  19.74600 50.50600 29.96400
C  19.09000 49.31000 30.65600
O  18.45600 48.38100 30.11500
O  19.60700 49.18800 31.94200
C  19.15400 48.03200 32.63100
H  13.68200 53.87800 29.55200
H  14.22900 53.99800 23.24200
H  20.00200 51.46000 23.58700
H  16.76800 50.88100 31.29600
H  15.64500 53.62100 31.53000
H  13.89200 52.35500 32.40700
H  14.90400 50.96100 32.04800
H  13.79400 51.65400 30.74900
H  17.52600 53.64800 32.44600
H  18.89100 52.63900 31.94600
H  18.52000 51.22000 33.83900
H  16.92600 50.86600 33.31000
H  12.25400 55.78300 28.47000
H  11.70900 54.11300 28.83400
H  10.95300 54.97400 27.55800
H  11.13000 56.62000 25.95900
H  10.31100 55.20100 25.60000
H  10.40600 56.35400 24.25200
H  16.35100 54.03700 21.74500
H  18.41400 51.90200 21.77200
H  15.10700 51.45400 21.99500
H  16.56200 51.21900 20.93400
H  15.36600 52.27100 20.48300
H  19.29600 54.55500 22.85400
H  18.45900 54.64200 21.32400
H  20.65400 54.63100 20.49200
H  20.16900 52.92600 20.40500
H  21.27500 53.43500 21.57400
H  22.23900 50.62700 24.92900
H  21.16900 49.40500 24.34500
H  21.92100 49.00000 25.79800
H  20.31600 51.12400 30.65700
H  19.74100 48.11600 33.54600
H  19.34500 47.12800 32.05300
H  18.09200 48.12100 32.85800
Mg -5.76600 25.66100 25.81100
C  -4.10600 26.71000 28.64300
C  -7.56500 23.54900 27.62400
C  -7.01200 24.51400 22.90500
C  -3.54200 27.74200 23.86400
N  -5.60400 24.96700 27.91100
C  -5.06600 25.69200 28.89600
C  -5.47800 25.27000 30.29000
C  -6.52100 24.17000 29.88800
C  -6.64200 24.28400 28.34100
C  -6.26200 22.72000 30.39000
C  -6.31500 26.47700 30.89100
C  -6.19400 26.60000 32.43400
H  -6.05500 25.46000 33.38400
N  -7.20100 24.23700 25.33200
C  -7.86600 23.47500 26.25200
C  -8.69100 22.53800 25.54900
C  -8.68500 22.88100 24.09500
C  -7.53800 23.89300 24.02000
C  -9.47700 21.50100 26.37200
C  -9.48100 22.38500 22.88300
O  -9.28900 22.80200 21.76000
C  -10.67200 21.44100 23.01300
N  -5.35300 26.09600 23.61900
C  -5.97100 25.42200 22.64900
C  -5.44800 25.76700 21.27300
C  -4.45300 26.90400 21.59400
C  -4.45600 26.91300 23.11300
C  -4.62100 24.54900 20.75700
C  -4.77200 28.35100 20.96000
C  -3.57200 28.96200 20.23000
N  -4.06700 26.83600 26.10900
C  -3.37300 27.76200 25.26900
C  -2.41800 28.57400 26.06300
C  -2.66200 28.11600 27.38300
C  -3.67000 27.15100 27.36700
C  -1.47900 29.57700 25.49600
C  -2.13500 28.22400 28.66600
O  -1.31800 28.97100 29.14400
C  -3.10400 27.29200 29.55000
C  -2.26500 26.26400 30.28300
O  -1.59400 25.38600 29.74500
O  -2.20100 26.74200 31.60300
C  -1.00300 26.20500 32.35800
H  -8.06700 22.85600 28.30200
H  -7.41300 24.08300 21.98500
H  -2.74700 28.35700 23.43800
H  -4.65900 25.06400 30.97900
H  -7.50600 24.49600 30.22300
H  -7.08600 22.47400 31.05900
H  -5.34300 22.63200 30.97000
H  -6.13000 22.10500 29.50000
H  -7.35300 26.49500 30.55800
H  -5.85500 27.36700 30.46000
H  -7.00700 27.24300 32.77300
H  -5.32100 27.24300 32.54700
H  -9.29800 20.49100 26.00400
H  -10.48000 21.92800 26.38100
H  -9.12900 21.46700 27.40400
H  -10.99900 21.21200 21.99900
H  -11.38800 21.99900 23.61500
H  -10.35000 20.53400 23.52500
H  -6.29800 26.09900 20.67700
H  -3.41200 26.60400 21.47400
H  -4.13100 24.08500 21.61400
H  -3.84700 24.86100 20.05600
H  -5.24100 23.85600 20.18800
H  -4.91700 28.95200 21.85700
H  -5.68100 28.29000 20.36200
H  -2.93100 28.16500 19.85400
H  -2.91400 29.49200 20.91800
H  -3.77700 29.67000 19.42600
H  -1.95000 30.55200 25.37400
H  -1.14300 29.32800 24.49000
H  -0.67900 29.75800 26.21400
H  -3.65600 28.01800 30.14800
H  -0.34500 27.06800 32.25800
H  -0.73100 25.25800 31.89200
H  -1.28100 26.03000 33.39800

