158

Mg 5.96400 54.82500 42.01200
C  5.80300 51.26800 41.57500
C  9.01400 54.76900 40.47700
C  5.76000 58.12800 41.82300
C  2.74900 54.63700 43.42700
N  7.08300 53.19900 40.91200
C  6.92900 51.78000 40.96600
C  8.12500 51.04900 40.33500
C  9.17800 52.23900 40.18700
C  8.43100 53.48500 40.61600
C  10.49700 51.97700 40.93100
C  7.84700 50.30000 39.04200
C  6.91000 50.96900 38.06400
H  7.02100 50.51600 36.58500
N  7.18900 56.31000 41.22800
C  8.45000 56.06100 40.67500
C  8.98800 57.38700 40.30100
C  8.04800 58.40300 40.64700
C  6.92800 57.60200 41.23300
C  10.28800 57.52900 39.62600
C  8.30800 59.88200 40.50200
O  9.43200 60.29100 40.19400
C  7.25900 60.96300 40.81500
N  4.44200 56.12100 42.50500
C  4.68200 57.49900 42.49800
C  3.64900 58.33300 43.28600
C  2.69300 57.17900 43.76900
C  3.32200 55.86700 43.15300
C  4.20200 59.27300 44.38700
C  1.12700 57.31100 43.57600
C  0.34300 56.76900 42.33800
N  4.54800 53.28000 42.49800
C  3.30000 53.38200 43.10500
C  2.91400 52.10400 43.46700
C  3.74600 51.15300 42.80600
C  4.74700 51.97900 42.22000
C  1.77800 51.74800 44.35900
C  4.17200 49.76400 42.65500
O  3.74000 48.68900 43.01800
C  5.41600 49.80300 41.78300
C  5.20800 49.05900 40.46200
O  4.30100 49.40400 39.68200
O  5.98800 47.91400 40.29300
C  5.83600 47.10900 39.07200
H  10.07500 54.63600 40.25500
H  5.69700 59.21800 41.83900
H  1.88600 54.71900 44.09100
H  8.45400 50.34000 41.09500
H  9.32700 52.35700 39.11300
H  11.36200 51.96000 40.26800
H  10.56500 50.99100 41.39000
H  10.65400 52.66700 41.76000
H  7.54500 49.29100 39.32200
H  8.79800 50.08700 38.55400
H  6.99800 52.05600 38.08500
H  5.95400 50.63300 38.46400
H  10.21600 57.87600 38.59500
H  10.80900 56.57300 39.58700
H  10.90600 58.19400 40.23000
H  6.46200 60.74200 40.10400
H  7.66800 61.96400 40.67300
H  7.05500 60.88200 41.88300
H  3.15500 59.05300 42.63400
H  2.89200 57.04100 44.83200
H  5.28600 59.16800 44.40700
H  3.81000 58.90100 45.33300
H  3.92300 60.30400 44.16700
H  0.98100 58.38700 43.47400
H  0.64600 56.98800 44.50000
H  -0.43400 56.10200 42.71000
H  1.02400 56.28000 41.64100
H  -0.17100 57.54500 41.77100
H  1.86400 52.39200 45.23400
H  1.86900 50.72900 44.73700
H  0.87500 51.89700 43.76700
H  6.20900 49.31500 42.35000
H  6.65600 46.39300 39.13000
H  5.83700 47.76400 38.20100
H  4.88000 46.58500 39.05200
Mg 17.09900 52.72500 26.30800
C  18.69800 51.03100 28.99900
C  14.66700 53.85900 28.50000
C  15.68200 54.05600 23.65100
C  19.61200 51.43800 24.19800
N  16.72500 52.42500 28.46600
C  17.52000 51.65800 29.35800
C  16.94200 51.79100 30.81400
C  15.53600 52.38700 30.50400
C  15.66500 53.05500 29.11300
C  14.37100 51.43400 30.50100
C  17.84200 52.63800 31.75600
C  17.99600 51.96400 33.14600
H  17.14000 52.35500 34.34600
N  15.44100 53.86200 26.07800
C  14.58600 54.28800 27.07800
C  13.57500 55.10000 26.54100
C  13.90200 55.25700 25.14200
C  15.06600 54.35400 24.88000
C  12.46800 55.72500 27.32700
C  13.15200 55.98400 24.06800
O  13.38200 55.94900 22.87200
C  11.98300 56.83600 24.44000
N  17.57400 52.72400 24.18800
C  16.73300 53.32400 23.29600
C  17.19100 53.01100 21.82100
C  18.61900 52.40100 22.05800
C  18.60100 52.12100 23.51200
C  16.26500 52.12300 21.00100
C  19.83200 53.36500 21.68500
C  20.58300 53.01400 20.34000
N  18.75000 51.45100 26.48600
C  19.70400 51.12800 25.54300
C  20.69600 50.22300 26.18100
C  20.35000 50.24600 27.57900
C  19.18900 50.96200 27.71200
C  21.96100 49.64300 25.50000
C  20.73700 49.67500 28.92600
O  21.66700 48.97400 29.22800
C  19.69600 50.26800 29.88200
C  19.05400 49.17000 30.56000
O  18.19200 48.44600 30.04400
O  19.51800 49.06800 31.88600
C  18.96500 48.10000 32.78800
H  13.90700 54.21900 29.19700
H  15.06000 54.39800 22.82100
H  20.32600 50.94900 23.53200
H  16.74600 50.78900 31.19800
H  15.33300 53.26000 31.12500
H  13.62400 51.73200 31.23700
H  14.67400 50.41300 30.73300
H  13.77700 51.31400 29.59500
H  17.40900 53.63100 31.87200
H  18.78200 52.84900 31.24500
H  19.06800 51.96300 33.34600
H  17.77700 50.89700 33.09400
H  11.48300 55.44500 26.95400
H  12.62000 56.80400 27.31800
H  12.44700 55.34900 28.35000
H  11.12200 56.23100 24.72300
H  11.69000 57.46600 23.60000
H  12.17100 57.42400 25.33800
H  17.26900 53.92700 21.23500
H  18.74900 51.45400 21.53400
H  15.78500 51.41900 21.68000
H  16.87200 51.59900 20.26200
H  15.54100 52.76900 20.50400
H  20.58000 53.46600 22.47100
H  19.36800 54.33000 21.47900
H  20.89300 53.98600 19.95600
H  19.84900 52.47600 19.74000
H  21.47000 52.39900 20.49100
H  22.28200 50.42400 24.81100
H  21.73000 48.72000 24.96700
H  22.65600 49.37300 26.29400
H  20.22100 50.91700 30.58200
H  19.45100 47.12500 32.75100
H  17.87600 48.10500 32.73800
H  19.18100 48.36400 33.82300

