158

Mg 53.74900 23.02800 45.62400
C  51.41400 25.47800 44.58500
C  51.66500 20.66300 44.35900
C  56.46300 20.75200 45.72600
C  56.06600 25.58300 46.17900
N  51.84300 23.21500 44.49200
C  50.96800 24.26700 44.29400
C  49.60600 23.83200 43.78400
C  49.66800 22.24600 44.08300
C  51.21200 22.01800 44.17300
C  48.98200 21.81900 45.42400
C  49.32500 24.23900 42.31800
C  48.29200 23.41600 41.61800
H  47.71500 23.71900 40.22800
N  54.01100 20.98400 45.23000
C  52.95800 20.18100 44.79500
C  53.46200 18.85400 44.91800
C  54.74100 18.77500 45.44000
C  55.15100 20.24700 45.48800
C  52.53300 17.79700 44.43800
C  55.63500 17.62900 45.83000
O  55.21100 16.49500 45.64200
C  56.91000 17.73400 46.47100
N  55.98100 23.15700 45.68800
C  56.87700 22.10000 45.78900
C  58.26900 22.59900 45.94600
C  58.07400 24.20900 46.12700
C  56.58300 24.31900 45.98000
C  58.86500 21.99900 47.17900
C  59.06800 24.99400 45.22800
C  59.81400 26.16800 46.02400
N  53.71800 25.05300 45.60000
C  54.67000 25.95000 45.97300
C  54.15400 27.27400 45.91600
C  52.83200 27.13700 45.40600
C  52.62400 25.80800 45.09700
C  54.85000 28.53400 46.18400
C  51.66600 27.87700 44.96700
O  51.41900 29.04000 45.02700
C  50.77700 26.81400 44.32200
C  50.68700 27.16200 42.83500
O  51.59600 27.05100 42.07700
O  49.44800 27.68000 42.57300
C  48.92800 27.91400 41.13900
H  50.85300 19.98200 44.09500
H  57.29300 20.05000 45.62500
H  56.82000 26.36400 46.29800
H  48.82300 24.28000 44.39500
H  49.19600 21.60600 43.33800
H  49.74300 21.34700 46.04600
H  48.29200 21.01200 45.17700
H  48.49600 22.65700 45.92300
H  50.25700 24.48600 41.80800
H  48.80900 25.19700 42.37700
H  47.52300 23.30200 42.38300
H  48.86000 22.50300 41.43800
H  52.91100 16.77800 44.53100
H  52.33700 17.92500 43.37400
H  51.62900 17.85000 45.04500
H  56.90300 18.51900 47.22700
H  57.69300 18.04600 45.78000
H  57.17500 16.81300 46.99200
H  58.84300 22.43800 45.03300
H  58.22000 24.39000 47.19200
H  58.20200 21.30900 47.70200
H  59.20700 22.73000 47.91200
H  59.75200 21.43500 46.89000
H  58.67000 25.53000 44.36600
H  59.80300 24.29800 44.82400
H  59.13600 27.01000 45.89100
H  60.83200 26.31600 45.66100
H  59.79000 25.96200 47.09400
H  55.71000 28.81500 45.57600
H  55.25400 28.44300 47.19200
H  54.13400 29.35200 46.09000
H  49.77300 26.88100 44.74100
H  47.85300 27.74500 41.20700
H  49.34200 27.26500 40.36700
H  49.14100 28.94500 40.85800
Mg 0.69500 43.77300 26.09000
C  2.79300 43.32000 28.69400
C  -1.86100 42.40900 27.92100
C  -1.20600 43.64500 23.23300
C  3.56400 44.54300 24.06700
N  0.47300 43.00000 28.08600
C  1.48900 43.00900 28.98500
C  0.89700 42.67600 30.40800
C  -0.58100 42.19200 30.04300
C  -0.66400 42.43000 28.52500
C  -0.92700 40.72000 30.55700
C  0.95200 43.86800 31.39100
C  0.58700 43.54300 32.87800
H  0.40400 42.14200 33.39200
N  -1.32700 43.24800 25.66900
C  -2.22900 42.67300 26.57800
C  -3.56200 42.46200 25.96800
C  -3.37700 42.86700 24.56400
C  -1.88900 43.28400 24.42900
C  -4.77300 41.91400 26.71700
C  -4.33800 42.87500 23.43300
O  -4.08200 43.28100 22.25500
C  -5.74800 42.56600 23.63600
N  1.19000 43.75000 23.91900
C  0.14000 43.88800 22.99000
C  0.63500 44.32800 21.62700
C  2.06400 44.73500 21.99100
C  2.31400 44.29000 23.45400
C  0.51300 43.19700 20.54000
C  2.32100 46.21300 21.77100
C  1.68900 47.20300 22.74600
N  2.86200 43.87800 26.28700
C  3.84500 44.25300 25.39900
C  5.07200 44.29500 26.09100
C  4.77500 43.92400 27.42100
C  3.37800 43.71100 27.46300
C  6.37400 44.68900 25.52000
C  5.27500 43.64900 28.71800
O  6.38800 43.65900 29.11600
C  4.04000 43.28500 29.64200
C  4.32500 41.95600 30.22600
O  4.21000 40.90200 29.64600
O  4.76800 42.11500 31.52600
C  4.80000 40.73200 32.15400
H  -2.61000 41.87000 28.50500
H  -1.82900 43.75500 22.34300
H  4.39800 45.01000 23.54100
H  1.53500 41.92900 30.88000
H  -1.16000 42.94000 30.58400
H  -1.75200 40.53700 31.24600
H  -0.00500 40.40500 31.04600
H  -1.12000 40.07100 29.70200
H  0.19500 44.54900 30.99900
H  1.90900 44.37900 31.28600
H  -0.28600 44.11000 33.19900
H  1.48200 43.88400 33.39900
H  -5.09600 41.01200 26.19600
H  -5.54300 42.67900 26.62400
H  -4.53400 41.59600 27.73200
H  -6.26500 42.59100 22.67700
H  -6.22200 43.29300 24.29500
H  -5.75000 41.58600 24.11300
H  0.04900 45.17800 21.28000
H  2.68500 44.14300 21.31800
H  -0.54100 43.10400 20.28100
H  1.03200 42.29300 20.85600
H  0.93500 43.65500 19.64500
H  1.99000 46.34500 20.74100
H  3.40900 46.25400 21.82700
H  0.75900 46.80800 23.15300
H  1.49000 48.15100 22.24500
H  2.42300 47.48100 23.50300
H  7.12900 44.47700 26.27600
H  6.52800 45.74400 25.29700
H  6.49100 44.03900 24.65200
H  4.06400 44.00300 30.46300
H  5.74400 40.21600 31.97500
H  3.92200 40.11400 31.96900
H  4.78900 41.04200 33.19900

