158

Mg 24.84200 -7.32600 47.65700
C  27.50900 -5.10600 46.68700
C  23.03400 -5.94500 44.98200
C  22.74100 -9.77500 48.01100
C  27.20900 -9.00300 49.74200
N  25.25500 -5.69500 46.12500
C  26.35300 -4.94200 45.88000
C  26.04300 -3.92700 44.74800
C  24.49900 -3.89900 44.74700
C  24.22600 -5.34100 45.26400
C  23.94100 -2.84200 45.72600
C  26.68000 -4.42400 43.36300
C  27.41300 -3.31700 42.53400
H  26.86300 -3.12800 41.10000
N  23.13800 -7.74700 46.75900
C  22.57000 -7.11300 45.60500
C  21.34900 -7.82100 45.15100
C  21.15600 -8.84900 46.12900
C  22.35100 -8.83900 47.05400
C  20.49500 -7.47800 43.88900
C  19.94600 -9.81200 46.08900
O  18.98600 -9.73800 45.26000
C  19.86200 -11.01500 47.06300
N  24.93400 -9.14500 48.76600
C  23.82400 -9.93400 48.85100
C  24.10800 -11.11700 49.77600
C  25.42500 -10.70400 50.47700
C  26.01300 -9.67900 49.53000
C  22.99100 -11.70100 50.59600
C  26.41700 -11.78100 50.80500
C  27.03300 -11.74100 52.23100
N  26.90500 -7.09100 48.25800
C  27.73000 -7.83200 49.06100
C  29.00500 -7.12500 49.21000
C  28.94700 -6.03100 48.31500
C  27.66500 -6.08700 47.72500
C  30.22900 -7.52800 49.99800
C  29.65600 -4.90200 47.74500
O  30.71800 -4.37600 47.97300
C  28.76800 -4.27000 46.61600
C  28.54000 -2.82000 46.80800
O  28.15900 -2.33500 47.84500
O  28.77300 -2.27200 45.58300
C  28.38400 -0.89800 45.51800
H  22.34900 -5.50900 44.25200
H  21.97600 -10.54200 48.14300
H  27.87600 -9.28700 50.55900
H  26.39600 -2.92000 44.96900
H  24.05100 -3.73600 43.76700
H  23.32700 -2.18900 45.10600
H  24.62800 -2.18500 46.26000
H  23.21300 -3.36200 46.34800
H  25.97700 -4.96100 42.72600
H  27.39800 -5.18000 43.68300
H  28.48400 -3.48200 42.41300
H  27.18800 -2.36500 43.01300
H  19.85400 -8.25800 43.47800
H  21.26300 -7.10800 43.21000
H  19.95400 -6.55700 44.10600
H  19.96200 -10.67600 48.09400
H  20.66300 -11.69300 46.77100
H  18.85300 -11.42400 47.01200
H  24.45700 -11.91300 49.11600
H  25.14600 -10.17200 51.38600
H  22.56100 -12.46200 49.94600
H  22.23100 -10.92700 50.70800
H  23.37300 -12.06200 51.55100
H  27.13700 -11.81400 49.98700
H  25.94500 -12.76400 50.81100
H  27.87100 -11.04300 52.25000
H  27.26300 -12.73800 52.60600
H  26.32600 -11.31100 52.94000
H  30.03000 -7.34900 51.05500
H  31.12300 -7.01500 49.64100
H  30.30000 -8.60100 49.82100
H  29.29100 -4.51100 45.69000
H  27.66200 -0.74500 44.71700
H  29.24700 -0.28500 45.25800
H  27.93600 -0.50200 46.42900
Mg 9.70200 47.77700 28.14700
C  7.91000 47.37800 31.20400
C  12.46700 48.42500 29.99400
C  11.21800 48.96900 25.34500
C  6.55900 48.02900 26.45100
N  10.14800 47.70600 30.38200
C  9.28600 47.55500 31.44100
C  10.04500 47.60400 32.76900
C  11.46500 48.06200 32.39800
C  11.38400 48.03000 30.81700
C  11.94400 49.42200 32.97900
C  9.86800 46.28100 33.59900
C  11.01600 45.92000 34.57200
H  10.69900 45.16900 35.91400
N  11.63000 48.24600 27.66000
C  12.61200 48.46000 28.57200
C  13.82400 48.68400 27.81100
C  13.52400 48.82000 26.45400
C  12.03200 48.70400 26.43100
C  15.16400 49.01100 28.51900
C  14.43700 49.21000 25.20200
O  14.08200 49.50700 24.05400
C  15.89000 49.21000 25.48000
N  8.99300 48.39200 26.08400
C  9.80400 48.75300 25.07400
C  9.03800 49.10200 23.75800
C  7.64000 48.75000 24.22600
C  7.66700 48.30900 25.66300
C  9.09300 50.52800 23.31800
C  6.87600 47.73700 23.32800
C  6.33200 48.32500 21.99100
N  7.63700 47.55100 28.62400
C  6.45800 47.68400 27.84700
C  5.30300 47.59100 28.68600
C  5.86000 47.35300 29.94900
C  7.23800 47.48500 29.93600
C  3.91600 47.78400 28.31300
C  5.51900 47.20500 31.37200
O  4.43900 47.13100 31.85200
C  6.80600 47.07100 32.16900
C  6.81900 45.65400 32.54200
O  7.18300 44.73200 31.88100
O  6.31700 45.58000 33.79800
C  6.23600 44.27700 34.40700
H  13.33700 48.51300 30.64800
H  11.62300 49.35000 24.40500
H  5.54900 48.16700 26.05900
H  9.49900 48.32600 33.37600
H  12.20700 47.30400 32.65200
H  11.23100 49.87500 33.66800
H  12.01800 50.23400 32.25600
H  12.86800 49.23100 33.52400
H  9.72700 45.51900 32.83300
H  8.95600 46.27900 34.19600
H  11.40500 46.89500 34.86500
H  11.70300 45.31200 33.98400
H  15.45500 50.01700 28.21700
H  15.96100 48.27900 28.39000
H  14.92800 49.06400 29.58200
H  16.26400 49.10500 24.46200
H  16.20600 48.33000 26.04100
H  15.95100 50.14300 26.04000
H  9.50100 48.44600 23.02100
H  7.00300 49.63500 24.23500
H  8.18600 50.89900 22.84000
H  9.87200 50.35800 22.57400
H  9.49400 51.18700 24.08800
H  5.98900 47.37000 23.84300
H  7.55800 46.93900 23.03200
H  6.83300 47.65200 21.29600
H  6.67900 49.35700 21.94500
H  5.25600 48.16300 21.91800
H  3.23600 47.50600 29.11800
H  3.77100 47.29600 27.34900
H  3.71100 48.83600 28.11400
H  6.78500 47.70900 33.05200
H  5.51000 43.75100 33.78700
H  5.79900 44.33100 35.40400
H  7.20300 43.77900 34.47000

