158

Mg 40.13100 9.78100 29.07700
C  42.23800 10.68700 31.75400
C  37.92500 8.54700 31.22000
C  38.26500 8.81000 26.44800
C  42.66500 10.79300 26.91100
N  40.21400 9.55400 31.22000
C  40.97600 10.18700 32.10700
C  40.40600 10.13900 33.57100
C  39.05100 9.38100 33.32200
C  39.04900 9.07200 31.81800
C  38.96300 8.06600 34.11200
C  40.27900 11.51500 34.31300
C  39.46300 11.45300 35.63900
H  40.34800 11.72700 36.87400
N  38.28400 8.82200 28.88900
C  37.54500 8.37300 29.87200
C  36.47200 7.56100 29.33000
C  36.54400 7.72300 27.97600
C  37.72600 8.46000 27.72100
C  35.46000 6.78900 30.19300
C  35.58400 7.23400 26.92700
O  35.83600 7.21600 25.72900
C  34.33800 6.60600 27.35100
N  40.44600 9.60000 26.91900
C  39.55100 9.28700 26.04200
C  39.99900 9.45400 24.55700
C  41.27700 10.34300 24.79900
C  41.51300 10.23800 26.30000
C  40.32300 8.06400 23.96000
C  41.18200 11.77200 24.18700
C  39.83900 12.56700 24.48400
N  42.10500 10.54200 29.22800
C  42.97500 10.98800 28.28000
C  44.14200 11.67100 28.93100
C  43.81500 11.58800 30.28000
C  42.60500 10.88000 30.39800
C  45.29100 12.24800 28.25700
C  44.32200 11.95200 31.56100
O  45.35800 12.52000 31.87300
C  43.24000 11.48800 32.57600
C  43.83100 10.54100 33.53700
O  44.26400 9.41700 33.33200
O  43.85100 11.03700 34.83800
C  43.91800 10.03300 35.92500
H  37.22800 8.08000 31.91900
H  37.60000 8.60300 25.60700
H  43.32000 11.15800 26.11700
H  41.02900 9.53600 34.23200
H  38.24900 10.02300 33.68700
H  39.75600 7.89100 34.84000
H  39.14000 7.22900 33.43600
H  37.92300 7.95600 34.41800
H  39.84800 12.34300 33.75000
H  41.29000 11.87000 34.51300
H  38.87500 10.53900 35.73200
H  38.72700 12.25400 35.57400
H  34.43600 7.16100 30.21500
H  35.85400 6.72900 31.20700
H  35.43400 5.75400 29.85100
H  33.76000 7.31100 27.94800
H  34.48200 5.71800 27.96700
H  33.65500 6.35300 26.54000
H  39.25900 9.97700 23.95200
H  42.15900 9.81300 24.43900
H  39.66900 7.85600 23.11300
H  40.31000 7.19700 24.62100
H  41.38900 7.96200 23.75900
H  41.40900 11.68100 23.12500
H  41.98200 12.31900 24.68500
H  39.29700 12.77300 23.56100
H  39.93400 13.58700 24.85600
H  39.20000 12.00200 25.16300
H  45.00800 12.79800 27.35900
H  46.01600 11.44000 28.16100
H  45.46400 13.04300 28.98200
H  42.80200 12.41500 32.94800
H  44.86200 9.49000 35.89100
H  43.17200 9.29500 35.63000
H  43.64000 10.41000 36.90900
Mg 47.37600 25.04900 29.06500
C  48.00400 27.47100 31.46000
C  45.96000 23.07200 31.35200
C  46.90800 22.69700 26.67900
C  49.01500 26.95200 26.69100
N  46.96500 25.35000 31.15700
C  47.38000 26.37700 31.99700
C  46.92000 26.14100 33.43200
C  46.36300 24.66300 33.39100
C  46.44500 24.29500 31.88900
C  47.13400 23.58100 34.16300
C  45.76300 27.08100 33.92900
C  45.81100 27.64900 35.33000
H  46.34200 26.76100 36.54700
N  46.48900 23.22300 28.98900
C  45.86200 22.59300 30.06400
C  45.28500 21.42100 29.68100
C  45.55800 21.33000 28.24100
C  46.32600 22.45300 27.90900
C  44.50500 20.46700 30.67300
C  45.18600 20.21200 27.29400
O  45.46500 19.99200 26.08900
C  44.13800 19.20900 27.82900
N  48.04200 24.79300 27.00900
C  47.72700 23.67300 26.24400
C  48.17600 23.86300 24.79200
C  48.53600 25.37100 24.67400
C  48.63300 25.69100 26.18700
C  49.33600 22.87600 24.53000
C  47.59700 26.34100 23.84800
C  48.25700 27.50500 23.00900
N  48.25900 26.84000 29.06700
C  48.93000 27.43300 28.00400
C  49.42700 28.74200 28.48600
C  49.06500 28.81800 29.84800
C  48.36800 27.61900 30.17100
C  50.09200 29.78000 27.56800
C  49.06400 29.61300 31.09000
O  49.52700 30.71300 31.29000
C  48.45000 28.71700 32.23200
C  49.51700 28.42300 33.17800
O  50.60000 27.94200 32.92800
O  49.12300 28.82300 34.43000
C  50.15100 29.07200 35.48300
H  45.59600 22.55900 32.24500
H  46.65900 22.04200 25.84100
H  49.53000 27.64600 26.02300
H  47.76000 26.11700 34.12600
H  45.32100 24.52000 33.67900
H  46.33600 23.16300 34.77700
H  47.80400 24.02200 34.90100
H  47.48800 22.76800 33.53000
H  44.77600 26.63300 33.81200
H  45.68400 27.92200 33.24000
H  44.93600 28.23000 35.62100
H  46.63400 28.36100 35.39200
H  44.40400 20.80100 31.70500
H  45.05500 19.52800 30.74000
H  43.54200 20.27600 30.19900
H  44.37400 18.61200 28.71000
H  43.87500 18.59000 26.97100
H  43.25800 19.78000 28.12600
H  47.47900 23.59300 23.99900
H  49.52300 25.34500 24.21300
H  49.09100 21.95800 25.06500
H  50.29500 23.18500 24.94700
H  49.41000 22.63300 23.47000
H  46.90800 26.78200 24.56900
H  47.00000 25.72300 23.17800
H  47.88800 27.53600 21.98400
H  49.34000 27.38900 22.99100
H  47.97500 28.46700 23.43700
H  51.17200 29.63300 27.52300
H  49.85000 30.73000 28.04300
H  49.65200 29.80200 26.57100
H  47.61100 29.27300 32.65000
H  51.17800 29.12900 35.12300
H  50.06700 28.48100 36.39500
H  50.07000 30.11900 35.77800

