158

Mg 25.81600 -0.66200 29.10100
C  27.67900 -0.89100 31.86500
C  22.78800 -0.43500 31.05100
C  23.81500 -0.55500 26.28400
C  28.50500 -1.36600 27.08500
N  25.31200 -0.69900 31.18600
C  26.30600 -0.77100 32.17000
C  25.71600 -0.63500 33.54200
C  24.19200 -0.78600 33.21000
C  24.06700 -0.69500 31.71900
C  23.45900 -2.02800 33.82200
C  26.14700 0.69800 34.28600
C  26.77700 0.58800 35.68200
H  26.41100 1.68300 36.63300
N  23.68600 -0.42500 28.75200
C  22.65000 -0.19000 29.67900
C  21.43200 0.08700 28.95600
C  21.76000 0.10400 27.54700
C  23.12500 -0.34400 27.47500
C  20.08400 0.32300 29.59200
C  20.94800 0.52200 26.41900
O  21.33600 0.40500 25.26300
C  19.56200 1.00400 26.64000
N  26.13000 -0.83500 26.91700
C  25.19200 -0.84900 25.98800
C  25.79800 -0.99400 24.60200
C  27.26600 -1.41000 24.84900
C  27.32300 -1.21100 26.37900
C  24.91700 -1.83600 23.62900
C  28.28700 -0.60400 23.98200
C  28.46300 0.82900 24.45300
N  27.73900 -1.10700 29.43100
C  28.77200 -1.23200 28.48000
C  29.99400 -1.49300 29.18100
C  29.66300 -1.24900 30.56500
C  28.27100 -0.99500 30.63900
C  31.35400 -1.78000 28.53900
C  30.14100 -1.21700 31.89500
O  31.23500 -1.27800 32.33800
C  28.87200 -0.85500 32.90700
C  28.66600 -1.93200 33.94100
O  28.22700 -3.05600 33.75600
O  29.19300 -1.51800 35.14000
C  29.02300 -2.45300 36.32100
H  21.91500 -0.26200 31.68500
H  23.36300 -0.58900 25.29100
H  29.33200 -1.71200 26.46100
H  26.11000 -1.38400 34.22900
H  23.63900 0.08600 33.56000
H  23.15900 -2.65400 32.98200
H  22.53400 -1.69100 34.29000
H  24.12400 -2.65800 34.41200
H  25.36400 1.45500 34.33400
H  26.91100 1.27500 33.76500
H  27.85700 0.51300 35.55900
H  26.50500 -0.36300 36.14000
H  19.64300 1.24900 29.22300
H  20.02800 0.33500 30.68100
H  19.43600 -0.47700 29.23400
H  19.00500 1.33600 25.76300
H  19.69400 1.87500 27.28300
H  19.02700 0.22700 27.18600
H  25.76500 0.02500 24.21600
H  27.28700 -2.47200 24.60700
H  24.14000 -2.41300 24.13000
H  25.51900 -2.59600 23.13100
H  24.42500 -1.23900 22.86100
H  27.93700 -0.54100 22.95100
H  29.12700 -1.27500 23.80300
H  29.12900 0.99600 25.29900
H  27.54300 1.33500 24.74600
H  28.86500 1.25900 23.53600
H  32.13700 -1.17300 28.99400
H  31.19800 -1.46500 27.50800
H  31.58100 -2.84400 28.60300
H  28.87700 0.14800 33.33400
H  29.33400 -3.48100 36.13300
H  27.98600 -2.42800 36.65500
H  29.72100 -2.16300 37.10600
Mg 47.35400 44.85600 43.03000
C  43.88600 44.47400 42.83800
C  47.61400 41.43900 42.60300
C  50.56500 45.30800 42.25300
C  46.85800 48.38300 42.65100
N  45.88100 43.18900 42.86300
C  44.54300 43.24400 42.83600
C  43.93400 41.89200 42.55300
C  45.11800 40.94000 42.79000
C  46.28300 41.85300 42.66400
C  45.15100 39.95800 44.02100
C  43.30500 41.67100 41.10300
C  44.22200 41.98000 39.91100
H  44.91300 40.86400 39.17700
N  48.86600 43.56600 42.64900
C  48.81700 42.15600 42.60500
C  50.18100 41.62700 42.41100
C  51.06700 42.72100 42.15000
C  50.17400 43.93400 42.32800
C  50.51300 40.16300 42.45500
C  52.56700 42.64900 41.71600
O  53.13400 41.56300 41.57300
C  53.36400 43.85500 41.35100
N  48.49500 46.52900 42.35500
C  49.86600 46.47900 42.29100
C  50.58500 47.87300 42.09100
C  49.30200 48.82500 42.10800
C  48.12200 47.89200 42.46000
C  51.68200 48.14200 43.20700
C  49.00300 49.65400 40.83300
C  49.37200 51.16200 40.89800
N  45.69500 46.17600 42.91900
C  45.67500 47.57600 42.82300
C  44.32100 47.98200 42.78300
C  43.47500 46.81300 42.85200
C  44.41000 45.77700 42.87400
C  43.86700 49.32000 42.35300
C  42.18200 46.24900 42.87200
O  41.08900 46.79800 42.93300
C  42.40300 44.69400 42.89300
C  41.75700 44.29300 44.15800
O  42.33300 44.33800 45.23800
O  40.45700 43.83500 43.93100
C  39.68400 43.39500 45.13400
H  47.83400 40.38500 42.41700
H  51.63300 45.49500 42.12000
H  46.78600 49.46900 42.56500
H  43.10400 41.78100 43.25000
H  45.13500 40.32100 41.89300
H  45.94900 40.16900 44.73200
H  45.32600 38.94300 43.66200
H  44.16800 39.88600 44.48600
H  42.37700 42.22000 40.94600
H  42.97500 40.63700 40.99700
H  45.08400 42.60100 40.15500
H  43.71700 42.67400 39.23800
H  49.92400 39.64900 43.21400
H  51.56400 39.97300 42.67300
H  50.30700 39.77000 41.45900
H  52.74700 44.43500 40.66400
H  54.31000 43.59700 40.87700
H  53.56200 44.48800 42.21700
H  51.07400 47.84200 41.11700
H  49.34000 49.53400 42.93500
H  51.80500 47.21900 43.77300
H  51.46900 48.83400 44.02200
H  52.61400 48.36700 42.68900
H  47.92000 49.61600 40.71900
H  49.58000 49.32000 39.97100
H  49.76100 51.60100 41.81700
H  48.47800 51.72000 40.61900
H  50.11100 51.38300 40.12800
H  43.07700 49.17300 41.61700
H  44.69500 49.86100 41.89400
H  43.54300 49.90100 43.21700
H  41.84200 44.16000 42.12600
H  39.49000 44.20300 45.83900
H  40.27300 42.62100 45.62600
H  38.66200 43.10400 44.89200

