158

Mg 49.56400 34.42500 27.77100
C  47.24800 33.69800 30.41100
C  50.23100 37.44400 29.48000
C  51.25800 35.23600 25.16000
C  48.40700 31.49600 26.07100
N  48.92000 35.36900 29.76800
C  47.95000 34.91300 30.62900
C  47.91700 35.75700 31.91400
C  48.62300 37.09000 31.39200
C  49.34200 36.56100 30.13800
C  47.75700 38.32300 31.12800
C  48.69800 35.14800 33.12400
C  47.90800 35.23600 34.43500
H  48.39300 36.20900 35.47100
N  50.62500 36.08700 27.39400
C  50.86300 37.18800 28.18800
C  51.76800 38.07100 27.52000
C  52.03500 37.52300 26.32100
C  51.34100 36.21300 26.28000
C  51.94200 39.45500 28.00900
C  52.62900 38.19400 25.04900
O  52.73200 37.55200 23.99200
C  53.12300 39.58700 25.07500
N  49.73700 33.54500 25.82800
C  50.56200 34.06900 24.92500
C  50.55900 33.28600 23.53700
C  49.90400 31.99100 23.98300
C  49.34300 32.29300 25.42000
C  49.81400 34.14700 22.48000
C  50.96500 30.80200 23.93000
C  50.52800 29.45300 23.30800
N  48.10300 32.89600 28.04600
C  47.75400 31.79300 27.23400
C  46.69300 31.02200 27.99000
C  46.43500 31.83400 29.12000
C  47.36300 32.86400 29.17700
C  46.09100 29.76700 27.65900
C  45.57500 31.86300 30.33900
O  44.74400 31.01800 30.71100
C  46.01600 33.17600 31.13300
C  46.29000 32.56200 32.52900
O  47.39600 32.41600 32.92200
O  45.12200 32.35900 33.24400
C  45.34900 31.87600 34.64100
H  50.29100 38.45900 29.87800
H  51.77900 35.49200 24.23500
H  47.99100 30.57500 25.65700
H  46.85900 35.91300 32.12300
H  49.37000 37.45900 32.09500
H  47.92300 38.70800 30.12200
H  47.91800 39.17800 31.78500
H  46.68300 38.15600 31.20900
H  49.55300 35.79300 33.32600
H  49.02200 34.12700 32.91800
H  48.08200 34.27500 34.91800
H  46.82700 35.35100 34.36200
H  51.49800 39.63900 28.98800
H  51.44500 40.19900 27.38700
H  53.02500 39.56000 27.94300
H  52.28300 40.25000 25.28000
H  53.28500 39.83100 24.02500
H  53.97300 39.74500 25.73800
H  51.56300 33.30600 23.11100
H  49.03300 31.79800 23.35700
H  50.48400 34.63200 21.77000
H  49.22900 34.93200 22.96100
H  49.03300 33.61200 21.94000
H  51.37200 30.60000 24.92100
H  51.82900 31.17300 23.37900
H  49.54500 29.50000 22.83900
H  50.35400 28.67600 24.05300
H  51.25300 29.16900 22.54500
H  45.81800 29.83600 26.60600
H  45.15900 29.71100 28.22200
H  46.88800 29.04700 27.84200
H  45.11400 33.78400 31.20000
H  45.89600 30.93600 34.56700
H  44.43400 31.67200 35.19700
H  46.03400 32.58300 35.10900
Mg 35.88400 48.35500 24.44900
C  36.07700 46.57000 27.41300
C  34.70200 51.10400 26.26000
C  35.37500 49.95900 21.58300
C  36.90100 45.42900 22.75500
N  35.11700 48.66200 26.54500
C  35.50300 47.85800 27.60100
C  35.28000 48.53200 28.97400
C  34.62700 49.88100 28.55000
C  34.91600 49.91900 27.03400
C  33.10500 50.16100 28.92700
C  36.65400 48.75000 29.73400
C  36.74500 48.55000 31.17900
H  35.45400 48.67200 31.97700
N  35.19700 50.31100 23.97800
C  34.83400 51.27800 24.86100
C  34.51500 52.48300 24.16700
C  34.60900 52.14000 22.75900
C  35.07600 50.77100 22.65600
C  34.10900 53.83300 24.88900
C  34.35500 52.95900 21.46200
O  34.44500 52.64000 20.29200
C  33.87100 54.31200 21.79800
N  35.99600 47.72200 22.42100
C  35.81600 48.60100 21.48500
C  36.20500 47.99000 20.07900
C  36.52600 46.45800 20.40100
C  36.48400 46.54800 21.95800
C  35.11200 48.15700 19.01200
C  37.76900 45.89900 19.81400
C  39.06200 46.41300 20.30300
N  36.44400 46.37200 24.92100
C  36.86000 45.38700 24.17300
C  37.32100 44.32100 25.04400
C  37.01700 44.73300 26.35500
C  36.42500 46.00900 26.19100
C  37.78500 42.99800 24.62600
C  37.01600 44.40100 27.70500
O  37.38400 43.36600 28.26100
C  36.42600 45.57000 28.56200
C  35.39600 44.99400 29.39900
O  34.18200 44.95800 29.20600
O  35.93400 44.66500 30.56800
C  35.00200 44.66800 31.67100
H  34.37600 51.98900 26.81200
H  35.01300 50.39600 20.65000
H  37.26200 44.52700 22.25600
H  34.63500 47.84300 29.51900
H  35.15300 50.72600 28.99500
H  32.66000 50.81400 28.17600
H  33.26200 50.74100 29.83600
H  32.50700 49.25300 28.99900
H  37.10300 49.72600 29.55200
H  37.41700 48.16800 29.21800
H  37.50100 49.22700 31.57500
H  37.10900 47.52500 31.25700
H  34.96400 54.47300 24.67200
H  34.06900 53.60600 25.95400
H  33.17700 54.33300 24.62700
H  34.73100 54.85300 22.19200
H  33.00600 54.27900 22.46100
H  33.47200 54.80900 20.91400
H  37.13700 48.41200 19.70300
H  35.66600 45.80000 20.27100
H  34.39100 48.93900 19.24900
H  34.61500 47.20500 18.82600
H  35.64000 48.37900 18.08500
H  37.50100 46.14300 18.78600
H  37.78600 44.82300 19.98500
H  39.62700 46.77600 19.44500
H  39.80400 45.69900 20.66300
H  39.04800 47.19400 21.06400
H  38.84600 42.94600 24.87200
H  37.68400 42.81200 23.55700
H  37.22600 42.16200 25.04700
H  37.19000 45.98300 29.22100
H  34.41600 43.75400 31.57000
H  34.40000 45.57600 31.69000
H  35.54700 44.67100 32.61500

