158

Mg 8.08800 3.36700 27.51200
C  8.99100 1.58500 30.36000
C  6.19900 5.43900 29.47200
C  7.10500 5.02400 24.67600
C  9.72500 1.10300 25.53700
N  7.51100 3.45100 29.73100
C  8.17400 2.72300 30.68600
C  7.84000 3.31800 32.09800
C  7.06400 4.57200 31.72400
C  6.90300 4.48400 30.21700
C  5.66600 4.73800 32.49400
C  9.11100 3.60900 32.99600
C  8.93200 4.71600 34.15100
H  9.55600 4.52200 35.49600
N  6.83300 4.99900 27.18300
C  6.07500 5.61300 28.09600
C  5.15600 6.52600 27.45700
C  5.54000 6.55100 26.04300
C  6.53100 5.54300 25.91300
C  4.00500 7.34900 28.13300
C  4.97900 7.48500 24.99700
O  5.56400 7.51700 23.92100
C  3.83900 8.42400 25.21000
N  8.47000 3.15200 25.30600
C  7.93900 3.93800 24.39000
C  8.12600 3.36100 22.95000
C  9.18300 2.23500 23.26800
C  9.09200 2.10800 24.80900
C  6.75200 2.88700 22.28200
C  10.59300 2.47100 22.68100
C  11.22600 1.15200 22.20400
N  9.21900 1.75600 27.86600
C  9.89200 0.95700 26.93200
C  10.63500 -0.12700 27.68100
C  10.42700 0.20300 29.00900
C  9.35400 1.22500 29.03500
C  11.65500 -1.09300 27.15200
C  10.89100 -0.09100 30.41900
O  11.67500 -0.90800 30.93300
C  9.92500 0.72700 31.29800
C  9.24300 -0.28600 32.21400
O  8.24800 -0.92600 31.87900
O  9.82100 -0.30100 33.40400
C  9.32800 -1.46100 34.26800
H  5.80000 6.26600 30.06300
H  6.80000 5.59000 23.79400
H  10.24700 0.36800 24.92200
H  7.26100 2.49800 32.52100
H  7.69900 5.43900 31.90500
H  5.61500 5.69800 33.00900
H  5.38900 4.00300 33.25000
H  4.90800 4.62400 31.72000
H  9.96200 3.80200 32.34300
H  9.40200 2.68900 33.50300
H  7.86600 4.68500 34.37700
H  9.18800 5.67500 33.70200
H  4.27200 8.40500 28.09000
H  3.96400 7.16400 29.20600
H  3.05400 7.03300 27.70600
H  3.70900 9.00300 24.29600
H  3.96700 9.12600 26.03400
H  2.92700 7.82600 25.20800
H  8.54300 4.05800 22.22400
H  8.77000 1.27900 22.94800
H  5.93500 3.49900 22.66500
H  6.57500 1.82200 22.42800
H  6.91300 3.17500 21.24300
H  11.25400 2.84700 23.46200
H  10.61300 3.26500 21.93400
H  10.62000 0.32100 22.56500
H  12.23100 0.95400 22.57500
H  11.27900 0.90200 21.14400
H  12.14200 -1.73600 27.88600
H  12.35500 -0.53400 26.53100
H  11.15100 -1.83700 26.53500
H  10.64200 1.26400 31.91800
H  10.12500 -1.54800 35.00600
H  9.30300 -2.37000 33.66700
H  8.37400 -1.28700 34.76600
Mg -6.77000 24.91900 25.47800
C  -5.06100 26.26200 28.16900
C  -8.45300 22.71000 27.66100
C  -7.95400 23.23500 22.82100
C  -4.73000 26.76300 23.32100
N  -6.82100 24.58300 27.70500
C  -6.09800 25.37500 28.52000
C  -6.47600 24.93400 30.04700
C  -7.36000 23.60600 29.82700
C  -7.61100 23.66500 28.36100
C  -6.70500 22.20000 30.15800
C  -7.23100 26.01400 30.84700
C  -7.00300 25.99200 32.29900
H  -6.27400 24.79500 32.97300
N  -8.20700 23.37300 25.22500
C  -8.75200 22.60400 26.24800
C  -9.72100 21.68400 25.65800
C  -9.54500 21.79300 24.22500
C  -8.50700 22.79800 24.05100
C  -10.64100 20.78000 26.51700
C  -10.16800 20.96100 23.13400
O  -9.92400 20.99100 21.92100
C  -11.04900 19.79900 23.60400
N  -6.42000 25.03700 23.40800
C  -7.04000 24.27000 22.51900
C  -6.38700 24.32300 21.11800
C  -5.52400 25.59100 21.25700
C  -5.61700 25.87700 22.75100
C  -5.62000 23.03200 20.64600
C  -5.93600 26.82600 20.35700
C  -4.97200 27.26600 19.26100
N  -5.12400 26.16400 25.66800
C  -4.50500 26.98000 24.74000
C  -3.46300 27.74600 25.37200
C  -3.63300 27.50000 26.73000
C  -4.64800 26.51600 26.80600
C  -2.45700 28.73000 24.75000
C  -3.11700 27.73900 28.03900
O  -2.20900 28.47400 28.39100
C  -4.04000 26.98200 29.01000
C  -3.24200 26.03700 29.81100
O  -2.81700 24.96800 29.39600
O  -2.97300 26.47100 31.07600
C  -2.11200 25.80600 32.00700
H  -9.01300 22.03300 28.30900
H  -8.34700 22.74900 21.92600
H  -4.23500 27.43000 22.61200
H  -5.51400 24.64300 30.46900
H  -8.31300 23.72400 30.34100
H  -5.69000 22.48700 30.43500
H  -6.55000 21.62000 29.24800
H  -7.13000 21.65800 31.00300
H  -8.30300 26.03900 30.65500
H  -6.84600 26.98900 30.54800
H  -7.99100 26.14600 32.73100
H  -6.41400 26.84300 32.64000
H  -11.03000 21.52800 27.20800
H  -10.10700 20.01200 27.07700
H  -11.49600 20.34400 26.00100
H  -11.22400 19.03000 22.85100
H  -12.01900 20.19700 23.90100
H  -10.58500 19.19600 24.38500
H  -7.11200 24.67200 20.38400
H  -4.49900 25.25400 21.10400
H  -5.92200 22.80800 19.62200
H  -6.06800 22.23200 21.23400
H  -4.55100 23.17700 20.80300
H  -6.08400 27.62300 21.08600
H  -6.81100 26.61600 19.74100
H  -3.95400 27.09900 19.61000
H  -4.93700 28.32700 19.01100
H  -5.03400 26.71500 18.32300
H  -2.16000 28.24700 23.81900
H  -1.51400 28.79300 25.29300
H  -2.96400 29.67500 24.55700
H  -4.59600 27.68000 29.63600
H  -2.48900 26.11500 32.98200
H  -1.03300 25.94700 31.94600
H  -2.39800 24.75800 31.91100

