158

Mg 44.53500 4.66100 47.49400
C  42.57900 7.49000 47.00500
C  41.70600 2.80700 46.87900
C  46.44600 1.94900 47.40000
C  47.43600 6.69200 47.73900
N  42.40100 5.13300 46.97900
C  41.82900 6.35300 46.93900
C  40.46600 6.16800 46.41200
C  40.09800 4.69600 46.76500
C  41.50500 4.14900 46.86700
C  39.07000 4.48900 47.90600
C  40.28000 6.55100 44.94200
C  38.99700 7.31200 44.58700
H  39.30400 8.39600 43.57600
N  44.13500 2.58600 47.22100
C  42.84600 2.06000 46.92700
C  43.00600 0.61300 46.72600
C  44.43500 0.33100 46.88400
C  45.06100 1.64400 47.21700
C  41.84800 -0.26400 46.27000
C  44.98900 -1.01200 46.53000
O  44.13100 -1.84400 46.14500
C  46.39200 -1.33000 46.55600
N  46.67000 4.40700 47.24100
C  47.20000 3.13300 47.33900
C  48.69700 3.08700 47.38200
C  49.04200 4.60800 47.63900
C  47.66000 5.29100 47.55700
C  49.22800 2.12000 48.48300
C  49.99500 5.18000 46.57700
C  51.38800 5.55900 46.93500
N  44.95200 6.66400 47.36100
C  46.15600 7.35900 47.51200
C  45.90200 8.81700 47.24100
C  44.46900 8.88600 47.29100
C  43.93200 7.54900 47.29400
C  46.98200 9.90400 47.16200
C  43.38200 9.80200 47.07300
O  43.42400 11.02300 46.93300
C  42.10000 8.93700 47.01100
C  41.23700 9.26600 48.17000
O  41.37800 8.75600 49.29000
O  40.20800 10.13900 47.78500
C  39.19300 10.48600 48.76900
H  40.76500 2.30200 46.64900
H  47.01400 1.01800 47.33600
H  48.31600 7.32700 47.85600
H  39.76500 6.71100 47.04600
H  39.57900 4.22800 45.92900
H  38.81700 5.46500 48.32200
H  39.40700 3.90700 48.76300
H  38.18600 3.99300 47.50500
H  40.35500 5.56300 44.48600
H  41.14400 7.07300 44.53200
H  38.50200 7.68000 45.48500
H  38.39000 6.56800 44.07100
H  41.91400 -0.20800 45.18300
H  40.93100 0.12900 46.70700
H  41.86700 -1.32300 46.52900
H  46.81100 -0.70600 45.76700
H  46.50400 -2.39900 46.37100
H  46.69100 -1.12000 47.58300
H  49.01000 2.76600 46.38800
H  49.48200 4.84000 48.60900
H  48.55400 1.34600 48.85100
H  49.63300 2.68900 49.32000
H  50.02200 1.53400 48.02000
H  49.57300 6.06700 46.10400
H  50.16100 4.46900 45.76800
H  51.52000 5.71000 48.00600
H  51.77000 6.48100 46.49700
H  52.11700 4.85400 46.53500
H  47.85500 9.75100 47.79600
H  46.51900 10.84900 47.44700
H  47.18500 9.92600 46.09100
H  41.49900 9.19500 46.13900
H  38.36900 11.00700 48.28200
H  39.44400 11.09500 49.63700
H  38.85600 9.51300 49.12900
Mg 50.12500 45.79400 42.67700
C  46.85300 46.72900 41.52700
C  49.73200 42.85800 40.99100
C  53.41700 45.40600 42.94000
C  50.63100 49.34200 43.33500
N  48.34900 44.93800 41.43400
C  47.15300 45.46300 41.08800
C  46.44200 44.57900 40.03100
C  47.34500 43.29300 40.02200
C  48.57900 43.67600 40.89700
C  46.63500 41.95300 40.40800
C  46.17200 45.19900 38.68700
C  44.67900 45.32300 38.31700
H  44.12500 44.70900 37.04400
N  51.30100 44.23700 42.31400
C  51.04100 43.10500 41.59400
C  52.10700 42.25300 41.73400
C  53.17300 42.90900 42.43500
C  52.64900 44.29000 42.57200
C  52.04700 40.85100 41.15700
C  54.54200 42.38300 42.67200
O  54.86000 41.24300 42.31200
C  55.45200 43.09400 43.54900
N  51.80000 47.16100 43.02600
C  53.06600 46.68800 43.12500
C  54.08600 47.80200 43.38200
C  53.19000 49.03000 43.49500
C  51.74200 48.51500 43.31400
C  55.19500 47.59200 44.51300
C  53.58300 50.22500 42.51400
C  53.75400 51.61100 43.22700
N  48.95000 47.66600 42.71200
C  49.24700 48.97200 43.05200
C  48.07200 49.80200 42.99000
C  47.11300 48.93500 42.39300
C  47.69500 47.69900 42.19300
C  47.91300 51.32900 43.23900
C  45.75700 48.88800 41.87700
O  44.84000 49.73300 41.91800
C  45.54100 47.38100 41.28100
C  44.43200 46.78600 42.04700
O  44.47100 46.33600 43.21900
O  43.31500 46.75600 41.32200
C  42.09600 46.17300 41.94700
H  49.61900 41.87800 40.52200
H  54.50100 45.29800 42.86500
H  50.96500 50.37700 43.43300
H  45.46700 44.26800 40.40700
H  47.68900 43.18300 38.99400
H  46.73500 41.85300 41.48900
H  47.10800 41.05100 40.02000
H  45.61600 41.99600 40.02300
H  46.69600 44.68500 37.88100
H  46.57600 46.20900 38.74500
H  44.60700 46.40700 38.23100
H  44.07700 45.04800 39.18300
H  51.19300 40.67700 40.50200
H  52.07200 40.08900 41.93600
H  52.98300 40.74200 40.60900
H  54.92000 43.77600 44.21200
H  56.18200 43.66700 42.97800
H  55.97600 42.31700 44.10500
H  54.63500 47.92000 42.44800
H  53.30200 49.34900 44.53100
H  55.20500 46.57100 44.89400
H  55.02500 48.15200 45.43300
H  56.21600 47.70600 44.14700
H  52.72500 50.33700 41.85100
H  54.54800 50.13300 42.01400
H  53.54400 51.42900 44.28100
H  52.99300 52.30700 42.87500
H  54.75400 52.03200 43.12700
H  48.37300 51.80100 42.37100
H  48.61400 51.53000 44.05000
H  46.89200 51.70300 43.31600
H  45.22300 47.55600 40.25300
H  41.82600 46.79200 42.80200
H  42.28400 45.14600 42.26000
H  41.37300 46.21800 41.13200

