158

Mg 1.76100 -2.07300 43.44400
C  5.37000 -2.23600 42.79100
C  1.69700 0.82300 41.64900
C  -1.66400 -2.45000 43.08400
C  1.98900 -5.36100 44.56400
N  3.43200 -0.79400 42.52700
C  4.80000 -1.03400 42.37900
C  5.43500 0.16300 41.69500
C  4.30600 1.13500 41.46900
C  3.00900 0.36000 41.82600
C  4.48900 2.58800 42.02200
C  6.12100 -0.24200 40.35400
C  6.76300 0.80800 39.53600
H  6.14200 1.05300 38.17600
N  0.17600 -0.92400 42.67700
C  0.38300 0.26100 41.95400
C  -0.83600 0.78100 41.47600
C  -1.82700 -0.15100 41.85200
C  -1.13400 -1.24600 42.59800
C  -0.98200 2.04800 40.68700
C  -3.35100 0.07500 41.70900
O  -3.86200 1.04700 41.15200
C  -4.33100 -0.83900 42.42700
N  0.35600 -3.67900 43.78100
C  -0.96200 -3.54400 43.60500
C  -1.64800 -4.85300 43.95800
C  -0.47400 -5.82000 44.50500
C  0.68900 -4.90600 44.38600
C  -2.88700 -4.75700 44.90300
C  -0.45600 -7.18900 43.70500
C  -1.55100 -8.20200 44.09500
N  3.28000 -3.57400 43.71500
C  3.19600 -4.84000 44.17900
C  4.56300 -5.34600 44.32600
C  5.43000 -4.35400 43.79100
C  4.59600 -3.33700 43.38900
C  5.03100 -6.61200 44.98700
C  6.84200 -3.99300 43.50500
O  7.88400 -4.59000 43.71100
C  6.79800 -2.67400 42.66500
C  7.81500 -1.74200 43.08200
O  8.88300 -1.61400 42.48700
O  7.41700 -1.05600 44.21800
C  8.46500 -0.14800 44.71300
H  1.70300 1.69200 40.98800
H  -2.71700 -2.66000 42.89000
H  1.96900 -6.40100 44.89500
H  6.18100 0.53900 42.39600
H  4.21900 1.29400 40.39400
H  3.51400 2.85500 42.43000
H  4.69200 3.31600 41.23600
H  5.22900 2.62500 42.82100
H  5.44100 -0.79700 39.70800
H  6.97300 -0.85300 40.65200
H  7.83800 0.68500 39.41000
H  6.56800 1.71000 40.11600
H  -1.99300 2.44600 40.77500
H  -0.68700 1.77000 39.67500
H  -0.28800 2.81700 41.02400
H  -5.37800 -0.53300 42.43000
H  -4.04100 -1.08500 43.44800
H  -4.35600 -1.81300 41.93900
H  -2.12900 -5.19000 43.03900
H  -0.63200 -6.03700 45.56100
H  -3.03300 -3.74200 45.27100
H  -2.90000 -5.48300 45.71600
H  -3.78000 -5.00100 44.32800
H  0.47500 -7.72700 43.88500
H  -0.43600 -6.98300 42.63500
H  -2.38000 -7.58600 44.44500
H  -1.37200 -8.98100 44.83700
H  -1.84900 -8.75300 43.20300
H  4.73900 -7.45900 44.36500
H  4.67900 -6.65400 46.01700
H  6.10600 -6.76500 45.08000
H  7.03800 -2.98600 41.64900
H  9.12100 -0.87900 45.18500
H  8.13000 0.47000 45.54600
H  9.02900 0.48100 44.02500
Mg 47.96200 16.41900 29.42100
C  45.48100 15.64400 31.70300
C  49.78000 17.84200 31.75800
C  49.88600 17.26800 26.95100
C  45.66800 15.08200 26.89400
N  47.55700 16.77500 31.45600
C  46.59100 16.20500 32.23000
C  46.82600 16.45300 33.76100
C  48.21700 17.18200 33.75600
C  48.52200 17.29600 32.20800
C  48.17200 18.61000 34.46400
C  46.75200 15.23000 34.73700
C  47.53500 15.31100 36.07000
H  47.45100 16.65200 36.76800
N  49.58500 17.48900 29.30800
C  50.20000 18.00700 30.42400
C  51.48800 18.67000 29.96100
C  51.51000 18.56800 28.55000
C  50.31000 17.73100 28.19900
C  52.47600 19.37900 30.97600
C  52.57800 18.96600 27.63000
O  52.56900 18.55700 26.43600
C  53.70700 19.82600 28.01500
N  47.70600 16.22600 27.20400
C  48.78600 16.59300 26.47600
C  48.62000 16.19700 25.03400
C  47.30700 15.34300 24.99000
C  46.89100 15.42100 26.46900
C  48.62000 17.27600 23.88600
C  47.40600 13.84400 24.47600
C  47.11800 13.71700 22.91200
N  45.91800 15.55900 29.24600
C  45.11300 15.15200 28.22600
C  43.85300 14.59200 28.78200
C  43.90300 14.86800 30.18500
C  45.18000 15.46200 30.31700
C  42.72400 13.96400 27.97800
C  43.20600 14.77100 31.45800
O  42.13000 14.33200 31.81700
C  44.24800 15.25400 32.48300
C  43.68900 16.36400 33.36000
O  43.53300 17.55800 33.07900
O  43.27100 15.73800 34.57000
C  42.57400 16.68500 35.46600
H  50.47500 18.11800 32.55500
H  50.60400 17.38200 26.13600
H  45.02100 14.65000 26.12800
H  46.05800 17.17700 34.03200
H  49.04400 16.59200 34.15200
H  47.21300 18.79700 34.94700
H  48.32000 19.26200 33.60300
H  49.04000 18.76600 35.10400
H  47.20900 14.39700 34.20300
H  45.68500 15.08700 34.91300
H  48.59900 15.12400 35.92400
H  47.10800 14.50800 36.67000
H  53.11600 18.69500 31.53400
H  51.78900 19.73800 31.74200
H  53.03300 20.29200 30.76200
H  53.32600 20.78600 28.36100
H  54.43300 19.85500 27.20200
H  54.20500 19.35300 28.86100
H  49.44800 15.51300 24.84900
H  46.43600 15.72500 24.45900
H  48.52900 18.21300 24.43500
H  47.78600 17.15700 23.19500
H  49.54900 17.16200 23.32700
H  46.70900 13.29500 25.11000
H  48.38000 13.47300 24.79500
H  46.97500 14.66200 22.38800
H  46.23100 13.08700 22.83800
H  47.94800 13.23900 22.39200
H  42.70600 12.87600 28.03200
H  42.93300 14.30600 26.96400
H  41.72400 14.37300 28.12100
H  44.51800 14.32900 32.99200
H  41.69100 17.10600 34.98400
H  43.31400 17.40900 35.80600
H  42.31200 16.15600 36.38300

