158

Mg 52.69200 23.23700 44.84500
C  49.86500 25.02800 44.00800
C  51.43200 20.53000 43.41000
C  55.84800 21.93100 44.96700
C  54.23100 26.39400 45.81400
N  50.84900 22.85800 43.79100
C  49.75500 23.65800 43.55000
C  48.60900 22.90800 42.91800
C  49.03100 21.48100 43.26200
C  50.54900 21.57700 43.52100
C  48.15500 20.64400 44.33800
C  48.59400 23.28300 41.33200
C  47.33200 22.74300 40.56800
H  47.28800 23.23700 39.07900
N  53.45700 21.43600 44.39400
C  52.79200 20.40600 43.74000
C  53.67800 19.23500 43.66600
C  54.96100 19.62300 44.15000
C  54.79700 21.03900 44.54700
C  53.31800 17.80600 43.13100
C  56.21000 18.72800 44.25700
O  56.19300 17.59000 43.82400
C  57.48600 19.19900 45.00400
N  54.79000 23.98600 45.42100
C  55.80800 23.20900 45.47800
C  57.05100 23.97700 46.04700
C  56.55900 25.37200 46.14700
C  55.08100 25.31400 45.74600
C  57.57100 23.42100 47.36600
C  57.34700 26.39900 45.33700
C  57.59900 27.76500 46.06600
N  52.14100 25.35700 45.06600
C  52.83700 26.42600 45.52700
C  51.95400 27.52800 45.60500
C  50.79600 27.10100 44.97800
C  50.97300 25.72400 44.58100
C  52.17700 28.81400 46.33300
C  49.48700 27.43900 44.55500
O  48.82900 28.48300 44.58800
C  48.80900 26.09800 43.81500
C  48.42900 26.48500 42.41000
O  49.12900 26.63000 41.38900
O  47.14200 26.94800 42.44800
C  46.61900 27.74900 41.30600
H  50.95100 19.65700 42.96300
H  56.86700 21.54500 44.89800
H  54.67300 27.30700 46.22000
H  47.66800 23.15500 43.40900
H  49.02200 20.74000 42.46300
H  47.34000 20.19400 43.77200
H  47.51400 21.27400 44.95500
H  48.72200 19.97600 44.98700
H  49.45100 22.79700 40.86700
H  48.81800 24.31800 41.07700
H  46.43300 23.12700 41.04900
H  47.21900 21.65900 40.60600
H  53.52000 17.10000 43.93700
H  53.97500 17.68900 42.26900
H  52.33500 17.67800 42.67800
H  58.10400 18.32400 45.20800
H  57.25300 19.66700 45.96100
H  58.03000 19.87900 44.34900
H  57.79000 23.82000 45.26100
H  56.66400 25.71300 47.17700
H  56.98000 23.84600 48.17800
H  58.57900 23.77800 47.57400
H  57.52200 22.33900 47.49200
H  56.74500 26.64200 44.46100
H  58.33500 26.01800 45.07900
H  58.65200 27.98300 46.24600
H  57.01700 27.80300 46.98600
H  57.20700 28.55500 45.42500
H  52.47300 29.52900 45.56600
H  53.01500 28.73400 47.02600
H  51.27400 29.08000 46.88300
H  47.99300 25.76300 44.45400
H  46.73300 27.37800 40.28800
H  47.26400 28.61900 41.18700
H  45.64700 28.14200 41.60200
Mg 36.16600 49.48200 25.98500
C  35.67600 47.61300 28.97700
C  35.84200 52.34500 27.65200
C  35.90900 51.00600 23.06700
C  36.54700 46.47200 24.26100
N  35.76500 49.93300 28.06300
C  35.64300 49.04000 29.14300
C  35.38800 49.82700 30.44100
C  35.70300 51.37800 30.01600
C  35.89200 51.17400 28.48800
C  34.53900 52.35600 30.47500
C  36.33100 49.37600 31.64000
C  35.70200 48.82000 32.86900
H  34.23700 49.17700 33.17900
N  35.85500 51.42200 25.42000
C  35.79400 52.45200 26.28900
C  35.64400 53.66800 25.55400
C  35.60100 53.34900 24.15000
C  35.83500 51.86200 24.16400
C  35.47500 55.01500 26.13700
C  35.41300 54.17600 22.90600
O  35.53800 53.78100 21.77900
C  35.33100 55.71300 23.05400
N  36.00800 48.78500 23.94700
C  35.89000 49.65500 22.94700
C  36.09000 48.97000 21.57300
C  36.50900 47.51200 21.96300
C  36.26700 47.58700 23.46500
C  34.92500 49.01800 20.50900
C  38.00400 47.15800 21.61200
C  38.12300 45.97700 20.60000
N  36.16400 47.38500 26.48200
C  36.39600 46.30900 25.65500
C  36.42600 45.10800 26.45800
C  36.13500 45.56500 27.83000
C  36.01000 46.97900 27.75000
C  36.67100 43.68300 26.08300
C  36.06200 45.12000 29.21100
O  36.27400 44.01600 29.75600
C  35.62500 46.53000 30.01600
C  34.33400 46.28700 30.66700
O  33.29300 46.69200 30.17000
O  34.49700 45.48600 31.78100
C  33.32600 45.18000 32.50000
H  35.92600 53.26500 28.23400
H  35.94400 51.52600 22.10700
H  36.75300 45.63400 23.59100
H  34.34200 49.77500 30.74500
H  36.61600 51.83500 30.39700
H  34.98900 53.16900 31.04600
H  33.93400 51.81200 31.20100
H  33.88500 52.70600 29.67700
H  36.94800 50.19900 31.99900
H  36.86700 48.52700 31.21500
H  36.23800 49.22300 33.72900
H  35.76400 47.73200 32.90100
H  36.29700 55.68100 25.87600
H  35.37700 55.02500 27.22200
H  34.59200 55.45500 25.67400
H  36.26500 56.04600 23.50500
H  34.43600 56.10500 23.53600
H  35.33900 56.05000 22.01700
H  36.94600 49.50600 21.16300
H  35.79700 46.83500 21.49000
H  34.96200 49.86600 19.82400
H  33.92200 49.07000 20.93200
H  35.00900 48.11400 19.90500
H  38.58500 46.90700 22.50000
H  38.42800 48.06600 21.18200
H  38.80700 46.36000 19.84200
H  37.20200 45.81400 20.04000
H  38.39700 45.03500 21.07700
H  37.70300 43.53200 26.40000
H  36.52900 43.48700 25.02100
H  36.04400 43.06200 26.72400
H  36.35700 46.56300 30.82300
H  32.82900 46.12100 32.73500
H  33.54300 44.59300 33.39300
H  32.60800 44.57500 31.94700

