158

Mg 27.31300 49.82300 25.88100
C  25.56100 51.10800 28.45000
C  29.90500 48.93600 28.16100
C  29.11200 48.50300 23.21400
C  25.05100 50.88700 23.58600
N  27.72600 49.99200 28.02800
C  26.72100 50.40800 28.91900
C  27.08000 50.03800 30.33900
C  28.62100 49.66500 30.23900
C  28.79900 49.54300 28.73200
C  29.55600 50.77400 30.75200
C  26.16900 48.88200 30.92200
C  25.53700 49.17100 32.33100
H  26.31700 49.66900 33.51500
N  29.21500 48.89000 25.72900
C  30.12200 48.58800 26.77100
C  31.27300 47.80400 26.20000
C  30.91800 47.57300 24.84300
C  29.62900 48.29100 24.56000
C  32.50200 47.36100 27.01900
C  31.68100 46.71900 23.91700
O  31.45200 46.55100 22.72900
C  32.78500 45.85200 24.34900
N  27.19500 49.89300 23.62900
C  27.98600 49.15400 22.83200
C  27.41400 49.11100 21.37400
C  26.09800 49.96800 21.55300
C  26.14000 50.33800 22.95800
C  28.36300 49.69000 20.27100
C  24.85100 49.18400 21.17100
C  24.52400 48.99700 19.67900
N  25.68800 50.89000 25.97200
C  24.79900 51.24600 24.95800
C  23.64400 51.93600 25.57600
C  23.92600 51.82200 26.98800
C  25.17300 51.20200 27.13200
C  22.56700 52.68000 24.79800
C  23.45400 52.17200 28.31200
O  22.46800 52.87200 28.62000
C  24.46000 51.60200 29.31800
C  24.92700 52.67900 30.26600
O  25.62200 53.65900 29.98400
O  24.43500 52.42700 31.53100
C  25.08700 53.09500 32.59800
H  30.66500 48.68700 28.90400
H  29.54200 47.88600 22.42300
H  24.20900 51.15200 22.94300
H  27.01100 50.91600 30.98200
H  28.84900 48.73200 30.75400
H  29.78500 50.57700 31.79900
H  28.99900 51.70100 30.62000
H  30.48200 50.79100 30.17600
H  26.78700 47.99600 31.06500
H  25.45100 48.63400 30.14000
H  25.04500 48.25700 32.66500
H  24.70100 49.87100 32.31300
H  32.46700 47.49000 28.10100
H  33.24200 48.04800 26.60800
H  32.78700 46.32400 26.84100
H  32.31300 45.05200 24.92000
H  33.51700 46.49500 24.83800
H  33.25400 45.40600 23.47200
H  27.16700 48.11000 21.01900
H  26.17700 50.81600 20.87300
H  29.34600 49.78900 20.73200
H  28.10800 50.70900 19.97900
H  28.44100 49.11300 19.34900
H  23.90900 49.50300 21.61600
H  25.00400 48.19900 21.61200
H  23.47000 49.03900 19.40500
H  24.82700 47.95200 19.62100
H  25.19900 49.53400 19.01200
H  22.54100 52.57400 23.71400
H  22.59300 53.75700 24.96000
H  21.63000 52.37500 25.26500
H  24.02100 50.81900 29.93600
H  24.87300 54.16200 32.53300
H  26.14400 52.83800 32.66500
H  24.67100 52.71900 33.53300
Mg 17.40400 51.51400 26.11900
C  19.36800 50.01500 28.50900
C  15.00800 52.14300 28.28700
C  15.63800 52.94800 23.60300
C  19.82200 50.53900 23.64800
N  17.15200 50.85900 28.13600
C  18.16300 50.47500 28.98100
C  17.77000 50.80300 30.47800
C  16.19300 51.06300 30.35900
C  16.07300 51.36700 28.84900
C  15.27500 49.85400 30.85900
C  18.76000 51.87200 30.97100
C  18.49900 52.44400 32.41400
H  17.50200 51.80600 33.30600
N  15.63500 52.52900 26.01000
C  14.78600 52.63700 27.04100
C  13.60200 53.28200 26.61700
C  13.73400 53.47800 25.18500
C  15.05500 53.05300 24.90500
C  12.52600 53.65500 27.61100
C  12.72400 54.13200 24.27500
O  13.01300 54.48100 23.13400
C  11.28900 54.44600 24.74700
N  17.70200 51.58400 23.93500
C  16.79600 52.26400 23.18500
C  17.27700 52.46000 21.66900
C  18.70800 51.76100 21.72500
C  18.72900 51.23100 23.20100
C  16.28200 51.98800 20.54800
C  19.88900 52.60600 21.35200
C  20.84500 51.96500 20.30800
N  19.24800 50.43000 25.98800
C  20.08800 50.03500 24.94700
C  21.19700 49.27600 25.49600
C  20.96100 49.30300 26.91500
C  19.76600 49.93400 27.09600
C  22.27300 48.68900 24.70100
C  21.46200 48.81500 28.18000
O  22.41900 48.10200 28.46000
C  20.60300 49.42600 29.24400
C  20.28100 48.45400 30.33500
O  19.66200 47.41600 30.14700
O  20.53300 49.03500 31.53800
C  20.00900 48.35700 32.69800
H  14.22400 52.11100 29.04600
H  15.00400 53.30700 22.79000
H  20.57000 50.29800 22.89100
H  18.01300 49.89100 31.02300
H  16.00600 51.90400 31.02700
H  14.40100 50.21800 31.40000
H  15.87500 49.27000 31.55800
H  15.11600 49.28300 29.94500
H  18.84100 52.72400 30.29600
H  19.80400 51.60600 31.13800
H  18.28100 53.49900 32.25300
H  19.34800 52.53800 33.09100
H  12.15800 54.64000 27.32600
H  12.90100 53.67400 28.63400
H  11.76300 52.90500 27.39900
H  10.84700 53.69500 25.40200
H  10.74600 54.58000 23.81200
H  11.31700 55.40000 25.27300
H  17.36300 53.53900 21.54300
H  18.68600 50.89900 21.05800
H  16.86200 51.34600 19.88500
H  16.04900 52.86500 19.94500
H  15.41700 51.43400 20.91200
H  20.47400 52.92000 22.21600
H  19.50200 53.51000 20.88000
H  20.22600 51.41900 19.59700
H  21.46600 51.27600 20.88100
H  21.46400 52.66300 19.74500
H  22.73400 49.39000 24.00400
H  21.86800 47.79000 24.23700
H  23.10600 48.35400 25.32000
H  21.24400 50.20100 29.66500
H  20.23400 49.03600 33.52000
H  20.49100 47.50000 33.16700
H  18.94800 48.10600 32.66900

