158

Mg 16.87600 52.08900 26.54900
C  19.22600 50.67900 28.84400
C  14.87500 52.69300 29.17400
C  14.84300 53.11400 24.40800
C  19.06300 50.79700 23.95700
N  17.15500 51.84400 28.69800
C  18.14500 51.22500 29.43700
C  17.77900 51.26500 30.92200
C  16.23800 51.51600 30.97500
C  16.03300 51.98700 29.50600
C  15.44900 50.26600 31.07600
C  18.58700 52.23200 31.76500
C  18.58600 52.02800 33.32000
H  17.70100 50.87600 33.93800
N  15.16800 52.94800 26.76000
C  14.47900 53.10800 27.89000
C  13.27200 53.83200 27.58800
C  13.19700 53.97400 26.15100
C  14.38500 53.28300 25.67800
C  12.35300 54.30500 28.60500
C  12.09600 54.55500 25.20600
O  12.23600 54.66000 24.01400
C  10.86700 55.07700 25.80700
N  16.91500 51.84600 24.43900
C  15.88600 52.43500 23.81200
C  16.14000 52.49000 22.27200
C  17.65200 52.05600 22.14500
C  17.95100 51.58900 23.57700
C  15.08600 51.59400 21.47800
C  18.67000 53.22500 21.81500
C  19.16400 53.22000 20.38600
N  18.74800 50.94800 26.38000
C  19.47700 50.55300 25.28000
C  20.76600 49.97000 25.77400
C  20.66600 49.93400 27.12000
C  19.47000 50.61700 27.45000
C  21.86400 49.42300 24.91500
C  21.32900 49.53300 28.36500
O  22.30800 48.91500 28.56100
C  20.47000 50.06200 29.53400
C  20.19600 48.89400 30.41700
O  20.03100 47.74900 30.01700
O  20.25200 49.21400 31.78700
C  20.44900 48.05900 32.70800
H  14.26500 52.87700 30.06100
H  14.19800 53.59000 23.66700
H  19.81600 50.54400 23.20800
H  17.88800 50.23800 31.27100
H  15.84600 52.27300 31.65500
H  15.63100 49.57700 30.25100
H  14.39900 50.53600 31.19500
H  15.63500 49.80100 32.04400
H  18.27000 53.26200 31.60500
H  19.58200 52.16200 31.32700
H  18.22500 52.96800 33.73800
H  19.62800 51.83200 33.57200
H  11.59600 53.53000 28.72400
H  11.98700 55.29200 28.32200
H  12.81400 54.44500 29.58300
H  10.13000 55.48600 25.11600
H  11.13700 55.95900 26.38700
H  10.34800 54.28200 26.34200
H  15.88800 53.50200 21.95700
H  17.59600 51.25700 21.40500
H  15.59000 50.99000 20.72400
H  14.29200 52.20500 21.04800
H  14.50600 50.92900 22.11800
H  19.53800 53.14600 22.47000
H  18.09600 54.14300 21.93600
H  18.55500 53.94000 19.83900
H  18.92700 52.22400 20.01100
H  20.22000 53.48600 20.34500
H  21.92700 49.82300 23.90300
H  21.73000 48.34400 24.84000
H  22.77900 49.65900 25.45900
H  21.01800 50.81500 30.10100
H  21.12600 48.26600 33.53700
H  20.82100 47.17600 32.18700
H  19.56600 47.67100 33.21500
Mg -10.18200 39.05600 41.23400
C  -9.00000 35.81300 40.70500
C  -7.13300 40.13700 39.96900
C  -11.32700 42.20100 41.01600
C  -13.39300 37.81600 41.96400
N  -8.35500 38.02500 40.27000
C  -8.08900 36.71100 40.22600
C  -6.75700 36.55100 39.43000
C  -6.03500 37.89700 39.62000
C  -7.26500 38.74400 39.98000
C  -4.95300 37.92000 40.69100
C  -7.08300 36.12300 37.96200
C  -6.11700 35.12600 37.31300
H  -5.70400 35.71300 35.94500
N  -9.37300 40.94800 40.62300
C  -8.09100 41.18800 40.17600
C  -7.85800 42.55700 39.99200
C  -9.06700 43.14400 40.33000
C  -9.98900 42.10600 40.62800
C  -6.64200 43.17800 39.43200
C  -9.35300 44.68500 40.31800
O  -8.44600 45.50700 39.98600
C  -10.74100 45.29300 40.55400
N  -12.18100 39.93900 41.24400
C  -12.34500 41.28600 41.30800
C  -13.78200 41.63300 41.86500
C  -14.42400 40.16400 42.03200
C  -13.26500 39.19400 41.70700
C  -13.92200 42.52200 43.01100
C  -15.73500 39.84300 41.13400
C  -16.87900 39.24300 41.87200
N  -11.02000 37.24800 41.34300
C  -12.32700 36.88500 41.81800
C  -12.42300 35.44800 41.89200
C  -11.14100 34.96400 41.46400
C  -10.31700 36.12300 41.13300
C  -13.54800 34.55800 42.35300
C  -10.30500 33.82000 41.27900
O  -10.52000 32.64300 41.46400
C  -8.91900 34.30400 40.76300
C  -7.75100 33.80200 41.54600
O  -6.94600 32.98100 41.14500
O  -7.84500 34.16400 42.86900
C  -6.93400 33.64600 43.85500
H  -6.15700 40.43700 39.58200
H  -11.73300 43.19100 41.23300
H  -14.40800 37.52200 42.23500
H  -6.25200 35.71400 39.91300
H  -5.65700 38.17300 38.63600
H  -4.63500 36.92600 41.00700
H  -5.31200 38.45900 41.56800
H  -4.17600 38.47100 40.16100
H  -7.24000 37.02600 37.37200
H  -8.04400 35.61400 38.03100
H  -6.70600 34.22100 37.17000
H  -5.24100 34.87200 37.91000
H  -6.74800 43.26900 38.35100
H  -5.75700 42.54200 39.46700
H  -6.40800 44.14300 39.88100
H  -11.38500 44.98600 39.73000
H  -10.61100 46.37500 40.53500
H  -11.16700 44.95500 41.49900
H  -14.37400 42.16600 41.12200
H  -14.68900 40.09500 43.08700
H  -14.91000 42.51000 43.47200
H  -13.83800 43.58400 42.77700
H  -13.07600 42.26400 43.64800
H  -15.56800 39.17000 40.29300
H  -16.18000 40.74800 40.72000
H  -17.70800 39.93400 42.02900
H  -16.52800 38.97400 42.86800
H  -17.34400 38.39300 41.37300
H  -13.26000 33.62900 42.84400
H  -13.93600 34.13100 41.42800
H  -14.21500 35.11200 43.01300
H  -8.78300 33.90100 39.76000
H  -6.23400 32.87600 43.53200
H  -7.45800 33.25200 44.72600
H  -6.40000 34.51800 44.23300

