158

Mg 26.36200 50.83600 26.48500
C  24.49700 52.02700 29.25400
C  28.87700 50.03800 28.85800
C  28.05800 49.79800 24.00300
C  23.96500 52.44800 24.43900
N  26.66500 51.17700 28.81100
C  25.63000 51.29400 29.68600
C  25.96700 50.99200 31.17500
C  27.40000 50.37400 30.98100
C  27.72600 50.54700 29.41900
C  28.47400 50.95200 31.92200
C  24.85200 50.22000 32.05900
C  25.43600 49.33400 33.28200
H  24.90100 49.71900 34.72400
N  28.18700 49.93900 26.42300
C  29.12400 49.72600 27.47300
C  30.29600 49.10800 26.80300
C  29.95700 48.83800 25.46700
C  28.72800 49.56900 25.24400
C  31.49600 48.70100 27.60200
C  30.72400 47.97600 24.47200
O  30.28200 47.70600 23.33900
C  32.11000 47.39600 24.81600
N  26.17100 51.25700 24.44400
C  26.93200 50.55400 23.58600
C  26.42500 50.59900 22.20500
C  25.09600 51.42400 22.33200
C  25.07300 51.86900 23.80900
C  27.46500 51.19300 21.20100
C  23.81200 50.68000 21.88200
C  22.77200 51.49400 21.06700
N  24.66100 52.09300 26.73900
C  23.75900 52.62400 25.80600
C  22.66700 53.22600 26.46100
C  22.93600 53.07700 27.78800
C  24.11400 52.36100 27.92900
C  21.55900 53.92400 25.75800
C  22.36800 53.30400 29.14400
O  21.37600 53.92900 29.52200
C  23.42600 52.63100 30.12300
C  23.88300 53.67200 31.09300
O  24.55600 54.70900 30.81700
O  23.27600 53.41000 32.28500
C  23.34800 54.41000 33.37400
H  29.65900 49.66500 29.52300
H  28.68100 49.39100 23.20300
H  23.22100 52.81500 23.72800
H  26.09700 51.92000 31.73100
H  27.44700 49.30300 31.17600
H  29.26800 51.39900 31.32400
H  28.98600 50.15500 32.46200
H  28.09800 51.64700 32.67400
H  24.27400 49.56700 31.40400
H  24.06300 50.83200 32.49600
H  26.51800 49.29900 33.15700
H  25.04500 48.32300 33.16200
H  31.34200 48.96400 28.64900
H  32.35400 49.24000 27.20000
H  31.71500 47.63500 27.55400
H  32.72800 48.06200 25.41900
H  32.59500 46.98400 23.93200
H  31.89200 46.59400 25.52100
H  26.29400 49.57900 21.84400
H  25.21700 52.38500 21.83300
H  28.31800 51.48600 21.81400
H  27.08300 52.08600 20.70500
H  27.67900 50.41100 20.47300
H  23.28400 50.29900 22.75600
H  24.01100 49.85200 21.20200
H  21.80000 51.33400 21.53400
H  22.83100 51.11900 20.04600
H  23.03900 52.54900 21.00700
H  21.18400 53.29100 24.95400
H  21.84000 54.91300 25.39500
H  20.70200 54.12200 26.40300
H  22.87300 51.83600 30.62400
H  23.76000 55.36200 33.04000
H  24.08500 54.11500 34.12100
H  22.40600 54.67800 33.85200
Mg -12.20100 39.42600 40.08100
C  -10.57400 36.22900 39.85000
C  -9.05200 40.91800 39.04500
C  -13.76700 42.15900 39.63800
C  -15.16300 37.64400 40.76400
N  -10.09500 38.63100 39.50100
C  -9.72300 37.27000 39.39400
C  -8.42700 37.15900 38.59300
C  -7.81000 38.53300 38.97600
C  -9.06900 39.46200 39.13000
C  -7.01200 38.49400 40.22500
C  -8.76500 36.92000 37.07700
C  -7.64800 36.20300 36.31900
H  -7.93800 35.49700 34.94600
N  -11.44300 41.26100 39.58100
C  -10.18400 41.68700 39.20300
C  -10.25000 43.09600 39.20100
C  -11.56900 43.56500 39.42700
C  -12.34200 42.27900 39.51400
C  -8.95000 43.97400 38.92100
C  -12.03500 45.02400 39.51200
O  -11.31500 46.00000 39.30900
C  -13.41700 45.33400 39.99900
N  -14.26000 39.82300 39.93500
C  -14.64300 41.09000 39.91500
C  -16.16900 41.18200 39.98500
C  -16.50800 39.78100 40.62100
C  -15.24900 39.04300 40.43900
C  -16.76600 42.43500 40.68300
C  -17.69200 39.06300 39.86500
C  -18.87800 38.45600 40.61400
N  -12.77800 37.37700 40.35300
C  -14.00300 36.82800 40.61200
C  -13.87900 35.43100 40.80900
C  -12.50100 35.16800 40.59600
C  -11.90200 36.37900 40.22700
C  -15.00900 34.52100 41.21000
C  -11.53300 34.04600 40.41100
O  -11.71100 32.79400 40.46800
C  -10.24300 34.77300 39.92500
C  -9.13500 34.50200 40.90900
O  -9.25800 34.51500 42.10400
O  -7.91700 34.28900 40.30300
C  -6.82000 34.17000 41.22100
H  -8.09900 41.43400 38.90800
H  -14.18300 43.14200 39.41100
H  -16.09500 37.16400 41.06900
H  -7.74500 36.41000 38.99500
H  -7.07900 38.84600 38.23000
H  -6.01800 38.81400 39.91400
H  -7.02200 37.55700 40.78200
H  -7.37100 39.29600 40.86900
H  -8.92000 37.88100 36.58700
H  -9.72200 36.41300 36.96200
H  -7.28600 35.48800 37.05800
H  -6.87900 36.95800 36.15700
H  -8.17400 43.41300 38.40100
H  -8.55100 44.30100 39.88100
H  -9.15500 44.92700 38.43300
H  -13.46800 46.34300 40.40700
H  -13.65700 44.60400 40.77200
H  -14.17000 45.20800 39.22100
H  -16.41900 41.22400 38.92500
H  -16.87000 39.91300 41.64100
H  -17.66900 42.67900 40.12400
H  -16.10900 43.30500 40.65900
H  -17.17500 42.13100 41.64700
H  -17.27500 38.27500 39.23700
H  -18.16400 39.80700 39.22200
H  -19.06500 37.47600 40.17500
H  -19.76900 39.08400 40.61700
H  -18.54400 38.38400 41.64900
H  -15.62700 34.98000 41.98200
H  -14.65900 33.61100 41.69600
H  -15.54700 34.29900 40.28800
H  -9.95300 34.21200 39.03700
H  -6.06400 34.25300 40.44000
H  -6.78200 33.13100 41.54700
H  -6.72700 34.91500 42.01100

