158

Mg 30.61000 58.17100 40.21500
C  27.91100 55.94100 39.47400
C  32.74800 55.76400 38.83200
C  33.05000 60.50700 40.29000
C  28.23400 60.72700 40.79400
N  30.26000 56.19900 39.05500
C  29.14500 55.45600 39.01700
C  29.44800 54.12100 38.33900
C  30.95800 53.90600 38.64800
C  31.40500 55.30500 38.84900
C  31.26500 52.92100 39.81900
C  29.15800 54.22300 36.80800
C  28.01900 53.34100 36.34100
H  27.16600 54.07500 35.37400
N  32.63200 58.07900 39.82500
C  33.28600 57.05900 39.15600
C  34.68300 57.50000 39.07100
C  34.84300 58.82800 39.58600
C  33.45700 59.19900 39.90500
C  35.82000 56.63300 38.50400
C  36.21300 59.55800 39.52500
O  37.20700 58.97800 39.07100
C  36.39000 61.04800 39.70900
N  30.61700 60.33000 40.49700
C  31.79500 61.03300 40.62700
C  31.55800 62.59400 40.78500
C  30.00400 62.67400 40.94400
C  29.56600 61.17400 40.72000
C  32.48200 63.37600 41.81800
C  29.26200 63.79100 40.19500
C  28.57800 63.58900 38.78300
N  28.47400 58.39400 40.18900
C  27.65800 59.42600 40.55400
C  26.25900 59.01200 40.54300
C  26.33600 57.64700 40.14200
C  27.68000 57.28700 39.92800
C  25.10300 59.91300 40.71100
C  25.53600 56.46400 39.75800
O  24.34300 56.33500 39.61200
C  26.56800 55.28500 39.32100
C  26.24900 54.15600 40.23200
O  26.73800 54.08900 41.32500
O  25.42500 53.23900 39.65700
C  25.33000 51.93300 40.36400
H  33.54500 55.04900 38.61500
H  33.78700 61.29400 40.46600
H  27.47300 61.39500 41.20100
H  28.85500 53.42800 38.93600
H  31.43600 53.44900 37.78100
H  30.42900 52.63300 40.45600
H  32.15900 53.20000 40.37900
H  31.63000 51.98300 39.40100
H  30.03300 53.83500 36.28600
H  29.09400 55.24800 36.44300
H  27.45100 53.00600 37.20900
H  28.32000 52.45500 35.78100
H  36.31300 57.02800 37.61600
H  35.49800 55.61700 38.27400
H  36.55000 56.39100 39.27700
H  36.04600 61.38700 40.68600
H  35.84600 61.61200 38.95100
H  37.45600 61.23500 39.57800
H  31.75300 63.09300 39.83600
H  29.79400 62.70800 42.01300
H  31.83900 63.63700 42.65900
H  33.05700 64.20100 41.39800
H  33.20500 62.61300 42.10500
H  30.05800 64.52000 40.04400
H  28.47600 64.27700 40.77400
H  27.61700 64.10300 38.75600
H  28.42500 62.51700 38.65900
H  29.24000 63.98200 38.01200
H  24.49300 59.39000 41.44800
H  24.62200 59.93600 39.73300
H  25.31500 60.88300 41.15900
H  26.35000 54.94100 38.31000
H  26.15200 51.65400 41.02400
H  25.23900 51.15900 39.60300
H  24.39300 51.98800 40.91800
Mg 10.23900 47.23400 26.30700
C  8.44300 47.36900 29.27900
C  12.92600 48.45200 27.96900
C  11.83900 47.02300 23.40100
C  7.14600 46.69100 24.59300
N  10.66400 47.81100 28.32500
C  9.82200 47.71200 29.43800
C  10.51900 48.21900 30.65500
C  11.74500 49.06300 30.07900
C  11.78200 48.45600 28.67100
C  11.62100 50.65800 30.08500
C  10.84300 47.12500 31.66400
C  10.19800 47.31700 33.07700
H  10.40900 46.17100 34.11400
N  12.17400 47.55500 25.82500
C  13.18000 47.99900 26.65600
C  14.48400 47.87500 25.99800
C  14.15700 47.36100 24.69100
C  12.67600 47.37900 24.51300
C  15.80000 47.99800 26.81300
C  15.17700 47.06500 23.56000
O  14.76700 46.84000 22.39800
C  16.61800 47.01800 23.85200
N  9.55700 46.93600 24.25300
C  10.45900 46.84800 23.24800
C  9.73100 46.38400 21.97000
C  8.31000 46.13600 22.52100
C  8.33500 46.69900 23.87400
C  9.95900 47.26200 20.69800
C  7.79100 44.73400 22.45100
C  8.62900 43.65600 23.10600
N  8.14900 47.10700 26.75500
C  7.07400 46.86200 25.98600
C  5.91300 46.72100 26.86000
C  6.35800 46.93900 28.16100
C  7.71300 47.14200 28.01500
C  4.51300 46.40000 26.47700
C  6.03100 46.99500 29.59700
O  4.98600 46.82800 30.18200
C  7.31400 47.35300 30.32400
C  7.57400 46.21900 31.37600
O  8.16800 45.17500 31.13700
O  6.94100 46.43300 32.55700
C  6.95900 45.36600 33.58500
H  13.79000 48.82800 28.52300
H  12.38100 46.91000 22.46000
H  6.11000 46.66300 24.24900
H  9.78100 48.89600 31.08700
H  12.67100 48.70000 30.52400
H  10.70400 50.83000 30.64900
H  11.55200 51.04900 29.07000
H  12.43500 51.14400 30.62200
H  11.90900 47.13200 31.89400
H  10.61600 46.12300 31.30200
H  9.16100 47.64100 32.98800
H  10.47800 48.19400 33.66000
H  15.50800 47.70000 27.82000
H  16.13900 49.02800 26.92300
H  16.56600 47.30700 26.46100
H  17.13900 46.71600 22.94400
H  16.73900 46.26400 24.63000
H  16.88100 47.99100 24.26700
H  10.16600 45.40500 21.77000
H  7.57700 46.75800 22.00600
H  10.68300 48.06400 20.84100
H  9.02600 47.78600 20.49300
H  10.22100 46.64800 19.83700
H  7.82100 44.56600 21.37500
H  6.78900 44.63000 22.86600
H  9.50500 44.21700 23.42900
H  9.00400 42.87100 22.45000
H  8.11300 43.18300 23.94200
H  4.59600 45.38600 26.08500
H  4.12700 46.95200 25.62000
H  3.92500 46.38200 27.39400
H  7.16800 48.22100 30.96700
H  7.96500 45.24500 33.98700
H  6.62000 44.38400 33.25300
H  6.35200 45.76500 34.39700

