158

Mg -1.67300 17.83700 26.21800
C  -1.89100 15.32000 28.57300
C  -2.12900 20.19200 28.70900
C  -1.83000 20.16700 23.95000
C  -2.28600 15.37300 23.73400
N  -1.77400 17.71200 28.41600
C  -1.79500 16.58400 29.19900
C  -1.95900 16.90000 30.72400
C  -2.00700 18.48700 30.69700
C  -2.00900 18.83500 29.16700
C  -2.91800 19.31500 31.60800
C  -0.75100 16.36200 31.65900
C  -0.32000 17.13900 32.91500
H  -0.13900 16.37200 34.21200
N  -1.71400 19.95900 26.35500
C  -1.93800 20.69100 27.40000
C  -2.02400 22.08200 27.01800
C  -1.87700 22.13300 25.64200
C  -1.74300 20.75700 25.20500
C  -2.28800 23.29200 27.98000
C  -1.97800 23.32300 24.77600
O  -1.87600 23.22600 23.55600
C  -2.38000 24.66200 25.36200
N  -2.09300 17.75400 24.07900
C  -2.00500 18.89400 23.35300
C  -2.22600 18.66300 21.86900
C  -2.69300 17.11300 21.83800
C  -2.24800 16.70200 23.27100
C  -3.26800 19.55700 21.25700
C  -2.01600 16.27000 20.73000
C  -3.06400 15.70500 19.69000
N  -1.75000 15.75200 26.10500
C  -2.05700 14.88000 25.05400
C  -2.11100 13.54200 25.46800
C  -2.07600 13.66300 26.84200
C  -1.90400 15.00800 27.20100
C  -2.25100 12.28900 24.65200
C  -2.13700 12.88700 28.05800
O  -2.30600 11.70000 28.25000
C  -2.02400 13.95800 29.22800
C  -0.75200 13.69100 29.95300
O  0.32700 14.01800 29.56800
O  -1.00800 12.99500 31.11200
C  0.17700 12.78500 31.97600
H  -2.12900 21.02800 29.41100
H  -1.93300 20.91100 23.15800
H  -2.59500 14.74700 22.89400
H  -2.89600 16.55600 31.16000
H  -1.03900 18.87700 31.00900
H  -3.79800 19.55900 31.01100
H  -2.43900 20.19400 32.03900
H  -3.34300 18.69900 32.40000
H  0.08400 16.16900 30.98500
H  -1.13400 15.41900 32.04900
H  -1.00500 17.96300 33.11900
H  0.67100 17.53300 32.68900
H  -3.21000 23.76400 27.64000
H  -1.53400 24.07700 27.93600
H  -2.45400 22.92800 28.99400
H  -2.42200 25.36900 24.53400
H  -1.66200 25.03300 26.09300
H  -3.36500 24.43800 25.77200
H  -1.21200 18.78100 21.48800
H  -3.78100 17.17500 21.81900
H  -3.68600 19.03100 20.39900
H  -2.71800 20.44900 20.95600
H  -4.09000 19.90600 21.88200
H  -1.44200 15.47700 21.21000
H  -1.28700 16.85600 20.16900
H  -3.98900 16.23400 19.91800
H  -3.09800 14.63200 19.50100
H  -2.87900 16.09600 18.68900
H  -1.76100 12.45900 23.69400
H  -3.27900 11.92600 24.64200
H  -1.75200 11.53700 25.26400
H  -2.86000 13.76100 29.89900
H  0.63400 11.81600 31.77600
H  -0.18300 12.67700 32.99900
H  0.86000 13.63400 31.98000
Mg 36.10700 49.25200 25.37200
C  36.37400 47.45000 28.33600
C  34.71800 51.92000 27.19000
C  35.65100 50.84800 22.55400
C  37.28200 46.46600 23.63900
N  35.46100 49.54100 27.45800
C  35.83700 48.73800 28.50200
C  35.61300 49.46600 29.79800
C  34.95400 50.83300 29.45800
C  35.11000 50.77600 27.95800
C  33.49400 51.04000 29.89900
C  36.96200 49.78800 30.53100
C  36.82800 50.06400 32.07600
H  35.41300 50.06000 32.79500
N  35.16200 51.09600 24.90800
C  34.68800 52.09500 25.77600
C  34.26900 53.28400 25.07000
C  34.52600 52.98800 23.68000
C  35.11600 51.62300 23.65100
C  33.78700 54.63400 25.72400
C  34.19500 53.74500 22.45000
O  34.41000 53.29500 21.36300
C  33.40600 55.08900 22.47900
N  36.27800 48.70200 23.37700
C  36.09700 49.57200 22.38100
C  36.39000 48.92000 20.95600
C  37.15700 47.63900 21.38100
C  36.90500 47.57100 22.89700
C  35.08700 48.60700 20.17800
C  38.61500 47.59900 20.86300
C  39.60400 48.51500 21.64400
N  36.61400 47.27100 25.81000
C  37.22400 46.27300 25.04300
C  37.47100 45.07600 25.84600
C  37.22200 45.57500 27.17800
C  36.72700 46.91100 27.10500
C  37.92600 43.72200 25.56800
C  37.28200 45.18200 28.54600
O  37.73900 44.12100 28.99100
C  36.71000 46.37000 29.39500
C  35.33500 45.92200 29.81800
O  34.44700 45.42600 29.16100
O  35.33600 46.09000 31.20700
C  34.24000 45.55300 31.96100
H  34.38200 52.79000 27.75800
H  35.56600 51.40000 21.61600
H  37.92300 45.78200 23.07800
H  34.89600 48.93800 30.42700
H  35.56300 51.66900 29.80300
H  32.75200 51.19100 29.11400
H  33.51400 51.98000 30.45100
H  33.09900 50.21600 30.49300
H  37.50500 50.61100 30.06700
H  37.62200 48.92700 30.42300
H  37.28200 51.04200 32.23800
H  37.41500 49.35600 32.66100
H  34.40100 55.49200 25.45000
H  33.81100 54.55600 26.81100
H  32.74900 54.83800 25.46200
H  33.34300 55.46600 21.45800
H  33.95900 55.86100 23.01300
H  32.40400 54.93100 22.87900
H  36.99600 49.65500 20.42500
H  36.59000 46.82800 20.92400
H  34.20400 48.85400 20.76600
H  35.08300 47.57300 19.83200
H  35.08100 49.40100 19.43100
H  38.45200 47.81300 19.80600
H  38.91800 46.55200 20.88300
H  40.13700 47.79900 22.27000
H  39.04300 49.20000 22.27900
H  40.27600 49.04200 20.96600
H  38.56100 43.75700 24.68300
H  37.06100 43.08200 25.39500
H  38.48300 43.30900 26.40900
H  37.42700 46.58200 30.18800
H  33.57700 46.38600 32.19600
H  34.47000 45.08100 32.91600
H  33.66500 44.88700 31.31700

