158

Mg 43.96200 4.89400 46.96500
C  41.73200 7.75900 46.93500
C  41.09800 2.98700 46.49400
C  45.93000 2.30600 46.26000
C  46.70000 6.99000 46.92800
N  41.65500 5.37800 46.55900
C  41.01600 6.58500 46.79600
C  39.50600 6.37100 46.75100
C  39.30100 4.87500 46.66100
C  40.76400 4.33300 46.63900
C  38.50300 4.43500 47.84700
C  38.73500 7.26900 45.70300
C  39.52000 7.43600 44.40500
H  38.79400 7.41900 43.07000
N  43.58600 2.88500 46.54000
C  42.36800 2.32400 46.39300
C  42.51000 0.91400 46.02400
C  43.92600 0.69500 45.97700
C  44.57600 2.00700 46.29000
C  41.36300 -0.04200 45.62800
C  44.54300 -0.62700 45.55800
O  43.81000 -1.55100 45.31700
C  46.02600 -0.88900 45.34600
N  46.10500 4.66600 46.50500
C  46.63700 3.45000 46.50600
C  48.19700 3.52600 46.80200
C  48.45000 5.13000 46.86400
C  47.05400 5.66800 46.73400
C  48.65000 2.73600 48.06800
C  49.34400 5.73000 45.67600
C  50.66700 6.38800 46.28000
N  44.21800 6.98200 47.00800
C  45.40600 7.72200 47.01100
C  45.09200 9.10800 47.21700
C  43.62800 9.13500 47.19400
C  43.14300 7.86700 46.96100
C  46.10400 10.19100 47.43700
C  42.48800 10.03100 47.27300
O  42.44900 11.29400 47.30200
C  41.21300 9.16100 47.21900
C  40.49400 9.20600 48.50600
O  40.74900 8.45700 49.39500
O  39.48500 10.18100 48.51500
C  38.70500 10.31200 49.78900
H  40.24500 2.32400 46.33300
H  46.68300 1.53300 46.09200
H  47.49000 7.74300 46.97400
H  39.14800 6.76400 47.70300
H  38.70300 4.63600 45.78200
H  39.06500 4.80600 48.70400
H  38.46500 3.34800 47.91700
H  37.55700 4.97300 47.89600
H  38.63200 8.30000 46.04300
H  37.77400 6.85200 45.40100
H  40.26200 6.64700 44.28500
H  40.14500 8.31300 44.56800
H  41.28300 -0.89700 46.30000
H  41.57400 -0.31400 44.59400
H  40.35800 0.37900 45.66400
H  46.60900 -0.64100 46.23400
H  46.34900 -0.18700 44.57700
H  46.25500 -1.88500 44.96700
H  48.84400 3.13700 46.01600
H  48.90400 5.43000 47.80800
H  48.01000 2.95300 48.92300
H  49.70300 2.92800 48.27600
H  48.61000 1.68800 47.77100
H  48.78900 6.48600 45.12100
H  49.59600 4.86300 45.06400
H  51.05400 6.98500 45.45400
H  51.35900 5.66600 46.71300
H  50.31400 7.05300 47.06800
H  47.05900 9.88600 47.00900
H  46.36100 10.40300 48.47500
H  45.90400 11.08300 46.84300
H  40.55800 9.55400 46.44200
H  38.59900 11.33900 50.13800
H  39.03600 9.81200 50.69800
H  37.77400 9.78500 49.58200
Mg 47.04800 25.79600 29.37200
C  48.32000 27.87900 32.02900
C  45.78700 23.77600 32.02200
C  46.50100 23.33300 27.22800
C  48.65400 27.73100 27.11000
N  46.76400 25.94300 31.72900
C  47.54600 26.81400 32.53700
C  47.18300 26.56100 34.04900
C  46.63500 25.07300 34.05000
C  46.44000 24.84600 32.53300
C  47.63900 24.10400 34.80400
C  46.21400 27.57600 34.70700
C  46.61000 28.17200 36.15400
H  45.48900 28.17400 37.20600
N  45.95700 23.90100 29.54400
C  45.63600 23.20500 30.73800
C  44.92500 21.97100 30.29200
C  44.95500 21.94800 28.86300
C  45.84800 23.06800 28.48900
C  44.29600 21.05100 31.33000
C  44.31400 21.01900 27.82500
O  44.53900 21.21400 26.64500
C  43.55300 19.70500 28.28300
N  47.60300 25.51800 27.49800
C  47.22400 24.43000 26.81400
C  47.77400 24.51700 25.36200
C  48.09200 26.06000 25.19300
C  48.14000 26.45500 26.72000
C  49.02100 23.57700 25.27100
C  47.09300 26.88500 24.41400
C  47.27400 26.85900 22.89500
N  48.15000 27.53700 29.46800
C  48.81900 28.26100 28.37900
C  49.55300 29.34600 28.97200
C  49.34600 29.23000 30.37100
C  48.51000 28.11100 30.63400
C  50.37600 30.37000 28.29500
C  49.72700 29.89100 31.65300
O  50.44900 30.83200 31.86000
C  48.93700 29.07400 32.79800
C  49.93500 28.70800 33.85600
O  50.97600 27.95400 33.72600
O  49.68200 29.36000 35.07000
C  50.70100 29.32300 36.12200
H  45.30300 23.24400 32.84400
H  46.33200 22.55000 26.48500
H  49.10700 28.31100 26.30300
H  48.13400 26.68100 34.56800
H  45.63600 25.09400 34.48600
H  47.23300 23.91900 35.79800
H  48.64500 24.52500 34.81200
H  47.71600 23.15300 34.27800
H  45.15800 27.31000 34.65500
H  46.16800 28.41300 34.01000
H  46.84800 29.22700 36.01400
H  47.44300 27.52700 36.43200
H  44.24900 20.03700 30.93300
H  43.25900 21.31400 31.53900
H  44.91300 21.05700 32.22800
H  44.22900 19.10100 28.88800
H  43.51200 19.23800 27.30000
H  42.59100 20.07300 28.64000
H  46.93400 24.42600 24.67300
H  49.08800 26.18400 24.76800
H  49.86100 24.20700 24.97700
H  48.83000 22.81300 24.51800
H  49.24500 22.97300 26.15000
H  47.29800 27.87800 24.81700
H  46.06700 26.65000 24.69600
H  46.43000 26.87200 22.20500
H  47.90100 26.02100 22.59000
H  47.78800 27.74300 22.51900
H  51.28700 30.45600 28.88800
H  49.91200 31.35300 28.21000
H  50.61700 30.08900 27.27000
H  48.28000 29.80800 33.26400
H  50.24200 28.58300 36.77800
H  50.97500 30.29000 36.54500
H  51.63200 28.85500 35.80000

