158

Mg 24.46600 -5.25900 45.99600
C  26.60600 -2.69300 44.33300
C  22.05700 -4.30400 43.83700
C  22.84000 -7.97500 46.98800
C  27.42100 -6.21700 47.66500
N  24.42300 -3.68700 44.25200
C  25.31400 -2.77500 43.78500
C  24.71200 -1.92600 42.67600
C  23.13500 -2.21100 42.76900
C  23.18600 -3.52600 43.63700
C  22.15700 -1.01800 43.25600
C  25.28600 -2.28400 41.28600
C  26.23900 -1.25500 40.55900
H  26.17000 -1.21200 39.02300
N  22.65300 -5.96400 45.53700
C  21.77600 -5.39700 44.69100
C  20.50900 -6.24100 44.71100
C  20.77500 -7.39100 45.56100
C  22.14200 -7.10400 46.12200
C  19.26200 -5.96500 43.84600
C  19.82800 -8.66000 45.83500
O  18.78600 -8.67700 45.22100
C  20.12200 -9.78300 46.69600
N  25.05900 -6.89700 47.13400
C  24.20400 -7.85100 47.43700
C  24.98300 -8.96100 48.38100
C  26.33500 -8.26800 48.65300
C  26.24700 -7.09600 47.72000
C  24.32300 -9.32000 49.72100
C  27.47900 -9.17400 48.21000
C  28.59200 -9.29800 49.16500
N  26.59100 -4.60400 46.08600
C  27.57500 -5.09500 46.86400
C  28.78800 -4.32700 46.57900
C  28.38700 -3.38300 45.66600
C  27.07300 -3.59300 45.34300
C  30.18900 -4.49300 47.11500
C  28.94500 -2.27800 44.85000
O  30.06500 -1.73000 44.81800
C  27.72100 -1.75600 44.08500
C  27.59700 -0.32800 44.49300
O  26.68000 0.07800 45.21000
O  28.37700 0.49300 43.76300
C  27.90400 1.86500 43.73900
H  21.23500 -3.96000 43.20500
H  22.37000 -8.90400 47.32000
H  28.34000 -6.49000 48.18800
H  24.84400 -0.86200 42.87400
H  22.77800 -2.48700 41.77700
H  21.44500 -1.38700 43.99400
H  21.67900 -0.65800 42.34500
H  22.76200 -0.21800 43.68100
H  24.44000 -2.44000 40.61600
H  25.89100 -3.18700 41.35700
H  27.28700 -1.25900 40.85800
H  25.93500 -0.29700 40.98200
H  19.34900 -5.09900 43.19000
H  18.43600 -5.86700 44.55000
H  19.05400 -6.77200 43.14400
H  19.21800 -10.38500 46.79900
H  20.21300 -9.35900 47.69600
H  20.93700 -10.44200 46.39700
H  24.93900 -9.85900 47.76300
H  26.59600 -7.84800 49.62500
H  23.76700 -10.23500 49.52000
H  23.62100 -8.58000 50.10400
H  25.03400 -9.47400 50.53200
H  27.80600 -8.81800 47.23300
H  27.13900 -10.19800 48.05700
H  28.87400 -8.29500 49.48400
H  29.43600 -9.73300 48.62800
H  28.16200 -9.86500 49.99000
H  30.26100 -4.64100 48.19200
H  30.79700 -3.59100 47.04900
H  30.64200 -5.27800 46.50900
H  27.75700 -1.65800 43.00000
H  27.99600 2.20500 44.77000
H  26.90600 1.97300 43.31300
H  28.53400 2.43300 43.05500
Mg 48.46800 35.59600 27.46800
C  46.58000 34.11200 30.08200
C  48.92200 38.30900 29.60300
C  50.12700 37.24100 25.03700
C  47.67200 33.05400 25.31600
N  47.72200 36.11600 29.63000
C  47.27100 35.23700 30.55100
C  47.43200 35.72500 31.95400
C  47.69700 37.27100 31.59700
C  48.20500 37.26600 30.17600
C  46.42200 38.13400 31.71000
C  48.65100 35.02200 32.58600
C  48.70500 34.98600 34.09900
H  47.62600 35.69500 34.83100
N  49.47000 37.47600 27.36900
C  49.52600 38.43900 28.28800
C  50.26700 39.50100 27.83700
C  50.84000 39.10300 26.59000
C  50.10500 37.94700 26.24100
C  50.47500 40.81100 28.60700
C  51.79400 39.81300 25.68900
O  52.22300 39.36400 24.65900
C  52.58400 40.98200 26.28900
N  49.06700 35.08500 25.48500
C  49.64100 35.95600 24.70500
C  49.59900 35.48600 23.23400
C  48.98400 34.09100 23.32100
C  48.54500 34.04400 24.81900
C  48.93200 36.48900 22.24200
C  50.01800 32.92700 23.15400
C  50.04000 32.11400 21.86600
N  47.35400 33.86800 27.61300
C  47.07800 32.95200 26.64500
C  46.19200 31.96000 27.22600
C  45.91500 32.37600 28.53100
C  46.70100 33.52800 28.74100
C  45.62400 30.86200 26.39900
C  45.24500 32.05300 29.75400
O  44.54800 31.08200 30.08900
C  45.55200 33.24400 30.77700
C  45.91200 32.68000 32.13200
O  46.89700 31.91200 32.38900
O  44.95300 33.06200 33.06000
C  45.08200 32.52900 34.45600
H  49.13400 39.18500 30.21900
H  50.50600 37.82300 24.19400
H  47.36900 32.28300 24.60500
H  46.52400 35.50200 32.51400
H  48.45900 37.61800 32.29500
H  45.53700 37.58600 32.03300
H  46.32300 38.66100 30.76000
H  46.71900 38.86000 32.46700
H  49.57200 35.34800 32.10200
H  48.56200 34.00900 32.19300
H  49.51800 35.60500 34.48100
H  48.84200 33.95700 34.43300
H  50.46500 41.60800 27.86400
H  51.43200 40.84900 29.12700
H  49.63600 40.93600 29.29300
H  51.90300 41.83000 26.36500
H  53.32200 41.48300 25.66200
H  53.01100 40.73900 27.26200
H  50.63800 35.43600 22.90700
H  48.04000 33.86500 22.82400
H  48.14800 36.02100 21.64700
H  49.67300 36.80600 21.50700
H  48.57400 37.34700 22.80900
H  49.96800 32.27500 24.02600
H  50.99300 33.40900 23.23000
H  49.30100 32.53200 21.18300
H  49.77600 31.06600 22.00900
H  51.02700 32.24300 21.42200
H  46.33400 30.32300 25.77200
H  44.85500 31.26600 25.74100
H  45.05000 30.18200 27.02900
H  44.64600 33.84500 30.86000
H  44.43900 31.66900 34.64400
H  44.69200 33.30900 35.10900
H  46.11300 32.35100 34.76200

