158

Mg 36.01000 49.06100 26.43200
C  36.28700 46.73800 29.04300
C  35.04600 51.45600 28.75500
C  35.11100 51.10900 23.96100
C  36.76500 46.53200 24.15900
N  35.46800 49.02700 28.62500
C  35.81800 47.99700 29.49500
C  35.81800 48.48900 30.89000
C  35.06200 49.84200 30.78600
C  35.24900 50.17200 29.33600
C  33.60100 49.74000 31.06700
C  37.35100 48.68200 31.45800
C  37.63800 47.96300 32.82400
H  37.22800 48.80800 34.06700
N  35.27100 50.99600 26.36200
C  35.02800 51.84400 27.46800
C  34.54700 53.20600 27.02000
C  34.68800 53.16200 25.59000
C  35.04200 51.74900 25.24500
C  34.22700 54.33800 28.06200
C  34.59800 54.25000 24.50700
O  35.00400 54.11900 23.32900
C  34.14300 55.61200 24.92200
N  35.96800 48.86400 24.31100
C  35.56100 49.87400 23.53600
C  35.67500 49.50200 22.05100
C  36.32200 47.99700 22.12500
C  36.50400 47.78800 23.59300
C  34.33800 49.59100 21.32800
C  37.54900 47.72900 21.24400
C  38.96400 47.55600 21.90100
N  36.28500 46.98000 26.52300
C  36.71000 46.12700 25.50400
C  36.88900 44.78100 26.05400
C  36.82100 45.01400 27.46400
C  36.39400 46.35200 27.65000
C  37.36400 43.53400 25.39100
C  36.93800 44.38000 28.70100
O  37.16700 43.25100 29.01300
C  36.72500 45.52300 29.78600
C  35.71800 45.12900 30.83600
O  34.51400 45.11600 30.65300
O  36.29200 44.68400 31.97900
C  35.31600 44.64400 33.09000
H  34.89000 52.31800 29.40700
H  34.85200 51.69500 23.07700
H  36.92400 45.66400 23.51500
H  35.35500 47.72700 31.51600
H  35.54000 50.54800 31.46400
H  33.12300 50.66800 31.38000
H  33.35700 48.95000 31.77700
H  33.05700 49.34000 30.21100
H  37.56200 49.74700 31.55500
H  38.01100 48.27200 30.69400
H  38.69500 47.69800 32.84600
H  37.05600 47.04100 32.84800
H  35.17800 54.39800 28.59100
H  33.48600 53.98200 28.77800
H  34.04100 55.36100 27.73400
H  34.91500 55.90500 25.63300
H  33.17800 55.50000 25.41700
H  34.11300 56.26800 24.05100
H  36.44200 50.14400 21.61900
H  35.56100 47.28600 21.80100
H  33.86900 48.61700 21.18900
H  34.40500 50.05100 20.34200
H  33.62700 50.23100 21.85100
H  37.68000 48.54300 20.53100
H  37.38000 46.78700 20.72200
H  39.65300 48.23900 21.40400
H  39.22400 46.51000 21.74400
H  39.07200 47.85100 22.94500
H  36.98700 42.67200 25.94100
H  38.42900 43.67400 25.20600
H  36.83000 43.45200 24.44500
H  37.64500 45.62900 30.35900
H  35.67500 43.95900 33.85700
H  34.33100 44.27900 32.79800
H  35.08100 45.59900 33.56000
Mg -9.91100 17.54000 40.52300
C  -6.44300 17.20500 41.00100
C  -9.40100 20.96000 40.19300
C  -13.12000 17.91500 39.45700
C  -10.21800 14.12100 40.44300
N  -8.16800 18.88800 40.53700
C  -6.82100 18.54800 40.75800
C  -5.95000 19.84800 40.67600
C  -6.99000 20.87900 41.05300
C  -8.28700 20.24100 40.56800
C  -7.08300 21.24800 42.58500
C  -5.38700 20.04500 39.20500
C  -3.91800 19.45200 39.03900
H  -3.55800 18.54100 37.83500
N  -11.12500 19.23600 39.88900
C  -10.62300 20.52600 39.71900
C  -11.73700 21.38000 39.33200
C  -12.88500 20.55700 39.25500
C  -12.43200 19.17200 39.54200
C  -11.56300 22.85600 39.04500
C  -14.24000 20.95900 38.84800
O  -14.39900 22.13000 38.60400
C  -15.44500 20.09200 38.98400
N  -11.39100 16.21800 39.82300
C  -12.68200 16.55600 39.70300
C  -13.61000 15.39100 39.84500
C  -12.64000 14.21600 39.66500
C  -11.30200 14.89200 39.95900
C  -14.50500 15.29500 41.13700
C  -12.68000 13.51700 38.26400
C  -13.10700 12.08700 38.20900
N  -8.64000 15.96700 40.67800
C  -8.93300 14.61900 40.67600
C  -7.78200 13.88900 41.08000
C  -6.77900 14.85500 41.25000
C  -7.33100 16.13900 40.94800
C  -7.67900 12.35000 41.32300
C  -5.39700 15.00000 41.62600
O  -4.59800 14.20500 42.11900
C  -5.10100 16.52700 41.31400
C  -4.29900 16.98400 42.47100
O  -3.20700 17.49900 42.38200
O  -4.90000 16.81500 43.72300
C  -3.96400 16.47100 44.83300
H  -9.34400 22.04800 40.25600
H  -14.15100 17.80400 39.11600
H  -10.39800 13.04500 40.50100
H  -5.08800 19.83900 41.34200
H  -6.76000 21.73800 40.42300
H  -6.79000 22.29000 42.71000
H  -6.49000 20.54900 43.17400
H  -8.07200 21.10300 43.01900
H  -5.35300 21.09600 38.91900
H  -6.05400 19.42500 38.60500
H  -3.60800 18.94100 39.95100
H  -3.24400 20.30700 39.00000
H  -12.13200 23.11600 38.15300
H  -10.53400 23.16300 38.85600
H  -11.89600 23.50500 39.85500
H  -15.32900 19.23400 38.32200
H  -16.35400 20.68200 38.86900
H  -15.41800 19.66900 39.98800
H  -14.28800 15.41200 38.99200
H  -12.97200 13.49600 40.41200
H  -14.02700 15.68400 42.03600
H  -14.85500 14.27100 41.26200
H  -15.34300 15.94800 40.89300
H  -11.69000 13.64400 37.82600
H  -13.20200 14.05300 37.47200
H  -14.12500 11.87300 37.88200
H  -13.06100 11.66400 39.21300
H  -12.42500 11.49900 37.59500
H  -6.73200 12.14200 41.82100
H  -7.59400 11.92300 40.32300
H  -8.50400 11.89300 41.87000
H  -4.52500 16.52900 40.38900
H  -4.14200 15.44400 45.15200
H  -4.21100 17.04700 45.72500
H  -2.90400 16.52800 44.58700

