158

Mg 40.48300 8.35400 29.65300
C  42.33400 9.62300 32.55000
C  38.22200 7.08900 31.83300
C  39.30700 6.45500 27.15000
C  43.28900 9.02800 27.67800
N  40.26900 8.46900 31.98300
C  41.07600 9.13300 32.96400
C  40.48200 9.10200 34.32500
C  39.19300 8.15300 34.06100
C  39.23900 7.75400 32.60800
C  39.02800 7.02300 35.08100
C  40.09900 10.44300 34.97800
C  39.22400 10.40600 36.22800
H  39.59600 11.32900 37.32600
N  38.90900 7.14500 29.52000
C  38.10300 6.77000 30.46700
C  36.99600 6.02500 29.90700
C  37.20400 5.97200 28.56200
C  38.51400 6.55500 28.31100
C  35.80900 5.48400 30.78900
C  36.30900 5.37200 27.49000
O  36.54500 5.40200 26.32300
C  35.02800 4.81300 27.78100
N  41.24100 7.64400 27.77300
C  40.56200 6.88600 26.86900
C  41.20400 6.89300 25.46100
C  42.23800 8.06200 25.52300
C  42.26800 8.26200 27.11500
C  41.93600 5.54200 25.03700
C  41.93200 9.31100 24.67600
C  40.71200 10.07900 25.12100
N  42.41500 9.16900 29.94400
C  43.41700 9.36900 29.05200
C  44.50500 10.10700 29.74600
C  44.09000 10.21400 31.06800
C  42.82600 9.57900 31.19800
C  45.85300 10.51000 29.12700
C  44.48900 10.73300 32.37100
O  45.52800 11.35200 32.62000
C  43.37700 10.38100 33.40000
C  43.96700 9.63300 34.51300
O  44.35700 8.47400 34.44800
O  43.99300 10.37300 35.62000
C  44.54600 9.81600 36.90300
H  37.43900 6.62900 32.44100
H  38.77500 5.83100 26.42800
H  44.11000 9.42200 27.07600
H  41.12800 8.50500 34.96800
H  38.24400 8.67500 34.18600
H  39.14400 6.00200 34.71700
H  38.07400 7.04500 35.60800
H  39.77300 7.15800 35.86500
H  39.53900 10.94400 34.18800
H  40.94600 11.06600 35.26600
H  39.28900 9.44000 36.72800
H  38.20500 10.56300 35.87600
H  34.88400 5.71400 30.26100
H  35.71100 5.96000 31.76500
H  36.00000 4.41800 30.90900
H  35.03900 4.13100 28.63100
H  34.74500 4.21500 26.91500
H  34.21100 5.53100 27.86100
H  40.40400 7.09600 24.74900
H  43.28200 7.86700 25.27900
H  41.56000 4.82900 25.77100
H  43.02000 5.62500 25.10300
H  41.78000 5.19100 24.01700
H  41.69000 9.01000 23.65700
H  42.85700 9.88800 24.65300
H  40.40300 9.79300 26.12600
H  39.89200 9.97300 24.41100
H  40.83400 11.15900 25.20000
H  46.39300 10.72700 30.04900
H  45.60000 11.35700 28.48900
H  46.27400 9.67600 28.56600
H  43.03200 11.34900 33.76300
H  45.41200 10.37700 37.25600
H  44.93600 8.82900 36.65000
H  43.88200 9.83400 37.76800
Mg 27.15300 50.01400 26.11000
C  24.95800 51.36300 28.47500
C  29.28100 49.19300 28.54400
C  29.34300 49.26000 23.65500
C  24.91900 51.30500 23.63600
N  27.26400 50.44100 28.25000
C  26.13600 50.83600 28.99200
C  26.30500 50.43500 30.51100
C  27.78700 49.91700 30.49700
C  28.10300 49.74500 29.02400
C  28.90500 50.67800 31.29700
C  25.25400 49.26100 30.91600
C  24.31000 49.67100 32.06000
H  24.32300 48.84800 33.37400
N  29.06400 49.37100 26.10300
C  29.81300 49.01600 27.23400
C  31.11200 48.47900 26.80700
C  31.19600 48.69200 25.41700
C  29.81100 49.17500 25.01000
C  32.12500 47.99400 27.75700
C  32.30400 48.50000 24.46200
O  32.29900 48.92900 23.30200
C  33.57300 47.83000 25.04300
N  27.20800 50.44400 23.94900
C  28.14300 49.82400 23.17700
C  27.90100 49.98000 21.67900
C  26.42300 50.34300 21.68500
C  26.16900 50.79300 23.17700
C  28.75200 50.91300 20.85200
C  25.33300 49.26000 21.12800
C  24.59900 48.42700 22.19700
N  25.29500 51.07200 26.00200
C  24.54600 51.56200 24.94400
C  23.39300 52.34300 25.44400
C  23.48500 52.17500 26.82500
C  24.66100 51.44700 27.08700
C  22.45400 53.18600 24.66000
C  22.90500 52.56900 28.11600
O  21.92300 53.31000 28.34700
C  23.81200 51.91000 29.24200
C  24.27700 53.03400 30.05700
O  25.17500 53.92600 29.77500
O  23.43900 53.13700 31.13600
C  23.86400 54.18800 32.10700
H  29.90400 48.65300 29.26000
H  30.00800 48.98400 22.83400
H  24.29900 51.61900 22.79400
H  26.13800 51.23100 31.23700
H  27.85500 48.90400 30.89400
H  28.59600 51.69500 31.53700
H  29.78500 50.89100 30.69000
H  29.12700 50.04800 32.15900
H  25.85700 48.40700 31.22600
H  24.78000 48.77800 30.06200
H  23.32200 49.52000 31.62500
H  24.26900 50.75600 32.15800
H  33.04000 48.55500 27.56900
H  32.16300 46.91800 27.58300
H  31.78100 48.16100 28.77800
H  34.06500 48.57000 25.67400
H  34.28400 47.59200 24.25200
H  33.34400 46.93500 25.62100
H  28.00800 48.95800 21.31500
H  26.21900 51.21300 21.06100
H  28.25100 51.82700 20.53500
H  29.31100 50.49600 20.01300
H  29.51400 51.11600 21.60500
H  25.85500 48.56500 20.47000
H  24.62700 49.81600 20.51000
H  25.00400 48.36700 23.20700
H  24.58400 47.37800 21.90200
H  23.54500 48.70400 22.23100
H  22.45700 54.23300 24.96100
H  21.45400 52.78700 24.83600
H  22.66600 53.15700 23.59200
H  23.36400 51.11200 29.83200
H  24.89800 54.06400 32.43100
H  23.25500 54.21200 33.01000
H  23.70700 55.13200 31.58500

