158

Mg 2.51900 -1.96500 44.54900
C  5.62100 -1.04100 43.35800
C  1.04300 0.27700 42.32700
C  -0.37000 -3.34800 45.20000
C  4.18000 -4.59400 46.38500
N  3.24500 -0.66200 42.84300
C  4.57300 -0.32800 42.71400
C  4.76400 0.78700 41.70900
C  3.29200 1.34300 41.56800
C  2.44100 0.31100 42.28400
C  3.04100 2.72300 42.12700
C  5.43200 0.28200 40.42600
C  6.76700 0.90900 40.01000
H  6.75000 1.80600 38.74800
N  0.54700 -1.50100 43.91000
C  0.18100 -0.58300 43.05000
C  -1.27500 -0.54000 43.02200
C  -1.71500 -1.58100 43.85800
C  -0.48000 -2.21100 44.39600
C  -2.05100 0.37300 42.19800
C  -3.09600 -1.89100 44.24900
O  -4.04800 -1.27300 43.77300
C  -3.50200 -2.94500 45.24800
N  2.02900 -3.74300 45.67900
C  0.70700 -4.05700 45.74200
C  0.49200 -5.37200 46.50800
C  1.98900 -5.85300 46.84400
C  2.80700 -4.67700 46.28700
C  -0.41600 -5.22100 47.79500
C  2.31700 -7.27400 46.23000
C  2.05600 -8.54500 47.01600
N  4.47900 -2.62500 44.93200
C  4.97100 -3.70200 45.65900
C  6.45900 -3.63000 45.60100
C  6.74700 -2.57200 44.76400
C  5.48700 -2.06500 44.32200
C  7.37700 -4.68300 46.23300
C  7.77000 -1.76800 44.15900
O  9.02900 -1.80800 44.27900
C  7.00100 -0.68000 43.34500
C  7.40700 0.64700 43.91500
O  6.72900 1.32000 44.66200
O  8.60500 1.03700 43.36100
C  9.10700 2.22300 44.04000
H  0.54300 1.09700 41.80600
H  -1.31400 -3.88100 45.33100
H  4.67900 -5.30500 47.04700
H  5.39600 1.59100 42.08700
H  2.87100 1.46900 40.57000
H  3.89300 3.32500 41.81200
H  3.02800 2.66500 43.21500
H  2.11100 3.05700 41.66600
H  4.82400 0.80200 39.68600
H  5.26800 -0.79500 40.39600
H  7.42400 0.04000 39.97200
H  7.11100 1.59700 40.78300
H  -1.59400 1.35600 42.08400
H  -3.00800 0.61700 42.65900
H  -2.34300 -0.07300 41.24800
H  -2.92900 -2.65000 46.12700
H  -3.35400 -3.98500 44.96100
H  -4.56000 -2.86200 45.49900
H  -0.02400 -5.96600 45.75400
H  2.08400 -6.04000 47.91300
H  -0.72300 -4.18700 47.95600
H  0.10700 -5.44400 48.72600
H  -1.23500 -5.93400 47.88600
H  3.32000 -7.29000 45.80300
H  1.56600 -7.30800 45.44100
H  1.50300 -8.15000 47.86800
H  2.96200 -9.07700 47.30700
H  1.46400 -9.24300 46.42500
H  6.98600 -4.90000 47.22700
H  8.36100 -4.22300 46.14100
H  7.29500 -5.61400 45.67200
H  7.40600 -0.75300 42.33600
H  9.22600 2.08000 45.11400
H  8.58100 3.13500 43.76100
H  10.11600 2.27800 43.63000
Mg 30.33100 58.26800 39.56000
C  27.76300 55.86700 38.78100
C  32.48900 55.49800 39.23900
C  32.83500 60.46100 39.43800
C  28.02400 60.70500 39.69100
N  30.09300 55.92000 38.99200
C  29.02500 55.14700 38.87300
C  29.23100 53.66500 38.83300
C  30.81000 53.63200 38.97200
C  31.17200 55.11900 39.12800
C  31.37600 52.80700 40.14200
C  28.77900 53.01400 37.48500
C  29.17900 53.70800 36.15400
H  28.13400 54.17500 35.12400
N  32.41700 58.06900 39.55700
C  33.08400 56.86900 39.31900
C  34.48900 57.15900 39.29400
C  34.68300 58.58100 39.44600
C  33.27300 59.09900 39.54400
C  35.64200 56.11900 39.05900
C  36.00300 59.27300 39.54300
O  37.02700 58.61600 39.50200
C  36.16700 60.72800 39.80200
N  30.46400 60.31200 39.49900
C  31.55600 61.08300 39.45300
C  31.22900 62.58300 39.44300
C  29.75900 62.59900 39.78500
C  29.35300 61.11500 39.64600
C  32.09700 63.41500 40.43100
C  28.89800 63.63600 38.92700
C  28.51800 64.95300 39.58200
N  28.26900 58.39700 39.31500
C  27.43400 59.45700 39.51200
C  26.01900 58.94600 39.48700
C  26.18800 57.58700 39.20900
C  27.54900 57.26500 38.97600
C  24.73800 59.70300 39.71800
C  25.45700 56.37700 38.90400
O  24.23800 56.13900 39.07100
C  26.41600 55.25300 38.59300
C  26.18600 54.19600 39.56600
O  26.68500 54.25200 40.68300
O  25.47600 53.11800 39.09700
C  25.66200 51.82900 39.63000
H  33.21300 54.68100 39.26600
H  33.68600 61.14100 39.36200
H  27.29100 61.48200 39.91800
H  28.78900 53.18000 39.70400
H  31.25100 53.21000 38.06800
H  30.58600 52.25800 40.65400
H  31.80400 53.54500 40.82100
H  32.10400 52.09600 39.75100
H  27.69200 52.96400 37.54600
H  29.18500 52.00300 37.44800
H  29.88800 53.05100 35.65000
H  29.72100 54.56300 36.56000
H  36.45600 56.44900 38.41300
H  35.22900 55.23500 38.57300
H  35.99100 55.78900 40.03700
H  35.50100 61.06600 40.59600
H  35.97900 61.10700 38.79700
H  37.18100 60.93400 40.14500
H  31.40400 62.90900 38.41800
H  29.55300 62.75900 40.84400
H  31.50300 64.04800 41.09000
H  32.64400 64.16800 39.86400
H  32.72100 62.84400 41.11900
H  27.98800 63.15100 38.57400
H  29.33200 63.80700 37.94200
H  27.43100 65.00400 39.64600
H  28.90500 65.70100 38.89000
H  28.91900 65.06900 40.58900
H  23.93100 59.13900 39.25000
H  24.87500 60.69900 39.29600
H  24.53300 59.71000 40.78900
H  26.24100 54.83700 37.60100
H  25.82700 51.04400 38.89300
H  24.80800 51.54400 40.24500
H  26.55700 51.83900 40.25200

