158

Mg 34.71300 1.49100 28.92900
C  32.40300 2.83700 31.33600
C  37.17600 1.85900 31.23100
C  36.70600 0.62100 26.47200
C  31.95700 1.78000 26.54800
N  34.68400 2.19600 31.08500
C  33.67900 2.63800 31.86200
C  34.18600 2.79400 33.27700
C  35.71200 2.75400 33.16900
C  35.90800 2.30300 31.73800
C  36.45900 4.09800 33.43600
C  33.54000 1.82400 34.30600
C  32.99800 2.55200 35.53400
H  33.98000 3.09900 36.64300
N  36.69000 1.19200 28.88500
C  37.52500 1.39700 29.94000
C  38.89000 1.01000 29.51200
C  38.77000 0.70300 28.11600
C  37.35200 0.87300 27.74000
C  40.05600 0.89500 30.43800
C  39.88800 0.19800 27.19200
O  39.72200 0.07400 25.97200
C  41.29800 -0.16800 27.74600
N  34.31000 1.12500 26.89500
C  35.36100 0.84000 26.06200
C  34.96200 0.92800 24.51200
C  33.36300 1.05400 24.64700
C  33.20100 1.32300 26.13900
C  35.67400 2.10000 23.78200
C  32.57900 -0.21600 24.25300
C  32.09100 -0.16600 22.82600
N  32.58600 2.04500 28.91100
C  31.64000 2.09700 27.86500
C  30.36800 2.65000 28.41300
C  30.61700 2.85200 29.74500
C  31.93500 2.52000 30.01900
C  29.06300 2.78700 27.66500
C  30.01300 3.32400 31.01300
O  28.89500 3.58500 31.24300
C  31.15400 3.31100 32.09400
C  31.31300 4.75100 32.59700
O  31.82300 5.65600 31.97900
O  30.69100 4.82000 33.76400
C  30.60700 5.97400 34.66900
H  37.96700 2.08200 31.95100
H  37.34900 0.51400 25.59600
H  31.13100 1.97500 25.86100
H  33.79500 3.80100 33.42300
H  36.24000 2.01500 33.77100
H  35.69900 4.68700 33.95000
H  36.66900 4.61400 32.49900
H  37.36000 3.92200 34.02300
H  34.31300 1.13100 34.63700
H  32.72200 1.28200 33.83200
H  32.30500 1.80700 35.92600
H  32.38100 3.36400 35.15000
H  40.72900 1.72900 30.23500
H  40.78200 0.08200 30.46800
H  39.64300 1.16300 31.41100
H  41.88600 0.69400 28.06000
H  41.85600 -0.73100 26.99700
H  41.11700 -0.76600 28.63900
H  35.19000 0.04800 23.91100
H  33.00800 1.90200 24.06200
H  35.03800 2.92600 23.46400
H  36.15400 1.69600 22.89100
H  36.43700 2.62700 24.35600
H  31.64700 -0.32000 24.80800
H  33.15200 -1.11300 24.48700
H  32.25200 -1.11300 22.31100
H  32.69900 0.56900 22.29800
H  31.06200 0.18000 22.73100
H  28.61700 1.79300 27.62400
H  29.02500 3.38700 26.75600
H  28.60100 3.39200 28.44500
H  30.97400 2.62500 32.92200
H  30.26300 6.84400 34.11000
H  31.55400 6.08300 35.19800
H  29.97200 5.78100 35.53300
Mg 36.66700 49.84300 26.09000
C  36.58900 47.92400 28.89100
C  35.94300 52.61000 27.89000
C  36.59900 51.70500 23.08700
C  37.17800 47.03900 24.08400
N  36.33600 50.22300 28.16400
C  36.37200 49.29800 29.19700
C  36.17300 49.98900 30.61600
C  35.81400 51.42000 30.19200
C  36.16700 51.45700 28.67900
C  34.38700 52.02400 30.49400
C  37.47700 49.79800 31.45500
C  37.38400 49.57400 32.94300
H  36.01300 49.68900 33.79800
N  36.32200 51.87300 25.59700
C  36.01600 52.87400 26.47900
C  35.89400 54.14100 25.78700
C  36.14000 53.84400 24.43200
C  36.31600 52.40100 24.32000
C  35.52800 55.43500 26.49900
C  36.10800 54.82300 23.24300
O  36.41200 54.61200 22.08500
C  35.78400 56.24300 23.52200
N  36.94700 49.43700 23.83800
C  36.86100 50.34200 22.88000
C  37.27100 49.78500 21.50200
C  37.63200 48.33100 21.84900
C  37.31900 48.26900 23.38700
C  36.10500 49.97500 20.41900
C  38.97200 47.81100 21.36700
C  40.23000 48.20200 22.12000
N  36.80200 47.86700 26.40300
C  37.08500 46.79900 25.50000
C  37.11100 45.59000 26.24000
C  37.00900 45.94100 27.57700
C  36.75200 47.33600 27.59200
C  37.31500 44.18400 25.61000
C  37.01900 45.49400 28.94100
O  37.18300 44.40700 29.42100
C  36.73200 46.80600 29.83900
C  35.49800 46.63700 30.69700
O  34.36200 46.86900 30.33500
O  35.81800 46.18900 31.90500
C  34.68600 45.95600 32.80000
H  35.60200 53.48500 28.44600
H  36.56800 52.29100 22.16600
H  37.34900 46.15900 23.46200
H  35.35200 49.51500 31.15400
H  36.47100 52.16200 30.64600
H  33.68300 51.25800 30.81900
H  33.94600 52.34200 29.54900
H  34.45000 52.73300 31.31900
H  38.07100 50.71000 31.39500
H  38.11600 48.99400 31.09100
H  38.15400 50.16900 33.43500
H  37.63400 48.56300 33.26200
H  34.61000 55.83600 26.07000
H  36.36100 56.12000 26.34000
H  35.43300 55.28500 27.57500
H  36.00100 56.86800 22.65600
H  36.37300 56.61100 24.36200
H  34.71300 56.30700 23.71400
H  38.15500 50.28900 21.11100
H  36.84400 47.65700 21.51200
H  35.08800 49.92700 20.80900
H  36.21900 49.32500 19.55200
H  36.30700 51.00800 20.13500
H  39.05800 47.91200 20.28500
H  38.88100 46.72500 21.34600
H  40.00100 48.89400 22.93000
H  40.82700 48.82200 21.45000
H  40.72300 47.27400 22.41000
H  37.93100 43.68500 26.35800
H  37.83000 44.09700 24.65400
H  36.31100 43.77700 25.48800
H  37.53100 47.03500 30.54400
H  34.37300 44.91700 32.69500
H  33.83100 46.63000 32.74900
H  34.96500 45.97000 33.85400

