158

Mg 25.21700 -7.57800 46.70700
C  27.99100 -5.52500 45.91300
C  23.39000 -5.73500 44.43100
C  23.03600 -10.02100 46.72000
C  27.38100 -9.58500 48.53500
N  25.69300 -5.77800 45.31700
C  26.87000 -5.12900 45.17200
C  26.75800 -3.90600 44.26000
C  25.26700 -3.91500 43.85200
C  24.73100 -5.19700 44.62000
C  24.39500 -2.69400 44.13700
C  27.68400 -3.96800 43.03100
C  28.21100 -2.71800 42.36300
H  27.82000 -2.65600 40.93500
N  23.49800 -7.83000 45.69900
C  22.84000 -6.97600 44.82300
C  21.66800 -7.68100 44.30500
C  21.53000 -8.91900 44.97900
C  22.72800 -8.99100 45.82700
C  20.65100 -7.01500 43.36400
C  20.35500 -9.92000 44.70100
O  19.34700 -9.56700 44.10300
C  20.36100 -11.25200 45.27300
N  25.17800 -9.43700 47.61700
C  24.15900 -10.26300 47.49600
C  24.50500 -11.66500 47.85600
C  25.83500 -11.46500 48.64300
C  26.20300 -10.11000 48.15700
C  23.45300 -12.47600 48.57300
C  26.94500 -12.58000 48.33400
C  27.82500 -12.90700 49.48600
N  27.27800 -7.50400 47.27400
C  27.96200 -8.34600 48.15300
C  29.27800 -7.78400 48.46300
C  29.33200 -6.74000 47.52600
C  28.11600 -6.66300 46.80200
C  30.29300 -8.39900 49.43900
C  30.18500 -5.58900 47.17000
O  31.29700 -5.29300 47.55800
C  29.36800 -4.79700 46.03800
C  29.29700 -3.38100 46.38900
O  28.88500 -2.89900 47.43000
O  29.65100 -2.67200 45.25500
C  29.23000 -1.24700 45.24400
H  22.75000 -5.12400 43.79100
H  22.25300 -10.78000 46.79100
H  27.93400 -10.19900 49.24900
H  26.94000 -2.97700 44.80000
H  24.96200 -4.10100 42.82200
H  23.94900 -2.34700 43.20500
H  25.11300 -1.89500 44.32100
H  23.69300 -2.82700 44.96000
H  27.09300 -4.39400 42.22000
H  28.49300 -4.61000 43.37900
H  29.29700 -2.77800 42.44100
H  27.98100 -1.78100 42.87200
H  20.27900 -7.62200 42.53800
H  20.98500 -6.06500 42.94800
H  19.77400 -6.78500 43.96800
H  21.28100 -11.74500 44.95900
H  19.47400 -11.78900 44.93900
H  20.36200 -11.36000 46.35700
H  24.81900 -12.22300 46.97400
H  25.57700 -11.30000 49.68900
H  23.99800 -13.25100 49.11300
H  22.88500 -12.95600 47.77600
H  22.74100 -11.92100 49.18300
H  27.58000 -12.10900 47.58400
H  26.52600 -13.41000 47.76500
H  27.75700 -12.20900 50.32100
H  28.85600 -12.84800 49.14000
H  27.72300 -13.92600 49.86000
H  31.26400 -8.53400 48.96400
H  29.96100 -9.37300 49.80100
H  30.29200 -7.76800 50.32800
H  29.93000 -4.80500 45.10400
H  29.43800 -0.73900 44.30200
H  29.66400 -0.59000 45.99800
H  28.15700 -1.09100 45.35600
Mg 42.87300 4.27100 47.52600
C  40.38400 6.67600 46.96600
C  40.44600 1.86900 47.44100
C  45.18500 1.91400 47.05900
C  45.17300 6.74300 46.32800
N  40.69100 4.30500 47.16300
C  39.84800 5.34600 47.00000
C  38.37700 4.97000 46.74800
C  38.43100 3.43900 47.36800
C  39.96900 3.11800 47.30900
C  37.92900 3.35900 48.80200
C  37.90000 5.10400 45.26600
C  36.91300 6.24200 44.83500
H  37.36700 6.97800 43.59600
N  42.83400 2.15300 47.47500
C  41.75000 1.33800 47.50600
C  42.18500 -0.05300 47.36300
C  43.57400 -0.08300 47.31100
C  43.90800 1.33600 47.22700
C  41.20400 -1.11500 47.28000
C  44.48000 -1.27300 47.24800
O  43.98000 -2.40600 47.37000
C  45.96600 -1.24400 47.12200
N  44.93000 4.36500 46.67000
C  45.67700 3.22900 46.84700
C  47.14200 3.49000 46.37000
C  47.13600 5.09000 46.20800
C  45.68300 5.40900 46.37100
C  48.42200 3.02700 47.08800
C  47.75400 5.67700 44.93100
C  46.98400 5.86300 43.54200
N  42.83400 6.36500 47.09300
C  43.88100 7.24300 46.70300
C  43.34500 8.61200 46.69000
C  41.94000 8.45000 46.73900
C  41.72300 7.06600 47.01200
C  44.13900 9.81700 46.47200
C  40.74200 9.17000 46.78500
O  40.55500 10.39600 46.69000
C  39.64300 8.06600 46.83700
C  38.60500 8.34700 47.86900
O  38.73800 8.28700 49.11800
O  37.48000 8.92200 47.27000
C  36.64200 9.64100 48.24000
H  39.61000 1.17700 47.56200
H  45.91300 1.13500 46.82100
H  45.89700 7.48300 45.98200
H  37.75100 5.62400 47.35600
H  37.90100 2.69500 46.77400
H  37.44500 4.30200 49.05500
H  38.73800 3.11400 49.49000
H  37.23100 2.52200 48.83500
H  37.46700 4.13200 45.03100
H  38.79300 5.19400 44.64600
H  36.68400 7.01000 45.57300
H  35.97600 5.71800 44.64600
H  41.45600 -1.71000 46.40300
H  40.17800 -0.77300 47.14000
H  41.34200 -1.70700 48.18500
H  46.38800 -0.53500 47.83500
H  46.10600 -0.86700 46.10900
H  46.37600 -2.22000 47.38200
H  47.21300 3.14500 45.33800
H  47.67300 5.63100 46.98800
H  49.26700 2.98200 46.40000
H  48.40100 1.98800 47.41700
H  48.71600 3.72000 47.87600
H  48.60100 5.04800 44.65700
H  48.10800 6.67300 45.19900
H  45.93200 5.72900 43.79200
H  47.26100 5.08100 42.83500
H  47.32400 6.79600 43.09200
H  44.90100 9.75800 47.24800
H  43.67700 10.78800 46.65200
H  44.51000 9.85500 45.44700
H  39.11200 7.99100 45.88700
H  36.24300 8.85800 48.88400
H  35.82200 10.17300 47.75600
H  37.09500 10.42400 48.84900

