158

Mg 1.69800 7.46500 26.62900
C  2.27700 9.74700 29.39600
C  1.84900 4.93100 28.95600
C  1.26200 5.30100 24.13000
C  1.98100 10.14200 24.40300
N  2.19800 7.35300 28.96200
C  2.28700 8.42800 29.91400
C  2.05000 7.91500 31.32600
C  2.01100 6.39900 31.12900
C  2.04200 6.18700 29.59100
C  3.12200 5.56900 31.88700
C  0.80600 8.58600 31.95200
C  1.02400 9.07800 33.34700
H  2.00300 8.35600 34.26800
N  1.53600 5.44300 26.52500
C  1.65600 4.56000 27.58900
C  1.33300 3.22900 27.10300
C  1.05600 3.29800 25.71400
C  1.34500 4.73300 25.36700
C  1.33400 2.07200 28.00000
C  0.60100 2.33200 24.69200
O  0.51800 2.54900 23.52700
C  0.40500 0.90600 25.26400
N  1.90700 7.64500 24.52900
C  1.46800 6.62700 23.69900
C  1.41200 7.08400 22.22400
C  1.55400 8.63600 22.37800
C  1.85600 8.85700 23.86900
C  2.55000 6.36200 21.46900
C  0.30300 9.52200 21.97900
C  0.64600 10.80500 21.27300
N  2.07300 9.53600 26.80800
C  2.14100 10.46800 25.85000
C  2.17200 11.84900 26.47100
C  2.29800 11.57400 27.78400
C  2.25200 10.15600 27.98000
C  2.17300 13.14700 25.75200
C  2.49000 12.14000 29.12000
O  2.60600 13.29800 29.45400
C  2.36800 11.00600 30.11300
C  3.52100 11.14200 31.07700
O  4.64800 10.81600 30.77000
O  3.10900 11.72400 32.20900
C  4.20100 12.13600 33.12600
H  1.85700 4.16700 29.73500
H  0.99900 4.75000 23.22500
H  1.91100 10.99700 23.72800
H  2.97600 8.26100 31.78500
H  1.01200 6.01300 31.33000
H  3.79500 5.06800 31.19100
H  2.64400 4.72100 32.37600
H  3.64500 6.17000 32.63100
H  0.05700 7.81100 32.11900
H  0.27500 9.32300 31.35000
H  0.00900 9.11900 33.74400
H  1.39000 10.10400 33.37600
H  0.32800 1.68700 28.16700
H  1.81700 2.19800 28.96900
H  1.98900 1.29100 27.61500
H  1.36800 0.45300 25.49900
H  -0.16100 0.39800 24.48200
H  -0.21800 1.04100 26.14800
H  0.49200 6.67900 21.80000
H  2.37100 8.97500 21.74000
H  2.26700 5.99300 20.48300
H  2.88100 5.47400 22.00800
H  3.33100 7.12200 21.44100
H  -0.24900 9.69300 22.90300
H  -0.43500 8.94700 21.42000
H  0.26200 11.65400 21.83800
H  0.29600 10.85100 20.24100
H  1.72500 10.91700 21.16800
H  2.70400 13.02200 24.80800
H  2.71500 13.95000 26.25000
H  1.12600 13.40800 25.59800
H  1.48600 11.20200 30.72400
H  3.78100 12.56700 34.03500
H  5.00300 12.72400 32.67900
H  4.61800 11.20600 33.51200
Mg -9.16800 41.51800 42.47800
C  -8.20600 38.15600 41.61800
C  -6.43200 42.61900 40.66800
C  -10.41900 44.50600 42.72000
C  -12.18800 39.99100 43.50800
N  -7.69000 40.53300 41.21900
C  -7.45400 39.19200 41.03800
C  -6.21600 38.99600 40.12600
C  -5.55300 40.29800 39.94900
C  -6.60900 41.23600 40.63500
C  -4.15200 40.42800 40.64900
C  -6.57800 38.41400 38.72100
C  -5.73000 37.24700 38.29100
H  -4.77400 37.57200 37.17600
N  -8.39500 43.41400 41.90700
C  -7.20700 43.64200 41.29500
C  -7.10700 45.11800 41.18900
C  -8.28300 45.72700 41.66700
C  -9.07600 44.56400 42.17600
C  -5.93500 45.71400 40.55700
C  -8.59900 47.23700 41.63100
O  -7.83400 47.98400 41.09700
C  -9.80700 47.85800 42.39300
N  -11.03800 42.11700 43.14000
C  -11.27900 43.43800 43.14900
C  -12.67700 43.66700 43.59700
C  -13.33400 42.29900 43.79200
C  -12.12000 41.39700 43.41500
C  -12.82500 44.69900 44.74800
C  -14.62900 41.98900 42.92000
C  -15.85000 41.43200 43.66800
N  -9.96300 39.53200 42.79500
C  -11.15600 39.05200 43.23800
C  -11.19000 37.67600 43.31500
C  -10.06600 37.24000 42.59600
C  -9.34800 38.41600 42.35000
C  -12.38000 36.84500 43.69100
C  -9.39900 36.06700 42.13800
O  -9.75900 34.92800 42.18800
C  -8.11000 36.62100 41.44500
C  -7.00700 36.04600 42.11900
O  -6.69200 36.30600 43.26600
O  -6.23900 35.25100 41.25500
C  -5.16000 34.44300 41.98100
H  -5.63700 43.02000 40.03500
H  -10.85700 45.49800 42.84500
H  -13.09500 39.48300 43.84400
H  -5.48900 38.40600 40.68600
H  -5.44700 40.46600 38.87700
H  -4.21300 40.82900 41.66000
H  -3.40600 41.02900 40.12900
H  -3.70500 39.44100 40.76200
H  -6.54000 39.17800 37.94400
H  -7.61700 38.09200 38.79300
H  -6.42800 36.47700 37.96200
H  -5.07700 36.79400 39.03700
H  -6.20000 46.56900 39.93500
H  -5.48300 45.04200 39.82900
H  -5.16700 45.85100 41.31800
H  -9.69600 47.38000 43.36600
H  -10.79200 47.63100 41.98500
H  -9.71100 48.94400 42.39600
H  -13.06600 44.15300 42.70200
H  -13.47900 42.20700 44.86900
H  -11.95000 45.33500 44.88200
H  -13.23100 44.22800 45.64400
H  -13.69800 45.27100 44.43600
H  -14.37800 41.27100 42.13900
H  -14.95400 42.93400 42.48500
H  -15.52900 41.48000 44.70800
H  -16.12300 40.41000 43.40600
H  -16.68600 42.10700 43.48400
H  -12.97600 37.26400 44.50100
H  -11.95500 35.89400 44.01400
H  -13.01900 36.60700 42.84000
H  -7.99300 36.48200 40.37100
H  -5.58900 33.86900 42.80200
H  -4.35800 35.11300 42.29200
H  -4.84800 33.77800 41.17600

