158

Mg 0.57100 6.69900 24.17100
C  1.52500 8.82800 26.78000
C  0.46100 4.00200 26.40100
C  -0.21000 4.68200 21.68200
C  0.88700 9.41900 21.96500
N  1.16600 6.41000 26.19900
C  1.33700 7.40900 27.10100
C  1.57200 6.86600 28.48200
C  1.42000 5.32700 28.28100
C  0.97800 5.18500 26.87000
C  2.72300 4.54400 28.54100
C  0.52500 7.41300 29.48400
C  1.05800 7.73600 30.93300
H  2.22800 6.84400 31.47400
N  0.13500 4.65700 24.08900
C  0.13900 3.75400 25.09000
C  -0.29600 2.45900 24.57600
C  -0.44000 2.60400 23.18300
C  -0.17800 4.05500 22.92000
C  -0.44300 1.24300 25.43800
C  -0.73300 1.55500 22.16800
O  -0.70100 1.73900 21.00700
C  -0.89600 0.07000 22.63600
N  0.29600 7.03300 22.06100
C  -0.04600 6.02200 21.25700
C  -0.03600 6.45300 19.73100
C  0.22600 8.01800 19.87200
C  0.53000 8.16800 21.38000
C  1.08100 5.76500 19.08700
C  -0.96500 8.92300 19.36800
C  -0.59900 9.67700 18.14500
N  1.11900 8.68200 24.26000
C  1.10900 9.70200 23.35100
C  1.50500 10.92400 23.98900
C  1.65000 10.63000 25.33700
C  1.41000 9.29500 25.46800
C  1.80300 12.23300 23.27700
C  1.93800 11.19400 26.60400
O  2.13100 12.33400 26.95400
C  1.73400 10.04700 27.68900
C  2.95800 9.96500 28.39700
O  4.03500 9.56800 28.01600
O  2.77900 10.36100 29.71500
C  3.91900 10.28200 30.63700
H  0.36300 3.13200 27.05400
H  -0.48200 3.99500 20.87800
H  0.90200 10.30400 21.32500
H  2.53600 7.06600 28.95000
H  0.59700 4.78400 28.74600
H  3.05300 4.16400 27.57500
H  2.46500 3.71600 29.20100
H  3.45900 4.98600 29.21400
H  -0.17800 6.62800 29.76300
H  0.08400 8.29200 29.01500
H  0.23800 7.58400 31.63500
H  1.42400 8.74900 30.76400
H  -1.41500 0.77100 25.29300
H  -0.46700 1.37100 26.52000
H  0.37500 0.59300 25.12800
H  -1.77900 -0.01000 23.27000
H  0.04400 -0.35400 22.98800
H  -1.16400 -0.47800 21.73300
H  -1.00100 6.16000 19.31600
H  1.18100 8.22100 19.38700
H  2.00100 5.80600 19.67000
H  1.14500 6.19100 18.08600
H  0.74500 4.73000 19.02700
H  -1.38100 9.59300 20.12000
H  -1.78800 8.27900 19.05700
H  -1.17500 10.59000 18.29700
H  -0.81300 9.17700 17.20000
H  0.41700 10.06900 18.17800
H  1.50000 12.20300 22.23000
H  2.87000 12.44900 23.33100
H  1.29200 13.04200 23.79900
H  0.91300 10.23700 28.38100
H  4.47400 9.37000 30.41900
H  3.52700 10.22000 31.65200
H  4.55200 11.17000 30.65000
Mg -0.04300 43.76600 26.06700
C  2.09500 43.15500 28.79800
C  -2.65500 42.75700 28.09900
C  -2.07800 43.98600 23.39600
C  2.83800 44.02300 24.05100
N  -0.23900 42.95000 28.17200
C  0.76200 42.92100 29.10400
C  0.19000 42.72800 30.54700
C  -1.31000 42.27700 30.19100
C  -1.40700 42.60800 28.71500
C  -1.63500 40.75600 30.58500
C  0.28700 44.05900 31.33600
C  0.49100 43.98900 32.88200
H  0.39100 42.62300 33.64100
N  -2.12500 43.57800 25.82600
C  -3.05100 43.20100 26.79000
C  -4.41800 43.32800 26.28800
C  -4.22100 43.62400 24.90900
C  -2.72700 43.69900 24.63500
C  -5.67700 43.20800 27.07900
C  -5.31300 43.88100 23.87700
O  -4.97200 44.03700 22.68700
C  -6.79500 43.92200 24.23000
N  0.29400 43.89800 23.99600
C  -0.70500 44.08400 23.11800
C  -0.10200 44.37600 21.71300
C  1.41400 44.56000 22.00700
C  1.55900 44.13600 23.43500
C  -0.49700 43.26000 20.68000
C  1.98200 45.99400 21.82500
C  1.83100 46.99000 22.97300
N  2.07700 43.55800 26.34800
C  3.08900 43.76400 25.40700
C  4.40300 43.75200 26.09100
C  4.08700 43.53400 27.44200
C  2.65200 43.36900 27.52000
C  5.77300 44.00700 25.49100
C  4.60000 43.44300 28.77500
O  5.80300 43.49700 29.14700
C  3.31500 43.24800 29.73800
C  3.63200 42.01900 30.44500
O  3.54500 40.91400 29.99600
O  3.76800 42.22800 31.79600
C  4.12300 41.07300 32.60300
H  -3.46000 42.54600 28.80500
H  -2.83700 44.13100 22.62400
H  3.67700 44.07400 23.35500
H  0.67700 41.84100 30.95300
H  -2.07300 42.96600 30.55500
H  -1.21300 40.16100 29.77500
H  -2.71000 40.66700 30.42900
H  -1.33900 40.37300 31.56200
H  -0.64400 44.58000 31.11200
H  1.05100 44.62400 30.80300
H  -0.26200 44.68200 33.25700
H  1.40000 44.52000 33.16600
H  -5.48300 42.65700 28.00000
H  -6.48200 42.67000 26.57900
H  -6.08600 44.15800 27.42200
H  -7.18400 44.23000 23.26000
H  -7.03300 44.62600 25.02800
H  -7.08100 42.90800 24.50800
H  -0.47600 45.36200 21.43600
H  1.95300 43.85100 21.38000
H  0.38600 43.04700 20.07800
H  -1.20700 43.71800 19.99200
H  -0.83800 42.33600 21.14600
H  1.40300 46.51300 21.06000
H  3.04400 45.98000 21.58100
H  1.64600 46.63900 23.98900
H  1.11100 47.79100 22.80400
H  2.78900 47.46000 23.19900
H  5.85900 45.01900 25.09500
H  6.01500 43.30000 24.69700
H  6.56300 44.05200 26.24100
H  3.22000 43.94900 30.56800
H  5.19400 41.12300 32.79700
H  3.87700 40.14700 32.08300
H  3.54400 41.10400 33.52600

