158

Mg 24.92200 -5.49600 45.69400
C  26.84600 -2.82800 44.01300
C  22.38400 -4.86600 43.60700
C  23.66700 -8.19400 46.81300
C  28.01900 -6.16500 47.30000
N  24.77100 -4.13900 43.83000
C  25.57300 -3.09000 43.42700
C  24.87400 -2.38400 42.27500
C  23.38800 -2.85600 42.38700
C  23.49000 -4.03800 43.32300
C  22.37900 -1.71500 42.81300
C  25.56200 -2.55100 40.90500
C  25.35700 -1.41000 39.89200
H  26.21100 -1.42400 38.62200
N  23.14300 -6.40600 45.32700
C  22.20600 -6.04000 44.38900
C  21.05400 -6.90900 44.64200
C  21.40800 -7.94800 45.55600
C  22.84300 -7.54100 45.95400
C  19.75600 -6.71300 43.84800
C  20.48100 -9.06600 46.12200
O  19.35800 -9.20700 45.73300
C  20.91800 -9.94300 47.34400
N  25.74300 -6.97000 46.84300
C  24.97500 -8.01300 47.18700
C  25.78800 -9.09200 47.90800
C  27.16400 -8.39000 48.17000
C  26.97600 -7.10400 47.36300
C  25.17100 -9.58500 49.27100
C  28.42800 -9.17800 47.69400
C  29.57300 -9.23100 48.74200
N  26.98800 -4.50100 45.94200
C  28.09300 -4.89900 46.61700
C  29.13300 -3.98800 46.44100
C  28.78300 -3.18500 45.38600
C  27.43500 -3.52100 45.14800
C  30.42800 -4.10700 47.08400
C  29.22700 -2.15200 44.44800
O  30.40400 -1.76800 44.25900
C  27.97300 -1.92400 43.45000
C  27.66600 -0.46600 43.26600
O  26.94700 0.18900 44.00900
O  28.53800 0.07800 42.32500
C  28.50500 1.53400 41.98500
H  21.45900 -4.63300 43.07600
H  23.18800 -9.14300 47.06600
H  28.92400 -6.40600 47.86200
H  24.95800 -1.35400 42.62100
H  23.09300 -3.17400 41.38700
H  21.88300 -1.52500 41.86100
H  22.79000 -0.74400 43.09000
H  21.68400 -2.11700 43.55000
H  25.10000 -3.44100 40.47700
H  26.60900 -2.78000 41.10400
H  25.70100 -0.52600 40.43000
H  24.29800 -1.25800 39.68500
H  19.38300 -7.66400 43.47000
H  19.88400 -6.10700 42.95100
H  18.97800 -6.12300 44.33200
H  20.01700 -10.33700 47.81400
H  21.33800 -9.33400 48.14500
H  21.57200 -10.76900 47.06400
H  25.86100 -9.97300 47.27000
H  27.19700 -8.05900 49.20800
H  24.16000 -9.19900 49.40600
H  25.83600 -9.42900 50.12100
H  24.98300 -10.65400 49.18000
H  28.81100 -8.78600 46.75200
H  28.09900 -10.17100 47.38700
H  29.54800 -10.18400 49.27000
H  29.33100 -8.55900 49.56500
H  30.54500 -9.05500 48.28100
H  31.05500 -3.22300 46.96300
H  30.83800 -5.01600 46.64500
H  30.26700 -4.20800 48.15700
H  28.33900 -2.15300 42.44800
H  28.04500 1.73700 41.01800
H  29.49900 1.97200 41.89100
H  28.02100 2.12900 42.75900
Mg -6.48900 25.33600 25.49500
C  -5.04100 26.82400 28.34500
C  -8.46100 23.42400 27.51400
C  -7.67600 23.84000 22.68600
C  -4.35300 27.22300 23.50100
N  -6.71300 25.13400 27.72300
C  -6.02800 25.88900 28.64300
C  -6.47700 25.36300 29.99900
C  -7.37400 24.15700 29.78100
C  -7.60400 24.24300 28.22300
C  -6.75500 22.74300 30.20700
C  -7.12500 26.49000 30.85600
C  -6.70800 26.67800 32.29400
H  -5.90300 25.53500 32.97200
N  -7.91500 23.91500 25.18900
C  -8.72200 23.31700 26.12800
C  -9.77300 22.55900 25.51100
C  -9.50200 22.57600 24.10700
C  -8.38500 23.54000 23.95000
C  -10.85600 21.81400 26.27600
C  -10.16200 21.80700 22.94800
O  -9.74000 21.81100 21.79800
C  -11.45300 21.06800 23.20700
N  -5.98600 25.41500 23.40400
C  -6.57100 24.60400 22.43200
C  -5.74300 24.82300 21.11800
C  -4.92700 26.11800 21.35900
C  -5.15700 26.33300 22.82900
C  -4.93100 23.61400 20.74300
C  -5.22900 27.32700 20.44400
C  -4.07600 27.64000 19.43200
N  -5.05400 26.76500 25.81300
C  -4.29100 27.43000 24.89800
C  -3.33100 28.26700 25.52200
C  -3.54900 28.00700 26.87800
C  -4.65900 27.13300 27.02200
C  -2.34000 29.20400 24.77700
C  -3.16100 28.42000 28.24900
O  -2.23700 29.19400 28.65400
C  -4.05700 27.60100 29.26300
C  -3.16100 26.64800 29.98400
O  -2.74300 25.64000 29.43300
O  -2.96300 26.93200 31.23900
C  -2.03400 26.00100 31.89300
H  -9.04800 22.84800 28.23200
H  -8.16400 23.56600 21.74800
H  -3.56900 27.74500 22.94700
H  -5.49500 25.12400 30.40600
H  -8.33000 24.23300 30.29800
H  -7.42400 22.27000 30.92500
H  -5.79500 22.83500 30.71500
H  -6.65600 22.12300 29.31600
H  -8.19400 26.34900 30.70200
H  -7.07900 27.46200 30.36400
H  -7.65400 26.72200 32.83400
H  -6.20900 27.62300 32.50500
H  -11.78000 22.16900 25.81800
H  -10.91300 22.04300 27.34000
H  -10.86700 20.72800 26.17900
H  -11.32600 20.07200 23.63000
H  -11.71500 20.82700 22.17700
H  -12.23200 21.65400 23.69500
H  -6.51200 24.95500 20.35700
H  -3.85400 25.93000 21.32100
H  -5.29200 22.69900 21.21300
H  -3.87000 23.75300 20.95200
H  -5.08200 23.30900 19.70800
H  -5.47600 28.25200 20.96500
H  -6.10700 26.98100 19.89900
H  -4.33700 27.63800 18.37400
H  -3.21300 26.97500 19.46800
H  -3.56300 28.55800 19.71700
H  -2.91000 30.04700 24.38600
H  -1.69600 28.75700 24.01900
H  -1.67600 29.59100 25.55000
H  -4.56700 28.24000 29.98300
H  -2.13400 24.94100 31.66000
H  -2.06700 26.17400 32.96900
H  -1.01700 26.25900 31.59900

