158

Mg 43.81100 3.66900 46.77500
C  41.86900 6.62300 46.31100
C  40.83600 1.88400 46.87100
C  45.68700 0.91200 46.22600
C  46.63300 5.66700 46.01200
N  41.59300 4.21900 46.49400
C  41.05100 5.48100 46.41800
C  39.55400 5.46000 46.88900
C  39.37100 3.93700 47.29400
C  40.61100 3.28700 46.86900
C  39.08400 3.72200 48.79700
C  38.52000 5.90400 45.76500
C  38.72900 5.60600 44.25500
H  38.97400 6.81900 43.35400
N  43.36900 1.68900 46.64900
C  42.05000 1.13700 46.70300
C  42.25700 -0.30800 46.69700
C  43.60400 -0.63700 46.66200
C  44.30200 0.67600 46.55000
C  41.04200 -1.20800 46.84700
C  44.20600 -1.97200 46.89200
O  43.52200 -2.99800 47.03500
C  45.68800 -2.20900 47.09300
N  45.81000 3.30500 46.11000
C  46.35400 2.07900 46.12200
C  47.87200 2.15400 45.66800
C  48.17300 3.65900 45.66900
C  46.78700 4.29400 45.92900
C  48.75900 1.40600 46.69200
C  48.81700 4.07800 44.31600
C  50.30000 3.80600 44.16400
N  44.24100 5.72600 46.19900
C  45.41500 6.37100 46.06300
C  45.20000 7.77800 45.98900
C  43.83000 7.96800 46.09200
C  43.26500 6.67800 46.25500
C  46.27700 8.84400 45.69800
C  42.79300 8.98000 46.06400
O  42.92400 10.19300 46.04300
C  41.40300 8.11400 46.17900
C  40.60600 8.59800 47.34600
O  40.68400 8.24300 48.51300
O  39.58900 9.41500 46.85800
C  38.73400 9.95300 47.92100
H  39.96100 1.30000 47.16400
H  46.24100 -0.02400 46.12600
H  47.47400 6.35700 45.92400
H  39.37600 6.06900 47.77600
H  38.57600 3.39800 46.77800
H  40.04400 3.87500 49.28900
H  38.83800 2.68000 49.00400
H  38.32100 4.43100 49.11800
H  38.41700 6.98900 45.73200
H  37.53200 5.54200 46.04900
H  37.82300 5.14300 43.86200
H  39.57800 4.92400 44.22500
H  40.25200 -0.77100 47.45800
H  41.24400 -2.20400 47.24200
H  40.56800 -1.30000 45.87000
H  46.26200 -1.41000 47.56400
H  46.14100 -2.27000 46.10400
H  45.89000 -3.06300 47.74000
H  47.83500 1.78600 44.64200
H  48.87300 4.02900 46.41700
H  49.08900 0.50400 46.17800
H  48.14300 1.11400 47.54200
H  49.68700 1.94200 46.89300
H  48.66900 5.14900 44.17700
H  48.28500 3.61900 43.48200
H  50.80200 4.76000 44.00300
H  50.46800 3.21500 43.26400
H  50.74300 3.24500 44.98800
H  46.61600 8.57700 44.69700
H  47.08700 8.78500 46.42500
H  46.01900 9.87700 45.92900
H  40.87600 8.12800 45.22500
H  39.20900 10.89300 48.20000
H  38.61600 9.37500 48.83700
H  37.72500 10.17600 47.57200
Mg 9.35300 48.24200 26.58900
C  7.40600 48.40400 29.47100
C  11.98600 49.25500 28.63800
C  11.39000 47.98700 23.98500
C  6.60700 47.63000 24.67600
N  9.58600 48.83100 28.82700
C  8.69400 48.70900 29.83700
C  9.36400 48.99500 31.17300
C  10.58100 49.84800 30.72300
C  10.81700 49.28300 29.29100
C  10.35000 51.38100 30.80500
C  9.71400 47.62800 31.89500
C  10.10700 47.70400 33.41000
H  9.46500 46.56300 34.33100
N  11.35000 48.33400 26.35800
C  12.26500 48.81600 27.32700
C  13.65400 48.57200 26.79900
C  13.52000 48.21200 25.46400
C  12.04900 48.15000 25.19200
C  14.95300 48.80700 27.66100
C  14.66800 47.78100 24.42700
O  14.36600 47.30800 23.33200
C  16.10800 47.77500 24.87400
N  9.09800 47.70800 24.66500
C  10.06900 47.75400 23.72400
C  9.50700 47.49900 22.33000
C  7.93600 47.45100 22.48700
C  7.88500 47.56400 24.03100
C  9.96400 48.37200 21.15700
C  7.15500 46.25200 21.83100
C  6.14700 46.67000 20.77400
N  7.40000 48.19300 26.93300
C  6.37500 47.79800 26.03900
C  5.10300 47.63200 26.75800
C  5.51000 47.92600 28.11500
C  6.88400 48.24400 28.17100
C  3.80500 47.17300 26.24500
C  4.91200 47.98600 29.45900
O  3.73200 47.78800 29.76600
C  6.20000 48.16100 30.38500
C  6.37900 46.91800 31.14300
O  6.91000 45.86400 30.73600
O  5.92100 47.02900 32.47100
C  5.97700 45.71000 33.12300
H  12.80000 49.71800 29.19900
H  12.12400 47.93900 23.17900
H  5.73900 47.32900 24.08500
H  8.61500 49.49600 31.78700
H  11.41400 49.56700 31.36700
H  9.50000 51.64100 31.43600
H  10.12900 51.71000 29.79000
H  11.25500 51.93500 31.05400
H  10.64400 47.33800 31.40600
H  8.85300 46.97200 31.76600
H  9.91300 48.74900 33.65400
H  11.18300 47.53600 33.35600
H  14.72600 48.89400 28.72300
H  15.43100 49.77300 27.49800
H  15.58400 47.91900 27.62100
H  16.34700 48.76200 25.26900
H  16.73800 47.48200 24.03400
H  16.07600 46.95900 25.59600
H  9.87600 46.51100 22.05500
H  7.52200 48.41100 22.17800
H  9.17300 48.78200 20.52900
H  10.70700 47.80200 20.60000
H  10.49700 49.20800 21.60900
H  6.56500 45.76400 22.60600
H  7.89700 45.55300 21.44300
H  5.93200 45.82400 20.12300
H  6.61000 47.56100 20.34900
H  5.20100 46.99300 21.21000
H  4.02600 46.50600 25.41200
H  3.27600 48.06500 25.91200
H  3.19100 46.56400 26.90800
H  6.06600 49.01300 31.05100
H  5.91700 45.93800 34.18700
H  6.86700 45.17400 32.79300
H  5.14500 45.08500 32.79800

