158

Mg 9.44300 3.86600 28.15700
C  10.64100 2.44000 31.14500
C  7.85100 6.22800 30.04200
C  7.88800 4.74600 25.39100
C  10.66600 1.01700 26.46600
N  8.97600 4.08600 30.49700
C  9.82000 3.61700 31.44900
C  9.64800 4.41100 32.76700
C  8.62000 5.55100 32.35200
C  8.50500 5.29600 30.83300
C  7.26900 5.47400 33.09500
C  10.99000 4.82500 33.43500
C  10.83000 5.73400 34.63900
H  11.31400 5.07800 35.96400
N  8.07900 5.37400 27.76100
C  7.56000 6.26500 28.62600
C  6.80900 7.28000 27.86100
C  6.77600 6.86800 26.47900
C  7.59500 5.57500 26.53300
C  6.10300 8.42000 28.67300
C  6.13600 7.52700 25.24200
O  6.14900 7.07700 24.09900
C  5.51000 8.90300 25.36700
N  9.42700 3.05700 26.21400
C  8.74800 3.65500 25.30000
C  8.60400 2.74900 24.08400
C  9.72100 1.73300 24.28800
C  9.97400 1.93000 25.70900
C  7.18200 2.05600 23.91900
C  11.07100 1.85600 23.52800
C  11.42000 0.67700 22.65400
N  10.37500 2.16100 28.65200
C  10.93800 1.21700 27.86200
C  11.69900 0.31100 28.62500
C  11.68800 0.84000 29.90500
C  10.79600 1.91600 29.86800
C  12.37400 -0.87200 28.08100
C  12.14900 0.61000 31.18600
O  12.97100 -0.17800 31.60200
C  11.57200 1.74900 32.07800
C  10.91500 1.07600 33.28000
O  9.89100 0.41100 33.27200
O  11.67400 1.18300 34.41000
C  11.03300 0.63000 35.60200
H  7.39900 7.03000 30.62900
H  7.37800 5.03400 24.46800
H  10.99500 0.19200 25.83000
H  9.11200 3.71500 33.41200
H  9.11100 6.52300 32.39500
H  7.60400 5.83500 34.06700
H  6.88100 4.45500 33.09000
H  6.54400 6.16600 32.66500
H  11.60000 5.32500 32.68300
H  11.55700 3.92500 33.67200
H  9.75100 5.85700 34.73600
H  11.31300 6.67300 34.36700
H  5.82300 8.27800 29.71700
H  5.06900 8.52500 28.34500
H  6.68900 9.33900 28.66300
H  5.03500 9.36500 24.50200
H  6.20800 9.60600 25.82200
H  4.65100 8.86900 26.03700
H  8.76200 3.38700 23.21400
H  9.35300 0.72000 24.12600
H  7.35200 0.99400 23.73700
H  6.57600 2.52100 23.14200
H  6.63700 2.08400 24.86200
H  11.87700 2.02100 24.24300
H  11.16900 2.72300 22.87400
H  11.59800 1.06900 21.65300
H  10.63500 -0.07700 22.70200
H  12.30700 0.19800 23.07100
H  12.58800 -0.80700 27.01400
H  11.73300 -1.71500 28.33800
H  13.35900 -1.06500 28.50500
H  12.36200 2.43700 32.37800
H  11.57000 0.99000 36.47900
H  11.06900 -0.45600 35.52200
H  10.00300 0.96600 35.72300
Mg -0.69100 44.01900 24.87500
C  1.75000 43.24900 27.28600
C  -3.14800 43.25100 27.26800
C  -2.94700 44.55600 22.53200
C  1.80500 44.43300 22.59000
N  -0.66600 43.22300 26.94400
C  0.44000 43.05200 27.74900
C  0.01900 42.93900 29.17600
C  -1.51700 42.65400 29.12200
C  -1.82500 42.99400 27.67000
C  -1.92400 41.23600 29.49100
C  0.30900 44.32500 29.92500
C  1.03100 44.12600 31.32400
H  0.69600 42.81500 32.07100
N  -2.78200 43.96100 24.93200
C  -3.61600 43.62400 25.99400
C  -5.00100 43.79400 25.51500
C  -4.96400 44.20800 24.18400
C  -3.51600 44.26700 23.81100
C  -6.15600 43.51600 26.44700
C  -6.10500 44.50700 23.15000
O  -5.92200 44.86100 21.96100
C  -7.49800 44.44800 23.66400
N  -0.55200 44.40700 22.79800
C  -1.58200 44.52700 22.02200
C  -1.30400 44.76000 20.53000
C  0.28000 44.87900 20.63100
C  0.56700 44.55600 22.08600
C  -1.84600 43.46700 19.71000
C  0.81000 46.26000 20.18600
C  1.14500 47.30700 21.33300
N  1.29000 43.81000 24.88400
C  2.15500 44.00600 23.85800
C  3.54200 43.87500 24.38000
C  3.44300 43.64300 25.72300
C  2.05400 43.57500 25.95200
C  4.83500 44.04800 23.57600
C  4.15600 43.42100 26.93100
O  5.37700 43.29600 27.09400
C  3.05800 43.27400 27.99000
C  3.35000 42.03400 28.75500
O  2.95600 40.93600 28.39900
O  4.30800 42.25000 29.70400
C  4.67200 41.17800 30.65000
H  -3.85900 43.04600 28.07000
H  -3.66000 44.60000 21.70600
H  2.66500 44.54400 21.92600
H  0.48700 42.10600 29.70100
H  -2.06900 43.25600 29.84300
H  -2.59800 40.93900 28.68800
H  -2.34700 41.11900 30.48800
H  -1.11200 40.51500 29.38900
H  -0.61900 44.87900 30.06700
H  0.91500 45.00500 29.32500
H  0.74100 44.91200 32.02200
H  2.10900 44.15100 31.16500
H  -6.78500 42.86000 25.84600
H  -6.64500 44.47600 26.61800
H  -5.93100 43.09400 27.42700
H  -8.23700 44.94500 23.03500
H  -7.55400 44.93000 24.64000
H  -7.76400 43.39600 23.76500
H  -1.77700 45.67300 20.16700
H  0.78700 44.14600 20.00400
H  -1.91900 42.57700 20.33500
H  -1.12700 43.20300 18.93500
H  -2.75600 43.71000 19.16000
H  0.18800 46.77800 19.45500
H  1.76600 46.09200 19.69000
H  1.26600 48.33400 20.98800
H  2.08900 46.86500 21.65300
H  0.43600 47.31700 22.16100
H  4.69600 43.36900 22.73500
H  5.75700 43.71600 24.05300
H  4.85200 45.05900 23.16800
H  3.13200 44.14400 28.64300
H  5.23700 40.39400 30.14500
H  3.77500 40.79900 31.13900
H  5.33900 41.60900 31.39700

