158

Mg 45.09400 4.34100 45.85200
C  43.32300 7.30900 45.77200
C  42.05000 2.62400 45.20500
C  46.79200 1.54100 45.24400
C  48.03700 6.23300 45.67800
N  43.03900 4.89000 45.39600
C  42.56700 6.17400 45.54700
C  41.03900 6.27700 45.49000
C  40.59000 4.79000 45.34300
C  41.98000 4.01500 45.28200
C  39.63300 4.32300 46.51500
C  40.48100 7.23700 44.21500
C  41.39900 7.41300 42.94400
H  40.76000 7.21000 41.56500
N  44.51900 2.33300 45.41800
C  43.21300 1.84900 45.19100
C  43.22000 0.45400 44.96900
C  44.63300 0.05500 44.93500
C  45.38300 1.32200 45.22600
C  42.02700 -0.39900 44.69500
C  45.21900 -1.38300 44.69100
O  44.46000 -2.32300 44.50000
C  46.79100 -1.55800 44.50100
N  47.17400 3.98000 45.41600
C  47.60000 2.68500 45.45800
C  49.13300 2.63000 45.67500
C  49.51100 4.14100 45.68600
C  48.18500 4.85400 45.55100
C  49.58700 1.93600 47.02900
C  50.53900 4.58300 44.58700
C  51.70100 3.69000 44.15000
N  45.64600 6.44500 45.84400
C  46.88500 7.07600 45.79800
C  46.71200 8.50000 45.95200
C  45.30300 8.67300 46.00500
C  44.74200 7.41300 45.86800
C  47.84600 9.46900 45.90200
C  44.23600 9.59300 46.14900
O  44.24100 10.81100 46.39700
C  42.91600 8.74900 46.07600
C  42.19600 9.06100 47.29600
O  42.24900 8.43200 48.35700
O  41.42300 10.13000 47.14700
C  40.93400 10.88800 48.27900
H  41.04800 2.26900 44.95200
H  47.51000 0.72300 45.15400
H  48.98900 6.75100 45.80700
H  40.55900 6.72900 46.35800
H  40.02300 4.66900 44.42000
H  39.14600 3.42500 46.13600
H  39.03800 5.16800 46.86200
H  40.37900 4.04300 47.26000
H  40.13200 8.20200 44.58300
H  39.53300 6.76200 43.96200
H  42.20200 6.67600 42.96500
H  41.84500 8.40000 42.82400
H  42.12700 -0.70100 43.65200
H  41.00500 -0.08600 44.90900
H  42.26000 -1.32400 45.22200
H  47.07300 -2.59600 44.32400
H  47.20300 -1.34800 45.48800
H  47.09500 -0.94400 43.65300
H  49.59900 2.21000 44.78400
H  50.02100 4.50100 46.58000
H  49.94700 2.64500 47.77500
H  50.34600 1.16700 46.88600
H  48.74800 1.42700 47.50300
H  50.88700 5.59000 44.81700
H  49.94600 4.89000 43.72500
H  51.65400 3.39100 43.10300
H  51.81300 2.79900 44.76700
H  52.64100 4.22900 44.26600
H  48.35500 9.43200 46.86500
H  47.26800 10.36700 45.68300
H  48.63800 9.27100 45.17900
H  42.41600 9.14100 45.19000
H  41.79700 11.46000 48.61800
H  40.76400 10.25500 49.15000
H  40.10400 11.49500 47.91500
Mg 10.71100 47.15800 25.52500
C  8.25800 47.61000 28.08300
C  13.06300 48.34900 27.60700
C  12.81500 46.85900 22.90300
C  8.05800 46.34100 23.31300
N  10.53300 48.00800 27.59700
C  9.52100 47.98200 28.51800
C  10.05200 48.38200 29.89400
C  11.43700 49.03500 29.44500
C  11.72700 48.35400 28.16100
C  11.49000 50.58500 29.29000
C  10.06000 47.39300 31.09800
C  10.19700 48.20200 32.40000
H  9.26000 47.86900 33.50700
N  12.72100 47.50300 25.27900
C  13.52900 48.00700 26.30600
C  14.89900 47.93500 25.84100
C  14.88500 47.56600 24.44700
C  13.40400 47.33600 24.11600
C  16.03300 48.36900 26.71200
C  15.99200 47.31900 23.58700
O  15.84100 47.03800 22.37800
C  17.26500 47.29900 24.12900
N  10.45900 46.86100 23.35700
C  11.47400 46.74300 22.51200
C  11.04600 46.00700 21.19400
C  9.48500 45.86800 21.37800
C  9.32500 46.36200 22.77300
C  11.46300 46.70100 19.89200
C  8.97200 44.38300 21.20200
C  7.57000 44.40800 20.48700
N  8.63300 47.04500 25.57900
C  7.65300 46.73800 24.63800
C  6.35400 46.84900 25.21900
C  6.57400 47.09300 26.56500
C  7.96300 47.21400 26.76300
C  5.12800 46.58000 24.55000
C  5.89500 47.18900 27.86400
O  4.69700 47.09500 28.12200
C  6.96800 47.64200 28.91900
C  6.86500 46.62200 29.95300
O  7.29200 45.51200 29.80100
O  6.04600 46.97700 30.93200
C  6.15100 46.10400 32.13300
H  13.83900 48.67500 28.30200
H  13.49400 46.58800 22.09200
H  7.26600 45.96400 22.66400
H  9.35100 49.16300 30.18900
H  12.16600 48.80600 30.22200
H  12.38200 50.89500 29.83400
H  10.66100 51.08000 29.79600
H  11.71800 51.00100 28.30800
H  11.00600 46.86700 30.96900
H  9.17100 46.76500 31.04200
H  9.89700 49.23200 32.21000
H  11.26800 48.26100 32.59200
H  15.66600 48.64000 27.70200
H  16.57000 49.22100 26.29700
H  16.82400 47.63400 26.85800
H  17.16700 46.66200 25.00700
H  17.58700 48.31200 24.37200
H  17.90700 46.92300 23.33300
H  11.50000 45.01700 21.16000
H  8.91100 46.60000 20.81100
H  12.05400 45.96000 19.35400
H  12.16100 47.53900 19.87900
H  10.55500 47.00200 19.37000
H  8.75500 43.85500 22.13000
H  9.58500 43.62200 20.71900
H  7.72700 44.27400 19.41700
H  7.08900 45.38400 20.54200
H  6.92900 43.67000 20.97000
H  4.21000 46.82800 25.08200
H  5.07100 45.49500 24.45500
H  5.13300 47.06200 23.57300
H  6.82100 48.62300 29.37000
H  7.09900 45.56900 32.09700
H  5.29500 45.43300 32.06500
H  6.04600 46.78500 32.97800

