158

Mg 24.75300 1.58600 29.98600
C  26.56900 1.56500 32.97600
C  21.84300 1.74800 31.92500
C  22.99000 1.17900 27.19500
C  27.72600 0.90400 28.15900
N  24.35000 1.90600 32.18100
C  25.24000 1.93800 33.21600
C  24.56100 2.00100 34.58900
C  23.03200 1.84800 34.23500
C  23.06200 1.79900 32.68000
C  22.21400 0.70000 34.86400
C  25.04300 3.24600 35.50500
C  26.04500 3.05700 36.74900
H  25.73900 3.89500 38.02100
N  22.68900 1.50700 29.61200
C  21.64300 1.69900 30.54100
C  20.38800 1.76300 29.80400
C  20.76400 1.66400 28.38500
C  22.21300 1.51200 28.30500
C  19.10700 2.08800 30.48200
C  19.79200 1.64700 27.21400
O  20.15800 1.82700 26.03100
C  18.27700 1.60700 27.42200
N  25.32400 1.16200 27.94300
C  24.38200 1.13300 26.98000
C  25.03900 0.81700 25.61500
C  26.53600 0.77300 25.94800
C  26.58200 0.92400 27.42400
C  24.32100 -0.46000 25.06100
C  27.39800 1.82700 25.26300
C  27.12000 3.36200 25.50800
N  26.71400 1.16200 30.37400
C  27.82900 1.00200 29.55400
C  28.98300 0.92500 30.37700
C  28.51400 1.15300 31.64800
C  27.14900 1.27500 31.69100
C  30.39000 0.94300 29.96700
C  28.99500 1.37300 32.95800
O  30.12300 1.27200 33.40200
C  27.80900 1.51700 33.91000
C  27.68700 0.51100 34.91400
O  26.90500 -0.43700 34.83800
O  28.58400 0.71200 35.89000
C  28.42300 -0.17600 37.01600
H  20.99400 1.80900 32.60900
H  22.28800 0.94100 26.39400
H  28.62900 0.79600 27.55500
H  24.96100 1.08700 35.02900
H  22.48200 2.73600 34.54500
H  21.82500 0.07400 34.06100
H  21.31800 1.14700 35.29600
H  22.87200 0.07400 35.46600
H  24.12900 3.65600 35.93500
H  25.57200 3.93000 34.84100
H  26.97700 3.42500 36.32200
H  26.27500 2.01100 36.95400
H  18.78700 2.97700 29.93900
H  19.27300 2.37700 31.52000
H  18.45300 1.21600 30.50000
H  17.87200 2.59800 27.62300
H  18.04200 0.85700 28.17800
H  17.77500 1.31100 26.50100
H  24.74200 1.60100 24.91700
H  26.95000 -0.19100 25.65200
H  23.72700 -0.95100 25.83100
H  25.21200 -1.03700 24.81400
H  23.84000 -0.17200 24.12600
H  27.15800 1.72500 24.20500
H  28.40900 1.48500 25.48400
H  27.88900 3.80800 26.13800
H  26.22800 3.55000 26.10700
H  27.06500 3.86200 24.54200
H  30.75300 -0.07500 29.82100
H  30.91400 1.35200 30.83100
H  30.57700 1.40600 28.99800
H  28.16100 2.48000 34.28000
H  28.89600 -1.12700 36.76800
H  27.43100 -0.45300 37.37400
H  28.93600 0.29700 37.85400
Mg 47.15900 16.89900 28.34600
C  45.03700 16.52300 31.12400
C  49.23400 18.64300 30.19800
C  48.64200 17.63000 25.46600
C  44.50700 15.34200 26.36700
N  46.98200 17.66600 30.40600
C  46.14500 17.24300 31.38300
C  46.75700 17.65100 32.83100
C  47.86800 18.61500 32.39000
C  48.09100 18.30600 30.90700
C  47.52300 20.10000 32.69100
C  47.17100 16.40700 33.68000
C  46.68000 16.41000 35.18500
H  46.36800 17.75300 35.78100
N  48.85600 17.89200 27.95000
C  49.64500 18.48300 28.83400
C  50.84300 18.89900 28.18200
C  50.68500 18.57700 26.80600
C  49.35600 18.06600 26.67200
C  51.89500 19.39100 29.02100
C  51.61900 18.76200 25.63300
O  51.29600 18.64400 24.46400
C  52.88900 19.46100 25.92400
N  46.68000 16.52300 26.22700
C  47.51000 16.97600 25.21200
C  46.95300 16.58800 23.80000
C  45.72800 15.73500 24.14800
C  45.63000 15.82200 25.67500
C  46.88400 17.85600 22.81900
C  45.71600 14.26400 23.53700
C  44.79000 14.09400 22.29600
N  45.07600 16.11900 28.61100
C  44.24600 15.51200 27.71900
C  43.01900 15.08800 28.44500
C  43.27500 15.45000 29.83300
C  44.57800 16.04800 29.81400
C  41.75200 14.55400 27.85500
C  42.87700 15.40100 31.24500
O  41.90600 14.91700 31.74400
C  43.93100 16.11900 32.09600
C  43.21900 17.21800 32.84300
O  43.04200 18.35300 32.40800
O  42.68700 16.78900 34.03900
C  41.87100 17.75900 34.75900
H  49.90700 19.18700 30.86400
H  49.17200 17.80900 24.52800
H  43.79800 14.76600 25.76700
H  45.92400 18.25400 33.19200
H  48.75500 18.32900 32.95500
H  48.39300 20.64300 33.05900
H  46.82200 20.19100 33.52000
H  47.18700 20.53800 31.75000
H  48.24200 16.21000 33.64700
H  46.64700 15.57400 33.21300
H  47.42000 15.82300 35.73000
H  45.75000 15.84100 35.19800
H  52.86200 19.40500 28.51900
H  52.10100 18.77600 29.89600
H  51.55500 20.39900 29.26000
H  52.71900 20.33200 26.55600
H  53.15300 19.87700 24.95200
H  53.53700 18.76100 26.45200
H  47.71700 15.88500 23.46800
H  44.81900 16.22800 23.80300
H  45.95000 17.76100 22.26600
H  47.67100 17.92800 22.06900
H  46.92900 18.78400 23.39000
H  45.44300 13.53200 24.29800
H  46.71800 14.07300 23.15500
H  45.33500 13.50800 21.55600
H  44.53000 15.05000 21.84200
H  43.93100 13.45700 22.50700
H  40.96700 14.95300 28.49900
H  41.70900 13.46500 27.85800
H  41.76000 15.02300 26.87100
H  44.31300 15.40800 32.82800
H  41.01200 18.13500 34.20400
H  42.49400 18.57600 35.12300
H  41.37000 17.38800 35.65300

