158

Mg 2.27000 -2.21700 44.30700
C  5.63900 -1.36200 44.12200
C  1.48800 0.66800 42.72700
C  -0.93200 -3.30800 43.87100
C  3.28900 -5.42700 45.34400
N  3.56600 -0.59800 43.28300
C  4.84100 -0.34700 43.58200
C  5.24200 1.05200 43.13200
C  3.83900 1.67800 42.85500
C  2.88200 0.50200 42.92800
C  3.40300 2.89700 43.79800
C  6.24000 1.13900 41.97700
C  6.20000 0.06100 40.84800
H  5.62000 0.48100 39.50300
N  0.54100 -1.44200 43.37700
C  0.41300 -0.17800 42.85200
C  -0.93200 0.08700 42.40400
C  -1.70400 -1.03400 42.86600
C  -0.67000 -1.97200 43.38800
C  -1.36200 1.30400 41.67700
C  -3.27800 -1.20800 42.63200
O  -3.95700 -0.27900 42.15800
C  -4.01500 -2.44400 42.93300
N  1.27200 -4.08300 44.41500
C  -0.04300 -4.27600 44.29400
C  -0.48600 -5.68100 44.88900
C  0.96200 -6.26300 45.19800
C  1.91600 -5.18500 44.88800
C  -1.45700 -5.54100 46.06600
C  1.32500 -7.58300 44.34600
C  1.76800 -7.42200 42.88400
N  4.11600 -3.20100 44.75700
C  4.37600 -4.50000 45.18700
C  5.75100 -4.61700 45.60900
C  6.28600 -3.39500 45.16700
C  5.29600 -2.63400 44.59000
C  6.47400 -5.80500 46.16900
C  7.50800 -2.63200 45.10800
O  8.61700 -2.93800 45.52700
C  7.13500 -1.28800 44.36300
C  7.52300 -0.12400 45.26800
O  6.70200 0.38600 46.00400
O  8.81600 0.34400 45.07400
C  9.08900 1.73300 45.41600
H  1.27300 1.63100 42.25900
H  -1.98600 -3.59100 43.83200
H  3.48300 -6.41600 45.76300
H  5.75500 1.59500 43.92600
H  3.88300 2.06100 41.83500
H  3.18700 3.72500 43.12200
H  4.18600 3.19000 44.49700
H  2.46100 2.79200 44.33700
H  7.22200 1.27000 42.43100
H  6.02700 2.07900 41.46900
H  5.53600 -0.74000 41.17200
H  7.14700 -0.47500 40.78600
H  -1.97200 1.86600 42.38500
H  -2.02800 1.10100 40.83900
H  -0.60800 1.99400 41.29800
H  -5.03800 -2.20400 42.64400
H  -4.02300 -2.66600 44.00000
H  -3.64500 -3.27700 42.33600
H  -1.05700 -6.23200 44.14100
H  1.01300 -6.41700 46.27600
H  -1.87100 -4.53500 45.99700
H  -0.99300 -5.65200 47.04600
H  -2.19700 -6.33900 46.01800
H  0.37200 -8.10800 44.41800
H  1.96000 -8.17100 45.00700
H  0.95600 -7.79200 42.25800
H  2.60000 -8.11100 42.73900
H  2.04500 -6.40000 42.62800
H  6.26000 -6.72000 45.61600
H  6.26100 -6.03000 47.21400
H  7.54500 -5.60600 46.22300
H  7.78700 -1.09100 43.51200
H  9.46000 2.02900 44.43400
H  9.90400 1.81500 46.13500
H  8.16600 2.27400 45.62000
Mg 24.96600 2.01800 30.43700
C  27.39900 1.56900 32.99300
C  22.55500 2.08900 32.86200
C  22.66000 1.88600 28.05000
C  27.41900 1.26100 28.05400
N  24.99700 1.74900 32.67100
C  26.11000 1.76000 33.51800
C  25.63400 2.13500 34.98100
C  24.10500 2.09400 34.84600
C  23.83600 1.97800 33.37800
C  23.41000 0.97200 35.69100
C  26.32400 3.47900 35.34100
C  27.25800 3.54900 36.57200
H  26.62900 4.40100 37.74700
N  22.90800 1.93700 30.49000
C  22.07400 1.94800 31.55700
C  20.70600 1.97100 31.14300
C  20.69400 1.82400 29.73000
C  22.13200 1.85800 29.34300
C  19.61400 2.08800 32.18300
C  19.56600 1.67300 28.76200
O  19.69700 1.56600 27.56100
C  18.07900 1.77800 29.15500
N  25.10600 1.61300 28.32000
C  23.97500 1.76200 27.57000
C  24.27200 1.86900 26.14100
C  25.85000 1.55600 26.07000
C  26.17600 1.47800 27.51600
C  23.53900 0.95200 25.12300
C  26.63800 2.59000 25.28300
C  27.45100 2.15300 24.00900
N  26.97200 1.63200 30.47800
C  27.86200 1.26000 29.37700
C  29.15800 0.91500 29.99700
C  28.98700 1.11600 31.39600
C  27.71600 1.46400 31.59400
C  30.39100 0.51600 29.28700
C  29.81700 1.14800 32.58600
O  31.00300 1.02600 32.75400
C  28.70400 1.40000 33.72300
C  28.62500 0.39800 34.73000
O  28.30100 -0.75700 34.54600
O  28.98600 0.89800 35.96300
C  28.76600 0.08900 37.07400
H  21.75800 2.17800 33.60300
H  22.07300 1.94100 27.13100
H  28.31700 1.13200 27.44500
H  25.94900 1.36800 35.68800
H  23.61800 2.99800 35.21100
H  23.17700 0.17100 34.98900
H  22.56200 1.40400 36.22100
H  24.07600 0.60900 36.47400
H  25.53200 4.20200 35.53700
H  26.95900 3.86900 34.54600
H  28.19700 4.00100 36.25300
H  27.46900 2.56800 36.99700
H  19.83500 2.25400 33.23700
H  19.01900 1.18500 32.04900
H  19.02400 2.92900 31.82100
H  17.72900 0.93100 29.74500
H  17.40600 1.91300 28.30900
H  18.00600 2.62500 29.83700
H  24.17400 2.94900 26.02400
H  26.19200 0.57500 25.74000
H  22.47000 1.10300 25.27800
H  23.94000 -0.03100 25.37000
H  23.77600 1.24600 24.10000
H  27.23500 3.06300 26.06300
H  25.97400 3.33500 24.84500
H  27.01500 2.65300 23.14400
H  27.38900 1.07800 23.84300
H  28.50900 2.38500 24.13200
H  30.34600 0.59700 28.20100
H  30.67000 -0.51800 29.49300
H  31.11400 1.24200 29.66000
H  28.85700 2.35200 34.23200
H  29.71000 0.20900 37.60400
H  28.76100 -0.96600 36.79800
H  27.88800 0.33700 37.67000

