158

Mg 34.82000 2.97800 30.50600
C  32.31200 3.93900 32.78000
C  37.19900 3.36300 33.09900
C  37.17500 2.01200 28.44500
C  32.35800 2.69300 28.08200
N  34.71400 3.46600 32.63700
C  33.57100 3.74700 33.35700
C  33.90400 3.99900 34.81300
C  35.49400 3.99500 34.86100
C  35.86300 3.55000 33.49100
C  35.95600 5.38500 35.38100
C  33.19400 2.87800 35.69100
C  33.85400 2.48300 37.02900
H  34.42800 3.62000 37.81800
N  36.96000 2.69500 30.72100
C  37.67400 2.88200 31.85200
C  39.06600 2.43100 31.56800
C  39.12500 1.94600 30.23300
C  37.72300 2.15600 29.76700
C  40.16000 2.52400 32.58300
C  40.24500 1.34100 29.42500
O  40.08600 0.93700 28.27100
C  41.64700 1.23800 30.03100
N  34.81200 2.34200 28.55600
C  35.91000 2.14200 27.81100
C  35.59400 2.08000 26.32600
C  34.08300 1.87200 26.34900
C  33.68700 2.38400 27.71400
C  36.09000 3.31100 25.50600
C  33.70700 0.38700 26.31700
C  32.52900 0.03400 25.38100
N  32.74800 3.22300 30.38700
C  31.86200 3.11900 29.36000
C  30.53300 3.41000 29.80300
C  30.68600 3.73500 31.20000
C  32.00900 3.62400 31.48300
C  29.16800 3.20700 29.08100
C  29.95700 4.13900 32.34700
O  28.76300 4.41700 32.54500
C  31.00400 4.31600 33.40600
C  30.93300 5.63700 34.15700
O  30.99400 6.72100 33.64100
O  30.74500 5.40400 35.58400
C  31.16000 6.57100 36.36200
H  37.92500 3.58100 33.88500
H  37.97500 1.75200 27.75000
H  31.61100 2.56500 27.29600
H  33.51600 5.00100 34.99400
H  35.98400 3.30300 35.54700
H  36.19400 6.03000 34.53400
H  36.89300 5.26200 35.92400
H  35.27600 5.94300 36.02400
H  33.17200 1.97900 35.07500
H  32.14300 3.10100 35.87800
H  34.58700 1.70100 36.82900
H  33.04600 2.06600 37.63100
H  39.84400 2.86600 33.56800
H  40.99000 3.10700 32.18300
H  40.45800 1.47900 32.66200
H  41.66400 0.46900 30.80400
H  41.97300 2.14200 30.54500
H  42.32600 1.15700 29.18200
H  36.07600 1.16200 25.99200
H  33.60900 2.38700 25.51400
H  37.13400 3.30900 25.19100
H  36.06700 4.13800 26.21600
H  35.40000 3.65100 24.73300
H  33.56000 0.03900 27.34000
H  34.47100 -0.36600 26.12400
H  31.72000 -0.36000 25.99600
H  32.80600 -0.72100 24.64400
H  32.12400 0.87900 24.82500
H  29.33000 2.45100 28.31300
H  28.84500 4.12000 28.58000
H  28.42900 2.83100 29.78900
H  30.81000 3.54300 34.15000
H  31.38400 6.20800 37.36500
H  30.28200 7.20600 36.48200
H  31.99800 7.08600 35.89300
Mg 27.10300 51.41900 27.02700
C  24.89500 52.49000 29.34700
C  29.19200 50.30600 29.57000
C  29.27100 50.43000 24.67900
C  25.14100 52.96600 24.53100
N  26.96400 51.36600 29.22200
C  25.93000 51.79200 29.99900
C  26.21600 51.63200 31.50800
C  27.67800 51.06700 31.46100
C  27.99300 50.87700 29.97400
C  28.78200 51.87400 32.18800
C  25.19800 50.62800 32.18300
C  24.44300 51.14600 33.43800
H  25.26400 51.26900 34.77900
N  29.01000 50.54700 27.11300
C  29.64300 50.06000 28.19000
C  30.85300 49.42300 27.77500
C  30.85800 49.35500 26.38600
C  29.60900 50.10200 25.97500
C  31.89600 48.95500 28.81800
C  31.84900 48.70700 25.48400
O  31.66700 48.61900 24.24900
C  33.14800 48.28900 25.98700
N  27.22000 51.68500 24.93700
C  28.20800 51.16100 24.14000
C  27.88300 51.25500 22.66800
C  26.63400 52.21100 22.62200
C  26.36400 52.40300 24.09300
C  29.10600 51.87800 21.93500
C  25.41100 51.67700 21.81800
C  24.79100 50.38900 22.43100
N  25.27100 52.46900 26.89900
C  24.55100 53.00000 25.79000
C  23.34900 53.53800 26.27600
C  23.40800 53.39100 27.68100
C  24.63700 52.74500 27.98700
C  22.29200 54.27700 25.58000
C  22.71700 53.65700 29.00700
O  21.70300 54.25400 29.23100
C  23.66900 52.98100 30.08300
C  24.07900 53.98100 31.07500
O  25.04500 54.66500 31.02100
O  23.16300 54.02100 32.06500
C  23.47700 54.93800 33.22500
H  29.94600 50.08400 30.32700
H  29.88300 50.05900 23.85400
H  24.62400 53.55300 23.76900
H  26.20100 52.58900 32.02900
H  27.72000 50.04900 31.84600
H  29.30600 52.43100 31.41100
H  29.53100 51.20500 32.61200
H  28.33300 52.57700 32.89100
H  25.64500 49.68400 32.49400
H  24.41900 50.48600 31.43300
H  23.56300 50.54600 33.66700
H  24.00300 52.12100 33.22600
H  32.49500 49.83500 29.05100
H  32.52700 48.12000 28.51100
H  31.40700 48.64400 29.74100
H  33.88200 48.32400 25.18100
H  33.13400 47.27000 26.37300
H  33.45600 48.99200 26.76100
H  27.59200 50.26400 22.32100
H  26.90600 53.20000 22.25400
H  29.75500 52.23400 22.73500
H  28.80500 52.68600 21.26800
H  29.53400 51.04200 21.38300
H  25.73900 51.36500 20.82700
H  24.64000 52.44400 21.73800
H  23.70400 50.43800 22.36800
H  25.12800 50.18900 23.44800
H  25.13500 49.48200 21.93200
H  22.05500 53.82700 24.61600
H  22.54800 55.31900 25.39200
H  21.50000 54.28000 26.32900
H  23.08000 52.25200 30.64000
H  24.34100 54.57200 33.78100
H  22.58600 55.14600 33.81800
H  23.72000 55.92000 32.82100

