158

Mg 24.31400 -5.54800 46.54300
C  26.37500 -3.08600 45.17200
C  21.60100 -4.09000 44.89900
C  22.47700 -8.43000 47.20900
C  26.85800 -6.80700 48.36500
N  24.03000 -3.72100 45.24500
C  25.06700 -2.93200 44.74800
C  24.52600 -1.99800 43.67300
C  22.95100 -1.94100 44.02900
C  22.80700 -3.33500 44.81100
C  22.57300 -0.61700 44.82200
C  24.98700 -2.38100 42.17800
C  25.71500 -1.36400 41.27800
H  25.26300 -1.41000 39.80600
N  22.38300 -6.24400 46.01400
C  21.42100 -5.41000 45.44200
C  20.16300 -6.17700 45.47500
C  20.36900 -7.41800 46.10000
C  21.80900 -7.41400 46.50500
C  18.86700 -5.57000 44.91600
C  19.40000 -8.47700 46.29700
O  18.22400 -8.26700 45.90900
C  19.65400 -9.79600 46.90500
N  24.57800 -7.36800 47.62100
C  23.74700 -8.44100 47.67800
C  24.34200 -9.61800 48.59000
C  25.69600 -8.92500 49.05800
C  25.71000 -7.61600 48.33600
C  23.58100 -10.24600 49.76800
C  27.03100 -9.77000 48.89400
C  27.95500 -9.87800 50.12100
N  26.20200 -5.15500 46.70900
C  27.09800 -5.65400 47.61800
C  28.35100 -4.84600 47.58000
C  28.10400 -3.93700 46.47700
C  26.80500 -4.10000 46.10100
C  29.54000 -4.94800 48.39600
C  28.72900 -2.86000 45.71400
O  29.84900 -2.43100 45.87100
C  27.60400 -2.34600 44.71500
C  27.59800 -0.85600 44.91400
O  27.58500 -0.36100 45.97900
O  27.52200 -0.14800 43.75700
C  27.68100 1.26700 43.98400
H  20.80800 -3.46600 44.48200
H  21.98100 -9.33500 47.56400
H  27.64200 -7.16800 49.03300
H  24.96600 -1.00700 43.78700
H  22.39700 -1.89000 43.09200
H  22.09600 0.06200 44.11500
H  23.42000 -0.20800 45.37300
H  21.92900 -1.00500 45.61100
H  24.06600 -2.64400 41.65800
H  25.50500 -3.34000 42.15700
H  26.75600 -1.68400 41.23400
H  25.73400 -0.40200 41.79100
H  18.37400 -4.97400 45.68400
H  18.11400 -6.30600 44.63400
H  19.05800 -4.98700 44.01600
H  18.75300 -10.40400 46.82600
H  19.95800 -9.69700 47.94700
H  20.33100 -10.42300 46.32600
H  24.64500 -10.46000 47.96700
H  25.70500 -8.70100 50.12500
H  22.66300 -9.75200 50.08600
H  24.22700 -10.35400 50.63900
H  23.24200 -11.25300 49.52400
H  27.62200 -9.30800 48.10300
H  26.67600 -10.75500 48.59300
H  28.91700 -9.44600 49.84700
H  27.98200 -10.91500 50.45700
H  27.69600 -9.22800 50.95700
H  29.73300 -3.95500 48.80000
H  30.33800 -5.26200 47.72300
H  29.38900 -5.71700 49.15400
H  27.82500 -2.52300 43.66200
H  27.63800 1.67300 42.97300
H  28.65000 1.53500 44.40400
H  26.92500 1.77200 44.58600
Mg -10.05900 38.28000 40.81400
C  -7.99800 35.46800 40.08600
C  -7.69300 40.23200 39.22900
C  -12.34900 40.81200 40.94500
C  -12.62600 35.96100 41.65000
N  -8.09300 37.85700 39.73900
C  -7.39800 36.70500 39.61600
C  -6.07300 36.87900 38.86900
C  -5.87400 38.41500 38.87100
C  -7.31600 38.86100 39.24000
C  -4.75000 39.04000 39.74000
C  -6.16300 36.28400 37.44300
C  -4.82100 35.56400 36.98600
H  -4.26900 35.79500 35.61200
N  -9.99600 40.23400 40.31800
C  -8.87100 40.91200 39.73600
C  -9.17100 42.29800 39.49300
C  -10.54800 42.43600 39.96500
C  -11.01800 41.14500 40.43800
C  -8.26200 43.34200 38.72400
C  -11.21600 43.82800 40.06000
O  -10.64500 44.77300 39.60600
C  -12.48400 44.02600 40.81900
N  -12.21300 38.34900 41.19700
C  -12.90800 39.53800 41.18500
C  -14.36700 39.27300 41.69500
C  -14.41300 37.72100 41.92200
C  -13.00000 37.32800 41.55800
C  -14.79800 40.07900 42.98900
C  -15.47300 36.99800 41.07900
C  -16.94000 37.34200 41.43800
N  -10.36600 36.13200 40.89000
C  -11.37800 35.38700 41.30300
C  -10.93800 34.05700 41.48400
C  -9.67700 33.96700 40.95400
C  -9.31000 35.31600 40.61300
C  -11.90300 32.92900 41.97100
C  -8.55000 33.19800 40.53500
O  -8.35800 32.03000 40.60300
C  -7.45400 34.11300 39.87500
C  -6.16700 33.91800 40.53600
O  -5.23600 33.34600 39.97600
O  -6.22000 34.22400 41.89000
C  -5.06600 33.83900 42.68500
H  -7.09200 40.95200 38.67000
H  -13.10400 41.60000 40.98400
H  -13.30700 35.25700 42.13400
H  -5.43300 36.42400 39.62500
H  -5.62000 38.61600 37.83000
H  -5.24000 39.48200 40.60800
H  -4.18000 39.68400 39.06900
H  -4.14100 38.36400 40.34000
H  -6.47700 37.03000 36.71300
H  -7.05300 35.66000 37.52800
H  -4.91000 34.48500 37.11300
H  -4.01600 35.79800 37.68200
H  -7.76300 43.94700 39.48100
H  -8.94300 43.92500 38.10300
H  -7.61100 42.81900 38.02400
H  -12.38100 43.66400 41.84200
H  -13.30900 43.51900 40.31900
H  -12.59900 45.10900 40.78000
H  -15.00100 39.63600 40.88600
H  -14.58600 37.45200 42.96500
H  -14.66600 41.15400 42.87100
H  -13.96400 39.96200 43.68300
H  -15.72800 39.75700 43.45700
H  -15.40900 35.91000 41.05600
H  -15.14200 37.32700 40.09400
H  -17.55200 37.47700 40.54600
H  -17.11000 38.16300 42.13600
H  -17.35300 36.49800 41.99000
H  -12.91200 33.07400 41.58400
H  -11.89500 32.82000 43.05500
H  -11.66900 31.95000 41.55200
H  -7.38000 33.70800 38.86600
H  -5.41100 33.96300 43.71100
H  -4.23200 34.53000 42.56800
H  -4.73200 32.80300 42.61800

