158

Mg -1.76000 17.50400 27.61000
C  -2.37700 15.23600 30.13700
C  -2.22600 20.15400 29.62700
C  -1.36300 19.50800 24.77800
C  -1.82100 14.69800 25.33600
N  -2.31100 17.64100 29.64000
C  -2.32800 16.58000 30.51800
C  -2.53300 17.14900 31.95600
C  -2.64500 18.74900 31.71500
C  -2.32000 18.88800 30.23000
C  -4.01400 19.46500 32.15400
C  -1.47000 16.80700 33.05400
C  -1.65000 17.46600 34.46700
H  -1.26000 16.69500 35.68500
N  -1.69500 19.54700 27.25000
C  -1.90200 20.52000 28.25200
C  -1.79200 21.76600 27.66300
C  -1.55300 21.66100 26.30200
C  -1.60100 20.22300 26.01800
C  -1.98700 23.08200 28.48900
C  -1.50100 22.74100 25.28300
O  -1.44600 22.48600 24.06400
C  -1.44300 24.16900 25.68400
N  -1.78100 17.12600 25.37000
C  -1.53800 18.16400 24.49900
C  -1.20800 17.61500 23.15500
C  -0.99500 16.10100 23.38300
C  -1.59200 15.90700 24.79900
C  -2.43200 17.87500 22.17300
C  0.48300 15.65600 23.22000
C  1.53200 15.82600 24.31000
N  -2.02400 15.40800 27.71700
C  -1.97800 14.41800 26.70600
C  -2.24800 13.09900 27.31000
C  -2.55600 13.39700 28.63100
C  -2.34200 14.76900 28.85000
C  -2.29700 11.80900 26.64700
C  -2.97600 12.82300 29.88000
O  -3.19300 11.68900 30.18700
C  -2.77700 14.03300 30.92700
C  -1.77200 13.53800 31.87500
O  -0.63200 13.45500 31.65800
O  -2.47500 13.31500 33.05200
C  -1.62600 12.94400 34.18600
H  -2.33300 20.90300 30.41500
H  -1.10400 20.14000 23.92600
H  -1.70700 13.80200 24.72200
H  -3.47700 16.85300 32.41500
H  -1.82300 19.18500 32.28200
H  -4.51000 18.91500 32.95400
H  -4.60800 19.47600 31.24000
H  -3.72900 20.46200 32.49300
H  -0.48100 17.17800 32.78500
H  -1.46300 15.71700 33.05300
H  -2.65800 17.87800 34.50800
H  -0.94000 18.29300 34.47000
H  -2.83200 23.67000 28.12900
H  -1.10400 23.72200 28.46600
H  -2.19500 22.97800 29.55300
H  -1.47800 24.76500 24.77100
H  -0.56500 24.32500 26.31000
H  -2.31200 24.39000 26.30400
H  -0.37000 18.16600 22.72800
H  -1.65700 15.51500 22.74400
H  -3.05100 16.97800 22.12900
H  -2.10400 18.18400 21.18100
H  -2.96000 18.74700 22.55900
H  0.85900 16.13000 22.31400
H  0.45400 14.59600 22.96900
H  0.97100 15.88400 25.24300
H  1.81600 16.86500 24.14000
H  2.43000 15.22000 24.42700
H  -2.92800 11.16900 27.26400
H  -1.26900 11.44700 26.65600
H  -2.70500 11.66700 25.64700
H  -3.76600 14.23100 31.34000
H  -2.28000 12.71100 35.02600
H  -0.93300 13.74500 34.44300
H  -0.99000 12.12800 33.84300
Mg 35.72100 2.47500 30.45400
C  33.04300 3.33700 32.61800
C  37.79400 2.64400 33.15000
C  38.21400 1.58300 28.36300
C  33.58300 2.89400 27.68900
N  35.44600 2.92800 32.60900
C  34.28100 3.14200 33.26100
C  34.43900 3.18600 34.81200
C  35.99700 3.26400 34.94800
C  36.45900 2.93000 33.51400
C  36.55100 4.56800 35.55200
C  33.63800 1.96200 35.46700
C  32.83800 2.29400 36.70500
H  33.53400 3.23500 37.72700
N  37.62900 2.12800 30.69600
C  38.32200 2.12600 31.90400
C  39.73100 1.76200 31.65700
C  39.88200 1.71700 30.27100
C  38.55100 1.82300 29.69200
C  40.66900 1.49300 32.77300
C  41.21600 1.53800 29.51400
O  41.23600 1.50900 28.31500
C  42.45300 1.34900 30.30000
N  35.93300 2.37200 28.21600
C  37.09700 1.88100 27.67500
C  36.97400 1.96600 26.12500
C  35.34400 2.16900 25.95300
C  34.93600 2.59000 27.32400
C  37.83200 3.07500 25.50900
C  34.54800 0.84300 25.43600
C  33.14200 0.96900 24.78700
N  33.75000 3.05900 30.16100
C  33.05200 3.13200 28.98000
C  31.69100 3.44700 29.32700
C  31.62600 3.55200 30.72600
C  32.95700 3.31000 31.20000
C  30.49600 3.62100 28.37600
C  30.67100 3.93500 31.83000
O  29.47100 4.15500 31.86100
C  31.63600 3.66300 33.11400
C  31.47900 4.91000 33.86100
O  32.10400 5.93600 33.49000
O  30.70300 4.80700 35.01600
C  30.72700 5.99200 35.88700
H  38.45300 2.69600 34.01900
H  39.06500 1.28900 27.74400
H  32.85600 3.05600 26.89100
H  34.07400 4.12900 35.21800
H  36.18800 2.41000 35.59800
H  36.33200 4.77500 36.60000
H  36.28200 5.38800 34.88600
H  37.62700 4.48500 35.40300
H  34.33800 1.13700 35.60000
H  32.98800 1.54100 34.69900
H  32.61000 1.33200 37.16400
H  31.86600 2.60500 36.32000
H  40.24900 1.33400 33.76600
H  41.28600 2.39200 32.76400
H  41.33200 0.63600 32.66300
H  42.55500 2.20600 30.96600
H  43.27900 1.34800 29.59000
H  42.51000 0.43400 30.88900
H  37.16400 0.98100 25.69900
H  35.10500 3.04900 25.35600
H  37.31500 3.81100 24.89200
H  38.48800 2.52300 24.83600
H  38.42900 3.53900 26.29400
H  34.50500 0.12200 26.25200
H  35.19000 0.41500 24.66600
H  33.17800 0.84800 23.70400
H  32.62400 1.86800 25.11900
H  32.49600 0.21000 25.22900
H  29.55400 3.63800 28.92400
H  30.28100 2.83300 27.65500
H  30.43000 4.61200 27.92600
H  31.08800 2.94500 33.72400
H  29.95600 6.74700 35.73100
H  31.64900 6.57300 35.85900
H  30.59300 5.67600 36.92100

