158

Mg 1.80500 -1.17600 45.01300
C  5.22100 -0.51300 44.61100
C  0.98500 1.31600 42.93200
C  -1.47300 -2.26600 45.06400
C  2.78100 -4.26400 46.42800
N  2.97800 0.07900 43.84000
C  4.33400 0.25700 43.80700
C  4.78200 1.41700 42.88800
C  3.39000 2.02400 42.47600
C  2.40300 1.07100 43.13600
C  3.16100 3.56800 42.91700
C  5.80800 1.00800 41.64600
C  7.11200 1.81100 41.43400
H  7.69400 2.22600 40.09200
N  -0.06200 -0.47000 44.22100
C  -0.16100 0.62100 43.40800
C  -1.52100 0.88500 43.16800
C  -2.29600 -0.17300 43.73000
C  -1.28800 -1.03100 44.38800
C  -2.10100 2.06700 42.29600
C  -3.76200 -0.40100 43.54300
O  -4.44200 0.42100 42.94300
C  -4.61100 -1.54100 44.13400
N  0.86900 -3.02100 45.47700
C  -0.53900 -3.16000 45.55100
C  -0.90500 -4.40400 46.34200
C  0.42300 -5.11600 46.63400
C  1.41000 -4.02400 46.28500
C  -1.84700 -4.38100 47.55200
C  0.68400 -6.41900 45.74300
C  1.29500 -7.70600 46.38100
N  3.67600 -2.23100 45.53100
C  3.88500 -3.46100 46.14000
C  5.36000 -3.55200 46.42100
C  5.90000 -2.38700 45.97100
C  4.84700 -1.65300 45.36700
C  5.95400 -4.67100 47.18500
C  7.16100 -1.58100 45.87200
O  8.27900 -1.75100 46.25500
C  6.72600 -0.36500 44.88100
C  7.11300 1.00600 45.39900
O  6.52100 1.53800 46.30300
O  8.09100 1.51600 44.60800
C  8.16700 2.97700 44.73700
H  0.67500 2.09600 42.23400
H  -2.48000 -2.68700 45.09600
H  3.04600 -5.08800 47.09400
H  5.26100 2.24100 43.41800
H  3.15700 1.90300 41.41800
H  2.73300 4.13400 42.08900
H  4.05200 4.10600 43.24300
H  2.44900 3.54000 43.74100
H  5.20900 0.95300 40.73700
H  6.12900 -0.03300 41.68300
H  7.80500 1.13200 41.93100
H  7.02600 2.70300 42.05400
H  -2.75500 1.74900 41.48500
H  -1.36900 2.70700 41.80200
H  -2.74300 2.65700 42.95000
H  -4.38300 -1.64200 45.19500
H  -4.62400 -2.45200 43.53600
H  -5.62000 -1.12800 44.13100
H  -1.47600 -5.10000 45.72800
H  0.45800 -5.30900 47.70700
H  -2.73200 -4.98300 47.34900
H  -2.01200 -3.31900 47.73600
H  -1.40000 -4.88300 48.41000
H  1.39800 -6.15900 44.96200
H  -0.25200 -6.64400 45.23200
H  0.50800 -8.45800 46.33400
H  1.47900 -7.57000 47.44700
H  2.27900 -7.89000 45.95000
H  5.88400 -5.51600 46.50000
H  5.35500 -4.85200 48.07800
H  6.94600 -4.47400 47.59100
H  7.41000 -0.42500 44.03500
H  8.93700 3.17300 45.48300
H  7.28700 3.57200 44.97800
H  8.63400 3.38000 43.83800
Mg -11.45100 38.75600 42.48100
C  -10.14200 35.63400 41.65900
C  -8.95500 40.13900 40.71900
C  -13.19200 41.65000 42.56000
C  -14.52900 36.96200 43.24700
N  -9.76700 37.93800 41.33600
C  -9.39000 36.66700 41.17700
C  -8.13000 36.59600 40.33100
C  -7.53700 37.99000 40.37500
C  -8.87700 38.75200 40.81000
C  -6.29700 38.19300 41.17800
C  -8.41300 35.97300 38.94100
C  -7.60600 34.82000 38.57200
H  -6.61400 35.00200 37.39500
N  -11.00600 40.69000 41.84700
C  -9.88500 41.06400 41.20800
C  -9.95800 42.48900 41.00300
C  -11.17200 42.96800 41.55200
C  -11.87300 41.75900 42.03900
C  -8.88500 43.22600 40.16700
C  -11.67100 44.49300 41.56800
O  -10.90900 45.33800 41.06100
C  -12.93800 44.92600 42.14500
N  -13.51500 39.17200 42.86300
C  -13.89600 40.45800 42.96500
C  -15.32100 40.54500 43.51700
C  -15.77600 39.09400 43.62800
C  -14.55400 38.31800 43.21400
C  -15.44900 41.49200 44.74700
C  -16.92600 38.54800 42.75300
C  -18.13200 37.90200 43.40300
N  -12.20800 36.70800 42.70700
C  -13.38100 36.15100 43.08900
C  -13.21700 34.67900 43.09700
C  -11.95700 34.45400 42.52100
C  -11.42300 35.69800 42.22500
C  -14.14100 33.58900 43.59300
C  -11.15200 33.45300 42.00200
O  -11.33000 32.23700 42.02300
C  -9.78400 34.18700 41.48600
C  -8.61000 33.78400 42.37700
O  -7.63300 33.13100 42.01800
O  -8.76200 34.45600 43.60500
C  -7.49100 34.32300 44.45600
H  -8.06100 40.52700 40.22600
H  -13.84500 42.51500 42.68600
H  -15.39700 36.45400 43.67200
H  -7.39200 35.97100 40.83500
H  -7.28200 38.31900 39.36800
H  -5.68400 38.94500 40.68100
H  -5.87900 37.20800 41.38300
H  -6.66900 38.61300 42.11200
H  -8.15500 36.71900 38.18900
H  -9.47600 35.75700 38.83900
H  -8.34700 34.07200 38.29100
H  -7.13300 34.36100 39.44000
H  -9.04800 43.00500 39.11200
H  -7.94600 42.72900 40.40900
H  -8.80700 44.29400 40.37000
H  -13.78100 44.58600 41.54300
H  -13.01400 46.00400 42.29000
H  -13.03200 44.56300 43.16900
H  -15.87000 41.08700 42.74600
H  -15.88800 38.90100 44.69500
H  -14.54600 42.09300 44.85400
H  -15.77100 41.11000 45.71600
H  -16.24900 42.13800 44.38500
H  -16.43500 37.93000 42.00100
H  -17.30600 39.37500 42.15400
H  -18.16100 37.85400 44.49200
H  -18.26900 36.88900 43.02700
H  -19.04400 38.45000 43.16600
H  -14.52700 33.12800 42.68400
H  -14.91700 34.08600 44.17600
H  -13.63300 32.83300 44.19100
H  -9.54100 34.03800 40.43400
H  -7.63100 33.40500 45.02600
H  -7.36800 35.06100 45.24900
H  -6.57100 34.28400 43.87200

