158

Mg 44.88600 4.07000 46.33600
C  42.93100 7.09000 46.18900
C  41.73700 2.40600 45.72900
C  46.48200 1.43000 45.86600
C  47.68400 6.07800 45.99500
N  42.57500 4.73600 45.63000
C  42.10200 5.98700 45.81700
C  40.58400 6.04700 45.54700
C  40.17100 4.49100 45.61300
C  41.57300 3.80500 45.65500
C  39.27800 4.00300 46.76600
C  40.00800 6.93500 44.37500
C  40.65000 6.78100 42.93300
H  39.85700 6.86000 41.64400
N  44.20300 2.15500 45.82700
C  42.93100 1.62800 45.79600
C  43.07900 0.16500 45.73500
C  44.43100 -0.13700 45.49300
C  45.09300 1.16800 45.74200
C  41.79600 -0.72900 45.59700
C  45.04400 -1.46400 45.20800
O  44.37900 -2.44400 45.03000
C  46.49700 -1.67900 45.03600
N  46.78700 3.89900 45.69000
C  47.28000 2.63100 45.94500
C  48.81000 2.58300 45.99200
C  49.22600 4.10400 45.88900
C  47.77900 4.79200 45.76700
C  49.44600 1.76200 47.12900
C  50.10400 4.32300 44.67100
C  51.55500 4.53700 45.03400
N  45.26800 6.14500 46.38700
C  46.48600 6.78200 46.24700
C  46.33700 8.14300 46.52200
C  44.97100 8.33800 46.53200
C  44.34000 7.03400 46.41100
C  47.46700 9.11000 46.47000
C  43.96500 9.35000 46.72700
O  44.05500 10.57100 46.83100
C  42.57700 8.56700 46.47400
C  41.87500 8.85100 47.70300
O  41.88100 8.20000 48.71400
O  41.16500 9.99200 47.53300
C  40.57800 10.59900 48.69300
H  40.82300 1.82200 45.60000
H  47.18000 0.59100 45.83600
H  48.56500 6.69700 46.17700
H  40.02800 6.47500 46.38200
H  39.81400 4.16900 44.63400
H  38.55600 3.21200 46.56500
H  38.73800 4.72100 47.38300
H  39.96400 3.47300 47.42700
H  40.02700 8.00100 44.60300
H  38.97400 6.68500 44.13900
H  41.14400 5.81000 42.95600
H  41.35300 7.60900 42.84300
H  41.82100 -1.64700 46.18600
H  41.91300 -1.10600 44.58100
H  40.84100 -0.22700 45.74700
H  46.76600 -2.69600 44.75100
H  46.94000 -1.52900 46.02100
H  46.96900 -1.08200 44.25600
H  49.18700 2.02300 45.13600
H  49.69800 4.45700 46.80600
H  50.27100 1.13600 46.79000
H  48.70200 1.13000 47.61300
H  49.77600 2.40200 47.94700
H  49.58700 5.19200 44.26500
H  50.11900 3.44000 44.03200
H  51.78600 3.99700 45.95300
H  51.70100 5.61000 45.15800
H  52.16200 4.15100 44.21500
H  47.19700 10.06300 46.92400
H  47.78500 9.21000 45.43200
H  48.33700 8.76100 47.02800
H  41.94200 8.99200 45.69700
H  39.65700 10.07200 48.94300
H  40.39300 11.62600 48.37900
H  41.28700 10.62400 49.52100
Mg 29.30900 57.40500 41.68800
C  26.82800 55.08500 40.61400
C  31.52900 55.61100 40.03100
C  31.47900 59.85800 42.31100
C  26.75200 59.33900 43.16700
N  29.12000 55.58700 40.28200
C  28.08700 54.74400 40.15700
C  28.40200 53.64700 39.17700
C  29.93800 53.64400 39.22400
C  30.24100 55.05700 39.75400
C  30.59300 52.46900 39.97200
C  27.78100 54.12300 37.74100
C  27.31600 52.96100 36.90900
H  27.94100 52.84800 35.49900
N  31.35000 57.73500 41.19200
C  32.09000 56.80100 40.57200
C  33.44100 57.18200 40.65100
C  33.54000 58.43800 41.38000
C  32.08800 58.72500 41.68800
C  34.65400 56.44100 40.00200
C  34.68300 59.20300 41.59300
O  35.81400 58.75300 41.41300
C  34.60100 60.51000 42.40800
N  29.13000 59.34400 42.55900
C  30.21300 60.21600 42.64800
C  29.76700 61.58600 43.12200
C  28.34800 61.27600 43.77200
C  28.03700 59.90600 43.07100
C  30.83500 62.38000 43.99400
C  27.22600 62.41000 43.66600
C  27.40000 63.62400 42.66500
N  27.21600 57.25300 41.94500
C  26.33200 58.09200 42.59300
C  25.00900 57.48600 42.58800
C  25.10100 56.30100 41.79100
C  26.52400 56.25800 41.42600
C  23.78800 58.02500 43.22100
C  24.39800 55.17000 41.23600
O  23.28900 54.74700 41.40000
C  25.50000 54.38700 40.36500
C  25.60100 52.99400 40.90000
O  26.27400 52.54400 41.84600
O  24.70600 52.17700 40.19500
C  25.02200 50.79700 40.04700
H  32.28500 54.93400 39.62700
H  32.16900 60.69800 42.42300
H  26.08000 59.94000 43.78400
H  27.97500 52.70100 39.51000
H  30.27500 53.61400 38.18800
H  29.87100 51.74800 40.35600
H  31.15700 52.86900 40.81500
H  31.18900 51.82600 39.32500
H  28.63100 54.45300 37.14300
H  27.07800 54.94400 37.88000
H  26.24300 52.85200 36.75200
H  27.56600 52.03900 37.43400
H  35.36900 57.05400 39.45300
H  34.35900 55.79900 39.17200
H  35.07800 55.72800 40.70900
H  34.12100 61.24800 41.76600
H  35.61400 60.87800 42.57000
H  34.08000 60.39400 43.35800
H  29.57000 62.14100 42.20500
H  28.56700 61.05000 44.81600
H  30.76600 63.37800 43.56300
H  31.89600 62.13600 44.04500
H  30.49900 62.51000 45.02300
H  26.91300 62.83300 44.62100
H  26.33500 61.87900 43.33200
H  28.44900 63.85300 42.47300
H  26.93800 64.47100 43.17200
H  26.88700 63.37600 41.73600
H  23.67500 57.28000 44.00800
H  22.96000 58.04500 42.51300
H  23.98900 59.03400 43.58200
H  25.16600 54.40900 39.32700
H  26.07900 50.57700 39.90100
H  24.36400 50.27300 39.35300
H  24.77600 50.33900 41.00400

