158

Mg 8.92600 3.85700 27.94100
C  10.45500 2.34600 30.91600
C  7.14800 5.74600 30.03800
C  7.39500 5.11200 25.14900
C  10.41800 1.31400 26.04400
N  8.81700 3.98900 30.29500
C  9.43900 3.32900 31.27400
C  9.10800 3.93600 32.64800
C  7.96400 5.00000 32.29000
C  7.92900 4.88700 30.77900
C  6.56000 4.74000 33.00800
C  10.28100 4.57300 33.38100
C  10.38700 4.42200 34.91400
H  11.01600 5.61300 35.57800
N  7.40200 5.17300 27.62300
C  6.86500 5.96600 28.58400
C  6.04900 6.96500 28.06300
C  6.17000 6.83000 26.62600
C  7.05100 5.63400 26.38400
C  5.16500 7.86700 28.79900
C  5.47400 7.56900 25.53200
O  5.70300 7.37200 24.35800
C  4.60000 8.68500 25.87300
N  8.92800 3.35700 25.82200
C  8.23400 4.02200 24.86700
C  8.31200 3.28800 23.51500
C  9.41400 2.15500 23.78000
C  9.72300 2.36500 25.30000
C  7.00800 2.77200 22.93900
C  10.74800 2.15000 23.00100
C  11.22300 0.82800 22.35800
N  10.28200 2.33000 28.25600
C  10.71100 1.35100 27.38300
C  11.60000 0.45400 28.10900
C  11.59800 0.86000 29.41400
C  10.68800 1.95200 29.52900
C  12.38600 -0.69500 27.63400
C  12.20400 0.52100 30.72200
O  13.07800 -0.23200 31.04400
C  11.44900 1.49000 31.70300
C  10.78200 0.71500 32.77900
O  9.68300 0.21100 32.73800
O  11.62100 0.70200 33.79300
C  11.05100 0.27400 35.13000
H  6.63400 6.39600 30.74900
H  7.15300 5.59600 24.20100
H  10.98100 0.62700 25.41000
H  8.76300 3.08500 33.23500
H  8.16800 6.02400 32.60100
H  6.40700 3.69200 33.26900
H  5.75700 4.99200 32.31600
H  6.52200 5.32600 33.92600
H  10.16400 5.62900 33.14000
H  11.18200 4.23800 32.86600
H  10.96000 3.50900 35.07500
H  9.41500 4.25800 35.38000
H  5.25800 7.70700 29.87300
H  4.15200 7.71500 28.42700
H  5.43000 8.91300 28.64200
H  3.78600 8.16900 26.38200
H  4.09500 9.12600 25.01400
H  5.05100 9.41700 26.54200
H  8.63100 4.02000 22.77200
H  8.90400 1.19900 23.65600
H  7.03300 1.69900 22.74800
H  6.73000 3.30400 22.02900
H  6.12800 3.03100 23.52900
H  11.55400 2.29800 23.72000
H  10.77800 2.98400 22.30100
H  12.23100 0.61800 22.71500
H  11.36900 0.99900 21.29100
H  10.49900 0.09100 22.70700
H  12.65200 -0.68900 26.57700
H  11.77700 -1.59800 27.66200
H  13.32400 -0.76200 28.18600
H  12.28100 2.05700 32.12000
H  10.04900 0.70400 35.14300
H  11.51100 0.63900 36.04800
H  10.90700 -0.80600 35.16800
Mg 44.31400 4.52000 47.07600
C  42.25100 7.26600 46.41400
C  41.60500 2.45500 46.48800
C  46.37700 1.88800 46.81200
C  46.96100 6.74600 47.23600
N  42.26200 4.87100 46.41800
C  41.60800 6.06100 46.25500
C  40.13500 5.88700 45.87300
C  39.90600 4.42300 46.37900
C  41.39700 3.86000 46.51400
C  39.26500 4.39300 47.77800
C  40.06300 5.93000 44.31100
C  39.23600 7.02900 43.66800
H  39.48100 7.28100 42.20600
N  44.00900 2.40700 46.83200
C  42.83500 1.78600 46.62000
C  43.10800 0.31500 46.59900
C  44.48900 0.13600 46.38700
C  45.06300 1.50800 46.63800
C  42.06600 -0.75300 46.44900
C  45.22500 -1.09000 46.14000
O  44.54100 -2.08000 45.91100
C  46.76000 -1.24100 46.10200
N  46.37300 4.34300 46.93200
C  46.94800 3.13100 47.06600
C  48.49100 3.23200 47.19300
C  48.73500 4.81800 47.25700
C  47.26900 5.36300 47.13600
C  49.02200 2.37600 48.35800
C  49.74000 5.43900 46.28100
C  51.10700 5.97300 46.82500
N  44.59900 6.58500 47.02400
C  45.70800 7.33200 47.11000
C  45.42200 8.72800 47.10100
C  44.01500 8.79900 46.82200
C  43.61200 7.41300 46.72700
C  46.36300 9.82000 47.36000
C  42.87200 9.71400 46.56500
O  42.69700 10.92200 46.42300
C  41.68500 8.70900 46.25400
C  40.71900 9.05300 47.31500
O  40.95700 9.00100 48.49000
O  39.46800 9.42600 46.81300
C  38.43300 9.66800 47.75800
H  40.72300 1.81300 46.54500
H  47.17000 1.15100 46.66900
H  47.76100 7.47500 47.38200
H  39.48800 6.69000 46.22500
H  39.39700 3.83000 45.61900
H  39.20400 5.41900 48.14000
H  39.80400 3.84900 48.55500
H  38.24600 4.01400 47.70000
H  39.59400 5.07000 43.83200
H  41.08800 5.91900 43.94000
H  39.30000 7.98000 44.19600
H  38.20200 6.68800 43.61400
H  42.19900 -1.31900 45.52800
H  41.03500 -0.44200 46.27800
H  42.21000 -1.46300 47.26300
H  47.32400 -0.94700 46.98700
H  47.20400 -0.88100 45.17400
H  46.93600 -2.31400 46.02600
H  49.07400 2.95000 46.31700
H  49.04600 5.07400 48.27000
H  48.28100 2.21500 49.14100
H  49.91300 2.82500 48.79700
H  49.34700 1.36300 48.12300
H  49.22300 6.36400 46.02300
H  49.89700 4.82700 45.39300
H  51.87800 5.39800 46.31200
H  51.17100 5.80500 47.90000
H  51.13400 7.05600 46.70900
H  46.23200 10.06700 48.41400
H  46.07000 10.66100 46.73300
H  47.38000 9.49100 47.14100
H  41.18800 8.91700 45.30600
H  38.59900 10.64300 48.21700
H  38.45300 8.89700 48.52800
H  37.47700 9.77400 47.24500

