158

Mg 35.65800 48.74300 24.53400
C  35.80200 46.92100 27.60000
C  34.68000 51.54400 26.16700
C  35.01300 50.01100 21.61700
C  36.82000 45.74900 23.07900
N  35.24000 49.18500 26.66400
C  35.41100 48.32200 27.71200
C  35.08200 49.03700 29.03000
C  34.53800 50.45800 28.51000
C  34.84600 50.45800 27.03100
C  33.06000 50.71400 28.85500
C  36.40000 49.05900 29.90900
C  36.27000 48.81300 31.39000
H  34.86200 48.83100 32.03000
N  35.03400 50.53800 23.92800
C  34.66800 51.60900 24.74800
C  34.49400 52.80800 23.84800
C  34.39300 52.33500 22.51600
C  34.84900 50.93800 22.64300
C  34.28200 54.13300 24.42100
C  33.95700 53.02600 21.29100
O  33.99900 52.47100 20.21600
C  33.55900 54.50000 21.29900
N  35.83700 47.98300 22.64800
C  35.58200 48.75100 21.58000
C  35.65400 47.94100 20.30200
C  36.60900 46.78600 20.75700
C  36.36400 46.75600 22.32300
C  34.40000 47.36400 19.64300
C  38.00200 47.04600 20.27500
C  38.80600 45.81800 19.74300
N  36.06600 46.62500 25.11900
C  36.70400 45.61100 24.48900
C  36.89900 44.45000 25.28800
C  36.47500 44.89300 26.54700
C  36.09000 46.27000 26.41000
C  37.46100 43.10900 25.00700
C  36.48200 44.57400 28.00200
O  36.82900 43.55000 28.60200
C  35.99600 45.84400 28.66500
C  34.72400 45.53400 29.37600
O  33.56100 45.36200 28.87800
O  35.09500 45.42800 30.71400
C  33.98800 44.98900 31.51100
H  34.40200 52.43100 26.74000
H  34.87100 50.35200 20.59000
H  37.35300 44.92400 22.60100
H  34.24000 48.54600 29.52000
H  35.11500 51.28600 28.92300
H  32.64300 49.95800 29.52000
H  32.44200 50.79700 27.96100
H  32.84900 51.68600 29.30200
H  36.79300 50.07600 29.88100
H  37.08400 48.28700 29.55800
H  36.82900 49.55600 31.96000
H  36.69300 47.83300 31.61000
H  33.23700 54.39600 24.58700
H  34.70000 54.95000 23.83200
H  34.69200 54.13100 25.43100
H  34.46500 55.00500 21.63600
H  32.72000 54.55200 21.99300
H  33.23100 54.76300 20.29400
H  36.07600 48.58200 19.52800
H  36.18600 45.84700 20.40000
H  34.57400 46.35500 19.27000
H  34.29100 48.03000 18.78700
H  33.46800 47.39700 20.20700
H  38.59000 47.41900 21.11400
H  37.92600 47.73600 19.43400
H  39.04800 45.84700 18.68000
H  38.31900 44.86800 19.96200
H  39.68500 45.83400 20.38800
H  36.76900 42.55200 24.37500
H  37.53000 42.54600 25.93800
H  38.43100 43.13400 24.51000
H  36.88500 46.05300 29.25900
H  33.70700 44.01300 31.11500
H  33.22700 45.73500 31.28100
H  34.20200 45.05700 32.57800
Mg -2.33800 34.66800 26.59400
C  -3.91700 32.89500 29.23000
C  -0.90600 36.63600 29.08100
C  -1.31300 36.68500 24.18700
C  -4.20600 32.82500 24.34300
N  -2.69700 34.84600 28.97000
C  -3.16800 33.94900 29.81900
C  -2.75300 34.11500 31.22800
C  -2.06800 35.53800 31.19200
C  -1.85500 35.71100 29.63800
C  -2.95600 36.66400 31.89800
C  -1.93600 32.84300 31.84200
C  -2.64200 32.28200 33.13400
H  -1.80600 32.36000 34.42400
N  -1.14500 36.28000 26.59400
C  -0.67600 37.00900 27.68200
C  0.16200 38.10200 27.17100
C  0.06300 38.17500 25.78200
C  -0.79200 37.02000 25.50800
C  0.86200 39.00100 28.05700
C  0.64100 39.15100 24.76400
O  0.48500 39.07300 23.57300
C  1.46600 40.25000 25.19100
N  -2.88100 34.79900 24.61700
C  -2.26100 35.70200 23.84700
C  -2.69400 35.53200 22.38700
C  -3.35700 34.11000 22.38500
C  -3.50600 33.89000 23.88000
C  -3.59100 36.75800 21.95100
C  -2.76300 33.00200 21.50300
C  -1.43300 32.33000 21.91200
N  -3.78400 33.15100 26.67600
C  -4.36500 32.42000 25.67600
C  -5.03300 31.28600 26.25500
C  -4.86500 31.45700 27.65800
C  -4.17100 32.64100 27.81600
C  -5.71000 30.11900 25.50100
C  -5.21700 30.80600 28.95900
O  -5.83600 29.77600 29.19100
C  -4.64200 31.81100 30.04500
C  -5.75600 32.34900 30.88200
O  -6.44100 33.37300 30.69500
O  -5.79100 31.59400 32.06600
C  -6.92700 31.91700 33.02200
H  -0.21800 37.23300 29.68300
H  -1.00500 37.42000 23.44000
H  -4.66500 32.13600 23.63100
H  -3.58900 34.26200 31.91200
H  -1.13600 35.45300 31.75100
H  -3.38800 37.25800 31.09200
H  -2.36500 37.42800 32.40300
H  -3.77400 36.34700 32.54500
H  -0.94600 33.19200 32.13700
H  -1.80900 32.07100 31.08400
H  -2.71100 31.19800 33.03700
H  -3.62000 32.71800 33.33900
H  0.42000 39.99600 28.11700
H  1.88800 39.13300 27.71500
H  1.04800 38.39800 28.94600
H  2.49700 39.98000 25.42100
H  0.93200 40.75700 25.99400
H  1.52700 40.91900 24.33300
H  -1.71200 35.57200 21.91600
H  -4.36500 34.27300 22.00200
H  -4.54800 36.39500 21.57400
H  -3.07800 37.23700 21.11700
H  -3.79200 37.54100 22.68200
H  -2.54000 33.42200 20.52200
H  -3.52200 32.22900 21.38300
H  -1.11400 32.66600 22.89900
H  -0.68300 32.48500 21.13600
H  -1.64100 31.26000 21.92300
H  -5.21400 29.94700 24.54600
H  -6.75600 30.37800 25.33700
H  -5.66500 29.26700 26.17900
H  -3.88600 31.24500 30.59000
H  -7.79800 32.32100 32.50600
H  -6.61800 32.63200 33.78400
H  -7.28800 30.99600 33.47900

