158

Mg 0.08600 7.35800 27.54100
C  1.15400 9.76900 29.93800
C  0.12500 5.06200 30.05100
C  -0.92000 5.18300 25.31200
C  0.43900 9.74200 25.10300
N  0.86000 7.42200 29.67900
C  1.04600 8.50500 30.47300
C  0.78700 8.04100 32.03800
C  0.98900 6.53000 31.96300
C  0.62100 6.31500 30.45800
C  2.27400 5.88600 32.58200
C  -0.65800 8.45500 32.62000
C  -0.79200 8.84800 34.12100
H  0.35300 8.32500 35.01000
N  -0.31200 5.38200 27.63000
C  -0.23600 4.58200 28.78100
C  -0.61900 3.27900 28.36100
C  -0.98500 3.29700 27.02600
C  -0.85600 4.67700 26.60400
C  -0.48700 2.11600 29.28700
C  -1.53900 2.10500 26.09800
O  -1.81100 2.15900 24.89700
C  -1.76100 0.79100 26.79600
N  -0.05200 7.42600 25.40100
C  -0.49800 6.39100 24.74300
C  -0.66000 6.63400 23.25800
C  -0.11300 8.05000 23.11100
C  0.13800 8.47600 24.63200
C  0.10100 5.53800 22.38300
C  -0.79400 9.17600 22.20900
C  -2.04800 9.70200 22.82900
N  0.80300 9.33100 27.43700
C  0.80400 10.16300 26.37900
C  1.36200 11.42600 26.79700
C  1.37000 11.36500 28.23600
C  1.08000 10.05400 28.59100
C  1.55700 12.61300 25.88900
C  1.66500 12.04800 29.50400
O  1.98600 13.24000 29.73600
C  1.33500 11.05300 30.65400
C  2.50400 10.98800 31.57700
O  3.68800 10.72500 31.24500
O  2.08000 11.42700 32.81000
C  3.05500 11.54000 33.89200
H  0.00400 4.44600 30.94500
H  -1.19400 4.40800 24.59300
H  0.40400 10.54100 24.35900
H  1.61700 8.45100 32.61300
H  0.13200 6.19200 32.54600
H  2.52200 6.62900 33.34000
H  3.12200 5.82900 31.90000
H  2.13200 5.00700 33.21200
H  -1.39700 7.72700 32.28400
H  -0.95500 9.31400 32.01900
H  -1.66200 8.31400 34.50200
H  -0.79000 9.93300 34.22900
H  -0.16600 1.16500 28.86300
H  -1.50200 1.86000 29.59200
H  -0.00000 2.24600 30.25400
H  -0.88500 0.27500 27.19000
H  -2.12700 0.04900 26.08700
H  -2.42300 0.86800 27.65800
H  -1.68800 6.60300 22.89800
H  0.88500 7.89400 22.70200
H  0.51800 6.00200 21.49000
H  -0.59500 4.79500 21.99300
H  0.89700 5.04300 22.93900
H  -0.94300 8.83500 21.18500
H  -0.17500 10.06600 22.09400
H  -1.92500 10.74700 23.11300
H  -2.39300 9.11700 23.68100
H  -2.86100 9.69400 22.10300
H  2.59000 12.96100 25.86600
H  0.91000 13.42000 26.23400
H  1.26000 12.37000 24.86900
H  0.46400 11.43500 31.18700
H  2.86100 10.91100 34.76100
H  3.06300 12.56900 34.25100
H  4.03700 11.27500 33.50100
Mg 42.19500 41.53800 27.37400
C  41.40700 43.95100 29.84300
C  42.86100 39.23900 29.91200
C  42.94100 39.31200 25.06100
C  41.80300 44.09300 25.00500
N  42.26100 41.66700 29.57400
C  41.70900 42.66200 30.35400
C  41.74300 42.26900 31.78900
C  42.43800 40.93300 31.82700
C  42.50100 40.56200 30.35100
C  43.85000 40.85400 32.48300
C  40.27900 42.24800 32.33800
C  40.03100 43.04400 33.61400
H  39.48500 42.37000 34.95600
N  42.76100 39.54300 27.48700
C  42.98700 38.79100 28.58900
C  43.31800 37.44400 28.15900
C  43.29900 37.38000 26.74700
C  42.95800 38.74700 26.37800
C  43.59400 36.31500 29.13000
C  43.51100 36.24900 25.87300
O  43.58700 36.43100 24.70600
C  43.82100 34.87200 26.35800
N  42.32400 41.72200 25.43900
C  42.68100 40.62600 24.62600
C  42.66500 40.96000 23.12900
C  42.08800 42.41600 23.05700
C  42.14200 42.81800 24.60000
C  43.96500 40.67200 22.30600
C  40.67700 42.61300 22.55100
C  39.54800 41.90300 23.36400
N  41.66400 43.64500 27.38900
C  41.55000 44.49200 26.31900
C  41.05600 45.77000 26.80000
C  40.92400 45.60700 28.23800
C  41.37400 44.31300 28.45600
C  40.77300 46.95800 25.88700
C  40.53300 46.24000 29.48600
O  40.15700 47.35900 29.82600
C  40.87600 45.15900 30.61900
C  41.98200 45.66500 31.54500
O  43.18400 45.43900 31.43300
O  41.40200 46.31100 32.56100
C  42.29400 46.77800 33.69400
H  43.16700 38.55300 30.70400
H  43.19200 38.66100 24.22100
H  41.48600 44.80600 24.24000
H  42.30000 42.96300 32.41800
H  41.77400 40.19700 32.28100
H  43.70200 39.90000 32.98900
H  43.89700 41.73400 33.12400
H  44.63300 40.69200 31.74100
H  40.07900 41.22700 32.66500
H  39.54100 42.46400 31.56600
H  39.22700 43.75100 33.40900
H  40.82700 43.76300 33.81300
H  44.65000 36.16900 29.35600
H  43.13400 35.34200 28.95400
H  43.07200 36.58900 30.04700
H  43.81300 34.16900 25.52400
H  42.91300 34.61900 26.90600
H  44.71300 34.93000 26.98200
H  41.97000 40.30700 22.59900
H  42.81200 43.04300 22.53600
H  44.37200 41.59400 21.89200
H  43.68800 40.01700 21.47900
H  44.70600 40.21000 22.95800
H  40.64600 42.11300 21.58300
H  40.43300 43.67300 22.62400
H  39.82100 41.78300 24.41200
H  39.23800 40.95700 22.91900
H  38.65000 42.51100 23.25800
H  40.41700 46.57100 24.93200
H  41.75400 47.40400 25.72800
H  39.97200 47.60800 26.23700
H  40.00600 44.98700 31.25300
H  42.62200 45.95300 34.32600
H  41.77600 47.46500 34.36300
H  43.10100 47.36300 33.25300

