158

Mg -2.97700 17.63500 26.72900
C  -3.32500 15.31500 29.47900
C  -3.56900 20.14000 28.97700
C  -3.25100 19.75900 24.16800
C  -3.14600 14.88700 24.67500
N  -3.46900 17.69300 29.02000
C  -3.45700 16.62400 29.92100
C  -3.60800 17.12100 31.39500
C  -3.80200 18.66200 31.15200
C  -3.69900 18.87100 29.58900
C  -5.10000 19.18000 31.77700
C  -2.36400 16.79600 32.31500
C  -2.35200 17.64500 33.59100
H  -1.89500 16.95700 34.90300
N  -3.21000 19.66600 26.64100
C  -3.30300 20.52400 27.64500
C  -2.94800 21.84400 27.10600
C  -2.82400 21.78600 25.69000
C  -3.15300 20.41900 25.44200
C  -2.89100 23.07600 28.02200
C  -2.44200 22.88700 24.73600
O  -2.30700 22.65400 23.53800
C  -2.32200 24.30800 25.16000
N  -3.39100 17.34500 24.71400
C  -3.35600 18.36000 23.86700
C  -3.59800 17.90500 22.40000
C  -3.45900 16.29700 22.57900
C  -3.28100 16.14900 24.07800
C  -4.69100 18.58600 21.56100
C  -2.23600 15.75100 21.81900
C  -0.86600 16.31900 22.25600
N  -3.08100 15.54000 26.95900
C  -3.15400 14.57900 26.00500
C  -3.05400 13.25200 26.57400
C  -3.19200 13.52200 27.93700
C  -3.19800 14.92000 28.14000
C  -2.96100 11.97500 25.85400
C  -3.37600 12.83200 29.22500
O  -3.47200 11.68300 29.58100
C  -3.42300 14.01700 30.24600
C  -2.29900 13.77300 31.10600
O  -1.12900 14.02600 30.89800
O  -2.73100 13.08400 32.20800
C  -1.67900 12.77900 33.23100
H  -3.54400 20.96800 29.69000
H  -3.41400 20.41100 23.30700
H  -3.24100 13.98000 24.07300
H  -4.49400 16.63000 31.79800
H  -3.09600 19.36800 31.58900
H  -5.68900 19.64800 30.98800
H  -4.88200 19.92400 32.54300
H  -5.69300 18.42200 32.28800
H  -1.41700 16.76100 31.77900
H  -2.65400 15.83400 32.73700
H  -3.15700 18.36400 33.74600
H  -1.55300 18.34300 33.33800
H  -1.89900 23.52400 27.96300
H  -3.15600 22.90200 29.06500
H  -3.59000 23.88300 27.79900
H  -2.40500 24.92900 24.26800
H  -1.42100 24.31900 25.77400
H  -3.17500 24.57800 25.78200
H  -2.67600 18.24100 21.92600
H  -4.39900 15.83500 22.27800
H  -5.15800 17.98100 20.78400
H  -4.34900 19.54100 21.16100
H  -5.57600 18.79200 22.16300
H  -2.28700 15.86500 20.73700
H  -2.08000 14.69200 22.02600
H  -0.90900 17.13300 22.98000
H  -0.34000 16.61600 21.34900
H  -0.31500 15.52600 22.76300
H  -3.74200 12.02700 25.09500
H  -3.12400 11.17200 26.57200
H  -1.98900 11.91900 25.36400
H  -4.34800 13.95500 30.82000
H  -2.17100 11.90100 33.64900
H  -1.57600 13.65700 33.86800
H  -0.71600 12.46100 32.83100
Mg 48.05600 25.57000 27.90700
C  49.03500 27.87900 30.30000
C  47.00300 23.53500 30.43400
C  47.34500 23.46500 25.53900
C  50.06500 27.47100 25.61200
N  48.05200 25.67800 30.13300
C  48.44600 26.80200 30.87500
C  47.96500 26.63300 32.36500
C  47.42700 25.15700 32.37200
C  47.47500 24.74700 30.90800
C  48.26800 24.16100 33.22600
C  46.91300 27.72100 32.82900
C  46.09500 27.41800 34.09300
H  45.88200 28.43200 35.26800
N  47.38800 23.74500 27.93300
C  46.91600 23.06800 29.09300
C  46.49000 21.73300 28.68100
C  46.44100 21.74800 27.27800
C  47.03000 23.02600 26.84700
C  46.11700 20.67700 29.67100
C  45.82700 20.72000 26.33000
O  45.96500 20.74400 25.14800
C  45.07900 19.57200 26.90800
N  48.56600 25.54500 25.83100
C  48.03600 24.62000 25.03600
C  48.37100 24.80000 23.57600
C  49.26500 26.13300 23.64500
C  49.34900 26.39300 25.13300
C  49.07200 23.58300 22.91700
C  48.64700 27.35100 22.90000
C  48.22100 27.07300 21.47300
N  49.27100 27.44300 27.85300
C  50.01700 28.03000 26.91600
C  50.64700 29.23500 27.44200
C  50.23700 29.20400 28.84300
C  49.44200 28.06400 28.98500
C  51.45700 30.17200 26.68500
C  50.36000 29.92700 30.02400
O  50.90600 30.99800 30.20100
C  49.49000 29.24300 30.99800
C  50.23500 29.08200 32.28700
O  51.23400 28.32600 32.46100
O  49.70300 29.82800 33.28200
C  50.28200 29.70800 34.59100
H  46.59700 22.75100 31.07600
H  47.10000 22.70700 24.79200
H  50.53300 28.17500 24.92000
H  48.78000 26.75900 33.07800
H  46.39900 25.20300 32.73000
H  49.07600 23.85000 32.56400
H  47.70300 23.24800 33.41300
H  48.65500 24.43600 34.20700
H  46.22100 27.80500 31.99100
H  47.45200 28.66200 32.94500
H  46.58100 26.57700 34.58700
H  45.17700 26.99500 33.68800
H  46.80200 20.82400 30.50600
H  46.24300 19.63900 29.36200
H  45.08200 20.71100 30.01100
H  44.34300 19.93200 27.62700
H  45.62400 18.82400 27.48300
H  44.61800 19.06100 26.06300
H  47.44300 24.95300 23.02500
H  50.23800 25.83900 23.25100
H  48.32200 22.84400 22.63500
H  49.76000 23.11900 23.62400
H  49.74000 23.89700 22.11500
H  49.48200 28.05200 22.91000
H  47.84700 27.78200 23.50100
H  49.07000 26.52900 21.05900
H  48.21400 28.06200 21.01500
H  47.23500 26.61100 21.43100
H  50.92100 31.05000 26.32500
H  52.00400 29.73600 25.84900
H  52.17900 30.41700 27.46400
H  48.64900 29.89000 31.25000
H  51.29400 29.31000 34.67000
H  49.62400 29.16500 35.26900
H  50.32300 30.72400 34.98300

