158

Mg 0.38100 7.07700 25.92700
C  1.10100 9.12500 28.69800
C  1.27800 4.37600 27.95200
C  0.66000 5.03600 23.15600
C  0.58200 9.87100 23.85100
N  0.99400 6.80600 28.05100
C  1.08100 7.74100 29.03500
C  1.14500 7.14600 30.43900
C  1.23900 5.62200 30.16800
C  1.12600 5.58300 28.64800
C  2.50600 5.00400 30.70000
C  -0.06500 7.56900 31.39000
C  0.10000 7.63800 32.90500
H  1.30100 6.96200 33.56700
N  0.76300 4.91200 25.62200
C  1.04400 4.04100 26.58100
C  1.12000 2.69200 25.99400
C  0.90800 2.84400 24.61500
C  0.78100 4.29900 24.35300
C  1.33500 1.51800 26.76800
C  0.79000 1.75800 23.47900
O  0.77200 2.04000 22.28900
C  0.74600 0.27600 23.85900
N  0.61900 7.38600 23.82300
C  0.55900 6.40200 22.93500
C  0.31300 6.96700 21.48100
C  0.23000 8.51000 21.68200
C  0.42900 8.61900 23.24700
C  1.33100 6.48000 20.46300
C  -1.20500 9.09900 21.32000
C  -2.26700 9.26800 22.36400
N  0.65800 9.09200 26.19600
C  0.72400 10.12700 25.27600
C  0.84900 11.39300 25.97500
C  1.02400 11.05700 27.33300
C  0.87700 9.68300 27.38000
C  0.72300 12.66100 25.36300
C  1.25300 11.52000 28.64100
O  1.48000 12.60600 29.05700
C  1.12600 10.33800 29.57900
C  2.41500 10.43500 30.46000
O  3.60000 10.37700 30.00700
O  2.05500 10.82700 31.73800
C  3.13600 10.89500 32.71900
H  1.31600 3.51300 28.62100
H  0.59300 4.50400 22.20500
H  0.60700 10.75400 23.20900
H  2.06600 7.54800 30.86000
H  0.31700 5.08900 30.40100
H  2.28000 4.53100 31.65600
H  3.25300 5.78500 30.84800
H  2.97400 4.22200 30.10300
H  -0.84400 6.82000 31.24500
H  -0.61900 8.43600 31.03000
H  -0.81600 7.23000 33.33200
H  0.10400 8.68500 33.20800
H  0.81700 0.65100 26.35900
H  1.04000 1.62300 27.81200
H  2.41300 1.36600 26.72000
H  1.56700 0.04600 24.53800
H  0.80800 -0.39800 23.00500
H  -0.22000 -0.03800 24.25200
H  -0.65400 6.51500 21.25600
H  1.02900 9.00800 21.13300
H  1.73600 7.38200 20.00200
H  1.04200 5.74200 19.71500
H  2.13600 5.99800 21.01700
H  -1.76100 8.48500 20.61200
H  -1.04700 10.02200 20.76100
H  -2.02600 8.91500 23.36600
H  -3.17600 8.70900 22.14400
H  -2.54400 10.32200 22.36700
H  0.32500 13.38900 26.07100
H  0.18900 12.66700 24.41300
H  1.68500 13.08600 25.07600
H  0.11100 10.39300 29.97300
H  3.74700 10.00600 32.56200
H  2.86300 10.89200 33.77400
H  3.67300 11.82700 32.54400
Mg 25.12200 -0.04000 29.10300
C  27.02500 -0.37800 32.04500
C  22.33900 0.43300 31.04500
C  23.38500 -0.10000 26.28700
C  27.95200 -1.12400 27.28600
N  24.72800 0.03500 31.32900
C  25.71600 0.02700 32.29800
C  25.14500 0.44700 33.69700
C  23.66700 0.61200 33.34000
C  23.52700 0.29600 31.82200
C  22.71900 -0.15400 34.24200
C  25.94900 1.58400 34.36700
C  25.21900 2.61000 35.27900
H  25.66900 2.69200 36.75900
N  23.17100 0.11900 28.71800
C  22.17500 0.27400 29.62100
C  20.96600 0.52600 28.88900
C  21.18900 0.38100 27.52500
C  22.62500 0.14700 27.45000
C  19.68600 0.94100 29.58900
C  20.28600 0.53600 26.32700
O  20.64900 0.61200 25.12300
C  18.76600 0.69700 26.66200
N  25.61700 -0.79500 27.15400
C  24.68700 -0.55800 26.15800
C  25.29900 -0.78100 24.77500
C  26.88700 -0.94700 25.02900
C  26.84300 -0.94900 26.56400
C  24.77500 -2.00400 23.99700
C  27.76300 0.15600 24.52500
C  27.54400 1.68200 24.87400
N  27.12800 -0.49200 29.49900
C  28.11700 -0.90200 28.66800
C  29.31200 -0.88600 29.40800
C  28.96900 -0.70700 30.68000
C  27.56500 -0.51100 30.75800
C  30.73800 -1.22700 28.85000
C  29.47400 -0.59300 32.02100
O  30.64700 -0.62600 32.42100
C  28.25400 -0.44200 32.97300
C  28.21100 -1.48100 33.99200
O  27.84900 -2.68800 33.90700
O  28.56800 -0.89200 35.11100
C  28.66400 -1.77000 36.27400
H  21.45600 0.66800 31.64300
H  22.90300 0.02900 25.31600
H  28.88800 -1.29600 26.75200
H  25.26500 -0.44600 34.31100
H  23.40500 1.66900 33.31500
H  23.07500 -0.17300 35.27200
H  22.54500 -1.15900 33.85800
H  21.73500 0.30000 34.12800
H  26.33500 2.13000 33.50600
H  26.76300 1.14000 34.94000
H  24.14200 2.44500 35.23900
H  25.37600 3.61900 34.89800
H  19.86900 1.56600 30.46300
H  19.21400 0.02600 29.94500
H  19.04000 1.54500 28.95200
H  18.53400 1.73200 26.90800
H  18.41600 0.00800 27.43100
H  18.18500 0.45800 25.77100
H  25.17400 0.13100 24.19200
H  27.18600 -1.93500 24.68100
H  23.93000 -2.36500 24.58400
H  25.40400 -2.89400 24.00300
H  24.41300 -1.69700 23.01600
H  27.64800 0.25700 23.44500
H  28.79100 -0.15400 24.71300
H  27.04000 1.66200 25.84000
H  26.90200 2.12600 24.11400
H  28.52000 2.16700 24.86600
H  31.02100 -0.49700 28.09200
H  30.73300 -2.07900 28.17000
H  31.51100 -1.17900 29.61700
H  28.40500 0.56700 33.35900
H  27.75300 -1.61400 36.85100
H  29.45000 -1.30500 36.87000
H  28.90000 -2.82600 36.14100

