158

Mg 16.45400 -2.83800 27.04600
C  15.66100 -0.43700 29.49900
C  18.36800 -4.48200 29.42100
C  17.62900 -4.75400 24.57300
C  14.90900 -0.66400 24.54600
N  17.22200 -2.20700 29.14600
C  16.57800 -1.37400 30.00600
C  17.08100 -1.48200 31.54000
C  18.07300 -2.77700 31.37900
C  17.93800 -3.17200 29.83600
C  19.52400 -2.54000 31.74400
C  15.97000 -1.62900 32.57500
C  15.81100 -0.66500 33.65100
H  17.12200 -0.07800 34.25000
N  17.64000 -4.55500 27.08900
C  18.30300 -5.14100 28.13900
C  18.88900 -6.35200 27.66400
C  18.73000 -6.38300 26.26000
C  17.94600 -5.24300 25.88200
C  19.82300 -7.06800 28.50100
C  19.32400 -7.38500 25.30100
O  19.07700 -7.37300 24.06800
C  20.14100 -8.70100 25.86000
N  16.21700 -2.76100 24.91700
C  16.95100 -3.65400 24.14600
C  16.90100 -3.30300 22.62200
C  15.78700 -2.17400 22.64800
C  15.63600 -1.83300 24.10400
C  18.26300 -2.78700 22.02600
C  14.53300 -2.41400 21.83700
C  13.26100 -2.54500 22.59500
N  15.51600 -0.97800 26.95000
C  14.83800 -0.27000 25.95600
C  14.09000 0.89800 26.60900
C  14.40400 0.84800 27.97100
C  15.30600 -0.30600 28.13400
C  13.16000 1.83500 25.95800
C  14.11700 1.58100 29.25200
O  13.43700 2.55200 29.49600
C  14.87600 0.65200 30.22600
C  15.90500 1.61100 30.91500
O  16.99500 1.85500 30.40900
O  15.50000 2.23400 32.06900
C  16.43600 3.34100 32.51800
H  18.91600 -5.06000 30.16800
H  18.01100 -5.19300 23.64900
H  14.39100 -0.02000 23.83300
H  17.58300 -0.54500 31.78200
H  17.86200 -3.60700 32.05200
H  19.85700 -3.20300 32.54300
H  19.63300 -1.49600 32.04000
H  20.17100 -2.71700 30.88500
H  15.92900 -2.59900 33.07200
H  15.08100 -1.58700 31.94500
H  15.51100 -1.29000 34.49200
H  15.10300 0.14000 33.45400
H  20.83900 -7.00700 28.11200
H  19.64100 -8.13900 28.59000
H  19.78500 -6.74500 29.54100
H  19.53300 -9.36500 26.47500
H  21.04500 -8.30100 26.31800
H  20.63600 -9.28100 25.08100
H  16.56700 -4.14300 22.01200
H  16.17700 -1.25500 22.20900
H  19.10800 -3.21300 22.56700
H  18.41600 -1.71000 22.10100
H  18.35500 -3.07800 20.98000
H  14.74900 -3.25000 21.17200
H  14.42900 -1.48000 21.28400
H  13.40700 -3.04000 23.55500
H  12.60100 -3.19800 22.02300
H  12.77800 -1.58300 22.76500
H  12.74600 1.19500 25.17900
H  13.63400 2.72000 25.53200
H  12.52200 2.11900 26.79500
H  14.15500 0.33000 30.97800
H  16.29300 4.29000 32.00200
H  17.50000 3.10400 32.51600
H  16.24100 3.54700 33.57100
Mg 29.04500 59.29700 41.31500
C  26.28100 57.72300 40.17900
C  30.95100 56.73200 39.74300
C  31.98100 61.26100 41.29100
C  27.12400 62.13000 41.83700
N  28.64700 57.52400 40.10700
C  27.42700 57.11100 39.75800
C  27.46600 55.96500 38.71100
C  28.91500 55.36900 38.98700
C  29.55200 56.59700 39.64100
C  28.96900 54.16200 39.86200
C  27.29200 56.58100 37.24300
C  26.68800 55.54500 36.24200
H  26.39400 56.11400 34.85200
N  31.20500 58.97800 40.75200
C  31.72000 57.80900 40.24500
C  33.16800 57.94900 40.23300
C  33.50000 59.23800 40.76000
C  32.18100 59.91900 41.00300
C  34.02500 56.80100 39.80800
C  34.85300 59.80400 41.03200
O  35.81100 59.17500 40.62800
C  35.11600 61.11400 41.82100
N  29.52900 61.44400 41.66700
C  30.74800 61.96900 41.60400
C  30.68200 63.47300 41.73500
C  29.12500 63.78000 41.86200
C  28.53100 62.36600 41.83200
C  31.56500 64.03100 42.89900
C  28.43100 64.65400 40.70600
C  27.78900 66.00000 41.21400
N  27.06400 59.73900 41.42700
C  26.39200 60.92500 41.63900
C  24.94800 60.69500 41.53300
C  24.83800 59.44200 40.94100
C  26.14800 58.90300 40.85300
C  23.83400 61.58000 41.88700
C  23.94700 58.44300 40.36200
O  22.74200 58.38600 40.29300
C  24.84300 57.30000 39.86400
C  24.53000 56.07000 40.64700
O  24.70300 55.89100 41.84500
O  23.88700 55.16100 39.87000
C  23.52300 53.90000 40.42600
H  31.48500 55.86200 39.35500
H  32.81300 61.96500 41.34000
H  26.40400 62.94900 41.88700
H  26.55100 55.38000 38.80600
H  29.47100 55.21500 38.06200
H  27.98000 53.95000 40.26900
H  29.66400 54.21500 40.69900
H  29.26500 53.34600 39.20300
H  28.23200 56.96700 36.84700
H  26.70800 57.49900 37.30400
H  25.74400 55.17300 36.63900
H  27.38100 54.70700 36.16200
H  34.38500 56.78800 38.78000
H  33.58400 55.81500 39.95000
H  34.88700 56.84600 40.47400
H  34.94800 61.93400 41.12200
H  36.20000 61.08900 41.93600
H  34.48400 61.20500 42.70400
H  31.02000 63.80900 40.75500
H  28.87900 64.26500 42.80700
H  31.12800 64.08500 43.89600
H  32.07500 64.92900 42.54900
H  32.36100 63.31200 43.09100
H  27.54600 64.09600 40.40100
H  29.04100 64.71500 39.80500
H  26.70100 65.95000 41.18800
H  28.18000 66.69000 40.46600
H  28.21100 66.26400 42.18300
H  22.89600 61.18000 41.50300
H  24.06700 62.55600 41.46100
H  23.83400 61.79200 42.95600
H  24.68500 57.19000 38.79100
H  22.67900 54.00600 41.10800
H  24.40500 53.38700 40.81000
H  23.18800 53.24900 39.61800

