158

Mg -2.31500 17.24400 27.28200
C  -2.82900 15.39700 30.15600
C  -2.82600 20.12600 29.22200
C  -2.44200 19.13700 24.53500
C  -2.29700 14.33100 25.39900
N  -2.71800 17.63400 29.50600
C  -2.77700 16.75000 30.51000
C  -2.89300 17.43200 31.79000
C  -3.11900 18.88200 31.46800
C  -2.77200 18.87200 29.99300
C  -4.39800 19.55600 31.98000
C  -1.70200 17.19300 32.76000
C  -1.50600 18.05600 34.07800
H  -1.14100 17.39100 35.42700
N  -2.49900 19.35500 26.98400
C  -2.80800 20.31100 27.84200
C  -2.91700 21.56700 27.16300
C  -2.51400 21.35400 25.77600
C  -2.43000 19.86600 25.70400
C  -3.24100 22.86200 27.98000
C  -2.42100 22.36300 24.63100
O  -2.20500 22.02400 23.50500
C  -2.61800 23.81100 24.92200
N  -2.46400 16.67900 25.24300
C  -2.48600 17.68700 24.34400
C  -2.50800 17.07600 22.89600
C  -2.11200 15.63200 23.21500
C  -2.36000 15.47900 24.65600
C  -3.96800 17.28800 22.26500
C  -0.71500 15.20700 22.83300
C  0.41600 16.11700 23.17200
N  -2.40900 15.20400 27.66300
C  -2.41300 14.18600 26.80600
C  -2.58100 12.92000 27.52500
C  -2.69500 13.35300 28.85300
C  -2.59300 14.72300 28.90400
C  -2.80800 11.50200 26.99200
C  -3.05400 12.90100 30.20000
O  -3.38000 11.83100 30.77900
C  -2.93700 14.16900 31.07900
C  -1.73000 13.86500 31.83800
O  -0.62300 14.24600 31.52300
O  -2.01300 13.43500 33.04800
C  -0.92000 13.41100 34.09900
H  -3.03700 20.99800 29.84400
H  -2.47500 19.68100 23.58900
H  -1.98700 13.45400 24.82700
H  -3.80700 17.14400 32.30900
H  -2.27400 19.42400 31.89300
H  -4.12900 20.32400 32.70600
H  -4.97400 18.83300 32.55800
H  -5.04300 19.91500 31.17900
H  -0.79800 17.29200 32.16000
H  -1.69200 16.21300 33.23700
H  -2.26600 18.82900 34.19300
H  -0.57000 18.56000 33.83800
H  -3.65000 22.68100 28.97400
H  -3.95900 23.47500 27.43500
H  -2.38900 23.52300 28.14100
H  -2.32300 24.33600 24.01300
H  -2.02300 24.09500 25.79000
H  -3.69700 23.89400 25.05200
H  -1.80500 17.61800 22.26300
H  -2.73400 14.84500 22.78800
H  -4.54100 17.97500 22.88700
H  -4.57300 16.39100 22.39200
H  -3.81400 17.50700 21.20800
H  -0.76900 15.16100 21.74600
H  -0.45700 14.17700 23.08100
H  -0.08100 16.64100 23.98800
H  0.77900 16.81100 22.41500
H  1.24300 15.54100 23.58700
H  -3.85000 11.40100 27.29400
H  -2.10400 10.92300 27.58900
H  -2.73100 11.38400 25.91100
H  -3.81700 14.24000 31.71700
H  -0.87600 14.33600 34.67300
H  0.12000 13.32300 33.78300
H  -0.86500 12.64000 34.86700
Mg 48.14700 16.04600 28.71800
C  46.12400 16.08300 31.55700
C  50.40200 18.10500 30.53000
C  49.64200 17.01700 25.83100
C  45.54300 14.71200 26.98700
N  48.35000 16.83800 30.88700
C  47.35100 16.73200 31.80300
C  47.83800 17.29700 33.09900
C  48.94900 18.28600 32.59100
C  49.27600 17.72400 31.21600
C  48.64000 19.78500 32.62000
C  48.22800 16.07600 34.03300
C  47.74000 16.28300 35.45800
H  47.32700 17.65500 35.97600
N  49.81600 17.27200 28.31900
C  50.75000 17.82100 29.17800
C  51.87500 18.36900 28.45700
C  51.60700 18.18700 27.08200
C  50.25000 17.46000 27.02700
C  53.09800 19.02000 29.12000
C  52.40500 18.63400 25.81700
O  52.06500 18.35700 24.69300
C  53.66000 19.57600 25.95000
N  47.59300 16.05700 26.72100
C  48.40000 16.36600 25.72400
C  47.96800 15.90900 24.35800
C  46.81300 15.01100 24.71800
C  46.64800 15.19100 26.23300
C  47.49300 17.06300 23.45900
C  47.12200 13.46500 24.48900
C  45.95700 12.64700 23.94300
N  46.28700 15.19200 29.23200
C  45.34800 14.62900 28.39600
C  44.20700 14.15500 29.15500
C  44.45300 14.64400 30.46700
C  45.67500 15.40100 30.43500
C  42.93200 13.63300 28.52600
C  43.88500 14.90300 31.75600
O  42.86700 14.55300 32.30600
C  45.05000 15.72500 32.56200
C  44.39700 16.84500 33.33100
O  44.04900 17.93800 32.84300
O  44.25900 16.44900 34.61000
C  43.33700 17.34300 35.37900
H  51.14200 18.67500 31.09500
H  50.25600 17.16500 24.94000
H  44.71800 14.18700 26.50100
H  47.05100 17.92700 33.51300
H  49.84800 18.16200 33.19400
H  47.67800 20.07400 33.04200
H  48.77100 20.24800 31.64200
H  49.33800 20.29400 33.28500
H  49.31200 15.96000 34.01700
H  47.66500 15.23700 33.62300
H  48.54400 16.05400 36.15700
H  46.98200 15.51900 35.62900
H  53.21000 20.01000 28.67700
H  53.90300 18.32100 28.89000
H  52.85800 19.22100 30.16400
H  53.88400 19.86600 24.92300
H  54.49100 19.05500 26.42500
H  53.37300 20.50500 26.44300
H  48.80400 15.36000 23.92500
H  45.88600 15.12000 24.15500
H  46.53100 16.85400 22.99200
H  48.29600 17.11700 22.72400
H  47.39500 17.95200 24.08300
H  47.40700 13.11100 25.47900
H  47.97400 13.43300 23.80900
H  46.31100 12.07100 23.08800
H  45.01600 13.15900 23.74200
H  45.74100 12.00200 24.79400
H  42.09300 14.13500 29.00700
H  42.87700 12.56700 28.74800
H  42.86700 13.75400 27.44500
H  45.38400 15.05200 33.35200
H  42.56200 17.73900 34.72200
H  43.87900 18.10600 35.93700
H  42.82300 16.86900 36.21600

