158

Mg 46.73000 15.60400 28.72800
C  44.69400 15.19000 31.64000
C  48.78900 17.37400 30.49800
C  48.24500 16.24200 25.82600
C  44.05600 14.12900 26.82800
N  46.70200 16.20600 30.82800
C  45.86800 15.94500 31.82400
C  46.37000 16.43700 33.15300
C  47.52500 17.36300 32.68700
C  47.66600 17.03100 31.21100
C  47.28900 18.84600 32.87400
C  46.80200 15.29400 34.03700
C  46.50700 15.41700 35.52700
H  46.43100 16.81700 36.11600
N  48.35800 16.58800 28.20300
C  49.13000 17.19600 29.13400
C  50.17700 17.90600 28.42800
C  50.09400 17.55300 27.02700
C  48.87500 16.77200 26.96800
C  51.19300 18.72900 29.14000
C  50.91300 17.97800 25.81100
O  50.56400 17.70200 24.67300
C  52.16100 18.71900 25.98800
N  46.21300 15.13400 26.59200
C  47.11700 15.52600 25.58000
C  46.57200 15.04700 24.19300
C  45.17600 14.49100 24.58200
C  45.13800 14.54200 26.07300
C  46.55400 16.16100 23.05800
C  44.91100 13.02400 24.15200
C  45.92500 11.94000 24.57800
N  44.79500 14.78500 29.16600
C  43.85000 14.20300 28.24100
C  42.75500 13.67800 29.06000
C  43.07100 14.04100 30.36900
C  44.31700 14.69500 30.39600
C  41.51000 12.87700 28.65700
C  42.59700 13.93200 31.76400
O  41.53600 13.39800 32.22500
C  43.62800 14.72300 32.64300
C  42.96700 15.95800 33.20700
O  42.32900 16.81400 32.57800
O  42.96800 15.84600 34.59400
C  42.39100 16.88100 35.44000
H  49.45900 18.01100 31.07800
H  48.80400 16.44000 24.90900
H  43.28600 13.54900 26.31400
H  45.59700 17.04200 33.62700
H  48.52200 17.13000 33.06000
H  48.03200 19.17700 33.60000
H  46.34300 19.14000 33.32800
H  47.40900 19.29900 31.89000
H  47.85800 15.08200 33.86900
H  46.24600 14.41500 33.71000
H  47.36000 14.99300 36.05500
H  45.63100 14.82600 35.79700
H  51.27400 19.72300 28.70000
H  52.13100 18.17800 29.06700
H  51.04200 18.87600 30.21000
H  51.81200 19.63900 26.45800
H  52.72100 18.63700 25.05600
H  52.83000 18.21100 26.68300
H  47.27300 14.32200 23.77800
H  44.40000 15.15000 24.19400
H  45.53900 16.47800 22.81600
H  47.13200 15.95000 22.15800
H  46.95300 17.07000 23.50700
H  44.96800 13.08600 23.06500
H  43.88500 12.73800 24.38500
H  45.52900 11.12400 25.18200
H  46.76600 12.31600 25.16100
H  46.45300 11.50600 23.72900
H  41.43000 12.89200 27.57000
H  40.67000 13.34400 29.17200
H  41.73300 11.88800 29.05800
H  44.04600 14.16200 33.47900
H  43.04200 17.75500 35.46000
H  42.27600 16.51300 36.45900
H  41.48300 17.26900 34.97900
Mg 9.21000 49.00700 25.62700
C  6.83300 49.39000 28.15100
C  11.54500 50.60300 27.63800
C  11.34300 48.54600 23.26100
C  6.49500 48.60500 23.33400
N  9.22000 49.60400 27.74400
C  8.18600 49.54200 28.60700
C  8.66700 49.75900 30.02800
C  10.07000 50.40600 29.81800
C  10.36100 50.18400 28.26800
C  10.13800 51.92400 30.15200
C  8.57700 48.43300 30.82200
C  9.45300 48.26400 32.15900
H  8.92800 47.51200 33.38000
N  11.22400 49.53300 25.45300
C  12.04500 50.17500 26.34700
C  13.39700 50.09500 25.91200
C  13.37300 49.44100 24.57500
C  11.94400 49.17200 24.37000
C  14.63500 50.39900 26.80800
C  14.49400 49.03200 23.72100
O  14.41800 48.40600 22.63800
C  15.85100 49.18800 24.36400
N  8.94500 48.83300 23.53800
C  10.05500 48.49700 22.82700
C  9.70400 47.91900 21.45300
C  8.21500 48.21000 21.39900
C  7.80800 48.60000 22.82900
C  10.55400 48.46500 20.27100
C  7.35300 46.99200 20.86700
C  6.07700 47.24400 19.93500
N  7.08300 48.80500 25.71300
C  6.12800 48.76500 24.65400
C  4.80500 48.89100 25.17500
C  5.02600 49.07500 26.59000
C  6.47500 49.07400 26.82000
C  3.51100 48.98200 24.48200
C  4.33800 49.32500 27.81600
O  3.13600 49.36900 28.05700
C  5.44300 49.60800 28.91700
C  5.30100 48.63400 30.04000
O  5.60900 47.47000 29.96200
O  4.94900 49.27100 31.19000
C  4.84100 48.47200 32.43500
H  12.30300 50.94800 28.34400
H  12.08800 48.20200 22.53900
H  5.76300 48.51100 22.52900
H  7.93800 50.49000 30.37900
H  10.87400 49.92300 30.37400
H  9.41000 52.15200 30.93100
H  9.97200 52.41000 29.19100
H  11.08300 52.31000 30.53700
H  8.52500 47.62300 30.09500
H  7.63200 48.50100 31.36100
H  9.82700 49.25800 32.40500
H  10.35000 47.72500 31.85500
H  14.31600 50.82900 27.75700
H  15.32700 51.15500 26.43700
H  15.22800 49.53200 27.09900
H  15.98000 48.36600 25.06800
H  15.93000 50.22000 24.70400
H  16.61000 49.17500 23.58100
H  9.88900 46.85100 21.56700
H  8.14500 49.02700 20.68100
H  9.98300 49.09700 19.59100
H  10.77800 47.60100 19.64500
H  11.36500 49.10400 20.62200
H  6.92600 46.45300 21.71300
H  8.03600 46.29700 20.37900
H  5.92700 46.31800 19.37900
H  6.30700 48.07900 19.27300
H  5.24900 47.51800 20.59000
H  3.47100 48.03800 23.93800
H  3.54700 49.90500 23.90300
H  2.80000 48.94500 25.30800
H  5.29900 50.65300 29.19100
H  4.40600 47.49800 32.21200
H  4.31600 49.08400 33.16900
H  5.86500 48.44400 32.80700

