158

Mg 7.46400 2.82400 28.58200
C  8.73900 1.50400 31.34700
C  5.25600 4.71100 30.29000
C  6.32200 4.11500 25.65200
C  9.24700 0.46500 26.76800
N  7.01700 2.99300 30.61100
C  7.81900 2.50100 31.60200
C  7.33100 3.02600 33.00800
C  5.93400 3.75700 32.60900
C  6.04600 3.83500 31.07700
C  4.71400 2.92400 33.01000
C  8.29700 4.03200 33.65600
C  8.07000 4.33600 35.12900
H  9.02600 3.72100 36.14500
N  6.00100 4.22200 28.03000
C  5.21000 4.95500 28.89200
C  4.51600 5.95300 28.12200
C  4.83400 5.76400 26.75500
C  5.80900 4.66400 26.74100
C  3.55700 6.96100 28.71200
C  4.47500 6.60900 25.59400
O  4.90800 6.42400 24.47500
C  3.48100 7.70100 25.79400
N  7.70400 2.32300 26.55600
C  7.18500 3.03500 25.46700
C  7.51600 2.53200 24.10600
C  8.65600 1.55000 24.44800
C  8.56100 1.40500 26.03300
C  6.33200 1.75800 23.34100
C  10.10400 2.10500 24.00400
C  10.52000 3.42200 24.76700
N  8.69400 1.14100 28.89100
C  9.43300 0.35700 28.10700
C  10.19700 -0.57200 28.89900
C  10.01800 -0.08600 30.19400
C  9.06500 0.90800 30.09500
C  10.80500 -1.73400 28.37600
C  10.44100 -0.21900 31.57500
O  11.31600 -0.94700 32.05600
C  9.53800 0.82800 32.37100
C  8.84000 0.03500 33.47500
O  7.72100 -0.48800 33.42400
O  9.63900 -0.08300 34.60700
C  9.03400 -0.74400 35.82400
H  4.66800 5.34400 30.95900
H  6.00600 4.55200 24.70300
H  9.78000 -0.27200 26.16300
H  7.12800 2.18200 33.66800
H  5.99800 4.76500 33.01800
H  4.77700 1.83800 33.07300
H  3.92900 3.17400 32.29600
H  4.20200 3.36000 33.86800
H  8.11500 4.99100 33.17000
H  9.32100 3.67300 33.55200
H  7.07500 3.97000 35.38000
H  8.05600 5.41500 35.28600
H  3.56300 6.96000 29.80200
H  2.53500 6.73000 28.41000
H  3.81300 7.97700 28.41200
H  3.92400 8.50700 26.37800
H  2.49100 7.30100 26.01600
H  3.49400 8.24400 24.84900
H  7.76500 3.35700 23.43900
H  8.56400 0.62200 23.88500
H  5.45100 2.09800 23.88700
H  6.28400 0.67100 23.28900
H  6.33400 2.17500 22.33400
H  10.08500 2.26000 22.92500
H  10.72600 1.23400 24.21000
H  9.72900 3.79800 25.41600
H  10.74400 4.20500 24.04300
H  11.48300 3.25800 25.25100
H  11.70800 -1.49900 27.81200
H  10.10200 -2.15800 27.65900
H  11.04700 -2.41000 29.19600
H  10.17300 1.48400 32.96600
H  8.18100 -1.30200 35.43800
H  8.76000 0.01800 36.55400
H  9.76800 -1.40800 36.28000
Mg -1.76100 33.84900 27.46700
C  -3.68000 32.31000 29.91000
C  -0.40800 35.82400 29.86300
C  -0.29200 35.75400 25.04300
C  -3.52600 32.21900 24.88000
N  -2.06700 34.00700 29.61800
C  -2.76700 33.18900 30.50400
C  -2.61900 33.63500 31.98300
C  -1.65900 34.83900 31.86100
C  -1.38500 34.94900 30.36700
C  -2.15700 36.21600 32.35900
C  -2.16300 32.46700 32.96000
C  -1.43300 32.95500 34.30100
H  -1.59700 32.19000 35.64700
N  -0.43300 35.50900 27.46600
C  0.06800 36.04500 28.54500
C  1.09200 37.00000 28.18200
C  1.06000 37.12400 26.80700
C  0.07200 36.16400 26.34800
C  1.98800 37.58100 29.21500
C  1.96800 37.85300 25.84600
O  1.82100 37.71400 24.65900
C  3.00300 38.80400 26.30100
N  -1.92100 34.04400 25.29200
C  -1.19000 34.85100 24.55200
C  -1.66100 34.77900 23.12500
C  -2.28300 33.37600 22.94900
C  -2.59200 33.13100 24.47000
C  -2.49700 36.06100 22.73100
C  -1.28200 32.18100 22.46400
C  0.18400 32.05900 22.96100
N  -3.34500 32.54800 27.38300
C  -3.95500 31.92800 26.28200
C  -4.89700 31.05600 26.77300
C  -4.87000 31.13700 28.16900
C  -3.86100 32.05100 28.49400
C  -5.75800 30.24400 25.92900
C  -5.42500 30.60700 29.42400
O  -6.24700 29.74000 29.64600
C  -4.72500 31.38400 30.50800
C  -5.82400 32.18700 31.19600
O  -6.69000 32.91300 30.69400
O  -5.74100 31.80700 32.49100
C  -6.84300 32.27300 33.35100
H  0.06200 36.32600 30.71100
H  0.08700 36.35500 24.21400
H  -4.08300 31.67700 24.11300
H  -3.64200 33.90500 32.24300
H  -0.66900 34.66900 32.28200
H  -1.34300 36.76800 32.83000
H  -2.83100 35.97400 33.18100
H  -2.64500 36.79600 31.57600
H  -1.46500 31.80500 32.44700
H  -3.02000 31.82300 33.15600
H  -1.75700 33.94300 34.62900
H  -0.36700 33.00300 34.08100
H  2.82000 36.94800 29.52300
H  1.36700 37.75400 30.09400
H  2.34200 38.56900 28.92100
H  3.77800 38.38900 26.94500
H  2.53100 39.68600 26.73300
H  3.41800 39.20300 25.37500
H  -0.86700 34.82500 22.37900
H  -3.18800 33.36300 22.34200
H  -2.39000 36.85800 23.46500
H  -3.53500 35.80600 22.51700
H  -2.12900 36.45600 21.78400
H  -1.37700 32.30100 21.38500
H  -1.89000 31.31700 22.73100
H  0.91200 32.27000 22.17800
H  0.38800 31.06400 23.35800
H  0.41400 32.72800 23.79100
H  -6.51000 30.89200 25.48000
H  -6.32700 29.61600 26.61500
H  -5.21000 29.68100 25.17400
H  -4.36900 30.66100 31.24200
H  -7.55500 32.91500 32.83100
H  -6.42300 32.78800 34.21500
H  -7.43000 31.40300 33.64500

