158

Mg 35.06400 3.26400 29.22300
C  32.89700 4.13700 31.82400
C  37.63100 3.26000 31.44100
C  37.03600 2.10800 26.68100
C  32.42800 3.68800 26.99500
N  35.23000 3.59400 31.40200
C  34.18800 3.91900 32.27700
C  34.68700 3.81000 33.69600
C  36.26200 3.90900 33.53900
C  36.43200 3.61100 32.01500
C  36.92800 5.32500 33.97200
C  34.29400 2.54900 34.43900
C  33.61600 2.89700 35.80900
H  34.21400 4.01900 36.69000
N  37.09500 2.73700 29.05600
C  37.99400 2.75700 30.19200
C  39.23800 2.17800 29.77900
C  39.10900 1.83600 28.37100
C  37.73100 2.21000 27.95000
C  40.44600 2.12600 30.68000
C  40.10700 1.27800 27.32900
O  39.89800 0.95200 26.17300
C  41.52400 0.97100 27.82300
N  34.82400 3.07200 27.20500
C  35.76100 2.54500 26.30500
C  35.33200 2.66500 24.85300
C  33.86100 2.98800 25.05300
C  33.66000 3.25600 26.53500
C  36.17600 3.84600 24.05100
C  32.85600 1.90900 24.43200
C  32.25600 0.82000 25.31500
N  33.18100 3.91500 29.32700
C  32.16300 3.98500 28.35200
C  30.90600 4.32600 28.88900
C  31.07600 4.33700 30.28400
C  32.52200 4.10000 30.46900
C  29.63300 4.64600 28.15300
C  30.48900 4.46300 31.61200
O  29.32700 4.72900 31.91400
C  31.69300 4.39200 32.59200
C  31.71200 5.65700 33.29600
O  32.03300 6.78800 32.92900
O  31.33100 5.43600 34.67200
C  30.97000 6.64600 35.43100
H  38.33500 3.27600 32.27600
H  37.61100 1.78600 25.81000
H  31.70400 3.83100 26.19100
H  34.31800 4.73100 34.14800
H  36.77900 3.11500 34.07700
H  36.19900 5.97800 34.45300
H  37.35400 5.93100 33.17300
H  37.69100 5.12200 34.72400
H  35.16500 1.89800 34.51900
H  33.58400 1.96500 33.85400
H  33.61600 2.06000 36.50800
H  32.64000 3.23900 35.46600
H  40.78600 1.11000 30.88200
H  40.24000 2.55000 31.66300
H  41.17800 2.77100 30.19500
H  42.08700 1.85500 28.12000
H  42.13000 0.66800 26.97000
H  41.54200 0.05000 28.40700
H  35.44600 1.76700 24.24700
H  33.70800 3.90200 24.48000
H  35.66000 4.80500 24.00800
H  36.43800 3.45900 23.06600
H  37.12800 4.09300 24.52100
H  33.22900 1.38200 23.55400
H  32.01300 2.52800 24.12400
H  32.98500 0.39800 26.00700
H  32.03100 -0.02500 24.66400
H  31.32500 1.17600 25.75600
H  28.88400 4.58200 28.94300
H  29.48000 3.87400 27.39900
H  29.68300 5.60400 27.63500
H  31.57000 3.53700 33.25700
H  30.08100 7.19200 35.11700
H  31.77900 7.37400 35.49600
H  30.84100 6.26300 36.44400
Mg 40.36000 10.69600 30.28600
C  42.29400 12.08900 32.80700
C  38.29300 9.35400 32.71000
C  38.90000 8.94400 27.84500
C  43.19800 11.05300 28.10900
N  40.27900 10.72100 32.48700
C  41.10700 11.50400 33.31700
C  40.56500 11.39500 34.77200
C  39.26700 10.52100 34.68300
C  39.31900 10.08400 33.22200
C  39.19700 9.24900 35.60800
C  40.26400 12.80200 35.32800
C  40.61200 12.92900 36.83700
H  39.61700 13.83700 37.71400
N  38.76100 9.44200 30.31600
C  37.96800 9.05500 31.34600
C  36.84100 8.35500 30.86100
C  37.02300 8.17200 29.44700
C  38.27300 8.89700 29.09400
C  35.79300 7.82300 31.82300
C  36.17300 7.28500 28.46300
O  36.54300 7.02800 27.33500
C  35.01900 6.58400 28.95600
N  41.01700 10.07500 28.29100
C  40.15300 9.36100 27.43900
C  40.59600 9.24400 26.01400
C  41.97000 10.05800 26.08400
C  42.06400 10.41900 27.56400
C  40.73900 7.74800 25.44000
C  42.07400 11.27500 25.11100
C  41.90600 12.69100 25.74300
N  42.23800 11.64100 30.29000
C  43.30600 11.55100 29.41800
C  44.43500 12.28500 29.96300
C  44.06000 12.49800 31.33200
C  42.76000 12.07100 31.47800
C  45.79500 12.44400 29.34900
C  44.53300 13.04800 32.55600
O  45.46800 13.70200 32.96100
C  43.40800 12.68300 33.62800
C  44.00400 11.70500 34.58500
O  44.33100 10.54400 34.49100
O  44.13700 12.41900 35.79400
C  44.69500 11.69600 36.96700
H  37.66200 8.94400 33.50100
H  38.44400 8.44100 26.99000
H  44.09200 11.06300 27.48100
H  41.26800 10.82900 35.38400
H  38.33100 11.04700 34.87000
H  38.23500 8.76100 35.76000
H  39.51500 9.65500 36.56800
H  39.82300 8.38100 35.40200
H  39.18100 12.90000 35.39600
H  40.50800 13.58900 34.61400
H  41.55500 13.47000 36.91500
H  40.71500 11.95800 37.32200
H  35.96400 6.74700 31.77800
H  34.73700 7.96500 31.59200
H  36.03700 8.07600 32.85500
H  35.55600 5.96000 29.67100
H  34.57100 5.98100 28.16500
H  34.38100 7.39000 29.31800
H  39.93900 9.73600 25.29600
H  42.82300 9.44600 25.79100
H  41.73100 7.32300 25.59300
H  40.47700 7.70900 24.38200
H  40.08900 7.03800 25.95100
H  41.35500 11.06200 24.32000
H  43.04400 11.19200 24.62100
H  42.13300 12.76600 26.80600
H  40.86300 12.96700 25.58900
H  42.55600 13.42600 25.26800
H  46.07400 11.63400 28.67600
H  46.49600 12.56600 30.17400
H  45.79500 13.25100 28.61600
H  43.11500 13.57600 34.18100
H  43.96400 11.14800 37.56200
H  45.22600 12.44500 37.55400
H  45.32600 10.87100 36.63800

