158

Mg 48.64700 35.85200 27.85800
C  46.92400 34.14600 30.41400
C  49.03900 38.47000 29.98900
C  49.89700 37.66000 25.27800
C  47.65900 33.29300 25.66800
N  48.10800 36.15200 29.95800
C  47.60700 35.31800 30.88100
C  47.77400 35.89800 32.31400
C  48.03700 37.44000 32.06000
C  48.38700 37.35600 30.54700
C  46.90200 38.41100 32.43100
C  48.95200 35.22700 33.12500
C  48.68000 34.85200 34.54200
H  49.29100 35.94900 35.48400
N  49.40400 37.84000 27.72500
C  49.55400 38.75100 28.69100
C  50.31200 39.92900 28.27900
C  50.47900 39.71600 26.89600
C  49.86000 38.38600 26.51700
C  50.75900 41.06700 29.16100
C  51.29600 40.51500 25.81300
O  51.46700 40.10900 24.64800
C  51.87600 41.75700 26.22500
N  48.84000 35.38000 25.71500
C  49.46000 36.32600 24.88900
C  49.47700 35.69300 23.48000
C  48.95000 34.23100 23.65000
C  48.48100 34.30600 25.06000
C  48.63300 36.54000 22.39500
C  50.02100 33.10900 23.40500
C  49.46400 31.92500 22.57600
N  47.59500 34.05300 28.00400
C  47.25400 33.09100 27.00100
C  46.48400 32.06000 27.54100
C  46.46300 32.36200 28.92200
C  47.05500 33.60700 29.13100
C  45.84400 30.97500 26.80400
C  45.95000 31.89100 30.27700
O  45.40400 30.82600 30.64400
C  46.13500 33.16400 31.20400
C  46.62100 32.87100 32.60700
O  47.62500 32.32400 32.95200
O  45.60700 33.04300 33.41200
C  45.54700 32.30100 34.66900
H  49.43900 39.13000 30.76100
H  50.46800 38.07200 24.44300
H  47.22800 32.48400 25.07500
H  46.83600 35.80000 32.86000
H  48.98200 37.62400 32.57200
H  47.16400 39.18800 33.14800
H  46.00300 37.93900 32.82700
H  46.51900 38.87100 31.52000
H  49.76100 35.94900 33.01400
H  49.32000 34.30300 32.67800
H  49.15100 33.90600 34.80900
H  47.61200 34.93100 34.74500
H  50.43900 42.04500 28.80200
H  51.83500 41.05900 29.33800
H  50.33600 40.87200 30.14600
H  51.00300 42.35200 26.49200
H  52.38300 42.31400 25.43800
H  52.53800 41.56600 27.07000
H  50.52200 35.68000 23.16800
H  48.03700 34.04100 23.08600
H  48.05100 35.77400 21.88300
H  49.26500 37.02500 21.65100
H  48.07100 37.31100 22.92100
H  50.42900 32.66500 24.31200
H  50.85400 33.61900 22.92100
H  48.73500 32.25800 21.83700
H  48.86900 31.29500 23.23900
H  50.20700 31.26200 22.13400
H  46.53100 30.15200 26.60600
H  45.47900 31.43400 25.88500
H  44.88300 30.68300 27.22900
H  45.13900 33.57700 31.36400
H  46.08000 32.64500 35.55500
H  45.87200 31.27600 34.49000
H  44.48300 32.35900 34.89900
Mg 42.62200 42.04900 26.84100
C  41.76200 44.17500 29.45000
C  43.52900 39.71200 29.23900
C  43.68100 40.07900 24.37400
C  41.80200 44.54900 24.53200
N  42.72900 42.09300 29.15800
C  42.31000 43.04400 29.97700
C  42.20400 42.54500 31.48700
C  43.07000 41.14800 31.31000
C  43.02300 40.87400 29.78700
C  44.52400 41.26500 31.85300
C  40.71200 42.31300 31.95500
C  40.47700 41.76300 33.41900
H  39.79000 42.58000 34.44300
N  43.65000 40.19400 26.83100
C  43.86100 39.38200 27.92800
C  44.34700 38.13900 27.49100
C  44.15700 38.15100 26.03300
C  43.85300 39.52700 25.68400
C  44.89400 37.10300 28.45500
C  44.22200 37.01400 25.02000
O  44.09300 37.17400 23.80800
C  44.59900 35.69600 25.40200
N  42.92900 42.29500 24.78300
C  43.23400 41.30000 23.94100
C  43.05500 41.58200 22.46800
C  42.39700 43.04100 22.54800
C  42.28300 43.27400 24.03900
C  44.51100 41.40900 21.77900
C  41.03900 43.14400 21.81600
C  39.97700 42.20600 22.49700
N  42.06500 44.01600 26.94600
C  41.79200 44.87800 25.88300
C  41.27800 46.09100 26.48600
C  41.17600 45.83100 27.86100
C  41.67700 44.57400 28.09900
C  40.96400 47.30400 25.79500
C  40.85200 46.42600 29.12600
O  40.35000 47.54000 29.42100
C  41.05700 45.31400 30.18300
C  41.80700 45.92800 31.30900
O  42.81700 46.59900 31.22100
O  41.03100 45.78300 32.48600
C  41.68100 46.21400 33.76200
H  43.67800 38.95300 30.01000
H  43.64700 39.37500 23.53900
H  41.41500 45.29600 23.83600
H  42.66400 43.21200 32.21600
H  42.51100 40.39100 31.86200
H  45.25700 40.90300 31.13200
H  44.60800 40.65600 32.75300
H  44.82200 42.29500 32.05100
H  40.36000 41.56200 31.24800
H  40.15600 43.24900 31.88500
H  41.43100 41.52400 33.88900
H  39.80900 40.90200 33.41100
H  45.16200 37.59600 29.39000
H  45.85600 36.71500 28.12200
H  44.25500 36.25100 28.68700
H  43.81400 35.14800 25.92400
H  45.41100 35.74000 26.12800
H  44.85400 35.11800 24.51400
H  42.31900 40.86300 22.10900
H  43.06000 43.74500 22.04500
H  44.77700 42.44900 21.59300
H  44.44100 40.87600 20.83100
H  45.19100 40.78500 22.36000
H  41.27900 42.70100 20.84900
H  40.60500 44.13800 21.71400
H  39.69900 41.44400 21.76900
H  39.13300 42.81600 22.81900
H  40.35400 41.62600 23.33900
H  40.24100 47.90400 26.34800
H  40.80100 47.19600 24.72200
H  41.84200 47.94600 25.86800
H  40.03100 45.13500 30.50600
H  42.75500 46.05700 33.65900
H  41.36900 45.49300 34.51800
H  41.37700 47.20900 34.08600

