158

Mg 44.60900 3.61900 47.07800
C  42.58500 6.23500 46.51700
C  41.69500 1.47700 47.11900
C  46.53800 0.87200 47.05100
C  47.34400 5.70100 46.62900
N  42.36100 3.77600 46.76700
C  41.81600 5.05900 46.55100
C  40.30900 4.95400 46.56100
C  40.02100 3.42300 46.95000
C  41.40000 2.86600 47.05500
C  39.06500 3.15900 48.17100
C  39.60000 5.39700 45.21700
C  40.32000 5.56400 43.88400
H  39.93400 6.65200 42.93100
N  44.18300 1.47300 47.10200
C  42.94500 0.82600 47.17900
C  43.16200 -0.62200 47.07100
C  44.57300 -0.84700 47.02300
C  45.18000 0.53900 47.05600
C  42.07200 -1.62200 46.94300
C  45.19600 -2.24500 46.88200
O  44.53500 -3.26800 46.71400
C  46.71400 -2.40700 46.89000
N  46.58900 3.25500 46.68500
C  47.19300 2.09200 46.84100
C  48.74300 2.08900 46.93000
C  48.95600 3.60700 46.75000
C  47.55300 4.24800 46.68100
C  49.38100 1.54500 48.18400
C  49.74800 4.00500 45.55300
C  51.03700 4.79700 45.65200
N  44.90900 5.64700 46.75000
C  46.10200 6.33800 46.65900
C  45.78200 7.70400 46.47800
C  44.39600 7.77900 46.52800
C  43.93100 6.47200 46.52300
C  46.77800 8.83300 46.40200
C  43.22200 8.63000 46.42500
O  43.10700 9.84200 46.38100
C  41.98900 7.68900 46.51900
C  41.03800 7.98100 47.60000
O  41.29900 7.97600 48.79500
O  39.86500 8.24400 46.98500
C  38.92500 8.90300 47.92600
H  40.84000 0.82300 46.93000
H  47.34700 0.13900 47.08400
H  48.20200 6.35400 46.80200
H  39.93600 5.57300 47.37700
H  39.58400 2.84600 46.13500
H  38.55500 2.24500 47.86600
H  38.25300 3.88600 48.19200
H  39.54900 3.07900 49.14400
H  38.89400 6.21700 45.34600
H  38.90100 4.60500 44.94800
H  40.14000 4.66700 43.29100
H  41.39000 5.35400 43.90000
H  41.11600 -1.15200 47.17200
H  42.18100 -2.50200 47.57700
H  41.96900 -1.90600 45.89600
H  46.93000 -3.46100 47.06800
H  47.14000 -1.90500 47.75900
H  47.05800 -2.03400 45.92500
H  49.09900 1.50200 46.08300
H  49.47500 3.97900 47.63300
H  50.06300 2.23600 48.67800
H  49.90800 0.63500 47.89700
H  48.68700 1.33700 48.99900
H  49.02100 4.67300 45.09100
H  49.85900 3.17800 44.85100
H  51.85100 4.32300 45.10400
H  51.38900 4.97700 46.66800
H  50.81900 5.78600 45.24700
H  47.52900 8.70200 45.62300
H  47.35400 8.77500 47.32500
H  46.32100 9.79600 46.17400
H  41.44400 7.84900 45.58900
H  37.98000 9.12500 47.43000
H  39.30400 9.88400 48.21200
H  38.84600 8.35700 48.86700
Mg 46.50700 25.68800 28.64600
C  47.88300 27.78300 31.24200
C  45.57900 23.47100 31.21100
C  45.95500 23.49600 26.29800
C  48.09200 27.81300 26.34600
N  46.78900 25.65300 30.97900
C  47.16000 26.71600 31.74000
C  46.80300 26.43200 33.27100
C  46.40300 24.88700 33.18800
C  46.17100 24.67900 31.69500
C  47.41000 23.93300 33.84200
C  45.75200 27.49900 33.84000
C  46.21600 28.25900 35.13500
H  45.31200 28.02700 36.37100
N  45.75100 23.75300 28.74300
C  45.44000 23.00900 29.79900
C  44.89300 21.79100 29.29100
C  45.07600 21.72400 27.89200
C  45.66000 22.98500 27.59200
C  44.38800 20.60600 30.19400
C  44.56800 20.68400 26.87600
O  44.71500 20.96200 25.67700
C  43.85100 19.36400 27.28200
N  46.99700 25.68100 26.54600
C  46.61100 24.60900 25.81500
C  47.16700 24.81600 24.30600
C  47.52900 26.30100 24.31000
C  47.59900 26.65500 25.81800
C  48.27500 23.77600 23.84700
C  46.61700 27.17300 23.32400
C  47.33300 27.69100 22.04500
N  47.58700 27.47100 28.70200
C  48.14400 28.22600 27.72600
C  48.80500 29.41800 28.18800
C  48.79200 29.26400 29.61300
C  48.03400 28.09100 29.87100
C  49.47500 30.38200 27.22400
C  49.21100 29.91600 30.86700
O  49.88600 30.89300 31.05600
C  48.52000 28.92800 31.94900
C  49.51700 28.47500 33.04100
O  50.30800 27.56900 32.86100
O  49.30900 29.18500 34.21000
C  50.08700 28.64400 35.42700
H  45.25700 22.77800 31.99100
H  45.80900 22.89400 25.39900
H  48.39500 28.50700 25.56000
H  47.67900 26.52400 33.91200
H  45.46200 24.91600 33.73700
H  48.39700 24.28900 33.54600
H  47.29100 22.89600 33.53000
H  47.35600 24.03000 34.92600
H  44.84600 26.93000 34.04800
H  45.51500 28.26500 33.10200
H  46.27900 29.28800 34.78200
H  47.17000 27.95200 35.56200
H  43.41400 20.33500 29.78600
H  44.38100 20.86400 31.25300
H  44.97400 19.68900 30.12300
H  44.50700 18.81100 27.95400
H  43.84800 18.75100 26.38100
H  42.79200 19.46200 27.52400
H  46.40300 24.74200 23.53200
H  48.57800 26.46300 24.05900
H  47.71100 23.11700 23.18700
H  48.70000 23.30200 24.73200
H  49.09700 24.38600 23.47200
H  46.20300 27.98200 23.92700
H  45.81700 26.51100 22.99300
H  48.40300 27.49900 22.12300
H  47.21500 28.77200 22.11600
H  46.86500 27.40800 21.10200
H  49.68900 31.31900 27.73700
H  48.77000 30.57600 26.41600
H  50.28200 29.79800 26.78100
H  47.67600 29.41700 32.43400
H  50.64700 27.72600 35.24800
H  49.38900 28.38800 36.22500
H  50.73200 29.50000 35.62400

