158

Mg 47.28000 44.48500 43.02800
C  43.97600 43.63500 43.16200
C  48.01900 40.99600 42.82300
C  50.57900 45.38600 42.32200
C  46.30600 47.84800 42.70700
N  46.16200 42.49600 42.86200
C  44.81800 42.43400 43.06600
C  44.32400 40.98600 43.08700
C  45.66300 40.12400 42.94700
C  46.66100 41.24600 42.95000
C  45.77600 39.11600 44.15800
C  43.36300 40.63100 41.90000
C  43.84100 41.08800 40.59500
H  43.75900 40.04900 39.43000
N  49.08100 43.36100 42.69900
C  49.14100 41.95300 42.66000
C  50.45300 41.62000 42.39200
C  51.11000 42.81800 41.99100
C  50.28800 43.93100 42.39800
C  50.94900 40.15700 42.44300
C  52.49400 42.87100 41.49600
O  53.10200 41.84800 41.32000
C  53.13900 44.16400 40.89300
N  48.30400 46.42700 42.39900
C  49.69600 46.51900 42.42200
C  50.08300 47.93700 42.39500
C  48.71900 48.69800 42.50600
C  47.67800 47.65000 42.51900
C  51.21400 48.31000 43.41200
C  48.49700 49.74300 41.39200
C  48.04100 51.15400 41.79800
N  45.53900 45.58300 43.06300
C  45.24400 46.89600 42.91100
C  43.84600 47.12700 43.06900
C  43.31000 45.88700 43.16000
C  44.34500 44.97600 43.11700
C  43.16500 48.42900 43.25200
C  42.07500 45.11100 43.34000
O  40.95700 45.49800 43.49600
C  42.49700 43.62500 43.34400
C  42.16500 42.99900 44.67200
O  42.59700 43.27400 45.79000
O  41.33500 41.86700 44.43600
C  40.98500 41.19200 45.64600
H  48.32800 39.95400 42.92600
H  51.63800 45.65100 42.30800
H  46.16000 48.92900 42.65200
H  43.70100 40.88700 43.97600
H  45.82200 39.62100 41.99300
H  45.96600 39.65800 45.08500
H  46.57800 38.42600 43.89500
H  44.92300 38.45100 44.28700
H  42.38700 41.02900 42.17700
H  43.25200 39.54700 41.88600
H  44.86700 41.45700 40.56700
H  43.20200 41.90000 40.24900
H  52.00000 40.09700 42.72700
H  50.76500 39.48000 41.60800
H  50.48900 39.58900 43.25100
H  52.44000 44.72900 40.27700
H  53.90700 43.83400 40.19300
H  53.56200 44.76300 41.70000
H  50.48400 48.30500 41.45100
H  48.74600 49.09700 43.52000
H  51.63000 47.37100 43.77800
H  50.78400 48.74900 44.31200
H  52.00200 48.95100 43.01800
H  47.74100 49.23200 40.79600
H  49.39800 49.85100 40.78800
H  48.94700 51.75000 41.68500
H  47.60700 51.21600 42.79600
H  47.23900 51.46900 41.13000
H  43.04500 48.59200 44.32300
H  42.15400 48.37400 42.84700
H  43.63000 49.29900 42.78800
H  41.91800 43.17200 42.54000
H  40.12000 40.61500 45.31800
H  40.62300 41.83400 46.44800
H  41.82100 40.64000 46.07700
Mg 41.21700 41.10000 27.01700
C  40.34700 43.39700 29.47300
C  41.96300 38.88800 29.49300
C  42.21100 38.94200 24.60200
C  40.69500 43.53300 24.47000
N  41.24000 41.17900 29.19900
C  40.72800 42.15200 29.99300
C  40.59400 41.79000 31.51900
C  41.05000 40.32600 31.49000
C  41.46000 40.06100 29.95900
C  42.27100 39.92600 32.29400
C  39.14100 42.01400 32.16200
C  38.84500 42.87200 33.45400
H  38.15300 42.10400 34.61300
N  42.16400 39.20600 27.04400
C  42.32800 38.45600 28.18300
C  42.96000 37.20600 27.83500
C  42.91200 37.18400 26.38500
C  42.38100 38.51000 25.94400
C  43.51900 36.27500 28.77600
C  43.36800 36.08800 25.42500
O  43.18900 36.05700 24.16400
C  44.13700 34.90900 25.98100
N  41.32100 41.20500 24.77200
C  41.70000 40.10800 24.06200
C  41.69400 40.49300 22.50000
C  41.15300 41.99300 22.52700
C  41.07400 42.29300 24.01600
C  43.04300 40.39400 21.74700
C  39.79200 42.04300 21.87100
C  38.56800 41.49000 22.60000
N  40.73000 43.03300 26.94800
C  40.51900 43.95000 25.86000
C  40.15400 45.23300 26.32500
C  40.01400 45.03200 27.75600
C  40.41700 43.72200 28.06100
C  39.86100 46.47700 25.55200
C  39.61200 45.73200 29.03100
O  39.28000 46.89200 29.17500
C  39.86100 44.68100 30.17400
C  40.93200 45.12500 31.12700
O  42.04000 45.48900 30.81200
O  40.49100 45.25700 32.37000
C  41.33500 46.00400 33.26300
H  42.05000 38.18000 30.32000
H  42.57000 38.25800 23.83100
H  40.43900 44.35700 23.80100
H  41.35800 42.44700 31.93300
H  40.26300 39.60900 31.72100
H  42.11400 40.37200 33.27600
H  43.22200 40.19600 31.83700
H  42.27300 38.83600 32.29800
H  38.75000 41.03800 32.44800
H  38.56700 42.29400 31.27900
H  38.24100 43.72000 33.13200
H  39.75500 43.36800 33.79100
H  43.39200 35.20400 28.61700
H  43.03500 36.43000 29.74100
H  44.57700 36.53500 28.80600
H  44.46100 34.16600 25.25200
H  43.60800 34.28000 26.69700
H  45.12000 35.24400 26.31200
H  40.98400 39.82400 22.01500
H  41.84700 42.72300 22.10900
H  43.85800 40.54000 22.45600
H  43.04700 41.17600 20.98800
H  43.05500 39.42700 21.24400
H  39.94100 41.54500 20.91300
H  39.60800 43.10000 21.67400
H  38.37600 40.57100 22.04500
H  37.73000 42.15500 22.39100
H  38.71200 41.27600 23.65900
H  39.54600 46.27300 24.52900
H  40.67200 47.19600 25.66900
H  38.91400 46.81300 25.97600
H  38.98600 44.71300 30.82200
H  40.63900 46.22600 34.07100
H  41.97600 46.82300 32.93700
H  42.03500 45.31400 33.73400

