158

Mg 23.58200 -4.44700 45.58100
C  25.84700 -2.24000 44.11000
C  21.19000 -3.07200 43.54500
C  21.69000 -7.22700 46.11800
C  26.25100 -5.96100 47.28300
N  23.59200 -2.89200 43.88600
C  24.61200 -2.14800 43.50100
C  24.21300 -1.06900 42.56800
C  22.60500 -1.13300 42.49900
C  22.43300 -2.42200 43.43000
C  21.81400 0.16100 43.02500
C  24.88200 -1.34100 41.21100
C  25.33200 -0.00000 40.52000
H  25.16200 0.03000 38.98500
N  21.74000 -5.04700 44.92200
C  20.91200 -4.30600 44.11000
C  19.64400 -5.05700 43.99700
C  19.77700 -6.26400 44.71400
C  21.12100 -6.25200 45.29600
C  18.43400 -4.56600 43.14700
C  18.62500 -7.32000 44.94200
O  17.53100 -7.25300 44.43500
C  18.73000 -8.42100 45.97200
N  23.95600 -6.40800 46.53400
C  22.99700 -7.34000 46.62400
C  23.51000 -8.52500 47.47900
C  24.82100 -7.93200 48.15200
C  25.05000 -6.68900 47.21700
C  22.55800 -9.02700 48.61900
C  26.01700 -9.03600 48.15500
C  26.95900 -9.04300 49.39400
N  25.58800 -4.10700 45.78700
C  26.53600 -4.82600 46.59200
C  27.75500 -4.08200 46.52100
C  27.55100 -3.09800 45.52000
C  26.26900 -3.13900 45.11600
C  29.01500 -4.51100 47.27000
C  28.17800 -2.03100 44.83300
O  29.32200 -1.57100 44.93500
C  27.16900 -1.49200 43.78400
C  27.21200 -0.03600 44.01900
O  26.52000 0.60100 44.78000
O  28.35700 0.50700 43.40500
C  28.86800 1.80000 43.83900
H  20.46600 -2.50600 42.95500
H  21.17300 -8.15000 46.38900
H  26.96200 -6.51700 47.89800
H  24.59400 -0.17100 43.05400
H  22.25700 -1.39300 41.50000
H  22.48700 1.01800 42.99400
H  21.42100 0.04100 44.03500
H  20.96500 0.31000 42.35800
H  24.20200 -1.74300 40.46100
H  25.72600 -2.03000 41.26800
H  26.32200 0.19100 40.93300
H  24.69000 0.80400 40.87800
H  18.23900 -5.35500 42.42100
H  18.63300 -3.63100 42.62300
H  17.66900 -4.35600 43.89500
H  17.79600 -8.97200 46.08200
H  19.10300 -7.82100 46.80200
H  19.54100 -9.10700 45.72800
H  23.80600 -9.38000 46.87100
H  24.64400 -7.69000 49.20000
H  21.63700 -9.51900 48.30500
H  22.27600 -8.09900 49.11600
H  23.09400 -9.75700 49.22600
H  26.62200 -8.97500 47.25100
H  25.48500 -9.98700 48.18600
H  26.83800 -8.12800 49.97200
H  27.98200 -9.27500 49.09900
H  26.57000 -9.90000 49.94500
H  29.09800 -5.56700 47.01000
H  28.97200 -4.50800 48.35900
H  29.91100 -3.91800 47.08600
H  27.66000 -1.78900 42.85700
H  28.11400 2.48900 44.22100
H  29.45400 2.33000 43.08800
H  29.53200 1.56800 44.67100
Mg 28.67700 57.02100 40.44400
C  25.69700 55.27900 39.89400
C  30.30100 54.28600 39.11000
C  31.51200 58.82000 40.20900
C  26.91600 59.74100 41.49500
N  27.98700 55.08900 39.51900
C  26.73700 54.55700 39.39900
C  26.75200 53.13100 38.82800
C  28.28800 52.81500 38.63500
C  28.89300 54.13400 39.06200
C  28.86900 51.54000 39.25000
C  25.94900 52.84600 37.58400
C  25.82600 53.91700 36.50400
H  26.15600 53.58300 35.04300
N  30.61100 56.60600 39.76900
C  31.11600 55.43300 39.30700
C  32.52400 55.53400 39.12900
C  32.84500 56.84100 39.19100
C  31.66600 57.52500 39.67400
C  33.38300 54.35400 38.84600
C  34.20700 57.42000 38.84500
O  35.25600 56.78800 38.56000
C  34.48700 58.83400 38.93900
N  29.15600 59.01800 40.85300
C  30.37200 59.49100 40.77200
C  30.44000 61.00100 41.19300
C  29.01900 61.21600 41.83100
C  28.31000 59.89900 41.44500
C  31.63200 61.43800 42.01500
C  28.39800 62.53900 41.40100
C  28.25100 63.59200 42.57500
N  26.73900 57.47200 40.72300
C  26.12500 58.66600 41.16100
C  24.64200 58.51300 41.11400
C  24.48300 57.12200 40.75000
C  25.73100 56.59300 40.44900
C  23.54700 59.57300 41.35100
C  23.42000 56.12800 40.52100
O  22.20600 56.16300 40.75500
C  24.20000 54.90500 39.90400
C  23.84300 53.63700 40.57500
O  23.16400 52.72900 40.04600
O  24.49500 53.54400 41.75800
C  24.64500 52.28900 42.40200
H  30.85400 53.44800 38.68000
H  32.44000 59.39500 40.18900
H  26.34800 60.53100 41.99000
H  26.39900 52.52000 39.65900
H  28.50000 52.77900 37.56600
H  28.61200 50.79200 38.50100
H  28.40400 51.29500 40.20500
H  29.94300 51.43700 39.40800
H  24.91100 52.59800 37.80800
H  26.46000 52.10200 36.97300
H  26.48100 54.76400 36.70700
H  24.83700 54.37200 36.56200
H  34.39000 54.54300 38.47600
H  32.85000 53.82100 38.05800
H  33.40300 53.69900 39.71800
H  34.62000 59.05400 39.99800
H  33.65300 59.40500 38.53100
H  35.46100 59.11100 38.53500
H  30.52700 61.62900 40.30600
H  29.06200 61.26700 42.91900
H  32.08500 62.29000 41.50800
H  32.35900 60.64300 42.17600
H  31.27800 61.82100 42.97300
H  27.34800 62.40500 41.14200
H  28.97500 63.05600 40.63400
H  28.84500 63.32500 43.45000
H  27.22400 63.73800 42.90900
H  28.38300 64.59100 42.16000
H  22.68200 59.12500 41.84000
H  23.32500 60.22800 40.50800
H  23.86500 60.21000 42.17600
H  23.94200 54.79600 38.85100
H  25.55300 52.21100 43.00000
H  24.62200 51.50800 41.64200
H  23.77700 52.10700 43.03600

