158

Mg 2.39800 -0.09300 44.41200
C  5.94700 0.35800 43.98400
C  1.91900 2.55700 42.26300
C  -0.70000 -1.04600 43.93600
C  3.17100 -3.42600 45.69000
N  3.82400 1.26100 43.24100
C  5.19100 1.32600 43.26900
C  5.63100 2.51800 42.48900
C  4.30700 3.29300 42.20800
C  3.26600 2.22200 42.49900
C  4.00400 4.62000 43.01700
C  6.41800 2.10100 41.16700
C  5.53600 1.42200 40.05600
H  5.36500 2.19300 38.78800
N  0.78400 0.83100 43.53400
C  0.79500 1.98900 42.78000
C  -0.66000 2.34400 42.59000
C  -1.45000 1.32900 43.20400
C  -0.45400 0.28900 43.59300
C  -1.12600 3.52500 41.73300
C  -2.88100 1.39100 43.39700
O  -3.53200 2.29400 42.95500
C  -3.61900 0.18200 43.85800
N  1.35500 -1.99300 44.86700
C  0.09100 -2.15100 44.34200
C  -0.40000 -3.60400 44.42900
C  0.73900 -4.27500 45.25500
C  1.85800 -3.15800 45.33200
C  -1.91800 -3.81400 44.92400
C  1.25900 -5.63400 44.60800
C  0.90900 -6.90200 45.42600
N  4.11700 -1.21900 44.93900
C  4.28100 -2.47400 45.52700
C  5.71200 -2.74400 45.77900
C  6.34900 -1.62700 45.19400
C  5.37800 -0.78200 44.69000
C  6.35600 -3.95400 46.34600
C  7.65100 -1.07600 45.01600
O  8.70800 -1.55700 45.45500
C  7.45700 0.12700 44.05400
C  8.31800 1.27400 44.46200
O  8.95900 1.94100 43.65900
O  8.31600 1.40500 45.80100
C  9.27800 2.36700 46.33800
H  1.85000 3.47600 41.67800
H  -1.67000 -1.36900 43.55200
H  3.49000 -4.38500 46.10400
H  6.25100 3.18400 43.09000
H  4.43900 3.61500 41.17500
H  3.06700 4.50100 43.56100
H  3.91100 5.28200 42.15600
H  4.82700 4.76500 43.71700
H  7.19200 1.39500 41.46700
H  6.78700 3.05000 40.77700
H  4.56500 1.22100 40.50800
H  6.01000 0.48800 39.75400
H  -1.51700 3.15500 40.78500
H  -0.24100 4.10900 41.48300
H  -1.96400 4.11600 42.10300
H  -3.26100 -0.33100 44.75100
H  -3.64800 -0.49700 43.00600
H  -4.64600 0.46800 44.08500
H  -0.34900 -4.01800 43.42200
H  0.49300 -4.49800 46.29300
H  -2.68000 -4.03200 44.17500
H  -2.31500 -2.94400 45.44700
H  -2.00100 -4.67300 45.59000
H  2.31500 -5.71900 44.34900
H  0.87200 -5.77900 43.59900
H  0.52200 -6.59700 46.39800
H  1.77600 -7.55800 45.51000
H  0.08200 -7.45000 44.97300
H  6.15200 -4.87900 45.80600
H  5.88900 -4.13300 47.31500
H  7.43300 -3.78800 46.38000
H  7.74300 -0.29000 43.08900
H  8.99800 2.22200 47.38200
H  9.03200 3.37900 46.01700
H  10.32300 2.10700 46.16900
Mg 29.24800 59.74700 41.48900
C  26.09100 58.80900 40.37800
C  30.44100 56.78900 40.13700
C  32.26900 61.00200 41.68600
C  27.90300 62.79200 42.51600
N  28.43300 58.15400 40.22400
C  27.03000 57.91100 39.95500
C  26.85800 56.53300 39.23900
C  28.16600 55.85600 39.68300
C  29.12900 57.02500 40.01800
C  27.94500 54.86400 40.88700
C  26.53800 56.65400 37.65600
C  25.30200 55.87800 37.13200
H  25.03000 55.82700 35.62000
N  31.12300 58.94600 41.07100
C  31.45200 57.72800 40.48400
C  32.82500 57.60100 40.51000
C  33.40200 58.85400 40.89000
C  32.24900 59.70600 41.17200
C  33.47600 56.31300 40.01200
C  34.90700 59.12900 40.86300
O  35.62500 58.20700 40.64000
C  35.46600 60.56900 41.09500
N  29.95400 61.68200 42.03300
C  31.29800 61.92700 42.02800
C  31.56600 63.39300 42.62800
C  30.12900 63.82100 43.03000
C  29.25800 62.74700 42.43400
C  32.70400 63.54700 43.67500
C  29.81200 65.33800 42.77400
C  29.17200 65.62300 41.39600
N  27.36200 60.64900 41.65800
C  26.97300 61.88000 42.08900
C  25.48300 61.91700 42.05000
C  25.10200 60.76900 41.31700
C  26.29100 60.09500 41.06000
C  24.65300 62.97800 42.43000
C  24.02100 59.97300 40.89800
O  22.81500 60.11700 40.97300
C  24.64800 58.71600 40.18700
C  24.04800 57.48000 40.73000
O  24.36500 56.97200 41.78200
O  23.01100 56.98000 39.95300
C  22.46800 55.71100 40.34000
H  30.77500 55.80800 39.79400
H  33.24500 61.45300 41.87900
H  27.48700 63.75300 42.82800
H  25.94100 56.03200 39.54900
H  28.58200 55.28200 38.85500
H  28.67300 54.06500 40.74700
H  26.93300 54.46000 40.91200
H  28.23000 55.36600 41.81100
H  27.39600 56.34800 37.05700
H  26.49700 57.72100 37.43700
H  24.41800 56.31300 37.59900
H  25.17800 54.86800 37.52300
H  33.91100 56.54700 39.04100
H  32.80200 55.45700 39.99400
H  34.27400 56.06200 40.71100
H  34.83000 61.14300 40.42000
H  36.54200 60.60500 40.92400
H  35.33700 60.73700 42.16400
H  31.83300 63.94500 41.72700
H  30.07500 63.80000 44.11800
H  33.67500 63.40000 43.20200
H  32.67500 62.87500 44.53300
H  32.85600 64.58400 43.97300
H  30.69400 65.95300 42.95600
H  29.11300 65.48900 43.59700
H  28.10600 65.77000 41.57100
H  29.25100 64.83100 40.65200
H  29.52000 66.60700 41.08100
H  23.69100 62.77200 41.96100
H  25.13600 63.88300 42.06100
H  24.37000 63.01900 43.48200
H  24.47400 58.76100 39.11100
H  23.25800 55.04700 39.98900
H  21.63500 55.41700 39.70100
H  22.27800 55.50000 41.39200

