158

Mg 10.76500 47.46900 25.58700
C  8.06400 48.04200 27.97800
C  12.91800 48.64700 27.95700
C  12.96200 47.30800 23.31300
C  8.15800 47.12500 23.02100
N  10.44600 48.27600 27.75300
C  9.34500 48.25800 28.51800
C  9.70900 48.34500 29.98600
C  11.14100 49.05400 29.87300
C  11.56900 48.62500 28.44500
C  11.06400 50.59200 29.95200
C  9.78700 46.97800 30.74100
C  10.17300 47.23800 32.24400
H  9.33600 46.44200 33.34400
N  12.70200 47.85600 25.66000
C  13.46300 48.29600 26.70700
C  14.80500 48.44000 26.27200
C  14.89100 48.06700 24.93200
C  13.50200 47.73200 24.54100
C  15.84200 49.02600 27.11400
C  16.01200 47.97600 23.99800
O  15.88900 47.86300 22.79100
C  17.37500 48.01200 24.48600
N  10.50800 47.31700 23.45800
C  11.64900 47.21600 22.81700
C  11.43000 46.60300 21.41400
C  9.93900 46.64500 21.19000
C  9.50400 46.90400 22.67000
C  12.31400 47.26100 20.31700
C  9.29100 45.36100 20.59700
C  9.07500 45.38500 19.05500
N  8.53000 47.50000 25.50900
C  7.66500 47.36700 24.37500
C  6.29600 47.45400 24.91300
C  6.41400 47.69900 26.28000
C  7.76800 47.78300 26.58700
C  5.14500 47.19300 24.08400
C  5.65900 47.87200 27.44000
O  4.48200 48.02000 27.58300
C  6.69300 48.10000 28.61300
C  6.41400 46.98900 29.58100
O  6.75000 45.75100 29.50000
O  5.52600 47.44800 30.51300
C  5.05300 46.59800 31.61200
H  13.66900 48.96900 28.68100
H  13.68800 46.76600 22.70300
H  7.32500 47.15300 22.31600
H  9.01500 49.04600 30.44800
H  11.83700 48.60200 30.57900
H  10.04300 50.94400 30.09900
H  11.38300 51.11600 29.05100
H  11.70100 50.93200 30.76800
H  10.56400 46.35300 30.30000
H  8.80000 46.51900 30.68200
H  10.30400 48.28200 32.52800
H  11.17200 46.83700 32.41900
H  16.63300 48.31800 27.36100
H  15.48700 49.34200 28.09500
H  16.16500 49.94300 26.62200
H  17.56000 47.33900 25.32400
H  17.73700 48.99900 24.77300
H  17.95900 47.69600 23.62200
H  11.73800 45.55800 21.45400
H  9.52200 47.57400 20.80300
H  12.68900 48.20200 20.72000
H  11.62900 47.43500 19.48700
H  13.07600 46.56200 19.97300
H  8.35000 45.16900 21.11300
H  9.95200 44.51200 20.77100
H  9.60600 46.22300 18.60300
H  7.99500 45.50900 18.98200
H  9.34100 44.41200 18.64200
H  5.03100 47.89500 23.25700
H  4.20000 47.25300 24.62200
H  5.26500 46.18600 23.68400
H  6.46500 49.07600 29.04200
H  5.11700 45.53100 31.39700
H  3.99400 46.81400 31.75700
H  5.55100 46.77000 32.56600
Mg -4.36100 25.09800 25.49000
C  -3.15100 26.43500 28.48600
C  -6.52000 23.16700 27.36500
C  -5.18600 23.20800 22.72700
C  -2.06800 26.88700 23.73300
N  -4.67700 24.68900 27.67300
C  -4.17700 25.51000 28.66000
C  -4.85300 25.25900 29.98000
C  -5.66600 23.90700 29.70900
C  -5.60100 23.89000 28.15100
C  -4.92000 22.64400 30.25800
C  -5.86700 26.46300 30.40900
C  -5.94900 26.76800 31.88200
H  -5.22800 25.88600 32.90900
N  -5.66700 23.38600 25.10900
C  -6.54600 22.87300 26.00300
C  -7.41000 21.98800 25.30700
C  -6.91800 21.83100 23.96900
C  -5.86800 22.79500 23.88000
C  -8.56000 21.22800 26.11100
C  -7.40200 20.86800 22.86500
O  -6.92100 20.83800 21.75200
C  -8.44600 19.90600 23.09200
N  -3.72800 25.03800 23.59100
C  -4.24700 24.23500 22.63100
C  -3.68100 24.58400 21.27000
C  -2.77100 25.78700 21.58900
C  -2.85500 25.92100 23.08100
C  -2.96400 23.39300 20.58500
C  -3.22400 27.07000 20.91000
C  -2.73100 27.21300 19.41500
N  -2.90500 26.49700 25.98900
C  -2.00300 27.20600 25.08300
C  -1.11600 28.01400 25.91300
C  -1.51500 27.75800 27.23300
C  -2.66400 26.84200 27.21100
C  -0.04500 28.94700 25.40700
C  -1.25300 28.04900 28.67600
O  -0.40500 28.80700 29.16600
C  -2.28500 27.23000 29.52200
C  -1.53800 26.39900 30.54100
O  -1.28800 25.18400 30.39000
O  -1.26000 27.23100 31.56600
C  -0.58500 26.64000 32.77100
H  -7.18500 22.53300 27.95500
H  -5.50400 22.66400 21.83500
H  -1.50400 27.61200 23.14200
H  -4.06300 24.99700 30.68400
H  -6.67200 23.80500 30.11600
H  -4.08700 22.90500 30.91000
H  -4.57800 22.13600 29.35600
H  -5.65400 22.21100 30.93700
H  -6.86900 26.26700 30.02800
H  -5.57800 27.40100 29.93500
H  -6.97100 26.71800 32.25600
H  -5.63500 27.80700 31.98100
H  -7.98800 20.69300 26.86900
H  -9.26900 20.67400 25.49500
H  -9.18200 22.03300 26.50200
H  -8.87400 19.51200 22.17100
H  -9.18500 20.60200 23.48700
H  -8.27500 19.05200 23.74800
H  -4.46900 24.87300 20.57500
H  -1.73500 25.55600 21.34000
H  -3.20200 22.55900 21.24500
H  -1.87800 23.46500 20.64000
H  -3.21800 23.20000 19.54300
H  -2.85200 27.97100 21.39800
H  -4.29300 27.22800 20.76700
H  -3.52500 26.84000 18.76800
H  -1.79300 26.69200 19.22200
H  -2.59800 28.27200 19.19500
H  -0.60100 29.66600 24.80500
H  0.71700 28.38500 24.86700
H  0.52500 29.35300 26.24200
H  -2.88500 27.92000 30.11600
H  -0.36300 25.57900 32.65700
H  -1.29400 26.55700 33.59500
H  0.32100 27.17800 33.05100

