158

Mg 26.46600 0.88800 29.27200
C  28.34700 0.33900 32.06400
C  23.61700 1.04800 31.30900
C  24.70500 1.36900 26.53000
C  29.26000 -0.11300 27.23400
N  25.96000 0.57700 31.44900
C  27.01600 0.53600 32.35300
C  26.43500 0.58700 33.81900
C  24.91300 0.55200 33.56800
C  24.82300 0.77000 32.04800
C  24.07800 -0.59000 34.11300
C  26.96800 1.78900 34.60200
C  27.57600 1.51900 35.97900
H  27.04400 2.46700 37.01600
N  24.48600 1.12600 28.94100
C  23.46700 1.21200 29.85300
C  22.21100 1.47300 29.21800
C  22.46600 1.49800 27.82900
C  23.95900 1.31800 27.70400
C  20.90400 1.60700 30.01200
C  21.55900 1.63700 26.60200
O  21.86900 1.66300 25.40800
C  20.04300 1.57100 26.82300
N  26.88100 0.56200 27.10400
C  26.01100 1.00100 26.22800
C  26.62300 1.07700 24.84200
C  28.09800 0.62000 25.02000
C  28.12800 0.33400 26.51900
C  25.92000 0.31500 23.73800
C  29.12600 1.68400 24.65400
C  30.38200 1.21400 24.08700
N  28.43600 0.31100 29.58300
C  29.44400 -0.12100 28.71000
C  30.60200 -0.50500 29.42000
C  30.35600 -0.19500 30.79400
C  28.92800 0.17700 30.83300
C  31.76800 -1.14600 28.71000
C  30.78600 -0.22100 32.21800
O  31.81400 -0.58100 32.78800
C  29.47000 0.10500 33.03700
C  29.29400 -1.06700 33.95600
O  28.95500 -2.19900 33.57000
O  29.67600 -0.65000 35.18400
C  29.92100 -1.69400 36.16400
H  22.89300 1.31200 32.08200
H  24.31700 1.81900 25.61400
H  30.02500 -0.48200 26.54700
H  26.63100 -0.41300 34.20400
H  24.52800 1.50900 33.92000
H  23.49400 -0.13500 34.91300
H  24.74800 -1.26800 34.64300
H  23.48400 -1.13500 33.37900
H  26.15100 2.50800 34.66400
H  27.70800 2.29500 33.98400
H  28.65000 1.63500 35.83500
H  27.45200 0.49100 36.31800
H  20.50100 2.51200 29.55800
H  20.91200 1.89100 31.06500
H  20.34200 0.67700 29.92900
H  19.87100 0.74300 27.51100
H  19.55700 1.18700 25.92600
H  19.67000 2.47700 27.30000
H  26.55800 2.15200 24.67500
H  28.27200 -0.30400 24.46800
H  24.98800 -0.18100 24.00800
H  26.63200 -0.24300 23.13000
H  25.57000 1.10600 23.07400
H  29.41000 2.19100 25.57600
H  28.63900 2.48400 24.09600
H  30.22500 0.21900 23.67200
H  31.13500 1.03900 24.85600
H  30.75200 1.86600 23.29600
H  32.64900 -1.06000 29.34500
H  31.89900 -0.69900 27.72400
H  31.65900 -2.20000 28.45200
H  29.55000 1.01700 33.62900
H  29.73400 -2.72800 35.87500
H  29.26600 -1.49900 37.01300
H  30.94400 -1.57200 36.51900
Mg 40.78100 41.08500 26.75500
C  40.47300 43.59100 29.29400
C  41.55900 38.87500 29.27100
C  41.23100 38.89000 24.37700
C  40.14100 43.63300 24.42800
N  41.14400 41.28500 29.00400
C  40.76700 42.36900 29.82100
C  40.98700 41.96500 31.33500
C  41.62300 40.52200 31.22700
C  41.31700 40.17400 29.69600
C  43.04400 40.30400 31.57100
C  39.62500 41.93000 32.02100
C  39.60200 42.73500 33.36800
H  39.01000 41.93600 34.54100
N  41.38800 39.14900 26.74700
C  41.62000 38.46200 27.91300
C  42.03200 37.16600 27.45800
C  41.78600 37.00000 26.03800
C  41.50700 38.40900 25.66300
C  42.55700 36.13100 28.48000
C  41.77600 35.78400 25.16300
O  41.53000 35.88800 23.98100
C  42.34000 34.54600 25.69600
N  40.65800 41.23900 24.72700
C  40.86100 40.17100 23.92600
C  40.54900 40.46700 22.42200
C  39.98400 41.94400 22.47000
C  40.29500 42.29200 23.97200
C  41.82500 40.40700 21.52000
C  38.47400 42.06600 22.16500
C  37.61600 41.15700 23.02500
N  40.31200 43.19500 26.72300
C  40.20600 44.09200 25.70100
C  40.16000 45.37700 26.23200
C  40.17500 45.21700 27.65600
C  40.30000 43.88300 27.88900
C  39.84300 46.50600 25.26200
C  40.10700 45.97200 28.96800
O  40.01700 47.12000 29.15800
C  40.26300 44.93200 30.06100
C  41.46200 45.31700 30.89900
O  42.63400 45.34600 30.52300
O  41.06200 45.67600 32.18700
C  42.10100 46.05900 33.20000
H  41.79900 38.21100 30.10400
H  41.49400 38.20800 23.56500
H  39.88300 44.37200 23.66600
H  41.65600 42.67600 31.82000
H  41.04100 39.84700 31.85400
H  43.67100 40.06500 30.71200
H  43.02000 39.42300 32.21300
H  43.48700 41.13800 32.11500
H  39.29000 40.89300 32.00800
H  38.88200 42.37000 31.35500
H  38.92500 43.57700 33.22300
H  40.54700 43.13600 33.73500
H  41.73800 35.46200 28.74600
H  42.77500 36.60200 29.43800
H  43.50900 35.69500 28.17700
H  41.91400 34.45800 26.69600
H  43.42700 34.62200 25.73800
H  42.18700 33.63600 25.11700
H  39.82500 39.74500 22.04300
H  40.50800 42.66200 21.83900
H  42.62300 39.93700 22.09600
H  42.06400 41.44500 21.28900
H  41.59900 39.95600 20.55400
H  38.26100 41.72900 21.15100
H  38.18000 43.11300 22.24500
H  38.10700 40.51600 23.75600
H  37.07200 40.51600 22.33100
H  36.91800 41.78200 23.58200
H  39.92400 47.47600 25.75300
H  38.79700 46.57800 24.96500
H  40.40400 46.44900 24.32900
H  39.39400 44.87500 30.71700
H  42.40100 45.26100 33.87900
H  41.79600 46.91400 33.80400
H  43.01900 46.32000 32.67400

