158

Mg 8.63700 3.49400 27.78700
C  10.18500 2.06200 30.68800
C  6.83500 5.52000 29.75500
C  6.92200 4.52100 25.02000
C  10.02400 0.92600 25.82300
N  8.53300 3.65700 30.04000
C  9.22100 3.02100 31.00100
C  8.92300 3.64100 32.38700
C  7.84100 4.73600 32.02200
C  7.72700 4.62800 30.51800
C  6.46900 4.67400 32.78300
C  10.21900 4.22900 33.12000
C  9.98000 4.90600 34.51500
H  10.91400 4.48700 35.59800
N  7.14700 4.77500 27.44700
C  6.59400 5.60600 28.41500
C  5.64300 6.53300 27.81600
C  5.75900 6.33300 26.42500
C  6.59300 5.17400 26.19800
C  4.65800 7.38900 28.60500
C  5.02400 7.03700 25.25900
O  5.16000 6.74100 24.10100
C  4.08100 8.25200 25.41700
N  8.54200 2.86600 25.68600
C  7.84400 3.47700 24.73000
C  7.90500 2.68200 23.37100
C  9.11000 1.72100 23.56700
C  9.30600 1.87500 25.05600
C  6.61400 2.10400 22.99700
C  10.38500 2.16700 22.71200
C  11.34300 1.10800 22.17200
N  9.77200 1.76300 28.13000
C  10.27200 0.87900 27.25500
C  11.10800 -0.06700 27.93600
C  11.13800 0.41000 29.26000
C  10.33800 1.51000 29.35500
C  11.78600 -1.29400 27.30900
C  11.68600 0.18500 30.63300
O  12.42600 -0.69000 31.01900
C  11.05500 1.21700 31.57700
C  10.22500 0.41700 32.52600
O  9.38600 -0.47500 32.34300
O  10.63100 0.84000 33.83400
C  10.01000 0.03600 34.86700
H  6.28500 6.27800 30.31700
H  6.42500 4.83000 24.09800
H  10.47000 0.08800 25.28400
H  8.37500 2.85800 32.91200
H  8.12400 5.77700 32.18300
H  6.16800 5.67500 33.09200
H  6.67300 4.05600 33.65800
H  5.68000 4.26300 32.15400
H  10.71900 4.92000 32.44100
H  10.99800 3.46900 33.18700
H  8.93300 4.79600 34.80000
H  10.08900 5.97400 34.32500
H  3.71800 7.39800 28.05400
H  4.95200 8.43600 28.68600
H  4.40600 7.05500 29.61100
H  4.66200 8.99000 25.97000
H  3.24200 7.96400 26.05000
H  3.82500 8.78300 24.49900
H  8.20400 3.40300 22.61000
H  8.76900 0.73400 23.25500
H  5.79600 2.37900 23.66200
H  6.65400 1.01700 23.06800
H  6.28300 2.41900 22.00700
H  10.95200 2.90000 23.28500
H  9.96900 2.63000 21.81700
H  10.92700 0.16400 22.52400
H  12.29700 1.32200 22.65500
H  11.35600 0.99800 21.08800
H  11.00100 -2.00100 27.03900
H  12.56200 -1.78800 27.89300
H  12.14700 -0.88300 26.36700
H  11.84700 1.86500 31.95200
H  9.22400 0.75000 35.11300
H  10.72500 -0.21300 35.65100
H  9.54500 -0.90800 34.58100
Mg 48.76600 35.85300 28.22400
C  46.59600 34.33900 30.30000
C  48.77300 38.69800 30.26500
C  50.61800 37.54200 25.89100
C  48.48400 33.15400 26.01100
N  47.83800 36.37800 30.02100
C  47.19800 35.50500 30.79800
C  47.13800 35.91000 32.27400
C  47.24900 37.47900 32.12000
C  47.97700 37.57700 30.68700
C  46.04200 38.38500 32.17100
C  48.16300 35.15200 33.11800
C  49.49000 35.85200 33.63600
H  49.79200 35.86400 35.16200
N  49.64000 37.87700 28.12800
C  49.44900 38.89400 29.02800
C  50.22300 40.07900 28.63900
C  50.81600 39.72100 27.39500
C  50.39300 38.32200 27.12600
C  50.21500 41.33700 29.41200
C  51.65200 40.60200 26.37100
O  52.07200 40.19000 25.34200
C  51.82900 42.03800 26.71400
N  49.46000 35.44300 26.24100
C  50.20200 36.30100 25.51000
C  50.55200 35.69600 24.07500
C  49.97000 34.20100 24.17200
C  49.26400 34.27000 25.55300
C  50.28300 36.61600 22.81600
C  50.96500 32.97400 23.92900
C  50.52400 31.80500 23.12400
N  47.70900 34.13200 28.10500
C  47.71200 33.10800 27.18300
C  46.79400 32.03500 27.60000
C  46.25800 32.52100 28.78700
C  46.86500 33.78100 29.02400
C  46.46500 30.66200 26.98300
C  45.32800 32.24000 29.91000
O  44.56600 31.30600 30.12200
C  45.59000 33.43700 30.95500
C  45.80100 32.82500 32.31100
O  46.66400 31.94000 32.50800
O  44.87100 33.27300 33.27200
C  44.94200 32.74100 34.60000
H  48.87700 39.47300 31.02700
H  51.25400 37.96400 25.11000
H  48.48600 32.26200 25.38000
H  46.20500 35.55500 32.71200
H  47.91100 37.96500 32.83700
H  45.93800 38.72200 33.20300
H  45.19300 37.75300 31.91300
H  46.13500 39.23200 31.49100
H  48.51700 34.26100 32.59900
H  47.57100 34.88400 33.99400
H  49.68100 36.86400 33.27900
H  50.22300 35.14200 33.25300
H  51.11500 41.50600 30.00200
H  49.44300 41.21500 30.17200
H  50.03000 42.22300 28.80400
H  52.40100 42.58500 25.96400
H  52.38000 42.09900 27.65200
H  50.85700 42.47500 26.94500
H  51.63000 35.55100 24.14100
H  49.10100 34.00200 23.54400
H  49.77000 37.51800 23.15000
H  49.65900 36.10400 22.08300
H  51.25600 36.95900 22.46600
H  51.08700 32.53300 24.91800
H  51.89900 33.39600 23.55600
H  49.49600 31.98900 22.81000
H  50.56000 30.90200 23.73400
H  51.25600 31.86900 22.32000
H  47.33800 30.34500 26.41300
H  45.52500 30.69800 26.43400
H  46.42900 29.95300 27.81000
H  44.61000 33.90700 31.03500
H  45.92100 33.05100 34.96700
H  45.11800 31.66900 34.69400
H  44.02400 33.04200 35.10400

