158

Mg 0.48200 7.26500 25.30400
C  1.11700 9.17800 28.08500
C  0.69000 4.40300 27.27300
C  0.17000 5.37200 22.50800
C  0.96600 10.06800 23.26000
N  0.64500 6.85000 27.45300
C  0.89000 7.84200 28.40500
C  1.00400 7.23000 29.84500
C  0.96400 5.68900 29.48100
C  0.81900 5.58300 27.97100
C  2.18200 4.86400 29.91100
C  -0.14900 7.76700 30.64600
C  -0.03000 7.78900 32.19900
H  1.12200 7.19100 33.00400
N  0.42400 5.20900 24.95100
C  0.46900 4.20400 25.91600
C  0.40600 2.93700 25.25300
C  0.16900 3.20700 23.87900
C  0.21600 4.63100 23.70000
C  0.55900 1.56500 25.95300
C  -0.15300 2.23900 22.75600
O  -0.18500 2.53100 21.56500
C  -0.30000 0.73000 23.09500
N  0.60900 7.66600 23.28200
C  0.23000 6.74300 22.32500
C  0.07900 7.34400 20.93900
C  0.15800 8.91100 21.22100
C  0.56300 8.89600 22.67600
C  1.04500 6.85100 19.92500
C  -1.18200 9.71700 20.96700
C  -1.23100 11.20600 20.60400
N  1.03000 9.23700 25.54400
C  1.15900 10.28400 24.64000
C  1.40400 11.51100 25.36500
C  1.46700 11.11800 26.70600
C  1.16900 9.76500 26.76600
C  1.44300 12.91400 24.75300
C  1.68400 11.56500 28.07700
O  1.86700 12.71200 28.57600
C  1.47700 10.32500 28.99200
C  2.73800 10.19500 29.75100
O  3.82000 10.05400 29.20300
O  2.39700 10.44600 31.06500
C  3.52800 10.67800 31.97900
H  0.65400 3.49800 27.88300
H  0.03400 4.82900 21.57000
H  1.00000 11.02400 22.73300
H  1.92100 7.53300 30.34900
H  0.02100 5.33000 29.89400
H  2.73400 4.49800 29.04500
H  1.78000 4.06200 30.52900
H  2.79100 5.42700 30.61900
H  -1.00300 7.10700 30.49100
H  -0.49900 8.73900 30.29900
H  -1.00300 7.40200 32.50100
H  -0.02600 8.83100 32.52100
H  1.33300 0.97600 25.46100
H  -0.41400 1.07500 25.90500
H  0.92000 1.71500 26.97100
H  -0.66300 0.29000 22.16600
H  -1.00800 0.63600 23.91900
H  0.68800 0.31600 23.29400
H  -0.91400 7.07900 20.57600
H  1.03200 9.37200 20.76100
H  1.88900 7.48700 19.65900
H  0.56000 6.66300 18.96800
H  1.49200 5.88800 20.17100
H  -1.80900 9.41800 21.80700
H  -1.55900 9.31400 20.02700
H  -1.82800 11.62800 21.41200
H  -1.56800 11.49400 19.60800
H  -0.29700 11.76800 20.62400
H  1.49800 13.73400 25.46900
H  0.58100 13.13900 24.12500
H  2.28900 12.89200 24.06600
H  0.69600 10.44200 29.74400
H  3.16900 11.40800 32.70400
H  4.47100 11.00800 31.54400
H  3.65800 9.74000 32.52000
Mg -0.19800 42.62500 26.35600
C  2.04100 42.77400 29.04900
C  -2.76400 42.02100 28.56400
C  -2.20200 42.04500 23.75900
C  2.55100 43.02000 24.21800
N  -0.30800 42.40800 28.61800
C  0.70900 42.61600 29.49000
C  0.10000 42.87000 30.95500
C  -1.39500 42.49200 30.69800
C  -1.51900 42.32300 29.20400
C  -1.80900 41.18100 31.41900
C  0.41700 44.25800 31.48600
C  0.86000 44.33700 33.00800
H  0.66800 43.09500 33.86100
N  -2.16700 42.19300 26.15000
C  -3.12200 42.00700 27.16900
C  -4.43000 41.85800 26.62700
C  -4.26500 41.85600 25.17600
C  -2.82700 42.00600 24.99900
C  -5.73500 41.66000 27.46400
C  -5.28100 41.72100 24.13700
O  -5.00100 41.58200 22.96200
C  -6.74600 41.77100 24.46100
N  0.19700 42.43000 24.28000
C  -0.82100 42.20600 23.40800
C  -0.28500 42.29000 21.92300
C  1.21900 42.68100 22.06700
C  1.35600 42.70200 23.62700
C  -0.54500 40.88100 21.27600
C  1.48200 44.10900 21.37700
C  0.97800 45.30800 22.19900
N  1.86300 42.81700 26.55200
C  2.84700 43.03500 25.58900
C  4.13200 43.24000 26.21600
C  3.85300 43.02800 27.59300
C  2.48000 42.85300 27.73100
C  5.39700 43.64100 25.60100
C  4.49400 42.90200 28.85400
O  5.68200 42.88400 29.11600
C  3.32100 42.75000 29.85700
C  3.52400 41.38300 30.49000
O  2.70700 40.49800 30.33100
O  4.42900 41.42200 31.46200
C  4.15900 40.51400 32.59900
H  -3.60100 42.04000 29.26400
H  -2.73100 42.06400 22.80400
H  3.42900 43.28900 23.62600
H  0.58400 42.06600 31.50800
H  -2.10300 43.26900 30.98400
H  -1.12200 40.88200 32.21100
H  -1.87200 40.24900 30.85700
H  -2.73600 41.38500 31.95300
H  -0.45000 44.88400 31.27700
H  1.24500 44.54800 30.83900
H  0.24400 45.16200 33.36500
H  1.86900 44.72400 33.15100
H  -6.13200 42.67200 27.54300
H  -5.53400 41.22500 28.44300
H  -6.39300 40.90800 27.02700
H  -7.34000 42.02800 23.58400
H  -6.80000 42.45000 25.31200
H  -7.13500 40.77500 24.67100
H  -0.81800 42.98000 21.27000
H  1.90700 41.99700 21.57000
H  0.35200 40.41300 20.87000
H  -1.16200 41.11000 20.40700
H  -1.13900 40.20800 21.89400
H  0.99000 44.09800 20.40400
H  2.52200 44.19400 21.06400
H  1.76000 46.02900 22.44000
H  0.46300 44.88800 23.06200
H  0.24200 45.66800 21.48000
H  5.39900 44.72300 25.73700
H  5.37500 43.37900 24.54400
H  6.32900 43.21100 25.96700
H  3.38300 43.50000 30.64500
H  4.12200 39.44700 32.38000
H  3.19200 40.77900 33.02600
H  4.86500 40.73100 33.40100

