158

Mg 25.52900 0.08700 29.27100
C  27.28900 -0.12400 32.26300
C  22.68600 0.14900 31.09500
C  23.86900 0.54400 26.26900
C  28.46800 -0.06400 27.47500
N  25.08600 -0.05500 31.42700
C  25.94600 0.00600 32.50000
C  25.24400 0.06900 33.88100
C  23.72600 -0.14400 33.43500
C  23.81500 0.00700 31.91600
C  23.03600 -1.43000 33.96100
C  25.57700 1.33900 34.77800
C  26.11900 1.06200 36.19600
H  25.07400 0.64200 37.27400
N  23.54100 0.25900 28.80000
C  22.50100 0.20300 29.68500
C  21.28700 0.24800 28.92500
C  21.60900 0.39600 27.49900
C  23.07000 0.45500 27.46200
C  19.85400 0.17200 29.60800
C  20.70700 0.46500 26.24100
O  21.15600 0.62400 25.08800
C  19.24300 0.36000 26.51300
N  26.08200 -0.07000 27.11800
C  25.25100 0.25300 26.10100
C  25.95400 0.37000 24.72000
C  27.46900 0.18700 25.16900
C  27.33400 0.06300 26.71200
C  25.38700 -0.55000 23.65200
C  28.45700 1.35100 24.80600
C  29.87100 0.95100 24.28800
N  27.49400 -0.09500 29.74000
C  28.61100 -0.13300 28.88700
C  29.79700 -0.40300 29.70600
C  29.33700 -0.38800 31.04000
C  27.92100 -0.24100 31.04000
C  31.16600 -0.59300 29.17300
C  29.80300 -0.49800 32.40300
O  30.92200 -0.66700 32.83100
C  28.51500 -0.17600 33.28300
C  28.42300 -1.29600 34.26900
O  27.69900 -2.28400 34.15500
O  29.22600 -1.11200 35.33500
C  28.99900 -2.02500 36.41700
H  21.88900 0.18500 31.84100
H  23.27400 0.80500 25.39200
H  29.32200 -0.14400 26.79900
H  25.43400 -0.81400 34.49100
H  23.02800 0.62100 33.77800
H  23.64400 -2.07200 34.59900
H  22.62800 -2.08500 33.19200
H  22.24600 -1.09600 34.63300
H  24.70600 1.98900 34.86900
H  26.29800 1.93300 34.21800
H  26.65800 1.89700 36.64300
H  26.72200 0.15500 36.15700
H  19.92300 0.10700 30.69400
H  19.41700 -0.79600 29.36600
H  19.18300 0.96300 29.27200
H  18.80200 1.27900 26.89900
H  19.15300 -0.46900 27.21500
H  18.78000 0.08300 25.56600
H  25.80900 1.34500 24.25500
H  27.83700 -0.80300 24.90300
H  25.52500 -0.14100 22.65100
H  24.31500 -0.42700 23.80900
H  25.69200 -1.59500 23.69900
H  28.61100 1.92000 25.72300
H  28.03500 2.06100 24.09600
H  29.84900 -0.10600 24.02500
H  30.52500 1.11100 25.14500
H  30.12300 1.55700 23.41800
H  31.79400 -0.56300 30.06300
H  31.31700 0.09400 28.34000
H  31.24500 -1.64100 28.88400
H  28.64700 0.73800 33.86100
H  28.02900 -1.61700 36.69800
H  29.78300 -1.86200 37.15600
H  28.71500 -3.05100 36.18000
Mg 34.29500 49.36600 25.46100
C  34.83700 47.76000 28.53300
C  32.56400 51.86800 27.19500
C  33.76300 50.93100 22.48400
C  35.86700 46.62600 23.84600
N  33.72700 49.73100 27.58700
C  34.11200 48.95900 28.69400
C  33.72300 49.67400 29.98300
C  32.79400 50.87400 29.53100
C  33.04700 50.82600 28.00300
C  31.33300 50.76700 29.94000
C  34.93000 50.15200 30.85300
C  34.57100 51.19700 31.90100
H  33.29000 50.99800 32.71400
N  33.29500 51.15000 24.89200
C  32.80500 52.09300 25.82000
C  32.24200 53.21300 25.02700
C  32.47400 52.92500 23.66500
C  33.24600 51.65200 23.62900
C  31.54100 54.32600 25.65600
C  31.99600 53.77100 22.50500
O  32.36600 53.51000 21.39400
C  31.15500 54.97200 22.65800
N  34.69300 48.82400 23.42500
C  34.40400 49.69400 22.38800
C  34.89700 49.04400 21.01000
C  35.69300 47.74500 21.51100
C  35.36800 47.66600 22.97500
C  33.78300 48.75000 19.87200
C  37.19900 47.67800 21.11800
C  38.20100 48.56400 21.92900
N  35.18800 47.54500 26.00600
C  35.75200 46.51800 25.19500
C  36.18300 45.48700 26.01800
C  35.83600 45.91200 27.36600
C  35.24100 47.18000 27.29600
C  36.76700 44.20100 25.66400
C  35.77100 45.47000 28.73800
O  36.13100 44.39900 29.25600
C  35.26200 46.72400 29.51600
C  34.18600 46.42600 30.42500
O  32.95300 46.48200 30.20300
O  34.65300 45.81200 31.56700
C  33.71400 45.42300 32.66500
H  32.04600 52.66600 27.73000
H  33.62100 51.36000 21.49000
H  36.39800 45.81400 23.34500
H  33.26100 48.85900 30.54100
H  33.10900 51.83200 29.94500
H  31.09400 49.91200 30.57200
H  30.66500 50.81700 29.08000
H  31.04800 51.62500 30.54900
H  35.79500 50.48000 30.27500
H  35.23500 49.24900 31.38200
H  34.59800 52.20900 31.49900
H  35.41600 51.11200 32.58400
H  32.02100 55.27800 25.42800
H  31.46100 54.30800 26.74300
H  30.48900 54.28400 25.37100
H  31.68300 55.76100 23.19300
H  30.26200 54.82300 23.26500
H  31.03700 55.39800 21.66200
H  35.53200 49.73600 20.45600
H  35.20100 46.86500 21.09700
H  32.88300 48.94600 20.45500
H  33.81600 47.73000 19.49100
H  33.90700 49.51000 19.10100
H  37.39600 48.02100 20.10300
H  37.52000 46.63600 21.10800
H  38.91100 47.88700 22.40400
H  37.54000 49.09000 22.61800
H  38.74700 49.34800 21.40500
H  37.42800 43.79700 26.43000
H  37.33900 44.23600 24.73600
H  35.95500 43.49100 25.50600
H  36.15300 46.90400 30.11800
H  33.60400 44.34200 32.74100
H  32.65800 45.60700 32.46800
H  34.09900 45.88300 33.57600

