158

Mg 1.52800 -1.71300 42.61700
C  4.80400 -0.87600 42.06500
C  0.55100 1.15100 40.98600
C  -1.75900 -2.78000 42.62600
C  2.50800 -4.93200 43.74000
N  2.62400 -0.15800 41.50300
C  3.92900 0.11700 41.59900
C  4.32000 1.42100 40.95100
C  2.89200 2.18400 40.87900
C  1.95700 0.97600 41.17600
C  2.76200 3.26400 41.98500
C  4.73100 0.98600 39.52400
C  6.11600 1.46400 39.04900
H  6.21300 2.35500 37.85600
N  -0.29600 -0.97900 41.89600
C  -0.50900 0.28700 41.28900
C  -1.89700 0.52100 41.04600
C  -2.57000 -0.69500 41.44000
C  -1.49300 -1.61500 42.02600
C  -2.40600 1.79100 40.38600
C  -4.08600 -0.88000 41.29000
O  -4.76600 0.08500 40.87000
C  -4.77400 -2.12000 41.59000
N  0.53800 -3.54200 43.05600
C  -0.84400 -3.70600 43.07800
C  -1.28700 -5.12500 43.42800
C  0.07300 -5.80500 43.76100
C  1.11400 -4.65000 43.62400
C  -2.40800 -5.36900 44.44500
C  0.39600 -7.02000 42.87000
C  -0.14100 -8.32400 43.42800
N  3.29600 -2.72700 42.91800
C  3.53300 -4.01600 43.37400
C  4.94000 -4.22400 43.42100
C  5.52900 -2.90500 43.03800
C  4.47200 -2.12100 42.64100
C  5.63500 -5.46400 43.90800
C  6.77200 -2.20000 42.77500
O  7.95400 -2.43300 42.95000
C  6.30600 -0.79900 42.20000
C  6.70500 0.37600 43.01500
O  6.05400 0.86500 43.92000
O  7.85900 0.88400 42.55000
C  8.49100 1.89500 43.32200
H  0.37000 2.16600 40.62400
H  -2.82100 -3.02800 42.68000
H  2.76800 -5.91600 44.13500
H  5.12300 1.83200 41.56300
H  2.65400 2.75300 39.98000
H  3.76000 3.55600 42.31100
H  2.35700 2.67600 42.80800
H  2.17200 4.11700 41.65100
H  4.04000 1.53600 38.88600
H  4.69900 -0.08100 39.30400
H  6.62300 0.51100 38.89700
H  6.54700 2.03600 39.87000
H  -2.78600 2.52100 41.10100
H  -3.11800 1.66800 39.57000
H  -1.55100 2.26200 39.90200
H  -5.80200 -1.99900 41.24700
H  -4.82400 -2.13700 42.67900
H  -4.23400 -2.92800 41.09700
H  -1.64400 -5.44800 42.45000
H  0.04500 -6.16700 44.78900
H  -3.34600 -5.61500 43.94700
H  -2.42200 -4.48000 45.07600
H  -2.21300 -6.24900 45.05700
H  1.42600 -7.25000 42.59800
H  -0.11200 -6.93400 41.90900
H  -1.12800 -8.12900 43.84800
H  0.51300 -8.70800 44.21100
H  -0.15400 -9.11400 42.67800
H  5.11500 -6.38700 43.65300
H  5.54200 -5.39300 44.99200
H  6.70900 -5.37600 43.74300
H  6.69800 -0.63600 41.19600
H  9.40000 2.20100 42.80400
H  8.73500 1.52300 44.31600
H  7.99300 2.84200 43.52700
Mg 8.93200 3.81300 27.08900
C  10.02900 2.33800 30.01800
C  6.86700 5.81100 29.08700
C  7.68600 5.07400 24.27700
C  10.66100 1.39100 25.26000
N  8.41400 3.94300 29.30100
C  9.15200 3.34300 30.29900
C  8.73800 3.88800 31.66400
C  7.55200 4.78900 31.30700
C  7.57000 4.85600 29.86200
C  6.14100 4.27000 31.74700
C  9.97100 4.62300 32.25800
C  10.39700 4.05400 33.60000
H  10.84100 4.96500 34.73100
N  7.53800 5.25400 26.76800
C  6.86600 6.03700 27.67500
C  6.03900 7.03300 26.97700
C  6.48100 6.96800 25.64900
C  7.26600 5.73800 25.51700
C  5.11100 7.99300 27.62000
C  6.18600 7.93400 24.57000
O  6.55800 7.75000 23.41800
C  5.51500 9.16100 24.93500
N  9.18500 3.37200 25.05900
C  8.61700 4.05000 24.10200
C  9.10800 3.52800 22.75100
C  10.18900 2.54300 23.03700
C  9.96400 2.33900 24.58600
C  7.82100 3.01800 22.05500
C  11.68500 3.02600 22.70500
C  12.55900 2.08100 21.89800
N  10.05000 2.04500 27.51500
C  10.79400 1.23400 26.69500
C  11.67400 0.33800 27.44200
C  11.31000 0.64300 28.79900
C  10.37200 1.73500 28.78300
C  12.66200 -0.56200 26.88800
C  11.62300 0.46000 30.16700
O  12.48500 -0.30100 30.58600
C  10.85500 1.53300 31.03200
C  10.02800 0.69400 31.91700
O  8.83300 0.33000 31.72700
O  10.78200 0.51500 33.08900
C  9.99400 -0.30200 34.05300
H  6.33000 6.49900 29.74300
H  7.28400 5.51800 23.36400
H  11.12500 0.69300 24.56000
H  8.42100 3.11200 32.36200
H  7.68600 5.76900 31.76400
H  5.95500 4.69300 32.73400
H  6.37400 3.22200 31.93500
H  5.24400 4.39400 31.14000
H  9.83400 5.70400 32.22900
H  10.80200 4.43500 31.57800
H  11.30600 3.47200 33.44800
H  9.62700 3.37200 33.96100
H  4.86300 7.60200 28.60700
H  4.17400 8.10100 27.07400
H  5.55600 8.98200 27.73700
H  4.48600 8.91700 25.19900
H  5.49800 9.80700 24.05800
H  6.06100 9.70200 25.70800
H  9.39800 4.39600 22.15900
H  9.93600 1.56900 22.61700
H  6.92900 2.98000 22.68000
H  7.93300 2.06500 21.53900
H  7.63900 3.76500 21.28300
H  12.23800 3.29700 23.60400
H  11.58800 3.91500 22.08200
H  12.89000 2.59200 20.99300
H  11.99700 1.18700 21.62900
H  13.40900 1.73100 22.48400
H  12.21700 -1.22900 26.15000
H  13.06400 -1.20200 27.67300
H  13.48100 -0.02100 26.41300
H  11.51700 2.18200 31.60600
H  9.39700 -1.06900 33.55900
H  9.37700 0.29100 34.72800
H  10.75500 -0.75300 34.69000

