158

Mg 17.99900 -2.48100 27.14600
C  17.03400 -0.69100 29.91800
C  20.09500 -4.31100 29.23900
C  19.23500 -3.94800 24.35700
C  16.06600 -0.29300 25.16700
N  18.50100 -2.49700 29.32100
C  17.98100 -1.65000 30.20100
C  18.40600 -2.09000 31.60200
C  19.63400 -3.07900 31.39400
C  19.46900 -3.29800 29.89400
C  21.06500 -2.54700 31.77600
C  17.21300 -2.72300 32.38300
C  16.89000 -2.15500 33.74900
H  18.15900 -1.77400 34.51500
N  19.52400 -3.95400 26.89400
C  20.25000 -4.53900 27.86800
C  21.04400 -5.60000 27.22800
C  20.86500 -5.51200 25.79300
C  19.87400 -4.40800 25.61600
C  21.76000 -6.70800 28.02700
C  21.41000 -6.38500 24.58000
O  21.31400 -6.10300 23.39400
C  22.15000 -7.57600 24.95900
N  17.67600 -2.22700 25.08200
C  18.24900 -3.02700 24.13600
C  17.96200 -2.54900 22.67500
C  16.80100 -1.46500 22.99200
C  16.86100 -1.27700 24.48900
C  19.24900 -1.98000 21.97600
C  15.39300 -1.98800 22.44200
C  14.92500 -1.36900 21.08400
N  16.83800 -0.87400 27.45700
C  16.15200 -0.11200 26.55800
C  15.22500 0.75700 27.27700
C  15.59300 0.60000 28.60000
C  16.52500 -0.41200 28.65600
C  14.12300 1.74100 26.68400
C  15.25100 0.97300 29.96400
O  14.38900 1.71500 30.41500
C  16.23500 0.14200 30.88900
C  16.98800 1.15800 31.58500
O  18.02700 1.62300 31.22200
O  16.31100 1.49800 32.77700
C  17.10300 2.42700 33.59500
H  20.71600 -4.92100 29.89900
H  19.59300 -4.47700 23.47100
H  15.36500 0.30800 24.58600
H  18.80500 -1.19900 32.08800
H  19.44900 -4.00500 31.93800
H  21.05100 -1.45900 31.84100
H  21.68400 -2.81000 30.91900
H  21.51900 -2.84100 32.72200
H  17.34100 -3.80400 32.43700
H  16.41800 -2.76600 31.63800
H  16.24500 -2.86800 34.26200
H  16.36800 -1.21900 33.54800
H  21.84800 -7.66100 27.50600
H  21.25000 -6.84900 28.98000
H  22.74000 -6.26800 28.21200
H  22.24500 -8.11200 24.01500
H  21.41600 -8.15100 25.52300
H  23.05900 -7.24900 25.46500
H  17.48900 -3.35400 22.11200
H  16.97000 -0.45900 22.60800
H  19.18900 -0.89400 22.03900
H  19.20400 -2.14500 20.89900
H  20.25500 -2.25800 22.29100
H  14.65700 -1.78300 23.21900
H  15.49800 -3.04600 22.20300
H  15.74300 -0.80100 20.64000
H  14.06700 -0.70300 21.17600
H  14.54900 -2.17100 20.44900
H  13.77500 1.50900 25.67700
H  14.59600 2.72300 26.68800
H  13.32200 1.81700 27.41900
H  15.55500 -0.37200 31.56800
H  16.75500 3.41900 33.30700
H  18.18400 2.28800 33.59700
H  16.87200 2.21600 34.64000
Mg 41.02000 8.21300 29.84600
C  42.57600 9.69200 32.72100
C  38.80600 6.60000 32.01600
C  39.90100 6.61300 27.26100
C  43.68200 9.56600 27.81800
N  40.67400 8.31100 32.17400
C  41.54300 8.88000 33.10700
C  40.82500 8.75500 34.47100
C  39.70000 7.66600 34.23600
C  39.71100 7.53400 32.70900
C  39.99900 6.32500 34.91700
C  40.26800 10.09700 34.97500
C  39.66000 10.20600 36.37500
H  40.37400 11.21900 37.31500
N  39.50900 6.87000 29.67500
C  38.71500 6.30600 30.63900
C  37.70400 5.50300 30.00000
C  37.90700 5.57800 28.57400
C  39.18000 6.32500 28.43900
C  36.65800 4.58000 30.68600
C  37.07800 4.97200 27.46600
O  37.25600 5.13900 26.31400
C  35.82500 4.24700 27.75300
N  41.83000 8.00800 27.90200
C  41.01100 7.47500 26.99900
C  41.70100 7.52900 25.59500
C  42.63100 8.78600 25.79300
C  42.74700 8.70600 27.32300
C  42.38200 6.23700 25.08000
C  42.28200 10.18100 25.18400
C  40.86000 10.65100 25.06900
N  42.85800 9.37100 30.13900
C  43.74900 9.87000 29.22900
C  44.66600 10.68500 30.02300
C  44.26400 10.76500 31.36000
C  43.16900 9.86700 31.36900
C  45.74700 11.44600 29.33500
C  44.50700 11.21800 32.67700
O  45.46500 11.89900 33.05700
C  43.42100 10.55000 33.65900
C  44.17100 9.75400 34.65700
O  45.14900 9.05000 34.37300
O  43.71400 10.06800 35.87700
C  44.18900 9.30200 37.06800
H  38.00800 6.10800 32.57600
H  39.50400 6.18100 26.34000
H  44.38500 10.14100 27.21300
H  41.60000 8.35800 35.12700
H  38.78600 8.07400 34.66900
H  41.02700 6.28700 35.27500
H  39.90200 5.60300 34.10700
H  39.39200 6.19900 35.81400
H  39.55200 10.22300 34.16200
H  40.93100 10.95800 34.90200
H  39.94900 9.28500 36.88100
H  38.58800 10.39100 36.43700
H  35.57500 4.64700 30.58200
H  36.76600 4.71500 31.76200
H  36.92700 3.58800 30.32400
H  36.00100 3.29500 28.25300
H  35.28800 4.12500 26.81200
H  35.26700 4.89400 28.43000
H  40.91100 7.85700 24.91900
H  43.60600 8.57200 25.35400
H  43.40800 6.40000 24.74900
H  41.75500 5.84200 24.28100
H  42.43300 5.51200 25.89200
H  42.63900 10.18300 24.15400
H  42.82800 10.91400 25.77800
H  40.24400 10.05000 25.73800
H  40.49400 10.50700 24.05300
H  40.65900 11.69100 25.32500
H  45.50600 11.69400 28.30100
H  46.65300 10.86900 29.52100
H  45.86400 12.32500 29.96900
H  42.88600 11.37600 34.12600
H  44.26700 8.23800 36.84500
H  43.58000 9.54900 37.93800
H  45.21800 9.62500 37.22600

