158

Mg 54.69700 23.75900 44.49600
C  52.15800 25.87100 43.35800
C  52.78300 21.07600 43.57500
C  57.40000 21.90400 45.01100
C  56.33100 26.56900 45.81700
N  52.73100 23.56900 43.39900
C  51.90400 24.54300 43.07100
C  50.59200 23.93400 42.47300
C  50.60000 22.40900 43.11800
C  52.10800 22.32000 43.35700
C  49.76600 22.21900 44.40800
C  50.54800 23.97700 40.85100
C  49.12700 24.05700 40.35700
H  48.74600 23.71800 38.93300
N  55.06000 21.83000 44.07500
C  54.15800 20.83000 43.71200
C  54.72000 19.47800 43.79300
C  56.07000 19.68100 44.31000
C  56.26600 21.19300 44.45100
C  53.89000 18.22800 43.38700
C  57.00800 18.50000 44.71600
O  56.70400 17.30800 44.71200
C  58.49400 18.86400 45.06400
N  56.69700 24.26500 45.09900
C  57.61200 23.33100 45.28700
C  58.90700 23.95300 45.84300
C  58.44800 25.37400 46.29000
C  57.07600 25.43300 45.75900
C  59.54600 23.16100 46.97400
C  59.42400 26.52800 45.87700
C  59.84900 27.41200 47.02400
N  54.40700 25.83700 44.57900
C  55.11900 26.85800 45.15700
C  54.37100 28.07400 45.10500
C  53.22300 27.78600 44.29300
C  53.29700 26.39600 44.01900
C  54.75700 29.36400 45.59200
C  51.99400 28.31900 43.82100
O  51.49800 29.47900 43.94000
C  51.29900 27.13800 43.14100
C  51.02200 27.45500 41.70400
O  51.87500 27.54200 40.83800
O  49.69700 27.60300 41.41500
C  49.53500 27.96500 40.00100
H  52.06800 20.25500 43.49100
H  58.30100 21.34400 45.27200
H  56.94200 27.36600 46.24600
H  49.74500 24.57200 42.72500
H  50.38300 21.63300 42.38400
H  50.45700 22.10100 45.24400
H  49.13500 21.33100 44.43700
H  49.10400 23.08000 44.49700
H  50.97800 23.03200 40.52100
H  51.14500 24.81400 40.49100
H  48.91400 25.12600 40.35900
H  48.58600 23.48900 41.11400
H  53.42700 18.48700 42.43500
H  53.07400 17.90400 44.03300
H  54.48300 17.36600 43.08000
H  58.90000 19.54000 44.31100
H  59.15000 18.00000 44.96700
H  58.49900 19.13000 46.12100
H  59.56300 24.02100 44.97500
H  58.36900 25.38500 47.37700
H  60.28200 22.45800 46.58300
H  58.83200 22.51300 47.48300
H  59.95300 23.87500 47.69000
H  58.85900 27.03700 45.09600
H  60.39100 26.08900 45.63100
H  60.65200 27.00100 47.63600
H  58.94400 27.59900 47.60200
H  60.12400 28.37100 46.58600
H  55.81600 29.31600 45.84700
H  54.29700 29.78800 46.48500
H  54.68300 30.15000 44.84100
H  50.35800 26.92200 43.64700
H  49.66000 29.03700 39.84800
H  48.50800 27.70100 39.74900
H  50.17500 27.35700 39.36300
Mg -10.57600 39.94300 39.81100
C  -9.59400 36.83700 39.00400
C  -7.62200 41.23600 38.76600
C  -11.91600 43.06100 39.99100
C  -13.86700 38.61700 40.11300
N  -8.83000 39.14600 38.99000
C  -8.62200 37.77900 38.76500
C  -7.24700 37.56900 38.13500
C  -6.48400 38.93900 38.48900
C  -7.71200 39.82500 38.82800
C  -5.45700 38.84400 39.66300
C  -7.48800 37.48200 36.54100
C  -6.98800 36.15800 35.89100
H  -8.00100 35.62200 34.77400
N  -9.87000 41.87500 39.50800
C  -8.58400 42.19800 39.10400
C  -8.43600 43.66100 39.13700
C  -9.68400 44.22900 39.45000
C  -10.56200 43.04900 39.72200
C  -7.00600 44.29000 38.71000
C  -9.90400 45.66900 39.48300
O  -9.01700 46.50800 39.32800
C  -11.34300 46.33400 39.64900
N  -12.70200 40.70600 39.82500
C  -12.94300 42.09300 40.01800
C  -14.48000 42.40100 40.23500
C  -15.06800 40.92600 40.24000
C  -13.76800 40.01400 40.08200
C  -14.80000 43.25300 41.49500
C  -16.29200 40.50200 39.31000
C  -17.48100 39.83000 40.02300
N  -11.50200 38.08300 39.90200
C  -12.81800 37.74600 40.05400
C  -12.96900 36.35400 39.78600
C  -11.68000 35.91400 39.42900
C  -10.86000 37.03500 39.51400
C  -14.21100 35.54800 39.68300
C  -10.88000 34.77300 38.93000
O  -11.29600 33.64200 38.71900
C  -9.47700 35.29900 38.74800
C  -8.45000 34.40900 39.49700
O  -8.47400 34.23900 40.72800
O  -7.48500 33.87900 38.65200
C  -6.40400 33.16800 39.35200
H  -6.66500 41.66500 38.46400
H  -12.31900 44.06300 40.15000
H  -14.85600 38.16000 40.18200
H  -6.71600 36.65500 38.40100
H  -6.02600 39.37700 37.60200
H  -5.27100 37.79000 39.86700
H  -6.05500 39.23900 40.48500
H  -4.53400 39.34700 39.37400
H  -7.09800 38.33400 35.98300
H  -8.54600 37.60000 36.30700
H  -6.86100 35.40000 36.66500
H  -5.96700 36.22300 35.51400
H  -6.90100 45.26000 39.19600
H  -6.82600 44.25500 37.63500
H  -6.27900 43.70700 39.27600
H  -11.32100 47.42300 39.63300
H  -11.73700 46.01600 40.61400
H  -11.91500 45.99200 38.78600
H  -14.76400 43.00600 39.37400
H  -15.28200 40.62500 41.26500
H  -13.88800 43.69800 41.89200
H  -15.26700 42.64800 42.27200
H  -15.43100 44.10300 41.23600
H  -16.07100 39.91800 38.41700
H  -16.73600 41.46300 39.05000
H  -18.04000 39.09700 39.44200
H  -18.24800 40.53800 40.33800
H  -17.08700 39.43100 40.95700
H  -13.96200 34.48700 39.66100
H  -14.86500 35.68700 38.82200
H  -14.79200 35.73300 40.58700
H  -9.11900 35.20300 37.72300
H  -6.67500 32.24700 39.86900
H  -5.89100 33.87300 40.00600
H  -5.63400 32.77200 38.69000

