158

Mg 35.68500 0.98500 29.75800
C  33.31300 2.17800 32.11100
C  37.93800 1.14000 32.30400
C  38.04600 0.04800 27.51700
C  33.40500 1.35800 27.17700
N  35.68200 1.76000 31.91900
C  34.51800 1.94800 32.67600
C  34.74100 2.04600 34.18000
C  36.30500 1.64800 34.22900
C  36.66600 1.57100 32.72300
C  37.22600 2.65100 35.09200
C  33.93400 1.04000 35.02200
C  33.35900 1.46400 36.39700
H  34.00800 2.62900 37.14700
N  37.67900 0.62900 29.89600
C  38.47500 0.75800 31.03300
C  39.80600 0.16600 30.79000
C  39.86700 -0.09300 29.35500
C  38.47500 0.19500 28.89500
C  40.85200 -0.15300 31.84200
C  41.10500 -0.54200 28.51500
O  40.98400 -0.83900 27.36700
C  42.48300 -0.45700 29.16500
N  35.71400 0.69300 27.64500
C  36.77600 0.32100 27.00800
C  36.54400 0.22100 25.42400
C  34.97500 0.43900 25.34800
C  34.65900 0.83900 26.80600
C  37.29000 1.37900 24.63500
C  34.19300 -0.74100 24.80700
C  33.56200 -0.54800 23.44500
N  33.78600 1.75800 29.60900
C  32.98400 1.75700 28.50300
C  31.70400 2.24900 28.86800
C  31.71000 2.41000 30.28700
C  33.05900 2.12500 30.71000
C  30.62700 2.46600 27.89300
C  30.98200 2.67400 31.45300
O  29.82500 2.92800 31.56400
C  31.96800 2.55900 32.72700
C  32.03900 4.01500 33.27600
O  32.94900 4.85000 33.09500
O  31.11900 4.10200 34.26500
C  31.24700 5.12500 35.29600
H  38.53600 0.97800 33.20300
H  38.85500 -0.34300 26.89800
H  32.57100 1.28700 26.47500
H  34.53100 3.04900 34.55100
H  36.54300 0.62800 34.53000
H  37.95000 2.06400 35.65800
H  36.67200 3.23000 35.83000
H  37.84400 3.33500 34.51200
H  34.57100 0.18700 35.25500
H  33.13400 0.50500 34.51100
H  33.50500 0.61400 37.06400
H  32.27500 1.56900 36.37200
H  41.21900 -1.17800 31.89500
H  40.29500 -0.01200 32.76700
H  41.63400 0.60600 31.83900
H  42.59900 0.53700 29.59800
H  43.19000 -0.54600 28.34100
H  42.73600 -1.15200 29.96500
H  36.93500 -0.75500 25.13800
H  34.69900 1.38300 24.87800
H  38.12600 1.69600 25.25900
H  36.61100 2.17600 24.33300
H  37.68500 0.95100 23.71300
H  33.37500 -1.00900 25.47600
H  34.82900 -1.60800 24.62600
H  33.74800 -1.35900 22.74000
H  33.88300 0.38800 22.98800
H  32.47800 -0.50400 23.54700
H  31.11300 2.88200 27.01000
H  29.96500 3.24700 28.26800
H  30.04900 1.57300 27.65500
H  31.57200 1.94100 33.53300
H  31.08000 4.69700 36.28400
H  30.60000 5.96000 35.02700
H  32.27400 5.49100 35.31000
Mg 15.92500 51.21800 25.60700
C  17.57600 50.12500 28.52800
C  13.33400 52.43400 27.53500
C  14.37100 51.89300 22.84100
C  18.63000 49.72700 23.67600
N  15.58600 51.33700 27.83000
C  16.38400 50.83400 28.80200
C  15.80200 51.20700 30.18700
C  14.35400 51.79300 29.82700
C  14.36700 51.81600 28.27600
C  13.24000 50.80500 30.33000
C  16.69600 52.18700 30.92800
C  16.86200 52.05600 32.50800
H  15.98900 51.17900 33.43400
N  14.14500 52.13200 25.26100
C  13.21400 52.63400 26.13400
C  12.13200 53.23800 25.43400
C  12.53500 53.25000 24.03400
C  13.72000 52.35700 24.00700
C  10.93000 53.83200 26.13900
C  11.91000 53.90300 22.85900
O  12.43600 53.77400 21.74200
C  10.85400 54.73800 23.07400
N  16.46800 50.85300 23.56400
C  15.52000 51.11700 22.66400
C  15.93900 50.74900 21.26000
C  17.34400 50.14300 21.45800
C  17.53700 50.28600 22.99200
C  14.89400 49.83900 20.47200
C  18.58300 50.61200 20.64100
C  19.40800 49.50400 19.95200
N  17.67400 50.05500 25.95900
C  18.69500 49.52300 25.06500
C  19.79600 49.05700 25.89100
C  19.38500 49.24500 27.25300
C  18.11200 49.88100 27.25900
C  21.07400 48.42200 25.39500
C  19.74700 48.97100 28.59300
O  20.74100 48.41000 29.05200
C  18.63600 49.60900 29.53100
C  18.13600 48.44300 30.35300
O  17.31400 47.58000 30.05100
O  18.88100 48.42600 31.50800
C  18.52800 47.22800 32.33800
H  12.59400 52.88000 28.20200
H  13.89900 51.98100 21.86000
H  19.48200 49.25300 23.18300
H  15.79200 50.29200 30.77900
H  14.23100 52.80100 30.22300
H  13.54800 50.15100 31.14600
H  12.85000 50.21200 29.50300
H  12.35700 51.37600 30.61900
H  16.43400 53.23300 30.76800
H  17.71700 52.04800 30.57300
H  16.93500 53.06500 32.91300
H  17.90300 51.73900 32.57300
H  10.65200 53.27000 27.03000
H  10.05100 53.85300 25.49500
H  11.21900 54.83300 26.46000
H  10.00500 54.07900 23.25500
H  10.49000 55.31200 22.22200
H  11.14200 55.34300 23.93400
H  16.01400 51.68300 20.70400
H  17.35700 49.05400 21.48000
H  14.90600 48.75000 20.53100
H  14.95300 50.12200 19.42100
H  13.84800 50.01400 20.72500
H  19.28600 51.16500 21.26400
H  18.18300 51.28500 19.88200
H  20.30000 49.41100 20.57000
H  19.61800 49.90000 18.95800
H  18.92600 48.52700 19.91400
H  21.00600 47.33700 25.32300
H  21.82600 48.39900 26.18300
H  21.59200 48.75600 24.49700
H  19.16700 50.38800 30.07900
H  17.49300 47.17500 32.67600
H  19.27600 47.31500 33.12600
H  18.78400 46.30100 31.82500

