158

Mg 6.67100 54.97500 40.56300
C  5.88700 51.52700 40.39000
C  9.96600 54.19000 40.07800
C  7.33900 58.29800 40.40000
C  3.26100 55.69800 40.67500
N  7.76600 53.02300 40.07200
C  7.22700 51.73200 40.11700
C  8.41800 50.63300 40.11700
C  9.67900 51.58300 40.33100
C  9.14900 52.99400 40.16400
C  10.50800 51.35800 41.56400
C  8.44400 49.75300 38.79700
C  8.32200 50.47700 37.43700
H  7.02100 50.81000 36.82900
N  8.42600 56.08200 40.30100
C  9.66400 55.54700 40.10200
C  10.63100 56.57700 39.86700
C  9.92800 57.76900 40.05700
C  8.48100 57.41800 40.29800
C  12.06400 56.44100 39.55100
C  10.51600 59.15800 40.02000
O  11.73400 59.29900 39.85500
C  9.77800 60.37000 40.50100
N  5.51400 56.72200 40.31900
C  6.01700 58.00500 40.45500
C  4.95100 59.09600 40.54000
C  3.65200 58.18200 40.47900
C  4.12800 56.76400 40.49000
C  5.07000 60.07400 41.72000
C  2.65500 58.59400 39.39500
C  1.94700 59.93600 39.52000
N  4.88200 53.92100 40.58500
C  3.56500 54.36300 40.68900
C  2.74300 53.27200 40.95500
C  3.55200 52.14700 40.82900
C  4.88700 52.57000 40.57100
C  1.26800 53.26900 41.28000
C  3.58300 50.72900 40.89900
O  2.72400 49.89700 41.23300
C  5.13700 50.29700 40.69900
C  5.06600 49.27600 39.60200
O  4.74300 49.45700 38.44300
O  5.27300 48.03000 40.18500
C  5.11600 46.90300 39.18800
H  10.99300 53.85400 39.92100
H  7.54700 59.36700 40.31500
H  2.19800 55.89700 40.82400
H  8.21700 50.01400 40.99100
H  10.29600 51.38600 39.45400
H  10.36500 52.23900 42.19100
H  11.53400 51.22800 41.22000
H  10.12900 50.60300 42.25300
H  7.70100 48.95800 38.87600
H  9.40800 49.25600 38.68700
H  8.93400 49.88500 36.75600
H  8.77600 51.44900 37.63100
H  12.37300 55.43300 39.27400
H  12.58800 56.76100 40.45100
H  12.31300 57.13400 38.74700
H  9.19600 60.87100 39.72800
H  10.59600 61.05500 40.72500
H  9.26900 60.27500 41.46000
H  4.93500 59.67900 39.61900
H  3.12400 58.32800 41.42200
H  5.96100 60.01600 42.34500
H  4.21100 59.80900 42.33700
H  4.89500 61.04600 41.25900
H  1.88400 57.82300 39.40200
H  3.19200 58.49600 38.45200
H  2.25100 60.53300 38.66000
H  2.35100 60.34600 40.44500
H  0.89700 59.85100 39.80100
H  0.88800 52.25500 41.40700
H  0.67800 53.75700 40.50400
H  1.08600 53.78200 42.22400
H  5.53300 49.82200 41.59600
H  5.70500 47.07000 38.28600
H  4.06600 46.79500 38.91600
H  5.45700 45.99400 39.68300
Mg -0.04300 44.00600 25.79800
C  2.09900 43.79800 28.64400
C  -2.53900 42.90900 27.85500
C  -2.04800 43.71100 23.07800
C  2.65500 44.88500 23.84600
N  -0.22000 43.57900 28.08500
C  0.74600 43.52500 29.01400
C  0.19300 43.29400 30.35700
C  -1.27600 42.79900 30.07400
C  -1.38900 43.20900 28.59200
C  -1.61500 41.37200 30.51200
C  0.30500 44.61300 31.21900
C  0.78200 44.38200 32.70200
H  0.42500 43.07400 33.33500
N  -1.94000 43.29400 25.50200
C  -2.85100 42.87400 26.51100
C  -4.11500 42.44400 25.94900
C  -4.00200 42.65100 24.54800
C  -2.55500 43.13300 24.28700
C  -5.33000 42.17300 26.78500
C  -5.09000 42.44400 23.45500
O  -4.98000 42.77200 22.32800
C  -6.34800 41.86800 23.81200
N  0.35100 44.14800 23.79000
C  -0.76200 44.22000 22.87500
C  -0.39900 45.13800 21.65000
C  1.14000 45.50900 21.95800
C  1.43300 44.85900 23.26400
C  -0.62400 44.57800 20.23000
C  1.36000 47.02400 22.02700
C  1.59400 47.69300 20.65000
N  2.00900 44.26300 26.09300
C  3.02000 44.51000 25.18300
C  4.29200 44.52300 25.75800
C  3.99200 44.30200 27.16800
C  2.59600 44.09900 27.31400
C  5.54800 44.98200 25.00900
C  4.56600 44.13300 28.48000
O  5.76200 44.13300 28.78600
C  3.38500 43.79000 29.44600
C  3.67200 42.49800 30.07800
O  3.32000 41.42100 29.63000
O  4.33200 42.69400 31.23000
C  4.63200 41.49300 32.01200
H  -3.40000 42.65600 28.47700
H  -2.69700 43.79600 22.20400
H  3.47600 45.36700 23.31200
H  0.72900 42.50800 30.88800
H  -2.05300 43.36000 30.59400
H  -1.76500 40.69700 29.67000
H  -2.40800 41.31600 31.25900
H  -0.73100 40.98600 31.01900
H  -0.62100 45.18700 31.25100
H  1.08500 45.26100 30.81800
H  0.40800 45.22000 33.29000
H  1.85300 44.58100 32.67400
H  -6.10700 42.91100 26.58800
H  -5.21200 41.90100 27.83400
H  -5.67100 41.22400 26.37000
H  -6.94500 42.55600 24.41000
H  -6.14200 40.89700 24.26200
H  -7.04400 41.79900 22.97700
H  -1.01100 46.03800 21.70000
H  1.83800 45.03800 21.26600
H  -1.63500 44.77000 19.86800
H  -0.50500 43.50200 20.35300
H  0.12200 44.95400 19.53000
H  2.25400 47.29300 22.59000
H  0.50000 47.45400 22.54000
H  0.95200 48.57000 20.57200
H  1.36700 46.94300 19.89200
H  2.65000 47.96200 20.65800
H  5.49400 45.98700 24.59000
H  5.88100 44.15600 24.38100
H  6.29400 45.13600 25.78800
H  3.38600 44.51700 30.25800
H  3.67000 40.98200 32.06400
H  4.88800 41.68900 33.05300
H  5.37900 40.85900 31.53500

