158

Mg -2.58900 35.27900 26.80000
C  -4.32700 33.61400 29.59200
C  -1.92600 37.84300 29.21400
C  -1.03900 36.89400 24.43000
C  -3.76000 32.89300 24.72500
N  -3.14500 35.67500 29.18200
C  -3.74900 34.79200 30.06900
C  -3.82000 35.28600 31.53400
C  -3.21000 36.75300 31.30600
C  -2.70000 36.80900 29.81900
C  -4.19600 37.92100 31.60900
C  -2.97400 34.44700 32.54900
C  -2.78100 35.16300 33.89900
H  -3.24500 34.44400 35.17800
N  -1.51800 37.01800 26.86900
C  -1.33100 37.90700 27.89400
C  -0.47800 39.02500 27.42100
C  -0.29100 38.78600 26.06400
C  -0.95200 37.58200 25.71300
C  0.14600 40.07400 28.38200
C  0.38800 39.64900 25.06200
O  0.60600 39.33100 23.92300
C  0.79500 41.12200 25.40000
N  -2.68400 35.06200 24.81900
C  -1.82400 35.81300 24.03200
C  -1.77700 35.31300 22.58300
C  -2.56600 33.97500 22.72400
C  -3.05500 33.88700 24.14600
C  -2.33100 36.36600 21.61500
C  -1.78800 32.71700 22.26300
C  -0.43700 32.39700 22.96600
N  -3.77800 33.51200 27.04200
C  -4.20100 32.59500 26.06900
C  -4.95600 31.59900 26.71700
C  -5.06000 31.93800 28.05900
C  -4.27700 33.12700 28.28300
C  -5.60100 30.44700 25.95900
C  -5.70800 31.62000 29.22700
O  -6.50400 30.72500 29.51200
C  -5.08700 32.50700 30.32700
C  -6.25900 33.08700 31.07800
O  -6.96800 34.03400 30.79100
O  -6.50100 32.29500 32.20600
C  -7.58400 32.59100 33.15900
H  -1.78800 38.74400 29.81600
H  -0.31000 37.15400 23.65900
H  -3.97100 32.13300 23.96900
H  -4.83800 35.34800 31.92000
H  -2.31200 36.95200 31.89100
H  -4.31400 38.60300 30.76700
H  -3.86200 38.54300 32.43800
H  -5.22800 37.63400 31.81200
H  -2.04500 34.11700 32.08300
H  -3.54700 33.53100 32.69500
H  -3.29500 36.12400 33.91000
H  -1.72200 35.34900 34.07900
H  1.13400 40.34400 28.01100
H  0.26900 39.62800 29.36900
H  -0.56300 40.89700 28.46900
H  -0.07000 41.63300 25.82200
H  1.22900 41.68200 24.57200
H  1.66400 41.16300 26.05700
H  -0.74400 35.05800 22.34500
H  -3.35300 34.09500 21.97900
H  -2.83500 37.02500 22.32200
H  -3.10300 35.98200 20.94700
H  -1.47500 36.86900 21.16500
H  -1.56100 32.89200 21.21100
H  -2.47100 31.89200 22.46400
H  -0.20400 33.15000 23.71900
H  0.30400 32.50000 22.17300
H  -0.50500 31.40300 23.40800
H  -4.89600 30.09900 25.20500
H  -6.47900 30.84600 25.45200
H  -5.89500 29.61600 26.60200
H  -4.53800 31.81000 30.96000
H  -7.96600 31.69300 33.64400
H  -8.33800 33.07000 32.53300
H  -7.23500 33.27500 33.93200
Mg -12.53100 15.97100 41.62600
C  -9.38400 14.43400 41.29300
C  -11.15900 18.64900 40.03500
C  -15.57900 17.07800 41.45300
C  -13.79900 12.64100 42.51600
N  -10.51300 16.44300 40.72500
C  -9.38300 15.70600 40.71800
C  -8.24000 16.31700 40.00100
C  -8.69200 17.82500 39.88000
C  -10.20600 17.67400 40.26900
C  -7.97400 18.80300 40.90600
C  -7.91700 15.59100 38.64800
C  -6.42900 15.25700 38.50400
H  -5.83200 15.97900 37.29200
N  -13.22400 17.64600 40.99100
C  -12.55200 18.66500 40.34300
C  -13.42000 19.73100 40.10200
C  -14.70600 19.37700 40.52300
C  -14.53800 17.96400 41.00300
C  -13.10900 20.94400 39.43500
C  -15.94600 20.28600 40.48800
O  -15.88700 21.42500 40.02400
C  -17.26600 19.78100 41.00000
N  -14.42600 14.96600 41.97400
C  -15.51300 15.72900 41.93500
C  -16.78000 14.93600 42.29800
C  -16.21600 13.45000 42.52700
C  -14.72500 13.65900 42.33600
C  -17.44200 15.54700 43.48900
C  -16.76700 12.40100 41.55300
C  -17.14900 11.05900 42.20300
N  -11.79300 14.02100 41.94300
C  -12.39200 12.77800 42.27500
C  -11.33400 11.72800 42.38300
C  -10.14600 12.36200 42.09200
C  -10.53500 13.69300 41.70900
C  -11.51800 10.24400 42.85100
C  -8.71300 12.18300 42.01800
O  -7.96100 11.30400 42.30300
C  -8.10100 13.47100 41.48700
C  -7.10600 13.89200 42.53700
O  -7.33600 13.97900 43.71800
O  -5.86100 14.11300 41.95400
C  -4.87400 14.66100 42.90700
H  -10.82500 19.63400 39.70400
H  -16.57400 17.51100 41.33300
H  -14.05900 11.65500 42.90700
H  -7.32300 16.31900 40.59100
H  -8.53300 18.11500 38.84100
H  -7.20000 18.23900 41.42600
H  -8.65400 19.16900 41.67600
H  -7.53900 19.55700 40.25100
H  -8.17000 16.26100 37.82600
H  -8.61500 14.76300 38.52900
H  -6.26100 14.19000 38.36100
H  -5.86200 15.41900 39.42100
H  -13.29600 21.82900 40.04300
H  -13.85900 21.07400 38.65400
H  -12.17000 20.94900 38.88100
H  -17.69900 19.13100 40.24000
H  -17.84700 20.70300 41.02800
H  -17.19600 19.33900 41.99400
H  -17.49900 14.96800 41.48000
H  -16.42500 13.09200 43.53500
H  -17.30200 16.62600 43.42700
H  -17.05100 15.22000 44.45200
H  -18.52300 15.45100 43.38300
H  -16.06400 12.26800 40.73100
H  -17.73700 12.71200 41.16600
H  -18.19600 10.75700 42.22000
H  -16.90400 11.07100 43.26500
H  -16.44000 10.26500 41.97100
H  -12.12500 10.28400 43.75600
H  -10.59000 9.69300 43.00400
H  -12.16900 9.75900 42.12400
H  -7.67600 13.24100 40.51000
H  -4.03200 13.97200 42.98500
H  -5.20700 14.95100 43.90400
H  -4.55200 15.62100 42.50400

