158

Mg 25.85000 0.36600 29.58100
C  27.68600 0.14500 32.61400
C  22.94400 0.99300 31.52500
C  23.96300 0.16300 26.86500
C  28.65500 -0.58300 27.90900
N  25.35100 0.45200 31.81900
C  26.32300 0.45300 32.79600
C  25.66600 0.81300 34.15600
C  24.09600 0.87900 33.88400
C  24.09700 0.75800 32.31900
C  23.18200 -0.28800 34.45800
C  26.23200 2.08400 34.86100
C  26.93600 1.82100 36.22400
H  26.55000 2.73400 37.40200
N  23.78300 0.53300 29.26900
C  22.77900 0.87200 30.12200
C  21.54600 1.10300 29.42200
C  21.74500 0.86600 28.04600
C  23.20900 0.41400 28.02500
C  20.26200 1.56300 30.19300
C  20.94200 0.92500 26.87100
O  21.37100 0.87000 25.71600
C  19.43500 1.17100 26.98300
N  26.19900 -0.40600 27.68900
C  25.28400 -0.21500 26.65900
C  25.97600 -0.30700 25.23100
C  27.45800 -0.67600 25.60800
C  27.48300 -0.56700 27.13900
C  25.25800 -1.42200 24.34100
C  28.52200 0.35000 25.05400
C  28.47700 1.76000 25.63200
N  27.80500 -0.05400 30.16400
C  28.77900 -0.50300 29.29700
C  29.98600 -0.82400 30.09500
C  29.54300 -0.48600 31.42400
C  28.24600 -0.08800 31.37800
C  31.23400 -1.40700 29.63600
C  29.97600 -0.45300 32.79800
O  31.09200 -0.68100 33.29500
C  28.74100 -0.04300 33.61400
C  28.49400 -1.10000 34.63400
O  27.87100 -2.16800 34.43600
O  29.12900 -0.73800 35.81500
C  28.89000 -1.69500 36.85900
H  22.05500 1.16000 32.13600
H  23.52100 0.26400 25.87200
H  29.63300 -0.68000 27.43200
H  25.75600 -0.09200 34.75700
H  23.61700 1.85100 34.00400
H  23.05500 -1.09600 33.73700
H  22.26900 0.10100 34.90700
H  23.73400 -0.76900 35.26600
H  25.39000 2.76900 34.95900
H  27.00600 2.57300 34.26800
H  27.98700 1.89900 35.94800
H  26.61600 0.84800 36.59900
H  19.88000 0.62100 30.58800
H  19.53800 2.16500 29.64400
H  20.61000 2.23900 30.97400
H  19.06000 0.47600 27.73500
H  18.98100 0.92100 26.02500
H  19.20100 2.17200 27.34400
H  25.99300 0.70000 24.81500
H  27.79100 -1.65800 25.27100
H  25.74100 -2.37700 24.13300
H  25.17500 -0.99100 23.34300
H  24.26900 -1.65700 24.73400
H  28.36700 0.47100 23.98200
H  29.49300 -0.11200 25.23300
H  29.33900 2.04200 26.23500
H  27.59500 1.95500 26.24300
H  28.44700 2.50200 24.83500
H  31.93600 -0.57400 29.59800
H  31.11800 -1.86400 28.65300
H  31.51200 -2.11800 30.41500
H  28.86600 0.87200 34.19400
H  28.12100 -1.34700 37.55000
H  29.88800 -1.70300 37.29600
H  28.63000 -2.71500 36.57300
Mg 47.23500 24.96700 29.00100
C  47.88100 27.24900 31.50900
C  46.56900 22.58300 31.55500
C  46.93200 22.43600 26.68400
C  48.11000 27.12800 26.62600
N  47.31900 24.89900 31.25300
C  47.43100 26.06900 31.99800
C  47.12300 25.79500 33.50000
C  46.88600 24.23500 33.53600
C  46.87000 23.85500 32.02700
C  48.00600 23.55800 34.28400
C  45.95400 26.59300 34.09300
C  46.25600 27.25500 35.52300
H  45.16100 27.19000 36.56700
N  46.63700 22.86100 29.12100
C  46.52600 22.08600 30.20800
C  46.20100 20.75400 29.88500
C  46.29500 20.63100 28.51000
C  46.67300 21.97200 28.02800
C  45.61000 19.71600 30.85800
C  46.04200 19.40500 27.59600
O  46.07400 19.47700 26.35400
C  45.83000 18.03500 28.28600
N  47.64500 24.74000 27.00300
C  47.23200 23.70400 26.23500
C  47.46800 23.94200 24.76600
C  47.50700 25.50400 24.76000
C  47.66500 25.86800 26.19100
C  48.83700 23.36900 24.29900
C  46.33300 26.18300 24.11900
C  45.35600 26.92000 25.05000
N  48.05000 26.77400 29.05400
C  48.30400 27.59800 27.97500
C  48.76700 28.82500 28.43700
C  48.52900 28.77800 29.85600
C  48.12300 27.51700 30.15500
C  49.16200 29.99200 27.60800
C  48.65900 29.56700 31.13700
O  49.11200 30.70200 31.38300
C  48.11200 28.61500 32.20500
C  49.00000 28.60000 33.35400
O  49.92600 27.84200 33.47900
O  48.62200 29.60000 34.22500
C  49.43300 29.71200 35.43200
H  46.22000 21.94100 32.36600
H  46.84800 21.66500 25.91400
H  48.14200 27.77300 25.74500
H  47.93600 26.05900 34.17700
H  45.96500 23.78100 33.90200
H  48.62700 22.95500 33.62200
H  47.52500 22.84400 34.95300
H  48.70200 24.19800 34.82700
H  45.20100 25.83300 34.30300
H  45.67300 27.42500 33.44700
H  46.25700 28.33000 35.34200
H  47.24500 27.05400 35.93400
H  44.63900 19.41400 30.46500
H  45.65200 19.90300 31.93100
H  46.28600 18.86400 30.78700
H  46.61800 17.75600 28.98500
H  45.84700 17.32200 27.46100
H  44.80600 18.10000 28.65500
H  46.64300 23.54500 24.17600
H  48.43300 25.89800 24.33900
H  49.31700 22.79800 25.09400
H  49.57200 24.13000 24.03500
H  48.68500 22.65700 23.48900
H  45.84300 25.44400 23.48600
H  46.79800 26.91200 23.45600
H  45.53700 27.98900 24.94400
H  45.22300 26.53300 26.06100
H  44.33300 26.90900 24.67700
H  48.39200 30.22600 26.87400
H  50.14900 29.81900 27.17900
H  49.33100 30.80600 28.31300
H  47.12200 29.03400 32.38800
H  49.23100 28.92900 36.16300
H  49.28100 30.62700 36.00500
H  50.51100 29.59800 35.31300

