158

Mg 47.69600 16.96600 28.76800
C  46.08700 16.33600 31.69100
C  50.08300 18.78300 30.27200
C  49.13100 17.33500 25.67000
C  44.98800 15.42800 27.06000
N  47.99200 17.57700 30.73000
C  47.28900 17.13500 31.83900
C  47.92700 17.64700 33.11000
C  48.99300 18.62200 32.58800
C  49.04800 18.38400 31.10600
C  48.78800 20.19300 33.01300
C  48.51800 16.39900 33.96100
C  48.59600 16.53300 35.49800
H  48.20900 17.92700 36.13400
N  49.37900 17.94900 28.05700
C  50.27500 18.50700 28.87900
C  51.43600 18.95800 28.12200
C  51.09600 18.69100 26.80100
C  49.78600 17.87300 26.78800
C  52.65900 19.70100 28.68600
C  51.91400 19.00700 25.51500
O  51.46200 18.67700 24.42300
C  53.21700 19.66900 25.57200
N  47.16900 16.26900 26.60800
C  47.93300 16.57000 25.52700
C  47.35800 16.05100 24.20800
C  45.94300 15.58400 24.70800
C  45.98700 15.75500 26.19600
C  47.15700 17.17200 23.07300
C  45.69000 14.11000 24.26800
C  44.76400 14.10000 23.03700
N  45.95500 16.00400 29.21500
C  45.00900 15.40900 28.42300
C  43.94100 14.88900 29.27200
C  44.35100 15.09000 30.59400
C  45.56900 15.90900 30.45600
C  42.69000 14.19400 28.86900
C  44.08100 14.97000 31.99900
O  43.14700 14.34100 32.50100
C  45.19100 15.79100 32.76600
C  44.40800 16.79000 33.47400
O  43.67700 17.67500 32.99100
O  44.61200 16.59400 34.87100
C  43.76500 17.53200 35.62200
H  50.87200 19.38000 30.73500
H  49.53300 17.41400 24.65800
H  44.11500 15.08300 26.50000
H  47.14500 18.12900 33.69600
H  49.95400 18.24900 32.94400
H  48.37700 20.76400 32.18100
H  49.76400 20.57500 33.31200
H  48.06000 20.19700 33.82500
H  49.54700 16.24700 33.63400
H  48.10200 15.43400 33.67100
H  49.56100 16.14700 35.82500
H  47.90000 15.83000 35.95700
H  52.89600 20.60600 28.12700
H  53.45900 18.96100 28.70600
H  52.43700 19.93400 29.72800
H  53.28000 20.69100 25.94300
H  53.76400 19.54900 24.63700
H  53.86200 19.01000 26.15500
H  47.89700 15.18800 23.81700
H  45.18000 16.24700 24.29900
H  47.72300 18.09100 23.22400
H  46.12300 17.36700 22.79100
H  47.69600 16.67300 22.26800
H  45.11000 13.56400 25.01200
H  46.59000 13.49600 24.24400
H  44.71200 15.05800 22.52000
H  43.73500 14.06600 23.39400
H  44.88700 13.12800 22.55800
H  42.62900 13.41800 29.63300
H  42.68700 13.80300 27.85200
H  41.82700 14.84500 29.00900
H  45.73100 15.13200 33.44600
H  43.93700 18.54300 35.25300
H  44.11200 17.61800 36.65100
H  42.74400 17.19500 35.79700
Mg 48.93500 35.15700 27.07800
C  47.07800 33.62300 29.76700
C  49.30300 37.85700 29.32000
C  50.40200 36.62200 24.73900
C  48.01900 32.52200 24.98700
N  48.24200 35.61800 29.21600
C  47.63100 34.84100 30.16300
C  47.66000 35.46900 31.53200
C  47.91700 36.96300 31.18000
C  48.49000 36.84600 29.76200
C  46.66900 37.87800 31.17000
C  48.85900 34.84600 32.34500
C  48.65300 34.62000 33.84800
H  47.59300 35.38400 34.69400
N  49.87100 36.91400 27.03700
C  49.97800 37.88400 28.02000
C  50.94100 38.84300 27.56400
C  51.24700 38.54400 26.17300
C  50.46300 37.30600 25.92200
C  51.33600 40.00100 28.39800
C  52.08800 39.34500 25.19100
O  52.27100 39.08200 23.99900
C  52.79200 40.60800 25.71700
N  48.97000 34.70100 24.95100
C  49.82600 35.43400 24.26500
C  50.18700 34.75500 22.94300
C  49.45700 33.37500 23.05200
C  48.74600 33.55200 24.36500
C  49.92900 35.74400 21.77500
C  50.35100 32.11400 23.12000
C  51.48000 32.06400 22.09100
N  47.79000 33.36300 27.26200
C  47.54400 32.41500 26.32900
C  46.76100 31.41000 26.87500
C  46.51700 31.80200 28.26200
C  47.14700 33.07500 28.39800
C  46.06800 30.23800 26.13800
C  45.80700 31.50600 29.50600
O  45.13200 30.56800 29.92300
C  46.05400 32.73300 30.49700
C  46.53600 32.26200 31.80600
O  47.67400 31.91700 32.18400
O  45.50600 32.30400 32.66900
C  45.71400 31.90600 34.01200
H  49.38200 38.78000 29.89900
H  51.16700 36.99900 24.05600
H  47.79400 31.64300 24.38000
H  46.67900 35.30500 31.97600
H  48.68000 37.38700 31.83300
H  46.07000 37.79300 30.26400
H  47.03900 38.90400 31.16900
H  46.08800 37.64300 32.06200
H  49.74700 35.46500 32.21100
H  49.12400 33.88200 31.91200
H  49.65200 34.84800 34.22000
H  48.53700 33.54800 34.01000
H  52.32200 40.40400 28.16900
H  51.41600 39.67300 29.43500
H  50.58500 40.78900 28.45900
H  52.99300 41.15300 24.79500
H  53.65500 40.43000 26.35800
H  52.16100 41.28100 26.29800
H  51.27500 34.69700 22.89100
H  48.72900 33.17800 22.26500
H  48.84300 35.75800 21.87000
H  50.15500 35.34100 20.78700
H  50.34500 36.72900 21.98600
H  49.66200 31.27200 23.05800
H  50.84600 32.11400 24.09100
H  51.39800 31.12200 21.54900
H  52.43400 31.99500 22.61300
H  51.44400 32.94200 21.44600
H  45.25700 30.64900 25.53700
H  45.84300 29.39900 26.79600
H  46.89500 29.87000 25.53200
H  45.09800 33.23800 30.63800
H  44.78600 31.36800 34.20500
H  45.65900 32.85800 34.54100
H  46.61600 31.39300 34.34400

