158

Mg 17.38500 -2.29500 28.11000
C  16.31200 -0.41400 30.80600
C  19.22900 -4.26700 30.23100
C  18.67200 -3.88800 25.41000
C  15.68800 -0.06100 25.99600
N  17.82800 -2.26000 30.27900
C  17.18600 -1.47800 31.18400
C  17.41200 -1.98700 32.61800
C  18.43500 -3.11100 32.40100
C  18.52600 -3.22000 30.85200
C  19.83700 -2.91800 33.09400
C  16.07900 -2.30000 33.34300
C  16.02300 -2.10200 34.89400
H  17.16100 -1.38600 35.61500
N  18.68100 -3.98100 27.83800
C  19.40200 -4.64500 28.83900
C  20.25900 -5.66500 28.29200
C  20.00000 -5.55100 26.90800
C  19.02700 -4.47000 26.66700
C  21.16000 -6.62500 29.06400
C  20.53300 -6.48000 25.83300
O  20.27900 -6.37600 24.63100
C  21.31800 -7.68900 26.22900
N  17.10800 -2.14600 26.04700
C  17.92800 -2.77800 25.07200
C  17.60900 -2.33500 23.67300
C  16.51000 -1.32400 23.92100
C  16.50200 -1.04800 25.43100
C  18.83500 -1.90000 22.92600
C  15.13000 -1.72900 23.16300
C  14.85900 -1.31500 21.71100
N  16.25800 -0.47400 28.29200
C  15.56500 0.19800 27.35000
C  14.66600 1.13900 27.99100
C  14.93900 0.97100 29.41600
C  15.92100 -0.08100 29.52300
C  13.87000 2.16500 27.35000
C  14.72100 1.47300 30.75100
O  13.98500 2.33800 31.16600
C  15.52500 0.52600 31.70500
C  16.46900 1.35100 32.57500
O  17.69300 1.47900 32.37000
O  15.76300 2.17400 33.42300
C  16.58400 3.00800 34.28800
H  19.90800 -4.81000 30.89100
H  19.06800 -4.24200 24.45600
H  15.17600 0.67700 25.37600
H  17.83100 -1.12600 33.13900
H  18.02100 -4.07400 32.69700
H  19.67700 -2.99200 34.17000
H  20.22600 -1.91300 32.93300
H  20.48600 -3.74900 32.81600
H  15.91900 -3.37700 33.29500
H  15.15200 -2.04000 32.83200
H  15.80900 -3.06500 35.35700
H  15.12400 -1.50300 35.04200
H  20.63800 -7.58200 29.09600
H  21.25500 -6.26200 30.08800
H  22.18100 -6.68600 28.68700
H  21.58400 -8.35100 25.40500
H  20.71200 -8.34300 26.85700
H  22.26200 -7.49100 26.73700
H  17.13800 -3.11500 23.07600
H  16.82700 -0.38500 23.46800
H  19.75000 -1.97100 23.51400
H  18.65000 -0.88800 22.56600
H  18.84000 -2.58300 22.07700
H  14.42300 -1.16700 23.77200
H  14.91700 -2.79600 23.23000
H  14.24300 -0.41600 21.69100
H  14.52900 -2.12000 21.05500
H  15.78300 -0.82500 21.40300
H  12.83100 1.83400 27.36600
H  14.13400 2.13500 26.29300
H  13.87100 3.15400 27.80700
H  14.84700 -0.01700 32.36400
H  17.64100 2.74000 34.29500
H  16.42500 2.77400 35.34000
H  16.50300 4.06900 34.05000
Mg -11.59000 16.05600 42.04000
C  -8.27500 16.52200 42.51800
C  -12.06800 19.44500 41.55900
C  -14.81600 15.46200 41.19800
C  -11.06000 12.54600 42.31300
N  -10.33300 17.76800 41.93200
C  -8.98800 17.72300 42.11700
C  -8.33900 19.11900 41.93000
C  -9.60600 20.06800 42.15600
C  -10.77200 19.03800 41.79400
C  -9.80700 20.52300 43.61000
C  -7.71300 19.32600 40.52900
C  -6.34300 19.91000 40.49700
H  -5.27200 19.32000 39.52800
N  -13.21600 17.28900 41.26100
C  -13.23200 18.66100 41.19300
C  -14.53900 19.11900 40.66800
C  -15.30400 17.92300 40.44100
C  -14.47100 16.79200 40.92800
C  -14.91700 20.55400 40.38000
C  -16.62800 17.89700 39.77600
O  -17.28600 18.88900 39.56700
C  -17.33500 16.67700 39.38600
N  -12.65200 14.18800 41.56900
C  -14.02200 14.32600 41.49900
C  -14.72500 13.06600 42.03100
C  -13.54700 11.99500 42.06800
C  -12.34500 12.92300 41.96200
C  -15.38500 13.34600 43.39200
C  -13.52700 11.04800 40.85500
C  -13.41600 9.61200 41.31100
N  -10.08100 14.74600 42.47000
C  -9.96600 13.36400 42.54500
C  -8.62700 13.07500 42.90900
C  -7.94200 14.24500 42.80400
C  -8.82900 15.25600 42.56100
C  -8.18400 11.63000 43.03400
C  -6.61100 14.80600 42.78100
O  -5.55700 14.23100 42.87200
C  -6.76400 16.29300 42.70100
C  -6.18500 16.91200 43.86000
O  -6.40500 16.56800 44.98900
O  -5.33000 17.91300 43.42400
C  -4.66400 18.60200 44.51000
H  -12.28200 20.51400 41.49900
H  -15.88600 15.24100 41.19700
H  -10.85200 11.47800 42.40000
H  -7.56500 19.25100 42.68600
H  -9.74400 20.92100 41.49200
H  -8.86600 20.41100 44.14800
H  -10.57000 19.86500 44.02700
H  -10.03200 21.57100 43.80400
H  -8.30000 20.01400 39.92000
H  -7.79600 18.40500 39.95300
H  -5.92600 19.88600 41.50400
H  -6.50400 20.93500 40.16100
H  -15.92200 20.75400 40.75100
H  -14.98900 20.79500 39.32000
H  -14.32500 21.32500 40.87400
H  -17.91900 16.77900 38.47100
H  -18.12300 16.51400 40.12200
H  -16.68300 15.80400 39.36500
H  -15.50000 12.74400 41.33500
H  -13.54200 11.44400 43.00800
H  -14.77400 12.79300 44.10600
H  -16.34800 12.83600 43.36600
H  -15.41100 14.38400 43.72200
H  -12.75400 11.30200 40.13100
H  -14.44500 11.27700 40.31300
H  -14.32300 9.09100 41.00500
H  -13.14300 9.40600 42.34600
H  -12.65100 9.10600 40.72300
H  -8.99900 10.99200 43.37700
H  -7.39300 11.61800 43.78500
H  -7.96700 11.13600 42.08700
H  -6.39200 16.71700 41.76800
H  -5.41800 18.97400 45.20400
H  -4.10000 19.43100 44.08200
H  -3.88000 17.99500 44.96300

