158

Mg 40.32900 9.77800 29.47600
C  42.52500 10.90200 31.93600
C  38.06600 8.81600 31.62400
C  38.57600 8.37400 26.81500
C  43.04000 10.28600 27.01500
N  40.36900 9.76800 31.53400
C  41.30100 10.38500 32.32500
C  40.71300 10.43400 33.71000
C  39.39500 9.57900 33.57600
C  39.27700 9.29200 32.15800
C  39.48000 8.18100 34.30600
C  40.44100 11.91300 34.10400
C  39.85100 12.12700 35.55900
H  40.73000 12.83900 36.50400
N  38.58100 8.84800 29.26500
C  37.77200 8.60000 30.29700
C  36.55200 7.98700 29.84400
C  36.59400 7.95900 28.42400
C  37.93600 8.49000 28.09000
C  35.35300 7.50300 30.70600
C  35.52300 7.52400 27.38300
O  35.83900 7.44900 26.26500
C  34.14600 7.21400 27.86900
N  40.74000 9.40500 27.24200
C  39.87400 8.74900 26.41400
C  40.40600 8.55000 25.04000
C  41.75200 9.39900 25.12400
C  41.86900 9.76200 26.55000
C  40.58200 7.06200 24.63800
C  41.88400 10.69400 24.21400
C  40.88300 11.85300 24.54600
N  42.39700 10.37000 29.42200
C  43.34800 10.58300 28.40200
C  44.55000 11.16000 28.97500
C  44.19900 11.35500 30.35600
C  42.90800 10.73800 30.56400
C  45.87200 11.30300 28.30400
C  44.71600 11.84400 31.61500
O  45.75500 12.37900 31.83700
C  43.65600 11.58600 32.71800
C  44.14900 10.88300 33.92400
O  44.78300 9.89900 33.93800
O  43.74800 11.56200 35.04600
C  44.15000 11.04400 36.35400
H  37.21700 8.64200 32.28800
H  37.97800 8.12900 25.93500
H  43.83400 10.17900 26.27300
H  41.37900 10.11400 34.51100
H  38.46600 10.06900 33.86500
H  39.00900 8.13900 35.28900
H  40.54000 7.93900 34.38400
H  39.22700 7.31400 33.69700
H  39.86400 12.38300 33.30700
H  41.41900 12.38100 33.99100
H  39.78400 11.10900 35.94300
H  38.84400 12.54400 35.54600
H  35.44100 6.41900 30.62300
H  34.37100 7.83700 30.37000
H  35.60000 7.79200 31.72800
H  33.95500 6.43100 28.60300
H  33.49300 7.08500 27.00600
H  33.87900 8.14200 28.37400
H  39.74600 9.04100 24.32400
H  42.62000 8.81700 24.81400
H  41.52900 6.64900 24.98500
H  40.55100 6.99500 23.55100
H  39.70500 6.50500 24.96700
H  41.78300 10.38500 23.17400
H  42.91000 11.04600 24.32300
H  40.18200 11.38800 25.24000
H  40.49200 12.37600 23.67400
H  41.26100 12.62600 25.21500
H  45.97200 12.33800 27.97600
H  45.97700 10.59100 27.48500
H  46.71300 11.03100 28.94100
H  43.23900 12.53100 33.06300
H  43.84100 11.74300 37.13200
H  45.21600 10.83300 36.42800
H  43.54000 10.16600 36.56700
Mg 17.39600 52.67100 26.33100
C  19.40400 50.98000 28.59200
C  15.10300 53.19900 29.05300
C  15.03000 54.10300 24.26600
C  19.25900 51.43100 23.66500
N  17.36100 52.18000 28.55000
C  18.42400 51.63100 29.23700
C  18.14400 51.58600 30.76600
C  16.54800 51.86900 30.79600
C  16.31400 52.56800 29.40400
C  15.62000 50.69200 31.03500
C  18.96400 52.66700 31.54000
C  19.13600 52.41500 33.02100
H  17.99500 51.69400 33.66500
N  15.32200 53.58300 26.55800
C  14.67500 53.75800 27.73800
C  13.33100 54.24500 27.39500
C  13.32400 54.66300 26.07800
C  14.57500 54.08800 25.56300
C  12.26400 54.24500 28.41000
C  12.23400 55.36900 25.23400
O  12.30100 55.63200 24.06400
C  10.97100 55.73300 25.99400
N  17.16100 52.81600 24.29400
C  16.21800 53.55300 23.65800
C  16.37500 53.40300 22.10000
C  17.73700 52.72300 21.98100
C  18.04200 52.19100 23.41500
C  15.21800 52.66800 21.34100
C  18.85400 53.67600 21.24600
C  19.27900 54.85100 22.09200
N  19.09400 51.58400 26.11000
C  19.76900 51.13000 24.95200
C  20.96000 50.38600 25.38400
C  20.86700 50.34900 26.80600
C  19.67800 50.97700 27.20000
C  22.04400 49.85800 24.47300
C  21.53900 49.93500 28.03200
O  22.57100 49.29000 28.04400
C  20.69300 50.35700 29.22100
C  20.35400 49.29600 30.15500
O  19.72300 48.27100 29.91200
O  20.94000 49.56900 31.37200
C  20.66100 48.54000 32.41500
H  14.47400 53.46000 29.90700
H  14.35200 54.63200 23.59400
H  19.74600 50.94800 22.81500
H  18.21700 50.55900 31.12500
H  16.30500 52.62800 31.53900
H  14.88500 50.61300 30.23400
H  15.02700 50.76000 31.94800
H  16.12700 49.74100 30.87700
H  18.56700 53.67400 31.41100
H  19.95100 52.64600 31.07900
H  19.25800 53.35800 33.55400
H  20.01400 51.77400 33.10100
H  11.96100 55.21100 28.81200
H  12.47200 53.64500 29.29600
H  11.42300 53.71200 27.96500
H  11.19900 56.37600 26.84400
H  10.43400 54.81800 26.24600
H  10.40300 56.26800 25.23400
H  16.41900 54.43000 21.73600
H  17.73100 51.83000 21.35500
H  15.52000 51.88100 20.65000
H  14.47200 53.27500 20.82900
H  14.64400 52.22500 22.15500
H  18.50700 53.91600 20.24100
H  19.65900 52.95500 21.09900
H  18.93400 55.71500 21.52300
H  20.35500 54.77400 22.24700
H  18.72300 54.80600 23.02800
H  22.03900 48.79800 24.72500
H  22.98300 50.38300 24.64700
H  21.67700 49.88200 23.44700
H  21.22700 51.11600 29.79300
H  20.85000 47.51500 32.09900
H  19.57800 48.62900 32.50400
H  21.09800 48.65700 33.40700

