158

Mg 54.88000 24.38000 44.10900
C  52.21300 26.69100 43.78700
C  52.60400 21.85000 43.28000
C  57.48800 22.40300 43.69200
C  57.07000 27.13800 44.63300
N  52.64100 24.34200 43.37100
C  51.72800 25.39200 43.43700
C  50.35600 24.89200 42.83400
C  50.46100 23.39100 43.17000
C  52.00600 23.11500 43.29800
C  49.73900 23.07800 44.49400
C  50.31700 25.14700 41.35700
C  48.92200 24.94700 40.71600
H  48.93300 24.66600 39.15600
N  55.09500 22.41400 43.58400
C  54.04700 21.55000 43.30600
C  54.59000 20.24700 43.07800
C  55.98600 20.38200 43.18500
C  56.25100 21.76500 43.43400
C  53.71200 19.07300 42.80000
C  56.91500 19.18700 42.91500
O  56.52500 18.05100 42.59200
C  58.41400 19.33800 42.98600
N  57.01600 24.78000 44.02900
C  57.83700 23.72400 43.96000
C  59.38100 24.15000 44.00200
C  59.18400 25.63100 44.40100
C  57.69300 25.92200 44.29200
C  60.15400 23.36300 45.08200
C  60.13000 26.55600 43.64500
C  60.97300 27.58400 44.47400
N  54.62700 26.47800 44.35800
C  55.64700 27.42400 44.66200
C  54.98200 28.71600 44.82000
C  53.61300 28.49000 44.52500
C  53.50000 27.11900 44.24200
C  55.66800 29.92600 45.15100
C  52.31300 29.10400 44.35800
O  51.96800 30.28300 44.54300
C  51.42000 27.99200 43.85000
C  50.79100 28.57900 42.56600
O  51.43800 28.80600 41.53500
O  49.44300 28.45500 42.59200
C  48.69800 28.97200 41.50600
H  51.82500 21.09000 43.19200
H  58.29100 21.67000 43.59000
H  57.79100 27.85600 45.02900
H  49.55800 25.30600 43.45100
H  50.09500 22.79800 42.33200
H  48.97400 22.32600 44.30300
H  49.18700 23.98600 44.73800
H  50.40800 22.90900 45.33800
H  51.04600 24.49700 40.87200
H  50.61200 26.18800 41.22600
H  48.31500 25.84300 40.84400
H  48.43800 24.10200 41.20600
H  54.15600 18.53400 41.96300
H  52.78100 19.42800 42.35700
H  53.53400 18.29100 43.53800
H  58.72500 19.99300 42.17200
H  58.97500 18.42300 42.79700
H  58.66300 19.63300 44.00500
H  59.84000 24.01400 43.02300
H  59.32500 25.77100 45.47200
H  59.59100 22.52700 45.49600
H  60.31800 23.89900 46.01600
H  61.08800 23.16700 44.55500
H  59.50500 27.20900 43.03500
H  60.76300 26.01100 42.94500
H  60.74200 28.58800 44.12000
H  62.01800 27.47300 44.18300
H  60.77500 27.62800 45.54500
H  55.06600 30.82900 45.04300
H  56.59000 29.89800 44.57000
H  55.91400 29.89300 46.21200
H  50.58700 27.68600 44.48200
H  47.94200 29.71700 41.75400
H  48.03600 28.14300 41.25700
H  49.27100 29.12400 40.59100
Mg 6.08700 54.40100 40.70500
C  4.77500 51.25900 40.74400
C  8.97000 53.27300 39.32100
C  7.08600 57.65800 40.36200
C  2.96800 55.66500 42.00800
N  6.65000 52.48400 40.02300
C  6.04700 51.30800 40.16400
C  6.82100 50.21900 39.57200
C  8.28500 50.80000 39.57500
C  7.95200 52.30600 39.61900
C  9.15000 50.30500 40.78500
C  6.28100 49.84100 38.11600
C  6.50400 48.40900 37.61600
H  5.77200 48.13800 36.34300
N  7.75300 55.32400 39.89200
C  8.90300 54.65900 39.48300
C  9.87100 55.67700 39.19200
C  9.34700 57.00200 39.49900
C  7.96100 56.69000 39.96700
C  11.29200 55.21200 38.60100
C  10.09200 58.29700 39.42900
O  11.31000 58.31100 39.28500
C  9.49500 59.67900 39.39700
N  4.98300 56.47800 40.92600
C  5.80700 57.61400 40.86500
C  5.02800 58.80800 41.52800
C  3.75200 58.06800 42.08900
C  3.89000 56.64600 41.65200
C  5.83200 59.61900 42.57500
C  2.39700 58.73900 41.68600
C  1.86300 59.85100 42.60100
N  4.29900 53.67900 41.32300
C  3.15800 54.28200 41.84600
C  2.20900 53.20000 42.21600
C  2.88300 52.01300 41.86500
C  4.09000 52.37300 41.28200
C  0.75200 53.35600 42.67400
C  2.76800 50.65300 41.92500
O  1.87400 49.92700 42.38200
C  4.03800 49.96700 41.27100
C  3.60800 48.91600 40.30900
O  2.77100 48.93500 39.49200
O  4.29600 47.80800 40.67900
C  3.77900 46.48900 40.27900
H  9.86000 52.77500 38.93200
H  7.38100 58.70200 40.48600
H  2.03800 55.90600 42.52700
H  6.69100 49.28600 40.11900
H  8.93600 50.59600 38.72500
H  10.16200 50.18600 40.39900
H  8.74300 49.40600 41.24900
H  9.27400 51.01200 41.60500
H  6.88500 50.36300 37.37300
H  5.29100 50.25700 37.92700
H  6.21400 47.62700 38.31800
H  7.53300 48.24600 37.29600
H  11.62700 54.57000 39.41500
H  12.00700 56.02200 38.45400
H  11.20300 54.53600 37.75100
H  8.46400 59.67000 39.04300
H  10.10100 60.29900 38.73500
H  9.49600 60.03400 40.42800
H  4.76200 59.39700 40.65100
H  3.86100 57.98000 43.17000
H  6.72200 59.03600 42.81200
H  5.30800 59.98700 43.45700
H  5.99400 60.50500 41.96100
H  1.62600 57.96900 41.72900
H  2.53000 59.01100 40.63900
H  2.66300 60.10400 43.29800
H  0.91300 59.55400 43.04600
H  1.58700 60.71500 41.99700
H  0.72900 54.28600 43.24300
H  0.48400 52.46000 43.23400
H  0.18000 53.45100 41.75100
H  4.52600 49.53500 42.14500
H  4.55600 45.73400 40.15700
H  3.22600 46.42400 39.34200
H  3.08800 46.26600 41.09300

