158

Mg 25.51400 1.66800 29.73000
C  27.53600 1.74100 32.53000
C  22.74800 2.04700 31.80000
C  23.54500 1.83900 26.97100
C  28.25000 1.00300 27.72600
N  25.24100 1.82700 32.01700
C  26.20600 1.89700 32.94400
C  25.64700 2.02500 34.33100
C  24.05700 1.98600 34.10300
C  23.96600 1.91500 32.56300
C  23.42500 0.73500 34.82700
C  26.17500 3.38000 35.02200
C  26.89900 3.19000 36.40500
H  26.29800 4.10400 37.59800
N  23.46200 1.95800 29.39700
C  22.47500 2.08100 30.42300
C  21.17500 2.13100 29.76500
C  21.39600 2.00200 28.36800
C  22.87000 1.88300 28.17900
C  19.88700 2.30600 30.46500
C  20.33200 1.78900 27.32100
O  20.58800 1.54700 26.18300
C  18.89500 1.82000 27.65300
N  25.78300 1.39700 27.62800
C  24.87400 1.65700 26.65000
C  25.47300 1.69300 25.26500
C  26.98100 1.67100 25.55400
C  27.08700 1.27700 27.05200
C  24.94300 0.62100 24.28400
C  27.75100 2.92200 25.25100
C  27.46300 4.17100 26.09300
N  27.51500 1.37800 30.02500
C  28.47900 1.03400 29.11300
C  29.72400 0.85700 29.76900
C  29.45700 1.13300 31.14500
C  28.00900 1.41300 31.25400
C  31.14200 0.49400 29.14300
C  30.01900 1.27000 32.54600
O  31.18300 1.18400 32.91300
C  28.75800 1.57200 33.42500
C  28.70200 0.36400 34.27600
O  28.04100 -0.60300 34.11800
O  29.36400 0.70300 35.37400
C  29.46900 -0.31900 36.42700
H  21.85500 2.28800 32.38200
H  22.90600 1.94600 26.09200
H  29.05000 0.75400 27.02500
H  26.06700 1.17600 34.87000
H  23.55300 2.84600 34.54300
H  24.00600 -0.16800 35.01700
H  22.72900 0.38300 34.06500
H  22.66600 0.97200 35.57300
H  25.28300 3.97400 35.21900
H  26.82100 4.03000 34.43200
H  27.98100 3.28300 36.30900
H  26.59400 2.20700 36.76300
H  19.37900 3.23500 30.20400
H  20.12200 2.29500 31.53000
H  19.14100 1.51800 30.36300
H  18.61200 2.81800 27.98700
H  18.44600 0.98900 28.19700
H  18.37300 1.62400 26.71700
H  25.24100 2.68600 24.87900
H  27.45600 0.88900 24.96300
H  25.71200 -0.11100 24.03900
H  24.75700 1.13600 23.34200
H  23.97900 0.17000 24.51900
H  27.56700 3.10200 24.19200
H  28.79000 2.59100 25.25800
H  27.95800 3.98600 27.04600
H  26.37700 4.26300 26.09800
H  27.79600 5.07700 25.58500
H  31.93400 0.55600 29.89000
H  31.49600 1.11000 28.31700
H  31.07000 -0.54900 28.83300
H  28.83400 2.48600 34.01300
H  28.57400 -0.06100 36.99200
H  30.38700 -0.24300 37.00900
H  29.42000 -1.34800 36.07100
Mg 53.50600 23.99700 45.24700
C  50.87700 26.36900 44.73000
C  51.32700 21.56800 44.61900
C  56.18300 22.20500 44.54100
C  55.64000 26.96400 45.39700
N  51.39300 23.99800 44.69200
C  50.52800 25.04800 44.45200
C  49.16100 24.56000 43.96900
C  49.18300 23.16700 44.65700
C  50.72100 22.82400 44.59800
C  48.64000 23.03400 46.15200
C  49.04800 24.52300 42.37900
C  47.67800 24.09300 41.79000
H  47.51600 24.06600 40.24800
N  53.78200 22.09700 44.70000
C  52.72200 21.21500 44.63500
C  53.25800 19.90900 44.40000
C  54.73400 19.99000 44.39000
C  54.99100 21.43700 44.53900
C  52.43300 18.64800 44.25000
C  55.68300 18.86800 44.36400
O  55.28100 17.74400 44.31900
C  57.13900 19.04000 44.30400
N  55.56600 24.54600 44.91200
C  56.47300 23.53300 44.71300
C  57.89200 24.12000 44.88700
C  57.68500 25.65800 44.72600
C  56.17800 25.76300 45.05000
C  58.58000 23.72900 46.21800
C  58.00800 26.33200 43.32300
C  56.78500 26.64600 42.40200
N  53.28200 26.21700 45.40600
C  54.23400 27.18000 45.58000
C  53.52600 28.47100 45.58800
C  52.22000 28.20700 45.25000
C  52.12500 26.80500 45.12600
C  54.24800 29.76600 45.70600
C  50.95600 28.77500 44.85800
O  50.57800 29.93300 44.82300
C  50.04800 27.61400 44.57100
C  49.39800 27.79000 43.18800
O  50.01900 27.76500 42.13200
O  48.03200 27.94500 43.36200
C  47.36300 28.04500 42.08400
H  50.68300 20.69100 44.70600
H  57.07900 21.60600 44.36600
H  56.25200 27.86300 45.48900
H  48.39000 25.22400 44.36100
H  48.73700 22.37200 44.05700
H  49.26000 22.45400 46.83600
H  47.59400 22.72900 46.12900
H  48.62500 24.00600 46.64600
H  49.72900 23.74200 42.04100
H  49.45900 25.41800 41.91000
H  46.87800 24.74000 42.14800
H  47.40600 23.10300 42.15900
H  51.41500 18.76000 44.62300
H  52.86600 17.80100 44.78300
H  52.35400 18.42900 43.18500
H  57.67600 18.19400 44.73400
H  57.25300 19.81800 45.05800
H  57.54600 19.24300 43.31300
H  58.56100 23.85600 44.06900
H  58.34800 26.08900 45.47600
H  59.03700 24.59200 46.70300
H  59.44300 23.09100 46.02900
H  57.86800 23.23900 46.88100
H  58.72800 25.72000 42.78100
H  58.65400 27.20000 43.45000
H  55.82000 26.14800 42.49300
H  56.95500 26.71600 41.32800
H  56.54400 27.67600 42.66500
H  54.51400 30.14400 44.71900
H  55.16200 29.71500 46.29700
H  53.51600 30.40800 46.19600
H  49.33000 27.56100 45.38900
H  46.39500 28.41000 42.42800
H  47.17800 27.11900 41.54000
H  47.73800 28.73200 41.32600

