158

Mg 41.59000 8.93100 29.66000
C  43.49100 10.09800 32.18200
C  39.46200 7.30500 31.94800
C  39.85700 7.82900 27.04800
C  44.11600 10.15500 27.36000
N  41.38800 8.75300 31.73900
C  42.32200 9.33900 32.58800
C  41.95000 9.12900 34.07900
C  40.82400 8.05800 33.99800
C  40.50900 8.04300 32.48300
C  41.32100 6.64500 34.37700
C  41.45800 10.51800 34.62400
C  40.82400 10.52100 36.12600
H  41.56000 11.31000 37.22900
N  39.90300 7.80200 29.54600
C  39.21600 7.15100 30.57300
C  38.03600 6.44100 30.01000
C  38.01700 6.78300 28.59300
C  39.34100 7.44400 28.33000
C  36.99200 5.66900 30.80500
C  37.04200 6.48700 27.60900
O  37.23100 6.76200 26.41200
C  35.70300 5.90200 27.90900
N  42.13100 8.75100 27.54700
C  41.11000 8.43700 26.73100
C  41.42300 8.62400 25.18200
C  42.81400 9.28000 25.29800
C  43.08400 9.41700 26.85300
C  41.42900 7.33000 24.33000
C  43.12500 10.53900 24.45900
C  42.66200 11.91900 24.84100
N  43.42100 9.96500 29.70500
C  44.27500 10.47100 28.74200
C  45.32400 11.26200 29.35700
C  45.02200 11.22900 30.73700
C  43.95200 10.33500 30.86900
C  46.45400 11.96600 28.62700
C  45.40700 11.69300 32.04600
O  46.26000 12.53100 32.30700
C  44.48100 10.97000 33.04200
C  45.14100 10.10100 34.07600
O  45.88000 9.15200 33.83900
O  44.83300 10.48100 35.39800
C  45.23100 9.58100 36.50000
H  38.84200 6.71200 32.62300
H  39.30300 7.67200 26.12000
H  44.89700 10.53200 26.69700
H  42.82500 8.74400 34.60200
H  39.99400 8.25700 34.67600
H  41.00600 5.89000 33.65700
H  40.71400 6.41600 35.25200
H  42.40000 6.56700 34.50800
H  40.75100 11.01500 33.95900
H  42.34400 11.14000 34.74600
H  40.82300 9.50700 36.52600
H  39.78600 10.85100 36.09100
H  37.18000 5.57400 31.87400
H  36.82900 4.65900 30.42900
H  35.99800 6.11600 30.82300
H  35.11300 6.60300 28.50000
H  35.73900 4.99700 28.51400
H  35.34100 5.65500 26.91100
H  40.75900 9.33900 24.69700
H  43.57800 8.53300 25.08000
H  40.64400 7.31600 23.57400
H  41.14400 6.52600 25.00800
H  42.42800 7.14900 23.93300
H  42.63300 10.36100 23.50200
H  44.21200 10.45500 24.45800
H  43.54000 12.56600 24.83900
H  42.21100 11.91600 25.83300
H  42.00800 12.50000 24.19000
H  47.33300 11.40400 28.31100
H  46.83900 12.78700 29.23200
H  46.17100 12.36800 27.65400
H  43.94000 11.76500 33.55400
H  46.31900 9.64600 36.52100
H  44.96600 8.54800 36.27600
H  44.70600 9.83100 37.42200
Mg -5.14500 26.30600 26.37600
C  -3.54800 27.45700 29.22900
C  -6.77200 24.04000 28.38700
C  -6.28000 24.81900 23.57900
C  -3.28700 28.40400 24.51100
N  -5.13900 25.86900 28.56900
C  -4.48700 26.50800 29.52800
C  -4.98800 26.07500 30.95100
C  -5.76000 24.78700 30.62700
C  -5.92000 24.87700 29.10800
C  -4.98400 23.52100 31.08200
C  -5.92400 27.19300 31.52100
C  -5.81600 27.26700 33.08400
H  -5.33700 26.18600 34.07000
N  -6.47400 24.77200 26.05900
C  -7.07700 23.94900 27.00400
C  -7.99400 23.03700 26.31300
C  -7.75000 23.16100 24.91800
C  -6.80300 24.34100 24.79800
C  -8.95100 22.14100 27.10800
C  -8.33100 22.44000 23.68300
O  -8.13600 22.73600 22.52300
C  -9.21700 21.28100 23.85000
N  -4.92700 26.65500 24.35700
C  -5.38700 25.89700 23.37400
C  -4.82300 26.30000 21.98200
C  -4.02100 27.59800 22.27100
C  -4.09900 27.55500 23.84700
C  -4.00400 25.27300 21.22600
C  -4.72000 28.91600 21.61400
C  -4.27900 29.06900 20.11200
N  -3.76200 27.73800 26.76000
C  -3.11400 28.49800 25.87900
C  -2.17000 29.27300 26.59300
C  -2.35400 28.93700 27.91800
C  -3.27700 27.97400 27.94800
C  -1.22900 30.24400 25.97900
C  -2.00000 29.29900 29.29700
O  -1.26000 30.18400 29.67500
C  -2.71500 28.31500 30.17200
C  -1.72900 27.53900 30.89900
O  -1.48800 26.39500 30.61000
O  -1.26000 28.17700 32.03400
C  -0.57500 27.29800 33.05900
H  -7.26600 23.35800 29.08200
H  -6.60800 24.43900 22.60900
H  -2.66100 28.98600 23.83100
H  -4.10100 25.94900 31.57200
H  -6.76200 24.80400 31.05500
H  -4.16200 23.76800 31.75300
H  -4.53600 22.99900 30.23600
H  -5.63800 22.87100 31.66300
H  -6.98900 27.04900 31.33600
H  -5.60100 28.15700 31.12800
H  -6.79500 27.64200 33.38400
H  -5.15700 28.13400 33.13500
H  -9.89600 22.00300 26.58200
H  -9.09600 22.41800 28.15200
H  -8.47200 21.16300 27.15000
H  -9.40700 20.67600 22.96300
H  -10.17600 21.65300 24.21000
H  -8.84600 20.68900 24.68700
H  -5.68800 26.62300 21.40300
H  -3.03100 27.45300 21.84000
H  -4.00500 25.56000 20.17400
H  -4.42800 24.27800 21.35700
H  -2.96800 25.25600 21.56200
H  -4.45700 29.85100 22.10900
H  -5.77500 28.64600 21.67400
H  -5.16300 28.96800 19.48200
H  -3.62000 28.23600 19.86700
H  -3.76900 30.03000 20.06300
H  -0.89900 30.95400 26.73800
H  -1.70000 30.71800 25.11800
H  -0.34800 29.68600 25.66000
H  -3.34700 28.83000 30.89600
H  -1.30700 27.18200 33.85800
H  0.28900 27.91300 33.30800
H  -0.25100 26.30700 32.73900

