158

Mg 24.46000 -7.51100 46.11400
C  26.90200 -5.12700 45.05900
C  22.11400 -5.99100 44.13600
C  22.41400 -10.02300 46.78000
C  27.13300 -9.26100 47.63100
N  24.54200 -5.79400 44.81600
C  25.61100 -4.91800 44.60100
C  25.22900 -3.79000 43.59100
C  23.62900 -3.99600 43.41200
C  23.42800 -5.35500 44.27200
C  22.76100 -2.82600 43.91400
C  25.92800 -3.86300 42.30900
C  26.48100 -2.53000 41.76500
H  25.52000 -1.89500 40.73900
N  22.38000 -7.86300 45.68600
C  21.63500 -7.17000 44.82000
C  20.33900 -7.77500 44.78700
C  20.34200 -8.95300 45.59200
C  21.72600 -8.98700 46.11100
C  19.14800 -7.06300 44.16300
C  19.16600 -9.87900 45.83500
O  18.20000 -9.71200 45.07400
C  19.22300 -10.98900 46.77800
N  24.81100 -9.31600 46.97800
C  23.75400 -10.15700 47.12700
C  24.14100 -11.47100 47.89200
C  25.64200 -11.24700 48.23900
C  25.87700 -9.90000 47.52600
C  23.26000 -11.94000 49.13700
C  26.74000 -12.31000 48.08600
C  27.49300 -12.85700 49.31600
N  26.56500 -7.34000 46.28100
C  27.53700 -8.10900 46.97100
C  28.85400 -7.48900 46.88000
C  28.67600 -6.32800 46.11400
C  27.26900 -6.28900 45.77300
C  30.01500 -7.93000 47.67700
C  29.32000 -5.04900 45.63900
O  30.43100 -4.64300 45.87500
C  28.21900 -4.34100 44.79800
C  28.23100 -2.96600 45.05300
O  28.91500 -2.19800 44.35400
O  27.49000 -2.57500 46.13800
C  27.50700 -1.19300 46.45100
H  21.35700 -5.51400 43.51000
H  21.72100 -10.80100 47.10500
H  28.05000 -9.68300 48.04800
H  25.43600 -2.80200 44.00200
H  23.30800 -4.14000 42.38000
H  23.32100 -2.04600 44.42900
H  21.93300 -3.11800 44.56100
H  22.19800 -2.19600 43.22500
H  25.17300 -4.21100 41.60500
H  26.76900 -4.55700 42.31300
H  27.48000 -2.79100 41.41600
H  26.71100 -1.80500 42.54500
H  19.30600 -6.00500 43.95800
H  18.21900 -7.30100 44.68200
H  19.00600 -7.44800 43.15400
H  19.49500 -10.51900 47.72300
H  20.03000 -11.63100 46.42600
H  18.31200 -11.58100 46.86300
H  23.90200 -12.25100 47.16900
H  25.69100 -11.00200 49.30000
H  22.92300 -12.94800 48.89700
H  22.48100 -11.20700 49.34700
H  23.90900 -11.99100 50.01000
H  27.39500 -11.98500 47.27800
H  26.27600 -13.15500 47.57700
H  27.03900 -13.84800 49.33700
H  27.14000 -12.21700 50.12400
H  28.57100 -12.84200 49.15400
H  29.75400 -8.47200 48.58700
H  30.75200 -7.14800 47.85900
H  30.58300 -8.68300 47.13100
H  28.44500 -4.58500 43.76000
H  27.07000 -1.18700 47.44900
H  27.04900 -0.59400 45.66400
H  28.50400 -0.78800 46.62700
Mg 46.43800 44.75800 43.49900
C  42.89700 44.64500 43.24800
C  46.43600 41.31800 42.97200
C  49.72700 45.03400 43.09300
C  46.17200 48.20300 43.56000
N  44.89500 43.27500 43.17100
C  43.49600 43.42000 43.00800
C  42.78300 42.05300 42.65800
C  43.90400 41.07200 43.01500
C  45.16500 41.94400 43.03000
C  43.69500 40.32100 44.38100
C  42.27700 41.93500 41.18700
C  43.21400 42.40700 40.13100
H  42.95700 42.01400 38.58700
N  47.92000 43.40400 43.05900
C  47.74300 42.01600 42.85400
C  48.96400 41.42000 42.54500
C  49.99900 42.42700 42.63700
C  49.23700 43.72100 42.95600
C  49.14800 39.89500 42.30500
C  51.51300 42.20000 42.55200
O  51.92500 41.04900 42.29800
C  52.44200 43.33500 42.77000
N  47.75700 46.39500 43.29200
C  49.09400 46.25000 43.25200
C  49.78600 47.60700 43.17500
C  48.66900 48.67800 43.23700
C  47.46700 47.74000 43.40000
C  51.02900 47.77100 44.20200
C  48.57800 49.50400 41.93900
C  48.13100 50.93300 42.08800
N  44.91000 46.17100 43.51900
C  44.96300 47.50000 43.63500
C  43.59700 48.05100 43.86300
C  42.79500 46.97300 43.67200
C  43.60700 45.82500 43.44200
C  43.18700 49.46800 43.95700
C  41.39900 46.55800 43.60500
O  40.38500 47.22600 43.63400
C  41.43600 44.99300 43.27400
C  40.67100 44.27500 44.32200
O  39.82300 43.43700 44.12400
O  41.09600 44.62300 45.58700
C  40.62500 43.85700 46.73500
H  46.40600 40.23100 43.07300
H  50.79900 45.13100 42.90300
H  46.05200 49.27100 43.75200
H  41.90200 41.90400 43.28100
H  44.01800 40.39600 42.16700
H  43.52100 39.26800 44.15900
H  42.81500 40.73600 44.87400
H  44.54100 40.40700 45.06200
H  41.45600 42.65200 41.17100
H  42.02500 40.87700 41.11200
H  44.24300 42.18500 40.41400
H  42.90000 43.45000 40.10900
H  48.93800 39.74100 41.24600
H  48.43000 39.26000 42.82400
H  50.16700 39.55200 42.48400
H  52.26600 43.84900 43.71600
H  52.30100 44.00900 41.92500
H  53.45500 42.93700 42.73000
H  50.27000 47.53400 42.20100
H  48.69500 49.24000 44.17000
H  50.76400 47.36500 45.17800
H  51.31500 48.80500 44.39700
H  51.95100 47.38300 43.77100
H  47.89800 48.87900 41.36000
H  49.52200 49.53700 41.39600
H  48.89100 51.62700 42.44600
H  47.18200 50.98600 42.62300
H  47.58400 51.14400 41.16800
H  42.92400 49.64000 45.00000
H  42.22600 49.54900 43.44900
H  43.98100 50.13800 43.62800
H  40.89200 44.88400 42.33600
H  40.74500 44.43800 47.65000
H  41.22600 42.95100 46.80800
H  39.59100 43.52700 46.63500

