158

Mg 7.12400 53.31500 40.40700
C  6.46900 49.80100 40.15600
C  10.48200 52.65100 39.93000
C  7.57500 56.60200 40.21200
C  3.62800 53.73200 40.65900
N  8.36700 51.40500 40.13500
C  7.84400 50.11800 40.05200
C  8.94800 49.20100 39.65200
C  10.21300 49.98300 40.12500
C  9.68700 51.48900 40.02300
C  10.62900 49.65700 41.58200
C  8.96700 48.82300 38.11700
C  8.38500 49.80800 37.08500
H  7.55700 49.22200 35.91500
N  8.79500 54.46900 40.05900
C  10.09800 54.00000 39.86900
C  10.96100 55.15900 39.48400
C  10.19600 56.33400 39.65200
C  8.78800 55.81100 40.05300
C  12.37100 55.11300 39.10300
C  10.70800 57.76700 39.50800
O  11.90400 58.04500 39.28100
C  9.75500 58.96500 39.68300
N  5.78800 54.91500 40.45000
C  6.23600 56.20900 40.48100
C  5.05800 57.21200 40.62800
C  3.81500 56.24600 40.53600
C  4.45500 54.87600 40.56000
C  5.13300 58.13000 41.86000
C  3.00500 56.44300 39.19800
C  1.51400 56.23800 39.33600
N  5.36000 52.11400 40.49500
C  4.06500 52.37900 40.68900
C  3.27800 51.15200 40.82200
C  4.25900 50.08700 40.62100
C  5.43300 50.71000 40.47700
C  1.78000 51.04700 41.07900
C  4.41400 48.68500 40.56200
O  3.54400 47.85800 40.75000
C  5.85700 48.38200 40.16500
C  5.73300 47.69200 38.89200
O  5.25900 48.12600 37.86100
O  6.05800 46.37300 39.08500
C  5.95700 45.57300 37.82900
H  11.52500 52.40800 39.71900
H  7.70300 57.68300 40.29600
H  2.56700 53.85500 40.88200
H  8.81100 48.23500 40.13800
H  11.01300 49.71400 39.43600
H  10.17800 48.78200 42.05000
H  10.32100 50.45100 42.26200
H  11.71600 49.60100 41.62100
H  8.39000 47.91100 37.96200
H  9.99000 48.58200 37.82800
H  9.14100 50.34000 36.50800
H  7.77300 50.60400 37.51000
H  12.98300 55.68000 39.80500
H  12.58000 55.36000 38.06200
H  12.69500 54.07600 39.18600
H  10.38800 59.82100 39.44900
H  9.42400 59.09300 40.71400
H  8.93700 58.98000 38.96200
H  5.05600 57.85100 39.74500
H  3.24000 56.49500 41.42800
H  5.25300 59.20100 41.69600
H  6.01600 57.75400 42.37600
H  4.29100 57.87200 42.50200
H  3.46100 55.92200 38.35600
H  3.18100 57.48900 38.94800
H  1.10900 55.67600 38.49400
H  0.90300 57.10300 39.59500
H  1.45400 55.59000 40.20900
H  1.27500 51.97600 40.81600
H  1.61000 50.80500 42.12800
H  1.41900 50.25800 40.41900
H  6.28300 47.69400 40.89600
H  6.71000 46.01700 37.17900
H  4.94800 45.57700 37.41600
H  6.34800 44.57000 38.00000
Mg 9.94500 47.66000 25.70900
C  7.96600 47.95400 28.62000
C  12.52700 48.87700 27.59200
C  11.91100 47.38900 22.97800
C  7.17400 46.84000 23.90300
N  10.10000 48.47900 27.88100
C  9.27200 48.15600 28.86100
C  9.83300 48.47300 30.22200
C  11.24700 49.15600 29.88500
C  11.36500 48.82400 28.34200
C  11.28300 50.66000 30.22800
C  10.04000 47.26100 31.13000
C  9.72100 47.60700 32.57500
H  9.69500 46.48200 33.55700
N  11.93600 48.13800 25.35300
C  12.78500 48.63100 26.22200
C  14.02600 48.75400 25.57300
C  13.98100 48.19300 24.26200
C  12.54900 47.91100 24.13200
C  15.11200 49.42900 26.39300
C  15.10600 47.92900 23.21000
O  14.86600 47.58500 22.06400
C  16.42900 48.16700 23.69400
N  9.62900 47.38900 23.65500
C  10.56100 47.19900 22.75500
C  10.06400 46.64700 21.41900
C  8.55400 46.48400 21.78100
C  8.37500 47.00500 23.22700
C  10.22900 47.52200 20.16100
C  8.02800 45.00400 21.64300
C  8.36800 44.05600 22.80900
N  7.99000 47.30100 26.16700
C  6.97800 47.05700 25.23800
C  5.72200 47.01400 26.01200
C  5.98800 47.39200 27.34600
C  7.45900 47.59400 27.32300
C  4.31400 46.76900 25.41500
C  5.51600 47.53700 28.66100
O  4.38700 47.40300 29.10000
C  6.80500 47.83500 29.55400
C  6.84500 46.59800 30.43700
O  7.07800 45.46800 30.12300
O  6.46200 46.99000 31.62300
C  5.93200 45.91500 32.48800
H  13.36700 49.14300 28.23800
H  12.57800 47.27700 22.12000
H  6.32300 46.61900 23.25600
H  9.25600 49.24400 30.73200
H  12.13100 48.62700 30.24100
H  10.38900 51.01200 30.74300
H  11.39400 51.28700 29.34300
H  12.14600 50.93300 30.83400
H  11.10600 47.04100 31.19100
H  9.47600 46.36700 30.86700
H  8.80700 48.19800 32.62900
H  10.50700 48.26100 32.95100
H  14.62300 50.25100 26.91600
H  15.77300 49.85900 25.64100
H  15.48700 48.68200 27.09200
H  16.68500 49.22500 23.63000
H  17.20700 47.70900 23.08400
H  16.41200 47.89200 24.74900
H  10.44500 45.62800 21.34300
H  7.86800 47.07100 21.17100
H  11.02300 48.25500 20.30800
H  9.40400 48.15600 19.83400
H  10.43800 46.73100 19.44100
H  8.54000 44.53000 20.80600
H  6.98500 44.89900 21.34300
H  8.78800 44.51400 23.70500
H  9.09100 43.29800 22.50700
H  7.45000 43.69200 23.27100
H  4.32700 46.96700 24.34300
H  3.54600 47.27500 26.00000
H  4.01600 45.73700 25.60100
H  6.54600 48.67900 30.19400
H  4.84300 45.91300 32.45500
H  6.22800 46.13100 33.51400
H  6.26000 44.88800 32.33100

