158

Mg 8.38700 3.83000 27.45000
C  9.86600 2.36500 30.27000
C  6.50700 5.70700 29.55100
C  6.81000 5.05000 24.70300
C  9.88600 1.34800 25.50200
N  8.08400 3.89700 29.65400
C  8.96100 3.35800 30.60300
C  8.72400 3.93300 32.04400
C  7.49400 4.87200 31.81000
C  7.29500 4.78600 30.29300
C  6.20700 4.40900 32.62000
C  9.96900 4.80400 32.52100
C  9.76100 5.54700 33.89100
H  10.66300 5.13100 35.12800
N  6.94100 5.24800 27.14500
C  6.37100 5.96000 28.17200
C  5.48800 7.01200 27.56200
C  5.60400 6.80600 26.17500
C  6.48800 5.65100 25.95200
C  4.59600 7.94600 28.40700
C  4.96000 7.63800 24.98900
O  5.24300 7.58800 23.79800
C  4.12600 8.77800 25.48400
N  8.19100 3.08900 25.40600
C  7.68100 3.99900 24.45700
C  7.95400 3.48500 23.00200
C  9.09400 2.37300 23.20800
C  9.07000 2.25200 24.79000
C  6.66600 2.93800 22.37200
C  10.46400 2.57600 22.55000
C  11.41000 3.53600 23.31500
N  9.55100 2.11700 27.82200
C  10.10300 1.24700 26.92000
C  11.02100 0.37500 27.62000
C  11.00300 0.80200 28.92700
C  10.04000 1.81800 29.00400
C  11.98900 -0.68700 27.05000
C  11.60100 0.62200 30.25100
O  12.46800 -0.11800 30.64900
C  10.92600 1.69400 31.11700
C  10.50300 1.18500 32.44400
O  9.43000 0.66100 32.64000
O  11.41600 1.51900 33.39600
C  10.94600 1.34600 34.80700
H  5.97400 6.42100 30.18200
H  6.38900 5.46100 23.78400
H  10.64500 0.71600 25.03700
H  8.49300 3.13000 32.74400
H  7.63600 5.85200 32.26600
H  5.62800 5.29800 32.87000
H  6.49700 3.70700 33.40100
H  5.70700 3.72100 31.93800
H  10.02100 5.52500 31.70500
H  10.83900 4.16200 32.66200
H  8.70800 5.52600 34.17200
H  9.80500 6.62900 33.77200
H  3.52900 7.78900 28.24400
H  4.84600 8.97800 28.16200
H  4.84000 7.80000 29.45900
H  3.82700 9.27800 24.56200
H  4.89000 9.28400 26.07400
H  3.29100 8.51300 26.13100
H  8.36000 4.26800 22.36200
H  8.72200 1.41200 22.85400
H  5.91600 2.75900 23.14200
H  7.02200 2.00800 21.92900
H  6.27900 3.54400 21.55300
H  10.28900 3.07600 21.59700
H  10.91300 1.62100 22.27600
H  11.81100 4.34700 22.70700
H  12.26000 2.95300 23.67000
H  10.81500 3.85900 24.16900
H  12.95300 -0.33800 27.42200
H  12.08300 -0.78800 25.96900
H  11.73300 -1.65600 27.47800
H  11.67900 2.45700 31.31500
H  10.13300 0.62000 34.81400
H  10.61900 2.22700 35.36000
H  11.74600 0.82400 35.33100
Mg 42.77400 41.10600 26.31700
C  42.00900 43.60800 28.71500
C  43.66400 39.00700 28.86000
C  43.43700 38.98200 23.95100
C  42.24100 43.61600 23.86400
N  42.81100 41.33900 28.52100
C  42.27600 42.40100 29.29000
C  42.29300 42.03700 30.81600
C  43.06800 40.63200 30.79700
C  43.16300 40.21500 29.32100
C  44.43400 40.62000 31.60700
C  40.84500 42.03400 31.38000
C  40.54700 43.03800 32.53900
H  39.94300 42.39600 33.81100
N  43.45700 39.26300 26.42700
C  43.81400 38.55300 27.53100
C  44.25900 37.23000 27.13000
C  44.13800 37.16200 25.65900
C  43.62600 38.49000 25.30100
C  44.65200 36.23200 28.19200
C  44.38000 36.01700 24.72200
O  44.03300 35.98400 23.53200
C  44.94400 34.79600 25.35300
N  43.10800 41.33800 24.18300
C  43.20900 40.21900 23.43900
C  43.40700 40.53800 21.97900
C  43.01200 42.02100 21.91800
C  42.75400 42.38200 23.40500
C  44.94300 40.38100 21.55100
C  41.81600 42.37600 20.99600
C  42.01500 43.59300 20.08700
N  42.24000 43.17900 26.29000
C  42.06800 44.03000 25.21200
C  41.55600 45.38900 25.64700
C  41.48600 45.28200 27.09700
C  42.02000 43.98000 27.37600
C  41.22500 46.52800 24.73900
C  41.18600 45.94700 28.32800
O  40.75900 47.04500 28.60200
C  41.60800 44.87500 29.44700
C  42.70700 45.41500 30.33700
O  43.88000 45.12500 30.19900
O  42.11500 46.05700 31.43900
C  43.19900 46.62900 32.25400
H  43.89200 38.31900 29.67600
H  43.46000 38.17300 23.21800
H  42.20500 44.44500 23.15500
H  42.89500 42.79000 31.32400
H  42.47000 39.91500 31.35900
H  44.40500 39.90800 32.43200
H  44.51000 41.59700 32.08400
H  45.22600 40.43400 30.88200
H  40.67400 41.11400 31.93900
H  40.10100 42.23200 30.60900
H  39.75700 43.74600 32.28700
H  41.41000 43.64900 32.80200
H  45.73000 36.07200 28.16400
H  44.09800 35.32100 27.96700
H  44.60200 36.44800 29.25900
H  45.39600 34.09000 24.65600
H  44.17500 34.34300 25.97800
H  45.78900 35.22400 25.89300
H  42.78900 39.92300 21.32400
H  43.86200 42.56000 21.49800
H  45.52800 40.35400 22.47000
H  45.47500 41.10200 20.93100
H  45.10200 39.47600 20.96400
H  40.90100 42.50400 21.57600
H  41.66100 41.53800 20.31700
H  41.46700 43.30300 19.19100
H  43.01100 43.95600 19.83400
H  41.35800 44.30400 20.58900
H  41.00000 46.09500 23.76400
H  42.06400 47.22100 24.80200
H  40.42700 47.06200 25.25400
H  40.77900 44.78000 30.14900
H  43.94600 47.20300 31.70500
H  43.54800 45.89800 32.98200
H  42.63600 47.29100 32.91200

