158

Mg 0.13300 7.49500 26.50800
C  0.86400 9.51800 29.21300
C  -0.28400 4.80900 28.71600
C  -0.15500 5.48700 23.86300
C  0.57000 10.21500 24.36800
N  0.25700 7.17600 28.80400
C  0.57400 8.16100 29.69400
C  0.68600 7.55000 31.13100
C  0.23700 6.16100 30.92600
C  0.05200 6.00200 29.43100
C  1.08900 5.03300 31.68200
C  -0.36500 8.18500 32.12600
C  -0.04600 8.20000 33.62900
H  -0.58000 6.95900 34.39700
N  -0.22400 5.41400 26.30200
C  -0.48900 4.52500 27.32800
C  -0.66700 3.20600 26.81400
C  -0.60200 3.36600 25.39500
C  -0.38600 4.83400 25.11400
C  -0.81300 1.98600 27.71600
C  -0.66900 2.44700 24.23700
O  -0.59300 2.74000 23.08000
C  -0.88600 1.01800 24.62500
N  0.08300 7.77800 24.40300
C  0.10400 6.76200 23.57900
C  0.67500 7.25300 22.18800
C  0.41900 8.74500 22.35500
C  0.33100 8.96900 23.80600
C  2.17500 6.91500 21.98100
C  -0.73700 9.33100 21.46400
C  -2.11700 9.68700 22.14100
N  0.67800 9.37700 26.66700
C  0.84900 10.41900 25.72300
C  1.35500 11.62500 26.43600
C  1.38400 11.28100 27.72800
C  0.92700 9.97400 27.86300
C  1.74900 13.02800 25.96500
C  1.75600 11.83100 29.03400
O  2.26600 12.91200 29.34200
C  1.33800 10.70400 30.11500
C  2.41200 10.29000 31.02300
O  3.32200 9.49100 30.78900
O  2.30500 10.96800 32.19100
C  3.44800 10.82300 33.06100
H  -0.44900 4.10500 29.53300
H  -0.13600 4.86900 22.96300
H  0.74700 11.00600 23.63600
H  1.68200 7.63100 31.56600
H  -0.76800 5.98200 31.30700
H  1.58100 4.41900 30.92900
H  0.33200 4.48300 32.24200
H  1.93100 5.35600 32.29500
H  -1.28800 7.60600 32.07700
H  -0.58600 9.20600 31.81500
H  -0.56600 9.06800 34.03500
H  1.04100 8.12600 33.63100
H  0.15400 1.48400 27.74200
H  -1.61200 1.33700 27.35800
H  -1.06600 2.23900 28.74600
H  -1.84900 0.95600 25.13200
H  -0.13800 0.49400 25.22000
H  -1.00900 0.42500 23.71900
H  0.00300 6.82300 21.44500
H  1.35700 9.23800 22.09900
H  2.36400 6.02500 22.58100
H  2.98200 7.62100 22.17700
H  2.27500 6.39300 21.02900
H  -0.85700 8.69600 20.58600
H  -0.52700 10.36200 21.17900
H  -2.78300 8.97300 21.65600
H  -2.35300 10.68900 21.78300
H  -2.20600 9.63300 23.22600
H  0.90300 13.69700 26.12200
H  2.10500 13.01300 24.93500
H  2.52400 13.33100 26.66900
H  0.45800 10.90300 30.72700
H  3.41500 11.65100 33.76800
H  4.44700 10.66800 32.65500
H  3.13300 10.03500 33.74600
Mg 49.10300 35.32200 27.06600
C  46.98300 33.93200 29.51700
C  49.30300 38.06400 29.05000
C  50.86700 36.67000 24.70100
C  48.37700 32.57900 25.04800
N  48.12100 35.92600 29.09000
C  47.50800 35.13600 29.98900
C  47.55400 35.69700 31.41300
C  47.95300 37.16600 31.06100
C  48.58300 37.01200 29.64200
C  46.68800 38.15700 30.97500
C  48.56500 34.93000 32.35800
C  48.12700 34.86400 33.84400
H  49.04100 35.79800 34.75100
N  49.92600 37.21600 26.88300
C  49.96100 38.17600 27.83800
C  50.76600 39.32700 27.35400
C  51.19300 38.91500 26.05600
C  50.70000 37.53100 25.84700
C  50.90600 40.61000 28.12900
C  52.15300 39.63900 25.12700
O  52.48900 39.12800 24.07400
C  52.72700 40.95500 25.45400
N  49.50000 34.72000 25.07200
C  50.35700 35.48400 24.35500
C  50.46100 34.88400 22.95100
C  49.88800 33.41400 23.07500
C  49.17300 33.59400 24.41000
C  49.79600 35.76300 21.86000
C  50.89000 32.26500 23.12300
C  50.50200 31.03700 22.33600
N  47.86100 33.59000 27.18500
C  47.63200 32.63900 26.27800
C  46.79500 31.61200 26.84700
C  46.45700 32.17400 28.05000
C  47.15700 33.34400 28.24200
C  46.54400 30.21800 26.25500
C  45.71700 31.96300 29.16700
O  44.96700 31.05900 29.43800
C  45.96300 33.07000 30.13600
C  46.28700 32.59200 31.55900
O  47.29200 31.95500 31.87600
O  45.15600 32.97600 32.36600
C  45.25000 32.43300 33.76900
H  49.38800 38.87100 29.78000
H  51.43700 37.15300 23.90400
H  48.13000 31.71200 24.43100
H  46.49600 35.67400 31.67300
H  48.63400 37.49100 31.84800
H  45.73400 37.71900 31.26900
H  46.50200 38.55400 29.97700
H  46.87800 39.00100 31.63700
H  49.57900 35.32700 32.30600
H  48.67400 33.92800 31.94300
H  48.18200 33.85100 34.24300
H  47.10000 35.21600 33.94600
H  50.59000 40.61700 29.17200
H  50.19100 41.37800 27.83600
H  51.98300 40.77100 28.15200
H  52.02500 41.77300 25.61700
H  53.32000 41.24900 24.58800
H  53.45800 40.87300 26.25800
H  51.54100 34.90600 22.80000
H  49.08000 33.24100 22.36500
H  50.55800 36.43800 21.47200
H  48.93200 36.28400 22.27300
H  49.53000 35.03900 21.09000
H  51.08900 31.90800 24.13300
H  51.84900 32.67200 22.80000
H  51.39600 30.46700 22.08400
H  50.11300 31.13800 21.32300
H  49.80400 30.37000 22.84300
H  47.20700 30.02400 25.41200
H  45.54500 30.15000 25.82400
H  46.85400 29.55700 27.06400
H  45.06200 33.67600 30.22100
H  44.25100 32.21500 34.14700
H  45.49500 33.27400 34.41800
H  45.95700 31.63900 34.00700

