158

Mg -2.38000 16.99700 27.56400
C  -2.76200 14.96400 30.34300
C  -2.85300 19.76200 29.60600
C  -2.53800 19.03900 24.69900
C  -2.71500 14.24800 25.41700
N  -2.96600 17.30500 29.76900
C  -2.84200 16.33500 30.74100
C  -2.88000 16.98700 32.14900
C  -3.15600 18.44600 31.88600
C  -2.97900 18.56800 30.36400
C  -4.49300 19.02400 32.33000
C  -1.61400 16.65200 32.99600
C  -1.21100 17.61200 34.16700
H  -0.83400 16.78400 35.47200
N  -2.47900 19.13200 27.23400
C  -2.67400 20.05300 28.19100
C  -2.69700 21.37700 27.54300
C  -2.33400 21.16000 26.16100
C  -2.44900 19.69900 25.96000
C  -3.01500 22.58000 28.37900
C  -2.11400 22.14000 25.02100
O  -2.01300 21.85500 23.86700
C  -1.99100 23.60000 25.45200
N  -2.59200 16.65700 25.37500
C  -2.65100 17.61700 24.39800
C  -2.77900 17.00000 23.01000
C  -2.62100 15.47100 23.23100
C  -2.62600 15.45500 24.72400
C  -4.03500 17.44200 22.26100
C  -1.41900 14.99900 22.40300
C  -0.09400 14.68900 23.17900
N  -2.67400 15.01000 27.79300
C  -2.70400 13.97500 26.90500
C  -2.80700 12.69600 27.50400
C  -2.63000 13.03400 28.81900
C  -2.66300 14.44500 28.99400
C  -3.03000 11.38600 26.95400
C  -2.59300 12.47800 30.16400
O  -2.54800 11.30400 30.56000
C  -2.66200 13.67900 31.24500
C  -1.68000 13.51000 32.23600
O  -0.51600 13.82300 32.14500
O  -2.23700 13.05900 33.46500
C  -1.39400 12.88700 34.67700
H  -2.98200 20.58700 30.30900
H  -2.48100 19.64100 23.79000
H  -2.72500 13.35900 24.78200
H  -3.68600 16.64200 32.79700
H  -2.48200 19.14800 32.37700
H  -5.23400 18.32300 32.71400
H  -4.98700 19.58400 31.53500
H  -4.39300 19.73100 33.15300
H  -0.71100 16.47900 32.41000
H  -1.78100 15.70700 33.51300
H  -2.12800 18.08100 34.52300
H  -0.42600 18.34600 33.98400
H  -2.14700 23.22300 28.53000
H  -3.45600 22.32100 29.34200
H  -3.77200 23.08900 27.78300
H  -2.05100 24.13200 24.50300
H  -1.19500 23.85800 26.15100
H  -2.94300 23.79800 25.94500
H  -1.91000 17.35300 22.45500
H  -3.53900 14.95400 22.95100
H  -4.74800 17.90100 22.94600
H  -4.39000 16.59900 21.66800
H  -3.88500 18.19200 21.48400
H  -1.12600 15.59500 21.53900
H  -1.74900 14.03300 22.02200
H  -0.11500 14.95600 24.23500
H  0.64100 15.27500 22.62700
H  0.24100 13.65600 23.08100
H  -2.36400 10.66600 27.43000
H  -2.88900 11.27800 25.87800
H  -4.02400 11.10300 27.30100
H  -3.57500 13.71700 31.83900
H  -1.79700 13.47500 35.50200
H  -0.33600 13.13900 34.59500
H  -1.41900 11.82700 34.92900
Mg -12.02800 37.89400 43.10800
C  -10.10600 35.19700 42.21800
C  -10.09100 39.76800 40.97000
C  -14.30300 40.40500 43.13000
C  -14.19400 35.76900 44.63000
N  -10.28900 37.50800 41.68300
C  -9.65100 36.32900 41.60600
C  -8.36400 36.52500 40.82500
C  -8.42200 37.94400 40.25100
C  -9.67700 38.45900 41.00500
C  -7.12600 38.87400 40.41400
C  -8.11700 35.47200 39.67200
C  -6.64100 35.05200 39.49800
H  -5.83500 35.57500 38.27600
N  -12.12100 39.88700 42.28200
C  -11.15700 40.48000 41.51400
C  -11.49400 41.88700 41.30900
C  -12.67200 42.11800 42.00000
C  -13.13100 40.77500 42.49800
C  -10.68300 42.76600 40.41400
C  -13.33000 43.42500 42.11800
O  -12.73200 44.42000 41.73800
C  -14.69000 43.65000 42.67200
N  -13.90200 38.02900 43.71400
C  -14.63700 39.19100 43.74100
C  -16.07600 38.99700 44.27500
C  -16.07500 37.45400 44.56800
C  -14.59100 37.03800 44.35600
C  -16.35300 40.00500 45.42500
C  -17.15300 36.67600 43.71900
C  -17.77500 35.45500 44.39600
N  -12.12400 35.85900 43.48300
C  -13.06700 35.15300 44.17000
C  -12.60100 33.77000 44.30300
C  -11.35900 33.75200 43.58000
C  -11.25300 35.02900 43.00800
C  -13.27900 32.63400 45.05100
C  -10.21900 32.93300 43.20500
O  -9.92300 31.78300 43.44000
C  -9.42400 33.77600 42.28100
C  -8.06500 33.84300 42.85900
O  -7.14200 33.23400 42.43600
O  -7.99600 34.72500 43.88800
C  -6.57000 34.90400 44.41700
H  -9.51100 40.49200 40.39500
H  -14.95800 41.25600 43.32900
H  -14.94400 35.13900 45.11200
H  -7.51000 36.32700 41.47300
H  -8.61500 38.00600 39.18000
H  -7.34600 39.72300 41.06200
H  -6.80700 39.21900 39.43000
H  -6.24800 38.31100 40.73200
H  -8.40000 35.96100 38.74000
H  -8.88500 34.70500 39.77100
H  -6.60000 33.97900 39.30800
H  -6.13300 35.05200 40.46200
H  -11.37500 43.39800 39.85700
H  -9.97000 42.40700 39.67200
H  -10.03700 43.47900 40.92500
H  -15.33900 43.07100 42.01500
H  -14.96800 44.67300 42.42000
H  -14.74500 43.38700 43.72800
H  -16.76100 39.10100 43.43300
H  -16.41000 37.41100 45.60400
H  -15.44200 40.33000 45.92700
H  -16.98300 39.53200 46.17800
H  -16.90200 40.90500 45.14800
H  -16.52300 36.38300 42.87900
H  -17.92300 37.38000 43.40600
H  -18.82100 35.68100 44.60400
H  -17.23700 35.10900 45.27900
H  -17.77300 34.63400 43.67900
H  -14.35100 32.60700 44.85800
H  -13.05100 32.71400 46.11400
H  -12.76600 31.77900 44.61100
H  -9.46200 33.31500 41.29400
H  -6.39300 35.70800 45.13200
H  -5.84400 35.10800 43.63000
H  -6.24300 33.97400 44.88100

