158

Mg 0.82000 7.42400 25.21200
C  1.77400 9.12500 28.13900
C  0.85400 4.34300 27.01800
C  0.25500 5.88000 22.37100
C  1.41200 10.39200 23.42600
N  1.22300 6.84300 27.27700
C  1.55600 7.70700 28.32300
C  1.50300 6.87200 29.67500
C  1.43100 5.42600 29.25000
C  1.11700 5.54800 27.74700
C  2.61600 4.51400 29.59300
C  0.30600 7.42100 30.51400
C  0.57000 7.49300 32.03100
H  1.72300 6.62800 32.61400
N  0.63300 5.33600 24.75800
C  0.61900 4.26300 25.61300
C  0.33800 3.06600 24.77800
C  0.22200 3.50100 23.43700
C  0.26500 4.98200 23.46500
C  0.11100 1.72900 25.38000
C  0.10400 2.63300 22.14700
O  -0.05200 3.10300 21.04000
C  0.16600 1.13800 22.25100
N  0.86500 8.05800 23.16300
C  0.54500 7.17800 22.23000
C  0.34900 7.83200 20.86300
C  0.68500 9.34600 21.11800
C  0.95700 9.27200 22.63000
C  1.11500 7.19700 19.65800
C  -0.57000 10.31100 20.88700
C  -0.24400 11.31300 19.79000
N  1.52200 9.37300 25.58700
C  1.58800 10.47000 24.79200
C  1.75400 11.65900 25.54900
C  1.87300 11.19400 26.86600
C  1.71600 9.80300 26.86300
C  1.74400 13.09600 25.13000
C  2.05900 11.59600 28.20400
O  2.36900 12.63400 28.68100
C  1.85100 10.33000 29.11000
C  2.97800 10.07800 29.94400
O  4.03100 9.56800 29.66300
O  2.75200 10.63200 31.21300
C  3.89600 10.85400 32.07600
H  0.67600 3.45600 27.62900
H  -0.16700 5.44700 21.46200
H  1.54000 11.24500 22.75600
H  2.38700 7.06600 30.28200
H  0.63600 4.84600 29.71800
H  2.32800 3.83800 30.39800
H  3.52800 4.95400 29.99800
H  2.94800 3.96600 28.71100
H  -0.53400 6.74100 30.37300
H  -0.03700 8.36200 30.08300
H  -0.32900 7.29400 32.61400
H  0.81200 8.54800 32.15900
H  1.04000 1.16500 25.47300
H  -0.61500 1.14600 24.81400
H  -0.31900 1.75300 26.38200
H  0.42800 0.81000 21.24500
H  -0.82000 0.78200 22.55200
H  0.86000 0.76100 23.00200
H  -0.70600 7.64100 20.66600
H  1.64500 9.76300 20.81400
H  1.92900 7.86000 19.36300
H  0.38300 7.05100 18.86400
H  1.54400 6.21400 19.85500
H  -0.89200 10.91100 21.73800
H  -1.36700 9.61900 20.61500
H  -0.67000 10.88600 18.88300
H  0.81800 11.45200 19.59000
H  -0.69900 12.28200 19.99700
H  2.60300 13.31700 24.49600
H  1.76100 13.72300 26.02200
H  0.96900 13.51800 24.49200
H  0.92800 10.35800 29.68900
H  4.30300 11.79500 31.70500
H  4.74200 10.17200 31.99700
H  3.58400 10.90000 33.11900
Mg 35.57600 1.87800 29.21400
C  33.39800 3.06000 31.68300
C  38.09500 2.04400 31.40200
C  37.45400 1.11800 26.64700
C  32.72800 1.92700 27.00400
N  35.77700 2.72900 31.30700
C  34.67200 2.89400 32.14800
C  35.15200 2.86200 33.62800
C  36.74200 2.80600 33.44700
C  36.92200 2.48000 31.98500
C  37.38400 4.13500 33.83600
C  34.39100 1.68300 34.40500
C  33.93300 1.94800 35.87700
H  34.39700 3.27800 36.52300
N  37.50000 1.59100 29.06800
C  38.44800 1.67800 30.09800
C  39.69400 1.17100 29.57200
C  39.54900 1.02200 28.16900
C  38.10700 1.24200 27.88300
C  40.87500 0.89700 30.48500
C  40.57000 0.62700 27.16100
O  40.31400 0.49900 25.96600
C  42.01100 0.46100 27.54600
N  35.09100 1.50200 27.07800
C  36.08500 1.15200 26.24400
C  35.59600 0.94800 24.77000
C  34.06200 0.95800 25.04000
C  33.91200 1.44400 26.44300
C  36.07600 2.01600 23.80000
C  33.32300 -0.41400 24.85100
C  32.73700 -0.61100 23.48800
N  33.51300 2.48700 29.25000
C  32.52800 2.48400 28.31400
C  31.21900 2.96500 28.84700
C  31.56700 3.20800 30.17000
C  32.95200 2.94300 30.36300
C  29.84600 3.14500 28.17100
C  30.96700 3.59900 31.40100
O  29.87100 3.98800 31.80300
C  32.12200 3.44100 32.45300
C  32.23400 4.75700 33.20800
O  32.80000 5.75400 32.75800
O  31.60800 4.64200 34.37600
C  31.32400 5.92900 35.15000
H  38.95400 1.92200 32.06500
H  38.12100 0.86200 25.82100
H  31.83100 1.93900 26.38100
H  34.86600 3.78700 34.13000
H  37.22700 2.08100 34.10100
H  38.13000 4.01100 34.62100
H  36.74600 4.96600 34.13600
H  37.99700 4.55600 33.04000
H  35.09300 0.85300 34.48200
H  33.50200 1.38300 33.85000
H  34.13300 1.10400 36.53700
H  32.84800 1.96800 35.78100
H  41.31000 -0.07500 30.25500
H  40.69300 0.79400 31.55500
H  41.55500 1.72900 30.30300
H  42.67500 0.31000 26.69400
H  42.12500 -0.31800 28.30000
H  42.43200 1.34000 28.03300
H  35.94800 -0.05100 24.51300
H  33.56200 1.68400 24.39900
H  35.22500 2.42100 23.25300
H  36.87900 1.57000 23.21200
H  36.39300 2.84700 24.43000
H  32.57000 -0.62500 25.61000
H  34.06400 -1.20900 24.93700
H  31.65900 -0.48700 23.58200
H  32.95600 -1.63300 23.17900
H  33.09200 0.05600 22.70200
H  29.61700 4.20000 28.02000
H  29.23100 2.65300 28.92400
H  29.79400 2.64500 27.20400
H  31.77300 2.64100 33.10600
H  30.48300 6.47200 34.71900
H  32.08500 6.69900 35.27800
H  31.11400 5.50700 36.13300

