158

Mg 25.34000 51.52600 26.19600
C  23.16400 52.35900 28.74000
C  27.73000 50.83200 28.54600
C  27.57400 51.18400 23.56100
C  23.07500 52.87000 23.90900
N  25.45300 51.84700 28.43400
C  24.36400 52.03600 29.23400
C  24.64700 51.79300 30.77400
C  26.21100 51.39400 30.58700
C  26.54800 51.30200 29.08400
C  27.21300 52.32200 31.43900
C  23.79800 50.64000 31.44700
C  23.23700 50.89500 32.87900
H  24.11800 51.49100 33.90300
N  27.26400 50.93500 26.11800
C  28.08400 50.69500 27.20100
C  29.38500 50.34500 26.73800
C  29.40400 50.54100 25.31300
C  28.01100 50.91800 24.92600
C  30.53600 49.98200 27.68600
C  30.57600 50.34100 24.40000
O  30.59400 50.63400 23.22900
C  31.82800 49.69700 24.91500
N  25.28200 51.89300 23.95700
C  26.37000 51.70900 23.16500
C  26.03000 52.08900 21.71200
C  24.45800 52.40300 21.82700
C  24.25200 52.38400 23.30500
C  26.86300 53.29200 21.12700
C  23.68500 51.25800 21.09900
C  23.67300 51.42100 19.52800
N  23.55700 52.41200 26.23300
C  22.75400 52.91100 25.27400
C  21.50500 53.43800 25.70900
C  21.65300 53.26000 27.11600
C  22.90700 52.66600 27.42200
C  20.36100 54.00000 24.91700
C  20.95400 53.40800 28.37500
O  19.80800 53.75700 28.64900
C  21.91600 52.86600 29.50500
C  22.10500 53.97800 30.49000
O  22.83100 54.95200 30.30500
O  21.31100 53.83400 31.58100
C  21.44300 54.89300 32.58600
H  28.44600 50.45000 29.27700
H  28.19800 51.07700 22.67100
H  22.35300 53.17000 23.14700
H  24.49300 52.75900 31.25500
H  26.53000 50.42600 30.97400
H  27.66100 51.71800 32.22800
H  26.69500 53.07300 32.03600
H  28.01400 52.78200 30.86100
H  24.45900 49.77600 31.38800
H  22.85000 50.50700 30.92500
H  23.05000 49.89300 33.26500
H  22.33500 51.50700 32.87700
H  31.47200 50.51600 27.52400
H  30.80700 48.98500 27.33900
H  30.28900 50.07100 28.74400
H  32.56300 49.48200 24.14000
H  31.83700 48.87400 25.63000
H  32.24600 50.55000 25.44900
H  26.21600 51.15600 21.18000
H  24.36500 53.39000 21.37300
H  27.72400 53.37900 21.78900
H  26.34700 54.24400 21.00000
H  27.24600 53.06600 20.13200
H  22.64600 51.22400 21.42600
H  24.13500 50.28700 21.30700
H  22.64600 51.52100 19.17600
H  24.25200 50.62200 19.06700
H  24.27700 52.28100 19.23800
H  20.50100 53.89000 23.84200
H  20.28500 55.04200 25.22800
H  19.46000 53.49100 25.26100
H  21.42300 52.02900 29.99900
H  22.33200 54.61400 33.15400
H  20.58700 54.97400 33.25500
H  21.62900 55.90600 32.22900
Mg 6.97500 56.80900 41.76800
C  5.62400 53.59700 41.04500
C  9.93200 55.79500 40.85900
C  7.83100 60.18600 41.62700
C  3.68100 57.87600 42.39700
N  7.60100 54.91500 40.91300
C  6.95000 53.67700 40.71800
C  8.00000 52.58200 40.32600
C  9.39300 53.31100 40.57900
C  8.93400 54.75300 40.96000
C  10.17300 52.57800 41.69000
C  7.64600 52.21500 38.82800
C  7.61800 50.73300 38.41000
H  7.41500 50.35000 36.84900
N  8.57800 57.87600 41.22300
C  9.74700 57.25900 40.88000
C  10.76900 58.21700 40.62200
C  10.18400 59.51000 40.72200
C  8.76600 59.24700 41.18200
C  12.16700 57.83600 40.26100
C  10.81700 60.81900 40.45400
O  12.00300 60.96700 40.14300
C  10.16400 62.13800 40.57700
N  5.81700 58.82300 41.91400
C  6.50200 60.02100 41.96200
C  5.51700 61.20300 42.29300
C  4.18800 60.36000 42.54800
C  4.54300 58.93800 42.25000
C  6.04600 62.04700 43.46800
C  2.88100 60.86300 41.81600
C  1.70300 61.47200 42.61300
N  5.04200 56.00300 41.76200
C  3.83700 56.50200 42.19000
C  2.84300 55.53200 42.30500
C  3.56500 54.32100 41.92100
C  4.85200 54.66400 41.55400
C  1.42100 55.58300 42.84100
C  3.47300 52.88300 41.79700
O  2.63700 52.09600 42.16800
C  4.69000 52.37700 41.23000
C  4.33300 51.74500 39.90300
O  4.14000 52.32200 38.84100
O  4.22300 50.41200 40.02300
C  3.64400 49.62600 38.88800
H  10.93500 55.54300 40.50700
H  8.24500 61.19400 41.69700
H  2.66000 58.22400 42.56700
H  7.69100 51.79200 41.01000
H  10.08900 53.22700 39.74400
H  11.17100 53.01100 41.75100
H  10.17800 51.50000 41.53200
H  9.60300 52.91100 42.55700
H  8.33500 52.62100 38.08700
H  6.72100 52.69600 38.51000
H  6.86900 50.29500 39.06900
H  8.58000 50.32200 38.71700
H  12.43700 58.35100 39.33900
H  12.42200 56.79800 40.04600
H  12.85700 58.16400 41.03800
H  10.39800 62.47000 41.58800
H  9.11400 62.22400 40.29900
H  10.62200 62.85700 39.89800
H  5.49000 61.70200 41.32400
H  4.00100 60.31100 43.62000
H  5.36600 61.97300 44.31700
H  6.10800 63.08800 43.15100
H  7.07100 61.81200 43.75400
H  2.38200 60.09900 41.22000
H  3.25800 61.62300 41.13100
H  1.98600 61.23900 43.64000
H  0.79800 60.95700 42.29200
H  1.59800 62.49600 42.25400
H  0.75100 55.22000 42.06100
H  1.12500 56.61300 43.03600
H  1.33400 55.05400 43.79000
H  5.23800 51.64200 41.82000
H  3.29300 48.77700 39.47400
H  4.38300 49.45000 38.10700
H  2.85900 50.21900 38.41800

