158

Mg 1.68500 -1.42600 43.40300
C  4.82400 -0.52300 42.74400
C  0.55100 1.38600 41.72900
C  -1.52100 -2.66800 43.57400
C  2.84300 -4.47500 44.80300
N  2.57000 0.14300 42.19000
C  3.89600 0.35800 42.21000
C  4.30700 1.61200 41.42500
C  2.90800 2.36800 41.39400
C  1.96300 1.21300 41.73300
C  2.73100 3.73100 42.14300
C  4.99600 1.36400 40.06200
C  6.31400 2.06200 39.75000
H  6.50700 2.60900 38.29900
N  -0.23700 -0.63600 42.88700
C  -0.44200 0.47500 42.17600
C  -1.82600 0.64700 41.95000
C  -2.45200 -0.47200 42.42500
C  -1.42100 -1.40100 42.94600
C  -2.47900 1.64500 40.99900
C  -3.96100 -0.75100 42.31600
O  -4.71100 0.09000 41.82300
C  -4.59700 -1.96500 42.88400
N  0.82900 -3.30400 44.01400
C  -0.53300 -3.56200 44.04900
C  -0.84000 -4.90600 44.67700
C  0.53100 -5.47900 45.06200
C  1.44900 -4.37000 44.61600
C  -1.76600 -4.96000 45.95400
C  0.89500 -6.82700 44.53400
C  1.25000 -7.94600 45.54400
N  3.47300 -2.37600 43.72800
C  3.84600 -3.58000 44.33900
C  5.27000 -3.61300 44.56500
C  5.68900 -2.42900 43.97600
C  4.61200 -1.71900 43.44500
C  6.12700 -4.71600 45.17100
C  6.82500 -1.60700 43.63000
O  8.05000 -1.75400 43.78100
C  6.33600 -0.28700 42.89700
C  6.60700 0.90400 43.87800
O  5.80200 1.58100 44.44700
O  7.96600 0.99800 43.99000
C  8.34100 2.15400 44.80000
H  0.26700 2.40500 41.45800
H  -2.45000 -3.23500 43.66000
H  3.22400 -5.27100 45.44600
H  5.02700 2.21400 41.97800
H  2.70100 2.73500 40.38900
H  1.69500 3.75100 42.48200
H  2.89700 4.48900 41.37800
H  3.46000 3.85200 42.94500
H  4.34400 1.68700 39.25000
H  5.14700 0.28400 40.06400
H  7.18300 1.48600 40.06900
H  6.49400 2.93500 40.37800
H  -1.71600 1.94300 40.27900
H  -2.94100 2.48400 41.51900
H  -3.21400 1.21600 40.31700
H  -4.09000 -2.87300 42.55700
H  -5.55500 -2.16800 42.40500
H  -4.79800 -1.85100 43.94900
H  -1.25100 -5.49800 43.86000
H  0.67700 -5.41100 46.14000
H  -1.33100 -5.79600 46.50100
H  -2.78400 -5.07400 45.58000
H  -1.72600 -4.03300 46.52700
H  1.64000 -6.56500 43.78200
H  0.02300 -7.28000 44.06200
H  2.32800 -8.11000 45.56200
H  0.82600 -8.92800 45.33400
H  0.94400 -7.70400 46.56200
H  6.89700 -4.24000 45.77800
H  6.49200 -5.20100 44.26500
H  5.65300 -5.45700 45.81400
H  6.94800 -0.17600 42.00200
H  7.59700 2.86800 45.15400
H  9.03500 2.82200 44.29100
H  8.69600 1.68200 45.71600
Mg 24.64400 -4.89700 45.68500
C  26.70100 -2.34400 44.62600
C  22.05900 -3.70900 43.92100
C  23.10700 -7.95700 46.11500
C  27.46600 -6.24200 47.53300
N  24.44700 -3.29500 44.22000
C  25.38200 -2.28400 44.13700
C  24.89800 -1.36600 43.00300
C  23.32200 -1.58500 43.08000
C  23.25200 -2.94900 43.73700
C  22.51200 -0.59000 43.94100
C  25.66000 -1.79500 41.71400
C  26.25000 -0.75300 40.73900
H  25.95800 -0.80700 39.23000
N  22.76400 -5.64600 45.21600
C  21.86000 -4.99500 44.48600
C  20.67900 -5.81500 44.32800
C  20.99700 -7.06400 44.92800
C  22.35100 -6.94700 45.47900
C  19.42500 -5.46000 43.58100
C  20.07200 -8.27800 45.00600
O  18.86300 -8.22300 44.61800
C  20.51900 -9.67600 45.47600
N  25.32700 -6.92400 46.39300
C  24.37300 -7.91900 46.62200
C  25.01500 -9.07400 47.49400
C  26.29400 -8.43300 48.00900
C  26.43900 -7.15700 47.26100
C  23.94500 -9.55100 48.52300
C  27.59100 -9.27300 47.74600
C  28.63400 -9.29800 48.89100
N  26.77300 -4.47800 45.97700
C  27.73200 -5.05900 46.85000
C  28.90100 -4.18500 46.85600
C  28.56400 -3.10200 45.94000
C  27.25500 -3.35800 45.40900
C  30.14700 -4.32400 47.60200
C  29.04300 -1.98200 45.33000
O  30.09800 -1.40000 45.45500
C  27.83400 -1.40500 44.35800
C  27.56000 0.01900 44.59100
O  26.93000 0.47400 45.52300
O  28.19600 0.74100 43.64900
C  27.99800 2.18000 43.83000
H  21.19100 -3.34500 43.36700
H  22.67700 -8.92500 46.38000
H  28.30500 -6.57800 48.14600
H  25.16400 -0.32500 43.18400
H  22.80900 -1.62900 42.11900
H  21.82100 -0.02000 43.32100
H  23.16000 0.08400 44.50200
H  21.92000 -1.08100 44.71300
H  24.83900 -2.13300 41.08100
H  26.37300 -2.59000 41.93200
H  27.33600 -0.84700 40.72600
H  25.93700 0.25100 41.02600
H  19.05900 -6.15500 42.82500
H  19.59600 -4.50900 43.07700
H  18.51000 -5.25000 44.13500
H  20.76800 -9.72800 46.53600
H  21.43500 -10.00000 44.98300
H  19.71800 -10.40000 45.32400
H  25.19100 -9.97000 46.89900
H  26.17100 -8.10200 49.04100
H  24.36300 -9.58200 49.53000
H  23.47300 -10.51700 48.34800
H  23.17700 -8.78000 48.57400
H  28.07700 -8.88900 46.84900
H  27.13400 -10.25400 47.62000
H  28.47900 -10.26000 49.37900
H  28.38700 -8.56200 49.65800
H  29.64200 -9.13000 48.51400
H  30.27400 -3.51600 48.32200
H  31.01100 -4.36900 46.93900
H  30.15400 -5.23600 48.19800
H  28.11300 -1.50600 43.30900
H  28.68500 2.93500 43.44600
H  28.04700 2.38800 44.89900
H  26.99600 2.47900 43.52500

