158

Mg -0.40800 7.56900 26.58700
C  0.39700 9.52500 29.36100
C  -0.48900 4.70600 28.56600
C  -0.80400 5.80300 23.75100
C  0.26000 10.45500 24.54900
N  0.02000 7.21300 28.78300
C  0.13800 8.18500 29.75200
C  0.20600 7.49800 31.17100
C  0.04100 5.93600 30.84200
C  -0.30200 5.93500 29.31600
C  1.23100 5.00400 31.33200
C  -0.75500 8.13400 32.17700
C  -0.15300 8.59100 33.59400
H  -0.98000 8.11800 34.81800
N  -0.73900 5.60000 26.27700
C  -0.73400 4.54900 27.21300
C  -0.95200 3.32200 26.53300
C  -1.25200 3.59000 25.15500
C  -0.97800 5.06700 24.98700
C  -1.03100 1.95900 27.26800
C  -1.56800 2.67600 23.94800
O  -1.72200 3.04800 22.76800
C  -1.72800 1.23800 24.27700
N  -0.09800 7.98000 24.46600
C  -0.55000 7.10300 23.52500
C  -0.47900 7.72100 22.11100
C  -0.33300 9.22500 22.40500
C  0.02300 9.22500 23.90900
C  0.59700 7.06300 21.15800
C  -1.53800 10.02900 22.04200
C  -1.41000 11.47300 21.51700
N  0.33900 9.67500 26.81400
C  0.53100 10.62700 25.89100
C  0.81800 11.84600 26.62900
C  0.95100 11.39700 27.99400
C  0.51800 10.09500 28.03800
C  0.99300 13.21000 26.16300
C  1.23600 11.86600 29.33400
O  1.67600 12.91000 29.84600
C  0.78900 10.67400 30.25100
C  1.98500 10.36200 31.10300
O  3.00400 9.81500 30.71200
O  1.80400 10.83000 32.36500
C  2.96000 10.56800 33.26500
H  -0.68300 3.78600 29.12100
H  -1.04300 5.11900 22.93500
H  0.17700 11.34800 23.92600
H  1.21600 7.58600 31.57400
H  -0.86100 5.57400 31.33500
H  0.93300 4.31200 32.12000
H  2.04900 5.60000 31.73700
H  1.79700 4.43800 30.59300
H  -1.52200 7.39700 32.41600
H  -1.41200 8.92500 31.81400
H  -0.17800 9.68000 33.61900
H  0.86500 8.22200 33.71600
H  -0.72300 1.08800 26.69000
H  -1.86500 1.72000 27.92800
H  -0.19600 1.93000 27.96800
H  -2.51800 1.15800 25.02300
H  -0.79500 0.79800 24.62900
H  -2.01100 0.68900 23.37900
H  -1.43700 7.64200 21.59700
H  0.50500 9.64900 21.85200
H  0.88300 6.05700 21.46400
H  1.50100 7.67400 21.14600
H  0.23400 7.01600 20.13100
H  -2.15500 10.04100 22.94100
H  -2.06700 9.49900 21.25000
H  -1.93700 11.66700 20.58300
H  -0.34200 11.68500 21.48300
H  -1.84200 12.08300 22.31100
H  1.23600 13.94500 26.93000
H  0.12200 13.64000 25.66800
H  1.76300 13.23700 25.39300
H  -0.02600 11.00100 30.89700
H  3.94000 10.73200 32.81600
H  2.78100 9.55500 33.62700
H  2.98900 11.14300 34.19100
Mg 9.96900 47.78400 26.05000
C  8.20900 47.67400 28.88500
C  12.48400 49.30700 27.76400
C  11.85000 47.74500 23.21100
C  7.30800 46.49300 24.27500
N  10.17000 48.46600 28.04200
C  9.42500 48.21800 29.09200
C  9.92800 48.77200 30.38700
C  11.06500 49.65200 29.87600
C  11.29200 49.08000 28.45000
C  10.82000 51.21100 29.86200
C  10.36700 47.74500 31.49500
C  9.79100 47.72400 32.90900
H  9.77200 46.36800 33.65100
N  11.89500 48.37500 25.55700
C  12.83500 48.85600 26.42500
C  14.07600 48.94500 25.77000
C  13.98000 48.35700 24.45300
C  12.53000 48.13400 24.34700
C  15.38900 49.46800 26.43900
C  15.03300 48.06300 23.28000
O  14.71700 47.74600 22.15100
C  16.45900 48.29400 23.51900
N  9.50400 47.59600 23.96100
C  10.47300 47.46800 23.04700
C  9.94100 47.28400 21.59700
C  8.59600 46.51200 21.93400
C  8.42500 46.82700 23.47700
C  9.77800 48.61500 20.87600
C  8.75400 45.06500 21.50200
C  9.94200 44.34500 22.21100
N  8.07700 47.33700 26.44200
C  7.09400 46.82300 25.64000
C  5.87400 46.66000 26.29700
C  6.24400 46.93300 27.65500
C  7.60300 47.30300 27.65400
C  4.51400 46.24800 25.84400
C  5.79500 47.05300 29.03100
O  4.67100 46.94500 29.53400
C  7.11400 47.35000 29.89200
C  7.39800 46.06100 30.59600
O  8.12600 45.19000 30.16500
O  6.75600 46.01200 31.83700
C  6.89500 44.77300 32.57000
H  13.21500 49.81200 28.39800
H  12.42000 47.69900 22.28100
H  6.50800 45.99800 23.72000
H  9.13700 49.39200 30.81000
H  12.00200 49.44700 30.39300
H  9.89000 51.39600 30.40000
H  10.76900 51.61000 28.84900
H  11.64400 51.72200 30.36000
H  11.45300 47.76200 31.58300
H  10.17000 46.82300 30.94700
H  8.83600 48.25000 32.92700
H  10.48800 48.32200 33.49600
H  15.10600 49.67500 27.47100
H  15.85200 50.31200 25.92800
H  16.11100 48.65200 26.47900
H  17.07100 48.36900 22.62000
H  16.85400 47.54200 24.20200
H  16.47900 49.26800 24.00800
H  10.60300 46.68800 20.97000
H  7.68800 46.93300 21.50100
H  10.29700 49.36700 21.47000
H  8.76000 48.96600 20.70600
H  10.22900 48.52100 19.88800
H  8.98900 45.00300 20.43900
H  7.81900 44.56500 21.75500
H  10.42100 43.62300 21.55000
H  9.50100 43.79200 23.04000
H  10.75000 44.97900 22.57700
H  3.73900 46.76000 26.41400
H  4.37100 45.18100 26.02000
H  4.38000 46.50400 24.79300
H  6.89200 48.14400 30.60600
H  7.01600 45.04100 33.61900
H  7.67000 44.08400 32.23200
H  5.92700 44.32000 32.35500

