158

Mg 35.66200 3.13500 30.44800
C  33.17600 3.76700 32.71000
C  38.05600 3.61400 32.85400
C  38.05600 2.54200 28.07400
C  33.28800 3.48700 27.85500
N  35.63600 3.78300 32.47700
C  34.50400 3.73900 33.30900
C  34.83100 3.80600 34.79900
C  36.33600 4.20500 34.73400
C  36.72300 3.83800 33.27300
C  36.61100 5.69700 35.14300
C  34.51200 2.51300 35.55100
C  34.38600 2.58000 37.09200
H  35.13200 3.63200 37.86300
N  37.78300 3.02900 30.47300
C  38.59700 3.25900 31.56100
C  39.97700 3.10700 31.15500
C  39.97800 2.76600 29.77600
C  38.54200 2.77400 29.37800
C  41.15600 3.05300 32.11000
C  41.09700 2.42800 28.77300
O  40.91800 2.26500 27.53100
C  42.47700 2.28300 29.15500
N  35.62000 3.04100 28.26500
C  36.74600 2.60200 27.58100
C  36.36700 2.19000 26.11100
C  34.78600 2.52200 26.00300
C  34.53900 3.12900 27.42800
C  37.33400 2.67900 24.97400
C  33.92400 1.25700 25.79300
C  32.66500 1.38500 24.81400
N  33.57900 3.60700 30.22200
C  32.74400 3.65300 29.15800
C  31.42800 3.88700 29.64500
C  31.53900 3.89200 31.03700
C  32.89500 3.78200 31.31200
C  30.32000 4.13900 28.70100
C  30.83800 4.12700 32.29000
O  29.65500 4.44600 32.50500
C  31.91600 3.99900 33.46700
C  31.99500 5.39000 34.09800
O  32.48300 6.45300 33.58000
O  31.57700 5.16700 35.37600
C  31.92600 6.21400 36.34000
H  38.80000 3.65200 33.65200
H  38.76500 2.41700 27.25300
H  32.57000 3.49900 27.03300
H  34.26000 4.66800 35.14300
H  36.82700 3.51500 35.42000
H  37.37100 5.72200 35.92400
H  35.69400 6.11100 35.56200
H  37.10600 6.34600 34.42200
H  35.33600 1.83600 35.32600
H  33.64800 1.97500 35.16000
H  34.45500 1.62000 37.60500
H  33.33600 2.87300 37.10800
H  41.71800 3.96200 31.89400
H  41.74900 2.15000 31.96700
H  40.74200 3.13600 33.11500
H  43.09800 2.03500 28.29400
H  42.55100 1.55200 29.96000
H  42.69800 3.24100 29.62500
H  36.47300 1.10800 26.19400
H  34.54200 3.21300 25.19600
H  37.88000 3.55600 25.32300
H  36.78600 2.82700 24.04400
H  38.03600 1.85300 24.85500
H  33.54600 0.89600 26.74900
H  34.59900 0.56100 25.29300
H  32.91500 0.77800 23.94400
H  32.28300 2.38000 24.58700
H  31.79200 0.96400 25.31300
H  29.32800 4.22300 29.14400
H  30.21500 3.38400 27.92200
H  30.49100 5.08500 28.18700
H  31.89000 3.13900 34.13600
H  32.07300 7.18300 35.86400
H  32.78500 5.92900 36.94800
H  31.02800 6.28900 36.95300
Mg -2.41100 35.16600 26.62200
C  -4.30500 33.30800 29.00600
C  -1.68000 37.32900 28.95900
C  -0.79300 36.97000 24.25000
C  -4.03000 33.28300 24.13500
N  -3.02000 35.32800 28.74600
C  -3.65800 34.42800 29.56300
C  -3.53900 34.73000 31.08400
C  -2.79800 36.15000 30.91000
C  -2.48400 36.30600 29.43000
C  -3.45800 37.47600 31.54100
C  -2.86500 33.63900 31.99700
C  -3.66500 33.29400 33.30700
H  -2.76100 33.15100 34.55000
N  -1.35200 36.96700 26.59400
C  -1.10500 37.66900 27.75300
C  -0.22600 38.74500 27.36900
C  0.08900 38.67200 26.00000
C  -0.64500 37.52100 25.54100
C  0.08900 39.75500 28.49500
C  0.92800 39.54100 25.21100
O  1.13600 39.31600 24.02300
C  1.60700 40.80500 25.84600
N  -2.43700 35.24900 24.53000
C  -1.59400 35.95100 23.77900
C  -1.61200 35.57000 22.30500
C  -2.63500 34.35700 22.27000
C  -3.16700 34.36700 23.74700
C  -1.98500 36.80300 21.36500
C  -1.74200 33.10500 21.82500
C  -0.95800 32.31000 22.83800
N  -3.94400 33.58600 26.51200
C  -4.45600 32.94700 25.39900
C  -5.32200 31.90600 25.85200
C  -5.31700 31.91100 27.26300
C  -4.41100 32.96900 27.60200
C  -6.09000 30.94800 25.03100
C  -5.81700 31.37300 28.51200
O  -6.50400 30.40800 28.80300
C  -5.16500 32.30000 29.68100
C  -6.30300 32.93900 30.34800
O  -7.15300 33.67100 29.86400
O  -6.51500 32.38200 31.61400
C  -7.76500 32.61100 32.33400
H  -1.53700 38.07800 29.74000
H  -0.29100 37.50900 23.44400
H  -4.48600 32.73600 23.30800
H  -4.55900 34.94100 31.40500
H  -1.86600 36.03700 31.46500
H  -4.49800 37.31600 31.82500
H  -3.42100 38.33300 30.86800
H  -2.78700 37.80300 32.33500
H  -1.79500 33.82600 32.08100
H  -2.88600 32.69100 31.46100
H  -4.20400 32.35400 33.18000
H  -4.37600 34.11200 33.41700
H  0.29200 39.25400 29.44100
H  -0.81400 40.26700 28.82500
H  0.82500 40.53900 28.31200
H  1.06700 41.46600 26.52300
H  1.89400 41.40800 24.98400
H  2.43400 40.34600 26.38800
H  -0.58400 35.32700 22.03600
H  -3.46500 34.63400 21.61900
H  -2.34000 37.62200 21.99100
H  -2.86200 36.61600 20.74500
H  -1.11400 36.99900 20.74000
H  -1.06600 33.31300 20.99600
H  -2.42300 32.38400 21.37200
H  -1.06300 32.66300 23.86400
H  0.07300 32.37400 22.49200
H  -1.29100 31.27200 22.82800
H  -5.92200 29.98600 25.51400
H  -5.75000 30.97100 23.99600
H  -7.16600 31.08400 25.14100
H  -4.66300 31.66800 30.41300
H  -8.06000 31.72100 32.89100
H  -8.56200 32.98000 31.68900
H  -7.63000 33.37900 33.09500

