158

Mg 26.24900 -0.09300 29.40300
C  28.12900 -0.61500 32.30800
C  23.51500 0.18700 31.31800
C  24.55400 0.06400 26.58300
C  29.20100 -0.88400 27.53300
N  25.85300 -0.47400 31.59700
C  26.84000 -0.35100 32.60400
C  26.23400 -0.23400 33.91400
C  24.70100 -0.04800 33.59000
C  24.63700 -0.08300 32.08300
C  23.68800 -1.04800 34.33400
C  26.96200 0.66400 34.97300
C  26.26500 1.04700 36.26500
H  26.57600 0.23500 37.51400
N  24.24300 0.10700 29.01400
C  23.28300 0.18300 29.93600
C  22.05600 0.45800 29.25800
C  22.24900 0.29300 27.84500
C  23.71000 0.12300 27.68300
C  20.76200 0.75200 30.06300
C  21.27800 0.24900 26.67100
O  21.52900 0.03300 25.49200
C  19.96700 0.56300 27.04600
N  26.82600 -0.35200 27.34400
C  25.89300 -0.18400 26.34100
C  26.52900 -0.16100 24.91200
C  28.05500 -0.18900 25.31300
C  28.07000 -0.49100 26.83000
C  26.11900 -1.30700 23.96600
C  28.93100 0.96500 24.97200
C  30.41700 0.73000 24.80700
N  28.33000 -0.66800 29.79400
C  29.35700 -0.98500 28.92700
C  30.51200 -1.28000 29.66200
C  30.10700 -1.04900 30.97200
C  28.75100 -0.71700 31.04800
C  31.77700 -1.74900 29.14500
C  30.57700 -1.11500 32.35500
O  31.73400 -1.30800 32.77800
C  29.32000 -0.77300 33.25100
C  29.21300 -1.83000 34.26900
O  28.60900 -2.91300 34.04000
O  29.83400 -1.51800 35.48200
C  29.75000 -2.49200 36.53500
H  22.62900 0.35300 31.93400
H  24.02000 0.09400 25.63000
H  30.05600 -0.93500 26.85500
H  26.35200 -1.21500 34.37300
H  24.31000 0.93600 33.84800
H  22.92100 -1.37500 33.63200
H  23.25800 -0.52100 35.18600
H  24.17400 -1.86600 34.86600
H  27.41300 1.58300 34.59900
H  27.87100 0.14400 35.27700
H  25.18100 1.11300 36.16600
H  26.48700 2.10300 36.41900
H  20.25500 1.55800 29.53200
H  21.04300 1.14700 31.03900
H  20.03500 -0.05800 30.12200
H  19.36500 0.53700 26.13800
H  19.87000 1.62000 27.29400
H  19.50400 -0.08100 27.79300
H  26.27800 0.81300 24.49000
H  28.52600 -1.08100 24.90000
H  25.41400 -1.95700 24.48500
H  26.95900 -1.83400 23.51400
H  25.49900 -0.93900 23.14900
H  28.95400 1.77400 25.70200
H  28.65700 1.51200 24.06900
H  30.62800 1.13000 23.81600
H  30.67100 -0.33000 24.76500
H  31.04200 1.15300 25.59300
H  32.26200 -2.17200 30.02400
H  32.42800 -1.09800 28.56100
H  31.43500 -2.53400 28.47000
H  29.60200 0.17300 33.71500
H  29.79200 -3.52400 36.18400
H  28.74900 -2.38400 36.95400
H  30.44500 -2.45700 37.37400
Mg -10.76800 39.74000 42.76500
C  -9.00800 36.92000 41.63400
C  -8.55600 41.59000 40.95300
C  -12.90100 42.35700 43.16200
C  -13.37600 37.60800 43.91000
N  -9.01000 39.19900 41.29000
C  -8.40800 38.01900 41.08500
C  -7.08100 38.08600 40.18900
C  -6.83400 39.67200 40.28500
C  -8.19800 40.22400 40.83400
C  -5.63000 40.07800 41.12900
C  -7.32200 37.55200 38.74400
C  -6.54200 36.33800 38.23800
H  -5.94400 36.52100 36.90000
N  -10.73300 41.70400 42.19000
C  -9.79500 42.23600 41.40700
C  -10.05100 43.70600 41.23900
C  -11.15100 43.98500 42.05900
C  -11.66400 42.65400 42.52400
C  -9.26900 44.57500 40.39600
C  -11.60900 45.40100 42.32300
O  -11.06300 46.38900 41.86600
C  -12.91000 45.68500 43.11500
N  -12.83200 39.93500 43.56100
C  -13.51000 41.15200 43.60900
C  -14.90700 40.95100 44.20400
C  -15.07600 39.40100 44.29000
C  -13.66200 38.95200 43.86200
C  -15.10300 41.77700 45.50800
C  -16.26000 38.83800 43.37300
C  -17.05100 37.62900 43.92700
N  -11.05100 37.71400 42.93600
C  -12.15200 36.98700 43.46400
C  -11.83800 35.55900 43.42000
C  -10.59500 35.49600 42.65700
C  -10.11800 36.82700 42.43300
C  -12.72200 34.42100 43.91500
C  -9.63500 34.63300 42.12300
O  -9.60800 33.38400 42.10600
C  -8.58000 35.53600 41.44400
C  -7.24100 35.21900 41.87200
O  -6.88900 35.29300 43.04500
O  -6.66700 34.51000 40.86900
C  -5.37300 33.85800 41.08000
H  -7.79000 42.27600 40.58600
H  -13.51500 43.26000 43.15700
H  -14.19900 36.91100 44.08000
H  -6.29000 37.47800 40.62800
H  -6.65800 40.12400 39.30900
H  -4.88500 40.59500 40.52500
H  -5.14000 39.29300 41.70500
H  -5.95900 40.92000 41.73800
H  -7.42400 38.39200 38.05700
H  -8.34600 37.18300 38.69600
H  -7.21300 35.49500 38.07400
H  -5.68000 36.23600 38.89700
H  -8.74200 43.90600 39.71600
H  -8.54800 45.02500 41.07800
H  -9.89100 45.32800 39.91000
H  -12.87400 45.19400 44.08700
H  -13.78500 45.38500 42.53800
H  -13.06000 46.75100 43.28600
H  -15.70000 41.46300 43.66000
H  -15.27100 39.06400 45.30900
H  -14.13300 42.10700 45.87700
H  -15.63500 41.14000 46.21600
H  -15.68100 42.65500 45.22100
H  -15.82200 38.57300 42.41000
H  -16.87100 39.65700 42.99200
H  -18.01300 37.86400 44.38300
H  -16.44500 36.99900 44.57800
H  -17.17700 37.01700 43.03400
H  -12.23300 33.44900 43.86300
H  -13.65100 34.39200 43.34500
H  -13.06100 34.49900 44.94900
H  -8.67500 35.27600 40.39000
H  -4.67300 34.41000 41.70500
H  -4.87800 33.86100 40.10900
H  -5.55200 32.93700 41.63500

