158

Mg 35.88200 49.83900 25.36300
C  35.40300 48.04500 28.36800
C  34.27600 52.55100 26.87700
C  35.85300 51.21900 22.41800
C  36.61500 46.75900 23.84900
N  34.85300 50.23500 27.36900
C  35.02400 49.36700 28.42500
C  34.49700 50.08100 29.72700
C  34.15200 51.56200 29.22200
C  34.46100 51.46500 27.71300
C  32.63900 52.04000 29.57200
C  35.56900 50.06900 30.93900
C  35.11600 49.36700 32.26400
H  33.62700 49.60200 32.58700
N  35.26100 51.58600 24.73700
C  34.56500 52.60300 25.51800
C  34.46700 53.83500 24.63300
C  34.85900 53.43600 23.33800
C  35.37200 52.03700 23.42200
C  33.96100 55.21500 25.13100
C  34.79500 54.18300 21.96200
O  35.12900 53.80600 20.85100
C  34.10900 55.56900 22.01100
N  36.27500 49.09500 23.45300
C  36.31900 49.92900 22.35400
C  36.80000 49.19900 21.04600
C  37.03200 47.77900 21.51600
C  36.60200 47.83500 23.01500
C  35.76600 49.25300 19.90000
C  38.47400 47.38700 21.36700
C  39.48200 48.20800 22.34400
N  36.05600 47.79300 25.89700
C  36.30700 46.69600 25.20100
C  36.34800 45.51500 26.05200
C  36.03000 46.02400 27.31800
C  35.81200 47.41900 27.15800
C  36.65000 44.15500 25.73600
C  35.84300 45.64300 28.68500
O  35.94200 44.53600 29.21300
C  35.30800 46.95500 29.43500
C  33.93400 46.60800 29.76200
O  33.05400 46.77200 28.89200
O  33.80800 46.06900 31.01500
C  32.44900 45.52600 31.32800
H  33.78100 53.38700 27.37400
H  35.76100 51.63800 21.41400
H  36.82300 45.81200 23.34600
H  33.57600 49.58300 30.03000
H  34.82700 52.34900 29.55800
H  32.02300 51.30600 30.09100
H  32.23100 52.25000 28.58400
H  32.64400 52.97200 30.13800
H  35.86400 51.08400 31.20600
H  36.50300 49.59600 30.63700
H  35.62700 49.83400 33.10600
H  35.31100 48.29500 32.23500
H  34.23200 56.07700 24.52100
H  34.38300 55.33800 26.12800
H  32.88300 55.06700 25.07600
H  34.80900 56.28400 22.44200
H  33.13200 55.59400 22.49300
H  33.84800 55.85000 20.99000
H  37.70300 49.66300 20.64900
H  36.47200 46.99800 21.00200
H  34.94800 49.95200 20.08000
H  35.34700 48.29200 19.60300
H  36.34100 49.65000 19.06400
H  38.76400 47.65500 20.35100
H  38.46700 46.31200 21.54900
H  40.11400 47.51500 22.90000
H  38.95100 48.87400 23.02500
H  40.17500 48.84400 21.79400
H  37.36000 43.70200 26.42700
H  37.12000 44.19200 24.75300
H  35.69400 43.63200 25.76500
H  35.87900 47.15800 30.34000
H  32.39600 44.50600 30.94800
H  31.62400 46.02300 30.81800
H  32.17200 45.64400 32.37500
Mg 6.47600 57.00700 41.62800
C  6.03400 53.36500 41.83800
C  9.58600 56.22300 40.28100
C  6.83400 60.14800 40.98000
C  3.28000 57.18300 42.80000
N  7.60400 54.95100 40.97600
C  7.22000 53.66300 41.11100
C  8.32300 52.68600 40.65700
C  9.59700 53.62200 40.52700
C  8.93800 55.04800 40.64000
C  10.77100 53.46300 41.61200
C  7.82500 52.02900 39.27900
C  8.04300 50.51600 39.04300
H  7.70700 49.89900 37.64500
N  7.96000 58.00100 40.65100
C  9.18500 57.59100 40.25700
C  9.92100 58.73200 39.60100
C  9.10100 59.92400 39.70600
C  7.89100 59.42100 40.48400
C  11.30100 58.56400 39.11000
C  9.36900 61.29200 39.16600
O  10.31500 61.49200 38.39400
C  8.47700 62.48600 39.48600
N  5.19000 58.43500 41.61000
C  5.63200 59.73900 41.58900
C  4.59500 60.69500 42.22500
C  3.36700 59.75900 42.64800
C  3.95600 58.34200 42.34000
C  5.35300 61.56400 43.30900
C  1.99500 60.05700 41.89900
C  1.79900 61.47600 41.18900
N  5.01000 55.60000 42.36100
C  3.72400 55.88200 42.79100
C  3.12700 54.70500 43.34900
C  3.99100 53.67800 43.00300
C  5.13500 54.29700 42.38200
C  1.84400 54.65700 44.12900
C  4.14000 52.23500 43.05200
O  3.41200 51.36200 43.47900
C  5.44500 51.92500 42.14800
C  5.01300 51.09500 40.99500
O  4.23400 51.48200 40.12100
O  5.43900 49.79300 41.16100
C  4.88100 48.81300 40.22000
H  10.64200 56.16400 40.01000
H  6.75900 61.22500 40.81500
H  2.35600 57.25000 43.37800
H  8.46700 51.88900 41.38700
H  10.04500 53.61200 39.53300
H  10.67200 52.59400 42.26300
H  10.87600 54.37700 42.19700
H  11.75500 53.43200 41.14300
H  8.48400 52.45100 38.52000
H  6.80700 52.38900 39.12900
H  7.50400 50.03800 39.86000
H  9.08700 50.23900 39.18800
H  11.97100 58.04000 39.79100
H  11.62900 59.58300 38.90300
H  11.40700 58.09200 38.13300
H  8.35100 62.46900 40.56800
H  7.53600 62.55800 38.94100
H  8.98600 63.41200 39.22000
H  4.25400 61.42800 41.49400
H  3.24200 59.85200 43.72600
H  6.41100 61.30700 43.26500
H  5.02400 61.26400 44.30400
H  5.17500 62.62800 43.14800
H  1.17100 59.92200 42.60000
H  1.93400 59.28600 41.13100
H  2.43700 61.69500 40.33300
H  1.80000 62.33300 41.86200
H  0.77400 61.30900 40.85800
H  1.18000 55.50800 43.97200
H  2.12900 54.68000 45.18000
H  1.35600 53.69100 43.99400
H  6.22700 51.36900 42.66400
H  4.04000 49.10900 39.59300
H  4.60500 48.00900 40.90100
H  5.60500 48.46900 39.48100

