158

Mg 17.54700 -0.97200 26.68600
C  16.70400 1.18200 29.41100
C  19.56100 -2.63100 28.86700
C  18.44800 -2.95600 24.14000
C  15.91800 1.24700 24.54200
N  17.92600 -0.79200 28.88900
C  17.51700 0.12400 29.78200
C  18.00000 -0.13000 31.21600
C  19.16000 -1.15700 30.92500
C  18.90300 -1.59000 29.46400
C  20.58800 -0.57500 31.09500
C  16.89900 -0.69900 32.13200
C  16.78000 -0.03200 33.47000
H  17.91200 0.68700 34.15900
N  18.78700 -2.65600 26.52300
C  19.43400 -3.18500 27.55000
C  20.16200 -4.42600 27.12400
C  19.95900 -4.43200 25.68600
C  18.99500 -3.32600 25.39000
C  20.89300 -5.37300 28.02300
C  20.45100 -5.51700 24.68600
O  20.23800 -5.44700 23.47700
C  21.20100 -6.68300 25.25300
N  17.32100 -0.78000 24.63200
C  17.69600 -1.81200 23.75600
C  17.42400 -1.42900 22.33100
C  16.36200 -0.34200 22.53200
C  16.60200 0.21900 24.00700
C  18.87800 -0.98900 21.75100
C  14.87700 -0.64800 22.24900
C  14.13900 -1.42300 23.42000
N  16.57600 0.90400 26.86000
C  15.85900 1.53200 25.91800
C  15.06100 2.54000 26.52500
C  15.37000 2.48900 27.89000
C  16.32700 1.50000 28.02200
C  14.27000 3.59400 25.77800
C  15.07500 3.08000 29.18600
O  14.32100 4.01200 29.50700
C  15.91400 2.27000 30.24800
C  16.77800 3.12900 31.07000
O  17.84400 3.58000 30.69100
O  16.23900 3.34000 32.30400
C  16.89600 4.44700 33.00000
H  20.17500 -3.30400 29.47000
H  18.72100 -3.53100 23.25200
H  15.29600 1.81500 23.84700
H  18.34400 0.75300 31.75500
H  19.03200 -2.00900 31.59300
H  20.53500 0.34300 31.67900
H  21.20200 -0.42600 30.20700
H  21.06800 -1.28000 31.77400
H  17.22900 -1.71300 32.35700
H  16.00500 -0.58200 31.52000
H  16.52800 -0.87600 34.11300
H  15.87700 0.57600 33.42500
H  21.92400 -5.45800 27.68100
H  20.47900 -6.38100 27.98000
H  20.87900 -4.93000 29.01900
H  20.64500 -7.20300 26.03300
H  22.18200 -6.33100 25.57300
H  21.32600 -7.29800 24.36200
H  17.03700 -2.25800 21.73800
H  16.64200 0.43800 21.82400
H  18.87200 0.09500 21.63700
H  19.18300 -1.51500 20.84600
H  19.73700 -1.14400 22.40400
H  14.74600 -1.19800 21.31700
H  14.38400 0.28100 21.96300
H  14.59000 -1.20200 24.38700
H  14.10500 -2.47800 23.14600
H  13.10900 -1.06700 23.38600
H  14.85100 4.07500 24.99200
H  13.88400 4.29800 26.51600
H  13.32400 3.21600 25.38900
H  15.19100 1.77700 30.89800
H  16.63100 5.39100 32.52300
H  17.97700 4.44400 32.86200
H  16.58000 4.60500 34.03100
Mg 49.29200 44.51700 43.83300
C  46.07300 45.02400 42.70300
C  49.14700 41.25900 43.22100
C  52.66400 44.51000 44.20900
C  49.46200 48.16800 44.21900
N  47.75500 43.29800 43.07600
C  46.52000 43.67400 42.68500
C  45.76300 42.45700 42.18600
C  46.60800 41.22300 42.75600
C  47.97600 41.91300 43.04200
C  46.00600 40.62500 44.11300
C  45.66200 42.36700 40.66700
C  44.34800 42.04400 39.98200
H  43.68000 42.97800 38.95500
N  50.74600 43.09400 43.56100
C  50.50400 41.76200 43.38400
C  51.72100 41.06500 43.38100
C  52.77200 42.01500 43.52500
C  52.05300 43.27400 43.87200
C  51.83000 39.57000 43.20600
C  54.33100 41.74400 43.41900
O  54.54000 40.54700 43.24800
C  55.49300 42.77200 43.36900
N  50.81700 46.12000 44.25100
C  52.14700 45.75800 44.30500
C  53.12600 46.99700 44.41000
C  52.09200 48.15300 44.42300
C  50.64800 47.47600 44.24700
C  54.16600 46.99700 45.63700
C  52.34100 49.22600 43.29500
C  52.44600 50.67700 43.81400
N  48.00700 46.23700 43.51500
C  48.20800 47.62500 43.78000
C  47.02100 48.44500 43.39700
C  46.11300 47.41100 42.92400
C  46.79300 46.07700 43.10700
C  46.98500 50.01500 43.45500
C  44.78900 47.22400 42.35800
O  43.97800 48.00700 41.95800
C  44.73100 45.62500 42.24400
C  43.61000 45.06900 43.09400
O  43.63700 45.07800 44.33600
O  42.55700 44.62900 42.30000
C  41.33100 44.44900 43.06800
H  49.02400 40.17400 43.18700
H  53.68900 44.33600 44.54100
H  49.51500 49.25700 44.28500
H  44.76500 42.61200 42.59800
H  46.65400 40.49500 41.94600
H  45.59800 41.35600 44.81100
H  46.80300 40.14600 44.68200
H  45.32000 39.82500 43.83300
H  46.36500 41.62900 40.28000
H  45.86700 43.35600 40.25800
H  43.57900 41.89000 40.74000
H  44.39000 41.09700 39.44400
H  52.54100 39.34000 42.41200
H  50.91700 39.03200 42.95000
H  52.27900 39.17800 44.11900
H  55.18500 43.63800 42.78300
H  56.31100 42.23800 42.88800
H  55.80700 42.95400 44.39700
H  53.67600 47.02900 43.47000
H  52.19800 48.67700 45.37300
H  54.36600 46.03300 46.10400
H  53.77000 47.76600 46.30000
H  55.13500 47.32200 45.25800
H  51.53000 49.23400 42.56700
H  53.28800 48.91600 42.85500
H  52.23300 50.72400 44.88200
H  51.80400 51.37700 43.27900
H  53.46700 51.00300 43.61800
H  46.93700 50.30000 44.50600
H  46.05600 50.35600 42.99700
H  47.84500 50.44600 42.94200
H  44.45400 45.39000 41.21600
H  40.63800 44.26200 42.24800
H  41.01200 45.31700 43.64500
H  41.28300 43.51400 43.62700

