158

Mg 16.78300 -2.13800 27.29900
C  16.09600 -0.38100 30.25400
C  18.79400 -4.28000 29.24800
C  18.04400 -3.60300 24.49500
C  15.21500 0.22100 25.40300
N  17.41600 -2.24000 29.55800
C  16.95200 -1.48000 30.57400
C  17.46000 -1.92900 31.94100
C  18.49800 -3.09700 31.51100
C  18.20700 -3.24700 30.01600
C  20.05200 -2.72800 31.84900
C  16.29800 -2.42200 32.87000
C  16.21600 -1.89100 34.35100
H  17.40300 -1.06400 34.95100
N  18.02600 -3.82300 26.95700
C  18.73500 -4.57700 27.85400
C  19.31700 -5.77100 27.19600
C  19.04400 -5.59900 25.83400
C  18.33000 -4.32400 25.68800
C  20.07700 -6.80600 27.97300
C  19.50300 -6.48800 24.71000
O  19.12600 -6.24900 23.59600
C  20.43400 -7.69700 24.95000
N  16.71700 -1.73300 25.26800
C  17.34500 -2.42000 24.31300
C  17.16400 -1.83700 22.88700
C  16.15700 -0.62600 23.17600
C  15.94100 -0.72200 24.70500
C  18.49800 -1.43200 22.23700
C  14.83300 -0.76700 22.43700
C  14.71300 -0.06400 20.97800
N  15.77500 -0.50300 27.70900
C  15.10400 0.33700 26.82600
C  14.35900 1.27500 27.61800
C  14.68400 1.03700 28.97900
C  15.58900 -0.00900 28.97200
C  13.52100 2.42400 27.12900
C  14.48800 1.52500 30.33000
O  13.72800 2.41400 30.70000
C  15.45500 0.62400 31.30600
C  16.53000 1.57900 31.75600
O  17.66300 1.70200 31.23600
O  16.17400 2.24600 32.89400
C  17.06400 3.28500 33.44400
H  19.48000 -4.93300 29.79200
H  18.24400 -4.13300 23.56100
H  14.66600 1.02800 24.91300
H  17.99400 -1.05500 32.31500
H  18.15900 -4.07300 31.86000
H  20.59600 -2.42300 30.95500
H  20.60300 -3.55000 32.30500
H  20.09500 -1.93200 32.59300
H  16.31700 -3.51200 32.87100
H  15.36300 -2.03000 32.46900
H  16.04000 -2.75800 34.98800
H  15.30200 -1.31200 34.47800
H  19.81900 -7.75500 27.50300
H  19.77700 -6.93000 29.01400
H  21.13800 -6.57500 27.89100
H  21.28800 -7.45600 25.58400
H  20.89200 -8.02000 24.01500
H  19.79300 -8.48400 25.34600
H  16.75900 -2.63600 22.26600
H  16.57700 0.33900 22.88900
H  18.45800 -0.37000 21.99500
H  18.80500 -2.02000 21.37200
H  19.30400 -1.61000 22.94900
H  13.95900 -0.48900 23.02700
H  14.76100 -1.84800 22.32300
H  14.51900 -0.89100 20.29500
H  15.64800 0.32800 20.57900
H  13.99900 0.74600 20.83200
H  12.54000 2.16900 27.53000
H  13.56100 2.26000 26.05300
H  13.95500 3.38800 27.39400
H  14.83600 0.18600 32.08900
H  18.06000 3.13900 33.02600
H  17.03200 3.19200 34.53000
H  16.72800 4.26300 33.09900
Mg -4.83700 25.27200 26.21600
C  -2.99900 27.17200 28.37900
C  -5.61100 23.13100 28.90400
C  -6.64500 23.36500 24.07000
C  -3.55600 27.20600 23.52000
N  -4.58100 25.31200 28.40700
C  -3.80800 26.20900 29.07200
C  -3.85700 25.96100 30.59300
C  -4.51100 24.55100 30.71700
C  -4.88100 24.25400 29.24300
C  -3.60900 23.45700 31.35100
C  -4.72600 27.15700 31.23000
C  -4.58900 27.63700 32.68900
H  -4.11700 26.62000 33.67000
N  -5.90400 23.50700 26.47400
C  -6.15600 22.81400 27.64300
C  -6.94200 21.63100 27.34500
C  -7.44100 21.81200 26.00400
C  -6.65400 22.91500 25.46500
C  -7.37400 20.64000 28.42900
C  -8.48100 21.05100 25.26300
O  -8.91600 21.38200 24.14800
C  -9.16600 19.81600 25.90300
N  -5.10600 25.35400 24.10100
C  -5.88900 24.40600 23.48800
C  -5.78800 24.56400 22.02300
C  -4.91500 25.84900 21.81200
C  -4.44900 26.17700 23.25000
C  -5.25700 23.27600 21.31200
C  -5.59800 27.16800 21.30500
C  -4.76000 27.93700 20.30100
N  -3.48700 26.87300 25.91400
C  -3.07300 27.51100 24.80900
C  -1.98600 28.39200 25.25200
C  -1.92900 28.30900 26.60700
C  -2.82400 27.33500 26.99700
C  -1.24400 29.36600 24.35500
C  -1.37200 28.80700 27.81700
O  -0.55100 29.67300 27.95200
C  -2.02900 28.14200 28.97700
C  -1.03600 27.50100 29.81700
O  -0.05400 26.87600 29.36300
O  -1.32300 27.67600 31.16500
C  -0.21500 27.07500 31.96000
H  -5.73500 22.35200 29.65900
H  -7.15300 22.71700 23.35300
H  -3.19400 27.63500 22.58300
H  -2.84000 25.84100 30.96800
H  -5.44600 24.48800 31.27400
H  -3.93600 23.10800 32.33100
H  -2.59700 23.81400 31.54000
H  -3.63900 22.67600 30.59100
H  -5.78300 26.94800 31.06700
H  -4.30800 28.00300 30.68400
H  -5.60900 27.97100 32.88000
H  -3.83100 28.41500 32.60400
H  -7.26100 19.71900 27.85800
H  -8.40700 20.90900 28.65100
H  -6.86500 20.67900 29.39200
H  -9.50300 19.95900 26.93000
H  -8.38800 19.06500 25.76500
H  -10.04900 19.60300 25.30100
H  -6.79400 24.76300 21.65300
H  -4.03800 25.60700 21.21200
H  -4.82200 22.62600 22.07100
H  -4.44900 23.51600 20.62100
H  -6.05000 22.70300 20.83100
H  -5.74200 27.96500 22.03400
H  -6.48100 26.91400 20.71900
H  -4.65800 28.99400 20.54700
H  -5.45400 27.96600 19.46100
H  -3.80800 27.49600 20.00600
H  -1.67400 29.47700 23.35900
H  -0.18400 29.12700 24.27600
H  -1.28200 30.39900 24.70000
H  -2.43200 28.93100 29.61200
H  0.72300 27.47500 31.57600
H  -0.24600 25.98900 31.87700
H  -0.25300 27.46200 32.97900

