158

Mg 35.68000 49.45000 25.18600
C  35.66800 48.06800 28.32800
C  34.70600 52.53500 26.68000
C  35.15700 50.75500 22.19400
C  35.84600 46.27700 23.81900
N  35.09400 50.16800 27.28900
C  35.32500 49.39800 28.40400
C  35.24300 50.27200 29.65100
C  34.73200 51.65000 29.12100
C  34.86000 51.46700 27.59400
C  33.37700 52.22200 29.67600
C  36.63300 50.33000 30.39100
C  36.64700 50.01100 31.90100
H  35.52600 50.52700 32.82800
N  35.30500 51.46700 24.51100
C  34.93000 52.56900 25.29600
C  34.70000 53.73600 24.45200
C  34.75700 53.20100 23.07700
C  35.13800 51.75800 23.16100
C  34.44000 55.23900 24.94000
C  34.39500 53.86900 21.79300
O  34.45800 53.31900 20.66600
C  33.85300 55.17100 21.76400
N  35.45400 48.56600 23.19400
C  35.40500 49.34600 22.15200
C  35.53200 48.58100 20.81600
C  35.91900 47.17600 21.40700
C  35.75500 47.30300 22.87500
C  34.20200 48.58400 20.00000
C  37.33400 46.71900 20.95500
C  38.52100 47.26200 21.69700
N  35.66000 47.54700 25.87800
C  35.82700 46.34700 25.19200
C  36.09100 45.31900 26.17700
C  35.95400 45.90000 27.42800
C  35.72900 47.25000 27.18500
C  36.48700 43.89300 25.83500
C  36.10700 45.64900 28.76800
O  36.28300 44.55300 29.39500
C  35.98900 47.09100 29.45300
C  34.76500 46.88300 30.30400
O  33.57600 47.04800 29.92400
O  35.14500 46.32900 31.53700
C  34.01400 45.79800 32.35800
H  34.40300 53.53400 27.00000
H  34.96400 51.14000 21.19100
H  36.10200 45.35900 23.28700
H  34.50200 49.82800 30.31600
H  35.46100 52.43000 29.34200
H  32.56100 51.65400 29.23000
H  33.38200 53.26500 29.35800
H  33.33900 52.06200 30.75400
H  36.99700 51.35500 30.31600
H  37.36300 49.59400 30.05300
H  37.62400 50.36100 32.23500
H  36.41300 48.95200 32.00800
H  34.95800 55.41400 25.88300
H  33.36700 55.37600 25.07200
H  34.93400 55.94500 24.27300
H  33.38500 55.17800 20.78000
H  34.59700 55.95900 21.88300
H  33.01700 55.29300 22.45300
H  36.47500 48.93300 20.39800
H  35.33300 46.28100 21.20200
H  33.39900 49.00200 20.60900
H  33.90000 47.57700 19.71400
H  34.17200 49.32000 19.19700
H  37.53700 46.90300 19.90000
H  37.40100 45.63200 20.99500
H  39.22400 47.79600 21.05800
H  38.98300 46.35800 22.09200
H  38.20500 47.83900 22.56700
H  35.63200 43.22500 25.94800
H  37.40100 43.59500 26.34900
H  36.81000 43.70000 24.81200
H  36.81200 47.32400 30.12800
H  33.30200 46.58200 32.61400
H  34.34600 45.13300 33.15500
H  33.49100 45.15800 31.64800
Mg 9.41100 47.96800 27.55300
C  7.11100 47.74800 30.27800
C  11.87300 48.27200 29.67800
C  11.40300 48.48700 24.77300
C  6.56200 48.02400 25.31200
N  9.38500 47.95100 29.77500
C  8.43500 47.84300 30.73000
C  8.96400 48.00500 32.18400
C  10.51300 48.27500 31.93200
C  10.65000 48.08100 30.36500
C  11.08800 49.60300 32.58900
C  8.53600 46.87800 33.15400
C  9.63500 46.28000 34.05000
H  9.07300 45.80500 35.39800
N  11.40300 48.22800 27.28600
C  12.27400 48.23100 28.29900
C  13.59000 48.42300 27.84100
C  13.50700 48.50600 26.43200
C  12.06000 48.34300 26.03800
C  14.88200 48.41900 28.74000
C  14.64300 48.54300 25.42300
O  14.41100 48.50700 24.18600
C  16.09600 48.47300 25.87000
N  9.06100 48.16200 25.38600
C  10.06600 48.34000 24.45900
C  9.55700 48.54300 23.02100
C  8.04500 48.32900 23.22800
C  7.85300 48.16700 24.72200
C  10.00000 49.92100 22.41200
C  7.24800 47.14200 22.52000
C  5.94400 47.45500 21.76800
N  7.29600 47.91200 27.66100
C  6.29600 47.97200 26.69200
C  5.02300 47.84600 27.34800
C  5.28900 47.69700 28.70600
C  6.68000 47.76300 28.85200
C  3.66600 47.71800 26.69200
C  4.68700 47.62600 29.97700
O  3.49300 47.42700 30.27000
C  5.84100 47.70100 31.07300
C  5.70100 46.40600 31.70900
O  5.93900 45.35500 31.19600
O  5.36900 46.50300 33.04600
C  5.24200 45.15600 33.74400
H  12.68800 48.62700 30.31100
H  12.03700 48.81000 23.94500
H  5.77500 47.96800 24.55600
H  8.46800 48.89100 32.58100
H  11.14000 47.48900 32.35400
H  12.10100 49.35200 32.90700
H  10.41900 50.00100 33.35200
H  11.19000 50.30400 31.76100
H  8.16500 46.01400 32.60200
H  7.63400 47.23100 33.65200
H  10.29600 47.11800 34.27100
H  10.17000 45.43400 33.61900
H  14.68700 48.46400 29.81100
H  15.44400 49.32700 28.52200
H  15.57400 47.60800 28.51400
H  16.20500 47.44200 26.20700
H  16.15900 49.28600 26.59300
H  16.84400 48.50200 25.07800
H  9.97400 47.79000 22.35200
H  7.55700 49.29000 23.06700
H  10.80400 50.45600 22.91700
H  9.13700 50.58300 22.32900
H  10.32500 49.66600 21.40400
H  7.01700 46.40100 23.28600
H  7.88600 46.62000 21.80700
H  5.76900 48.52900 21.83500
H  5.12900 46.88500 22.21200
H  5.93600 47.18600 20.71100
H  3.91000 47.54400 25.64400
H  3.14600 48.67200 26.77200
H  3.13900 46.93600 27.24000
H  5.71900 48.58100 31.70400
H  4.89200 45.21100 34.77500
H  6.18400 44.63500 33.57200
H  4.44600 44.56800 33.28700

