158

Mg 8.81900 3.73000 27.52100
C  10.13800 2.23100 30.37800
C  6.72600 5.53700 29.55200
C  7.32300 5.07100 24.69400
C  10.53600 1.47400 25.50600
N  8.39500 3.68700 29.69300
C  9.14600 3.20400 30.67500
C  8.62800 3.67500 32.09200
C  7.45600 4.63100 31.76500
C  7.50100 4.58400 30.23900
C  5.99000 4.29600 32.24400
C  9.74600 4.19800 33.06300
C  9.18800 5.00000 34.29900
H  9.85900 4.70200 35.63300
N  7.21200 5.09700 27.10200
C  6.52200 5.78900 28.08000
C  5.73300 6.83900 27.46500
C  6.01800 6.81300 26.07500
C  6.88100 5.61800 25.90800
C  4.86800 7.76100 28.25100
C  5.51700 7.66100 25.02200
O  5.83200 7.44300 23.87500
C  4.69400 8.87300 25.29500
N  8.87100 3.29500 25.40600
C  8.16800 3.96900 24.46700
C  8.41600 3.47700 22.99100
C  9.47800 2.37200 23.25800
C  9.73900 2.41400 24.76000
C  6.96900 3.10100 22.43700
C  10.85200 2.62000 22.46800
C  11.39900 1.39100 21.77000
N  9.97800 2.16800 27.80200
C  10.60200 1.27200 26.90700
C  11.43900 0.34500 27.65500
C  11.31900 0.71900 28.98800
C  10.42000 1.83000 29.07500
C  12.15300 -0.84900 27.09600
C  11.81000 0.43400 30.33500
O  12.53400 -0.40000 30.71200
C  11.06000 1.45000 31.28100
C  10.21300 0.65700 32.24100
O  9.33300 -0.15800 31.91600
O  10.71900 0.85500 33.54600
C  9.76000 0.42500 34.59400
H  6.10300 6.21300 30.14000
H  6.91500 5.46200 23.75900
H  11.17100 0.80900 24.91600
H  8.16900 2.89200 32.69500
H  7.66800 5.65400 32.07700
H  5.81900 3.30700 31.82000
H  5.33600 5.08300 31.86900
H  5.80300 4.32800 33.31700
H  10.34100 4.68000 32.28700
H  10.32000 3.38800 33.51400
H  8.10600 4.90600 34.39400
H  9.39800 6.05800 34.14300
H  3.80600 7.53700 28.15100
H  5.03400 8.79700 27.95400
H  5.10100 7.69800 29.31400
H  3.89700 8.59600 25.98400
H  4.38500 9.26600 24.32600
H  5.46300 9.48700 25.76500
H  8.87400 4.29300 22.43100
H  9.05900 1.45800 22.83700
H  6.77900 2.03400 22.32300
H  6.70100 3.69800 21.56600
H  6.20800 3.35700 23.17400
H  11.63200 2.98300 23.13800
H  10.75300 3.47200 21.79600
H  11.22900 1.53500 20.70300
H  11.04100 0.46500 22.22000
H  12.46900 1.46700 21.95900
H  12.28500 -1.53500 27.93300
H  13.09200 -0.65900 26.57700
H  11.58300 -1.34200 26.30900
H  11.67600 2.09700 31.90600
H  8.77100 0.13600 34.24000
H  9.63800 1.20300 35.34700
H  10.15400 -0.41300 35.16900
Mg 43.51900 3.98400 47.64300
C  41.50100 6.82500 47.09900
C  40.71800 2.03900 47.35200
C  45.62400 1.39400 47.51200
C  46.41500 6.22000 47.76600
N  41.47500 4.41300 47.23500
C  40.78800 5.62000 47.30600
C  39.26900 5.42500 47.35700
C  39.14000 3.88700 47.59000
C  40.59300 3.40000 47.32400
C  38.51500 3.50100 48.97200
C  38.46700 5.98700 46.04200
C  38.83900 5.36800 44.63000
H  39.33500 6.24200 43.47400
N  43.24000 1.94300 47.53100
C  41.98700 1.31500 47.40500
C  42.23500 -0.11600 47.27500
C  43.62100 -0.27700 47.28400
C  44.24700 1.07800 47.51500
C  41.25200 -1.22100 47.27600
C  44.32100 -1.66300 47.14000
O  43.62300 -2.62300 46.85300
C  45.75400 -1.88100 47.31400
N  45.75900 3.85200 47.58900
C  46.29200 2.61800 47.62800
C  47.83200 2.71600 47.83300
C  48.08400 4.23600 47.94000
C  46.68400 4.81100 47.77000
C  48.30100 1.87800 49.01900
C  49.09800 4.81100 46.94400
C  50.53900 4.36000 47.05000
N  43.92800 6.15600 47.53800
C  45.12300 6.84800 47.54600
C  44.75900 8.27500 47.48500
C  43.33500 8.31300 47.30900
C  42.88500 6.97300 47.25600
C  45.80600 9.39500 47.63500
C  42.13500 9.11100 47.23000
O  41.91100 10.31100 47.20300
C  40.91200 8.20800 47.10700
C  39.95500 8.40400 48.29200
O  40.23600 8.14300 49.46500
O  38.77000 8.76300 47.84800
C  37.79200 8.95900 48.93300
H  39.76600 1.50500 47.31800
H  46.23800 0.53700 47.79700
H  47.35300 6.77600 47.70900
H  38.99900 5.93000 48.28400
H  38.54000 3.42700 46.80500
H  39.21400 2.97800 49.62500
H  37.65900 2.84200 48.82700
H  38.03600 4.36700 49.42700
H  38.65900 7.05100 45.90100
H  37.42000 5.81100 46.28900
H  38.03000 4.70400 44.32500
H  39.64200 4.63000 44.62700
H  41.41400 -2.05900 47.95400
H  41.17800 -1.61700 46.26300
H  40.28800 -0.71700 47.34700
H  45.97000 -1.46600 48.29800
H  46.36600 -1.35000 46.58500
H  45.82800 -2.96700 47.24500
H  48.33200 2.35800 46.93300
H  48.47900 4.43800 48.93500
H  48.58100 0.88300 48.67400
H  47.46700 1.82600 49.71900
H  49.20800 2.32900 49.42100
H  49.19400 5.89300 47.03300
H  48.82300 4.47300 45.94500
H  51.22000 5.21000 47.00900
H  50.70100 3.74600 46.16400
H  50.81800 3.75000 47.90900
H  45.30200 10.35300 47.50900
H  46.61600 9.32700 46.90900
H  46.34700 9.39600 48.58100
H  40.33000 8.43400 46.21300
H  36.91200 9.45000 48.51800
H  38.20500 9.61100 49.70300
H  37.50600 7.99200 49.34700

