158

Mg 7.78000 3.35400 28.07300
C  9.30000 1.79300 30.88200
C  6.27200 5.56200 30.16000
C  6.23800 4.60700 25.43700
C  8.93200 0.72300 26.15500
N  7.72300 3.52200 30.32700
C  8.59000 2.97200 31.21600
C  8.39400 3.67900 32.64600
C  7.27700 4.71300 32.42500
C  7.12200 4.63500 30.84800
C  5.91500 4.46400 33.12800
C  9.75600 4.29100 33.16100
C  10.27500 3.66900 34.45800
H  10.43800 4.51200 35.78300
N  6.47200 4.95200 27.79200
C  5.98500 5.73600 28.75600
C  5.25800 6.85300 28.12200
C  5.23900 6.57300 26.80400
C  5.94000 5.29200 26.58700
C  4.54100 8.05000 28.78000
C  4.70900 7.40800 25.56800
O  4.47300 6.89300 24.46800
C  4.39300 8.88600 25.78800
N  7.73700 2.86900 26.08000
C  7.08700 3.53700 25.14000
C  7.23700 2.89000 23.77400
C  8.17500 1.70600 23.99900
C  8.22000 1.70500 25.49600
C  5.96200 2.49500 23.07600
C  9.70000 1.78600 23.38600
C  10.35400 0.48100 22.99400
N  8.92800 1.62100 28.44300
C  9.35500 0.64700 27.47200
C  10.12600 -0.40000 28.13700
C  10.05500 0.00900 29.48000
C  9.35200 1.21300 29.61200
C  10.85100 -1.49700 27.52200
C  10.53000 -0.30300 30.80600
O  11.30800 -1.19100 31.15300
C  10.19500 0.85500 31.72700
C  9.46800 0.28600 32.91700
O  8.36600 -0.15700 33.05000
O  10.42100 0.37000 33.91200
C  10.03100 -0.05900 35.24900
H  5.96500 6.47100 30.68100
H  5.83700 5.01900 24.50900
H  9.32900 -0.08300 25.53500
H  8.01600 2.96600 33.37800
H  7.71300 5.68100 32.67000
H  5.12700 4.55400 32.37900
H  5.72000 5.27400 33.83000
H  5.84600 3.53000 33.68600
H  9.77100 5.37700 33.24200
H  10.53400 4.20800 32.40300
H  11.26500 3.24100 34.30100
H  9.66900 2.82500 34.78600
H  4.75500 8.00800 29.84800
H  3.51400 7.70600 28.65700
H  4.78100 9.06000 28.44800
H  5.16300 9.45600 26.30700
H  3.55100 8.93600 26.47700
H  4.15700 9.39900 24.85500
H  7.58300 3.67400 23.10100
H  7.81300 0.72900 23.67700
H  5.03400 2.63900 23.63100
H  5.91700 1.49400 22.64800
H  5.88400 3.20600 22.25400
H  10.38000 2.36300 24.01200
H  9.62700 2.46700 22.53900
H  10.73300 0.50300 21.97200
H  9.68300 -0.37300 23.08800
H  11.18200 0.26900 23.67000
H  10.67100 -1.58100 26.45000
H  10.65100 -2.47500 27.95800
H  11.91400 -1.30600 27.67200
H  10.93800 1.57300 32.07500
H  9.37000 0.70800 35.65200
H  10.99600 -0.11800 35.75200
H  9.68700 -1.09300 35.24500
Mg -12.67000 16.88700 42.06300
C  -9.74100 15.20500 41.49500
C  -11.63000 19.47400 40.22800
C  -15.89000 18.03900 42.21500
C  -14.03000 13.76900 43.32100
N  -10.91500 17.24700 40.87900
C  -9.79400 16.47100 40.88900
C  -8.63800 17.13600 40.09300
C  -9.10500 18.70300 40.02700
C  -10.68100 18.44500 40.28600
C  -8.56300 19.72000 41.05200
C  -8.25600 16.47700 38.73800
C  -6.72500 16.29700 38.46300
H  -6.03700 16.97500 37.31700
N  -13.64100 18.62900 41.45500
C  -13.01700 19.55900 40.68500
C  -13.93600 20.59600 40.55800
C  -15.18900 20.27900 41.15400
C  -14.96900 18.91500 41.61900
C  -13.50700 21.90200 39.81200
C  -16.43100 21.15800 41.20400
O  -16.44200 22.25600 40.73100
C  -17.68800 20.73500 42.00900
N  -14.69300 16.01000 42.69600
C  -15.74700 16.77300 42.76600
C  -16.97800 15.97600 43.24300
C  -16.43200 14.60300 43.50500
C  -14.98600 14.79400 43.17600
C  -17.67400 16.66100 44.50400
C  -16.99000 13.41800 42.64500
C  -16.99500 12.03800 43.24900
N  -11.96400 14.92300 42.47700
C  -12.64100 13.78600 42.89400
C  -11.68700 12.68900 43.01500
C  -10.46800 13.20700 42.54000
C  -10.76000 14.51000 42.10100
C  -11.99600 11.36400 43.63200
C  -9.06500 12.93100 42.22100
O  -8.33600 11.94900 42.30900
C  -8.55200 14.31600 41.61600
C  -7.50300 14.92200 42.53800
O  -7.78300 15.60800 43.49600
O  -6.24100 14.63100 42.11400
C  -5.10700 15.23600 42.79300
H  -11.27900 20.41700 39.80600
H  -16.89200 18.47100 42.22500
H  -14.43300 12.85700 43.76500
H  -7.74200 17.11600 40.71300
H  -8.99500 19.15500 39.04100
H  -7.72000 19.32600 41.62000
H  -9.34600 19.91300 41.78500
H  -8.11200 20.58900 40.57300
H  -8.86200 17.07300 38.05500
H  -8.72300 15.49200 38.76300
H  -6.51700 15.22700 38.47700
H  -6.16100 16.70800 39.30100
H  -13.57000 21.67500 38.74800
H  -12.53600 22.26000 40.15600
H  -14.25100 22.63300 40.12800
H  -17.44200 20.40100 43.01700
H  -18.13500 19.97400 41.36900
H  -18.32300 21.62200 42.02900
H  -17.77100 15.96400 42.49500
H  -16.46000 14.38300 44.57200
H  -17.43900 16.12300 45.42200
H  -18.73500 16.62300 44.25500
H  -17.30500 17.66300 44.71900
H  -16.43500 13.47700 41.70900
H  -18.00800 13.67600 42.35200
H  -16.39100 11.37000 42.63400
H  -17.98900 11.60100 43.35000
H  -16.49200 12.02600 44.21600
H  -12.38400 11.57000 44.62900
H  -11.00300 10.92500 43.72700
H  -12.63600 10.67900 43.07500
H  -8.11700 14.21600 40.62200
H  -4.52700 14.36000 43.08500
H  -5.35800 15.82000 43.67800
H  -4.59200 15.77500 41.99800

