158

Mg 1.39400 -0.30500 44.31100
C  4.78000 0.15700 43.65600
C  0.80100 2.52800 42.55800
C  -1.80100 -1.20900 44.31800
C  2.17900 -3.45000 45.69300
N  2.71300 1.13400 43.18100
C  4.02200 1.17500 43.11300
C  4.49600 2.52200 42.41700
C  3.17300 3.38500 42.41400
C  2.16600 2.28600 42.71400
C  3.16800 4.54800 43.40400
C  4.98400 2.19000 40.90900
C  6.44100 2.62400 40.57000
H  6.47600 3.53200 39.30200
N  -0.28800 0.49800 43.44000
C  -0.37300 1.73500 42.82300
C  -1.77700 2.00500 42.57200
C  -2.47400 0.79800 42.87700
C  -1.48900 -0.10700 43.56100
C  -2.30900 3.29800 42.05000
C  -3.89000 0.48500 42.48800
O  -4.65500 1.34100 42.04500
C  -4.33000 -0.92200 42.42700
N  0.29600 -1.99800 45.21200
C  -1.04200 -2.13600 45.04100
C  -1.59600 -3.53000 45.53000
C  -0.22400 -4.22200 45.92000
C  0.82800 -3.14600 45.67500
C  -2.66600 -3.35600 46.64900
C  0.13100 -5.60400 45.15100
C  0.34600 -6.75200 46.16600
N  3.11600 -1.37400 44.76800
C  3.30600 -2.66900 45.22700
C  4.72400 -2.99200 45.26400
C  5.34200 -1.87300 44.71600
C  4.32500 -0.97500 44.33800
C  5.22900 -4.28500 45.84500
C  6.65000 -1.38500 44.38200
O  7.80500 -1.85400 44.49200
C  6.32000 0.05600 43.79900
C  6.93800 1.12100 44.63600
O  6.32100 1.83100 45.41500
O  8.32200 1.14600 44.43000
C  8.98300 2.24900 45.16600
H  0.69900 3.54100 42.16400
H  -2.83600 -1.52400 44.47000
H  2.39100 -4.47500 46.00400
H  5.35200 2.94800 42.94000
H  2.94700 3.81800 41.44000
H  2.93400 5.45600 42.84900
H  4.13100 4.70600 43.89000
H  2.54500 4.53200 44.29800
H  4.33800 2.68900 40.18700
H  4.98200 1.13300 40.64500
H  7.03300 1.71800 40.43700
H  7.01300 3.15200 41.33400
H  -1.56100 4.05800 42.27500
H  -3.20100 3.50200 42.64300
H  -2.48400 3.23500 40.97600
H  -5.25400 -0.93300 41.84900
H  -4.50400 -1.17300 43.47400
H  -3.52200 -1.51400 41.99800
H  -2.17900 -4.03700 44.76100
H  -0.11500 -4.37800 46.99300
H  -2.34800 -3.91800 47.52700
H  -3.67400 -3.72200 46.45200
H  -2.78300 -2.36400 47.08500
H  1.04200 -5.64000 44.55400
H  -0.64400 -5.85200 44.42600
H  -0.34500 -6.60600 46.99600
H  1.39100 -6.84400 46.46200
H  -0.09200 -7.67700 45.79100
H  6.31400 -4.29700 45.94100
H  4.78400 -5.06600 45.22800
H  4.85800 -4.26400 46.87000
H  6.80700 0.12800 42.82600
H  8.85200 2.13100 46.24100
H  8.67100 3.23400 44.81700
H  10.04600 2.05900 45.01600
Mg 35.27100 0.92000 29.19000
C  33.35600 1.99900 31.93300
C  38.04200 1.08900 31.38700
C  37.25300 0.76800 26.55200
C  32.44700 1.22100 27.17300
N  35.65300 1.50900 31.41300
C  34.65900 1.80300 32.26500
C  35.28300 1.79500 33.64100
C  36.83300 1.69400 33.48000
C  36.79600 1.24000 32.00800
C  37.58800 3.00000 33.76600
C  34.60200 0.67100 34.48200
C  33.98800 1.01200 35.85000
H  34.64300 2.17200 36.64500
N  37.41600 0.87400 28.96500
C  38.35600 0.92600 29.98900
C  39.71300 0.85300 29.43500
C  39.44100 0.77300 27.99000
C  38.00600 0.84900 27.73500
C  41.04800 0.88000 30.23400
C  40.51800 0.42700 26.96900
O  40.21200 0.07500 25.83900
C  41.96800 0.39300 27.32700
N  34.88300 0.63000 27.22500
C  35.85700 0.69300 26.23800
C  35.26700 0.52900 24.83600
C  33.75500 0.54000 25.07400
C  33.66200 0.76200 26.60500
C  35.78200 1.48600 23.71000
C  32.90300 -0.76300 24.63300
C  32.82000 -0.99100 23.12600
N  33.31300 1.48400 29.41400
C  32.25500 1.55800 28.50300
C  31.05700 1.88000 29.17900
C  31.40600 2.05100 30.53500
C  32.80100 1.85200 30.65100
C  29.72300 2.08800 28.52100
C  30.87000 2.43100 31.82400
O  29.74700 2.69400 32.14800
C  32.12200 2.36100 32.76700
C  32.25600 3.64600 33.51900
O  33.09000 4.53900 33.30300
O  31.33500 3.56700 34.58100
C  31.50900 4.67900 35.53200
H  38.92600 0.98200 32.02000
H  37.87700 0.76300 25.65600
H  31.67500 1.57500 26.48700
H  34.95400 2.71800 34.11700
H  37.24700 0.89800 34.10000
H  36.99200 3.87500 34.02500
H  38.22300 3.28700 32.92700
H  38.33400 2.87300 34.55000
H  35.25300 -0.19200 34.62600
H  33.78600 0.26600 33.88400
H  34.13200 0.16600 36.52200
H  32.90900 1.09200 35.72400
H  41.25100 -0.17100 30.43700
H  40.99300 1.41700 31.18100
H  41.82300 1.37300 29.64700
H  42.34800 1.32400 27.74800
H  42.44300 0.09500 26.39200
H  42.06000 -0.49300 27.95600
H  35.53300 -0.47200 24.49700
H  33.30400 1.35300 24.50400
H  36.11100 2.43600 24.13200
H  34.99500 1.67900 22.98100
H  36.60500 0.94100 23.24700
H  31.86200 -0.57600 24.89700
H  33.27300 -1.70100 25.04700
H  33.07700 -2.00700 22.82500
H  33.48000 -0.27500 22.63600
H  31.78200 -0.78600 22.86600
H  29.77200 1.34700 27.72300
H  29.51200 3.01900 27.99600
H  28.98300 1.66400 29.20000
H  31.81000 1.61500 33.49800
H  31.40100 4.32200 36.55600
H  30.82000 5.52000 35.44700
H  32.50900 5.11300 35.50900

