158

Mg 8.97800 4.05800 27.89300
C  10.33800 2.45200 30.85700
C  7.28500 6.22400 29.92000
C  7.44000 5.11800 25.17300
C  10.70000 1.72100 25.92600
N  8.71600 4.27100 30.18200
C  9.43200 3.59100 31.22000
C  9.14200 4.12300 32.56200
C  8.13600 5.31700 32.23300
C  8.07900 5.34900 30.65900
C  6.67300 5.21000 32.61200
C  10.44000 4.59500 33.23400
C  10.85500 3.95500 34.54200
H  11.36600 4.95400 35.60800
N  7.51000 5.40700 27.65300
C  6.92700 6.24200 28.53900
C  6.16600 7.26600 27.88200
C  6.10900 6.86400 26.49700
C  7.07500 5.71400 26.35300
C  5.47200 8.46200 28.50000
C  5.23600 7.32900 25.33400
O  5.35600 6.95100 24.18900
C  4.16700 8.29800 25.61300
N  9.12900 3.50700 25.87500
C  8.34500 4.08400 24.87300
C  8.63500 3.66600 23.42800
C  9.75000 2.61900 23.74600
C  9.90700 2.62600 25.28500
C  7.43500 3.22400 22.58800
C  11.15100 2.86100 23.10600
C  11.68900 1.79400 22.17500
N  10.27800 2.50000 28.22100
C  10.92000 1.67000 27.29600
C  11.75800 0.71300 27.98700
C  11.57600 0.99100 29.32300
C  10.65700 2.12700 29.46300
C  12.68500 -0.33200 27.34500
C  12.01400 0.65900 30.68800
O  12.84100 -0.12100 31.13200
C  11.24500 1.61500 31.68100
C  10.58900 0.85000 32.75200
O  9.52800 0.22400 32.65400
O  11.31600 0.93200 33.94600
C  10.72700 0.21000 35.02400
H  6.96000 7.02700 30.58500
H  7.05900 5.56300 24.25100
H  11.16400 1.04300 25.20700
H  8.59500 3.33500 33.08100
H  8.54900 6.31300 32.39300
H  6.10000 4.87600 31.74700
H  6.30400 6.17300 32.96500
H  6.51700 4.54800 33.46300
H  10.31300 5.65000 33.47400
H  11.28500 4.39300 32.57500
H  11.69100 3.26900 34.40600
H  10.03000 3.32300 34.87000
H  5.76800 9.43400 28.10700
H  5.63100 8.42700 29.57800
H  4.40700 8.25900 28.38100
H  3.62500 8.50900 24.69100
H  4.48600 9.22100 26.09700
H  3.41100 7.91800 26.30100
H  9.11400 4.57300 23.05900
H  9.29900 1.69000 23.39700
H  6.54800 3.17000 23.22000
H  7.59000 2.20000 22.24800
H  7.25300 3.89400 21.74700
H  11.87700 2.97900 23.91100
H  11.17500 3.83100 22.61000
H  12.04500 2.10200 21.19200
H  10.97000 0.97600 22.13200
H  12.54100 1.33500 22.67600
H  13.47900 -0.50800 28.07100
H  13.06700 0.06800 26.40600
H  12.13300 -1.26200 27.20900
H  11.93500 2.18100 32.30700
H  10.22700 -0.70300 34.70000
H  10.07400 0.77600 35.68800
H  11.53700 -0.22400 35.61100
Mg 53.04800 23.98600 44.42600
C  50.59100 26.36300 43.91300
C  50.96000 21.56700 43.18400
C  55.67600 21.92900 44.00400
C  55.25900 26.58000 45.30800
N  51.06000 23.99300 43.64900
C  50.17800 25.06500 43.58700
C  48.92800 24.61700 42.70600
C  48.88300 23.15400 43.23800
C  50.38900 22.82600 43.31400
C  48.07100 22.90400 44.50100
C  48.94600 24.67500 41.12000
C  50.31400 25.04400 40.49500
H  50.29500 25.73200 39.08300
N  53.24900 21.87200 43.87700
C  52.25700 21.12800 43.29700
C  52.71100 19.83900 43.05900
C  54.13700 19.82800 43.36900
C  54.41200 21.24100 43.74500
C  51.84600 18.67900 42.46300
C  55.06100 18.64100 43.05500
O  54.64700 17.60700 42.50200
C  56.52500 18.76200 43.35600
N  55.11100 24.24100 44.58800
C  55.96500 23.25700 44.34800
C  57.44200 23.59800 44.83200
C  57.33400 25.12500 44.83400
C  55.87300 25.32600 44.98600
C  57.73400 23.00100 46.23600
C  58.00500 25.89300 43.59900
C  58.99200 26.96400 43.98800
N  52.96600 26.01400 44.66200
C  53.89900 26.89800 45.15800
C  53.23700 28.22000 45.17200
C  51.94900 28.12800 44.67200
C  51.84700 26.70100 44.39900
C  53.78800 29.53500 45.57800
C  50.66100 28.78400 44.36200
O  50.34000 29.95800 44.44600
C  49.80000 27.61000 43.82600
C  49.59300 28.02400 42.37000
O  50.53800 28.29600 41.63300
O  48.28800 28.22800 42.10900
C  47.90900 28.85700 40.82500
H  50.29800 20.74700 42.89700
H  56.62100 21.38200 44.00600
H  55.78300 27.42300 45.76200
H  48.05200 25.20500 42.98000
H  48.43000 22.55300 42.44900
H  47.26900 22.17700 44.36900
H  47.74800 23.89400 44.82400
H  48.81800 22.53200 45.20200
H  48.14400 25.30000 40.72700
H  48.71800 23.68200 40.73300
H  50.96900 24.17300 40.45900
H  50.64800 25.82800 41.17400
H  50.78300 18.91700 42.42900
H  52.01800 17.71800 42.94800
H  52.12800 18.69300 41.41000
H  57.08500 17.90400 42.98300
H  56.60700 18.93900 44.42800
H  56.89000 19.61700 42.78600
H  58.23700 23.26300 44.16500
H  57.83600 25.48000 45.73300
H  58.06100 21.96300 46.18700
H  56.82800 23.18100 46.81500
H  58.52000 23.61900 46.67100
H  57.15600 26.33700 43.08000
H  58.57400 25.20600 42.97400
H  59.02100 27.02000 45.07600
H  58.72500 27.92600 43.55200
H  59.98200 26.66200 43.64400
H  53.32500 29.95200 46.47200
H  53.69200 30.27100 44.78000
H  54.81300 29.40300 45.92400
H  48.83300 27.68800 44.32200
H  48.39300 29.83200 40.77200
H  46.83700 29.02900 40.72900
H  48.14600 28.26900 39.93800

