158

Mg 17.49400 -1.04000 27.59600
C  16.41700 0.62900 30.54900
C  19.10700 -3.23600 29.55100
C  18.95400 -2.27500 24.76600
C  16.08000 1.45700 25.68200
N  17.65800 -1.17400 29.80400
C  17.16400 -0.51200 30.80800
C  17.56300 -0.98100 32.21100
C  18.34500 -2.26000 31.80600
C  18.34600 -2.26500 30.27200
C  19.70800 -2.46500 32.47800
C  16.36500 -1.37100 33.17700
C  16.43100 -0.70500 34.56800
H  17.82800 -0.32300 35.08000
N  18.77200 -2.60800 27.24800
C  19.34400 -3.35500 28.17700
C  20.11800 -4.42800 27.46000
C  20.01300 -4.19700 26.06800
C  19.16400 -2.97400 25.95600
C  20.84000 -5.57500 28.22900
C  20.60900 -4.97000 24.89000
O  20.18600 -4.92200 23.74800
C  21.73200 -5.87000 25.13200
N  17.41700 -0.50200 25.54000
C  18.14500 -1.10300 24.59600
C  17.99100 -0.51900 23.20300
C  16.90600 0.54700 23.52500
C  16.79200 0.51100 24.99700
C  19.28700 0.12900 22.69300
C  15.56500 0.41800 22.72900
C  14.41600 -0.19400 23.61200
N  16.33600 0.62100 27.95900
C  15.81800 1.56300 27.02900
C  14.96100 2.53300 27.86000
C  15.23800 2.15900 29.21400
C  16.11500 1.09700 29.25200
C  13.98800 3.62900 27.40000
C  14.84800 2.47800 30.57400
O  13.95300 3.26000 31.00400
C  15.64200 1.48300 31.42700
C  16.48900 2.34300 32.25100
O  17.69500 2.43200 32.15900
O  15.82600 2.85700 33.38700
C  16.65600 3.63800 34.32900
H  19.52500 -3.94600 30.26600
H  19.49700 -2.63700 23.89100
H  15.64200 2.22100 25.03700
H  18.16800 -0.10000 32.42600
H  17.85400 -3.19100 32.09000
H  19.83200 -3.13900 33.32500
H  19.82600 -1.47500 32.92000
H  20.53100 -2.58300 31.77300
H  16.33800 -2.44100 33.38200
H  15.41900 -1.21800 32.65700
H  16.03800 -1.49600 35.20700
H  15.86600 0.22400 34.50000
H  21.90900 -5.58000 28.01500
H  20.34000 -6.50300 27.95200
H  20.70300 -5.54200 29.30900
H  22.48400 -5.20000 25.54900
H  22.13800 -6.38600 24.26300
H  21.36700 -6.60600 25.84900
H  17.70800 -1.34100 22.54600
H  17.35100 1.52500 23.34600
H  19.04600 0.94600 22.01300
H  19.86900 -0.62900 22.16800
H  19.81900 0.60700 23.51500
H  15.74300 -0.28100 21.91200
H  15.29400 1.33100 22.19900
H  14.81300 -0.88500 24.35500
H  13.80800 -0.81100 22.95100
H  13.87400 0.66200 24.01400
H  13.57800 3.28800 26.44900
H  14.65100 4.43700 27.09100
H  13.33700 3.77800 28.26100
H  14.95200 1.01000 32.12500
H  17.43600 4.12100 33.74000
H  17.02600 3.05700 35.17400
H  16.14700 4.45200 34.84500
Mg 47.98200 15.35600 28.79200
C  46.00200 15.17100 31.59400
C  50.23500 17.24600 30.72400
C  50.03300 15.60600 26.07000
C  45.50500 14.27300 26.77800
N  48.18800 16.07600 31.04200
C  47.23400 15.79300 31.95700
C  47.66600 16.26600 33.31700
C  48.93800 17.17900 33.01700
C  49.20700 16.77500 31.53800
C  48.54200 18.68900 33.16400
C  48.07900 15.02100 34.17900
C  48.38300 15.24900 35.65700
H  48.23100 16.66300 36.40900
N  49.89600 16.17400 28.45400
C  50.61000 16.93700 29.36500
C  51.92400 17.27200 28.80100
C  51.86200 16.72800 27.45700
C  50.54900 16.08500 27.26200
C  53.08700 17.97300 29.56800
C  52.97300 16.78400 26.45400
O  52.80500 16.27200 25.33900
C  54.35000 17.40600 26.68400
N  47.80400 15.02800 26.71300
C  48.75300 15.20900 25.73200
C  48.30500 14.75300 24.33600
C  46.82000 14.26800 24.65400
C  46.66300 14.55400 26.12300
C  48.47000 15.87000 23.35200
C  46.54200 12.84500 24.27000
C  47.37800 11.69800 24.88000
N  46.18300 14.76200 29.08600
C  45.29600 14.14400 28.16600
C  44.14900 13.71400 28.92100
C  44.36700 14.12300 30.26600
C  45.61000 14.77400 30.29300
C  42.93800 13.03200 28.39300
C  43.83800 14.20700 31.60500
O  42.79000 13.77200 31.94200
C  44.90900 14.91400 32.49900
C  44.30400 16.01500 33.30400
O  43.70100 16.96400 32.84400
O  44.45500 15.78400 34.64700
C  43.84800 16.78000 35.53200
H  50.99500 17.84200 31.23300
H  50.66000 15.75200 25.18900
H  44.67800 13.97000 26.13300
H  46.84100 16.79700 33.79100
H  49.78500 16.99500 33.67700
H  47.60500 18.81900 33.70600
H  48.37300 19.23100 32.23300
H  49.38400 19.27900 33.52600
H  49.02300 14.64600 33.78400
H  47.25900 14.30400 34.22500
H  49.45200 15.04300 35.71700
H  48.05200 14.37500 36.21900
H  53.90900 17.26400 29.65600
H  52.82100 18.42800 30.52200
H  53.47900 18.83400 29.02700
H  54.84400 16.97900 27.55700
H  54.21600 18.47600 26.84000
H  54.98100 17.25200 25.80900
H  48.90000 13.87500 24.08300
H  46.07800 14.89400 24.15800
H  49.52000 16.11900 23.19800
H  47.94700 16.69400 23.83700
H  47.99400 15.68100 22.39000
H  46.79200 12.72600 23.21500
H  45.49400 12.54500 24.29100
H  48.05900 11.23600 24.16500
H  46.75900 10.83200 25.11500
H  47.86000 12.02900 25.80000
H  43.18100 12.03500 28.02500
H  42.53900 13.50600 27.49700
H  42.15800 13.03900 29.15500
H  45.23800 14.15800 33.21200
H  44.28100 17.77400 35.42200
H  44.06200 16.41300 36.53600
H  42.77100 16.86100 35.38100

