158

Mg 54.26900 24.38000 44.03900
C  51.60300 26.42100 43.27100
C  52.29800 21.65400 43.36800
C  57.04800 22.35500 43.87000
C  56.20400 27.05600 44.78900
N  52.25600 24.07200 43.25400
C  51.33900 25.05300 43.10900
C  49.94800 24.50400 42.83500
C  50.09400 23.01600 43.20900
C  51.64300 22.89900 43.38300
C  49.40100 22.55900 44.53600
C  49.64000 24.59800 41.25600
C  48.16000 24.45800 40.85000
H  47.77800 24.22400 39.41600
N  54.67200 22.26300 43.67600
C  53.64900 21.34500 43.41600
C  54.25500 20.04900 43.32200
C  55.68600 20.17000 43.44400
C  55.91000 21.60800 43.69900
C  53.50800 18.72900 42.98000
C  56.78100 19.04000 43.29800
O  56.51000 17.90100 43.00300
C  58.16000 19.44900 43.56300
N  56.29300 24.60700 44.26600
C  57.30900 23.74500 44.20500
C  58.58900 24.25800 44.86400
C  58.30400 25.74800 45.13200
C  56.86600 25.81000 44.67500
C  59.04400 23.50900 46.06300
C  59.30800 26.76700 44.38800
C  60.21800 27.48700 45.38900
N  54.00200 26.35100 43.99800
C  54.83300 27.33100 44.46100
C  54.17200 28.63500 44.52400
C  52.90100 28.36600 44.01100
C  52.85900 26.90600 43.71500
C  54.91700 29.88200 44.99900
C  51.61300 28.87800 43.70900
O  51.10700 30.01700 43.77700
C  50.72300 27.62600 43.22400
C  50.46800 28.11700 41.85000
O  51.33700 28.13400 40.97300
O  49.11400 28.39300 41.73400
C  48.68700 28.72600 40.36000
H  51.58400 20.82800 43.36200
H  57.98100 21.82900 44.08300
H  56.71300 27.89100 45.27500
H  49.24100 25.00500 43.49600
H  49.78000 22.42800 42.34500
H  49.44500 23.37300 45.26000
H  50.06200 21.75600 44.86200
H  48.33900 22.32100 44.48700
H  50.30200 23.86100 40.80200
H  49.88100 25.57200 40.83000
H  47.75300 25.44000 41.09000
H  47.71900 23.79500 41.59500
H  52.61700 18.71700 43.60600
H  54.10400 17.83000 43.13800
H  53.09900 18.70500 41.97000
H  58.49600 20.13600 42.78600
H  58.74300 18.53200 43.63800
H  58.23000 19.84500 44.57600
H  59.36800 24.14300 44.11100
H  58.23500 25.93800 46.20300
H  59.80800 22.85200 45.64900
H  58.21500 22.94300 46.48900
H  59.41400 24.25700 46.76500
H  58.71900 27.39700 43.72200
H  59.99100 26.21800 43.74100
H  61.19900 27.24700 44.98000
H  60.09900 27.33500 46.46100
H  60.10000 28.56200 45.24800
H  54.75800 29.80300 46.07400
H  54.33400 30.76300 44.73000
H  55.91500 29.94000 44.56500
H  49.75200 27.55100 43.71400
H  49.34900 28.44400 39.54200
H  48.72400 29.79300 40.57900
H  47.67400 28.37600 40.15700
Mg -5.07000 25.30700 25.93000
C  -3.94100 26.79500 28.91500
C  -7.09800 23.22900 27.83800
C  -5.71000 23.70800 23.16100
C  -2.66000 27.24600 24.24600
N  -5.44000 25.00000 28.18600
C  -4.97300 25.83100 29.21000
C  -5.66000 25.39500 30.51800
C  -6.32900 24.02700 30.15900
C  -6.28800 24.04900 28.67500
C  -5.66100 22.79600 30.70400
C  -6.73600 26.38600 31.14000
C  -6.83300 26.40900 32.67700
H  -6.18800 25.32800 33.52500
N  -6.23600 23.62800 25.60600
C  -7.07600 22.98900 26.47100
C  -7.76400 21.96900 25.77700
C  -7.34000 22.01900 24.39100
C  -6.36100 23.11500 24.35500
C  -8.76800 21.11500 26.46200
C  -7.78000 21.13900 23.18200
O  -7.31700 21.42800 22.08900
C  -8.82200 20.06900 23.34600
N  -4.54300 25.70300 23.98100
C  -4.85500 24.79400 23.06000
C  -4.12100 25.00600 21.67800
C  -3.40300 26.29500 21.95900
C  -3.47700 26.40900 23.45000
C  -3.27900 23.78700 21.25100
C  -3.86300 27.59500 21.18100
C  -2.80200 28.09500 20.15700
N  -3.65100 26.82500 26.42900
C  -2.74800 27.49300 25.61000
C  -1.97100 28.47500 26.45300
C  -2.45700 28.24000 27.73400
C  -3.42000 27.24700 27.68200
C  -1.04200 29.56900 26.04800
C  -2.43300 28.64500 29.05400
O  -1.79000 29.65800 29.52000
C  -3.40500 27.75700 29.90600
C  -2.48800 27.06400 30.84900
O  -1.64900 26.21100 30.63900
O  -2.83300 27.50400 32.08200
C  -2.25600 26.83600 33.26000
H  -7.79400 22.55100 28.33700
H  -5.81700 23.13700 22.23600
H  -1.96600 27.87100 23.68000
H  -4.96000 25.29300 31.34600
H  -7.35000 23.94700 30.53100
H  -5.04300 22.24500 29.99500
H  -6.44700 22.11400 31.02700
H  -5.07000 22.99300 31.59900
H  -7.72600 26.17700 30.73400
H  -6.54900 27.37200 30.71400
H  -7.89600 26.37800 32.91600
H  -6.52000 27.41200 32.96600
H  -9.01200 21.28000 27.51200
H  -8.58000 20.04200 26.41700
H  -9.62300 21.23300 25.79700
H  -8.87900 19.34500 22.53200
H  -9.82700 20.46100 23.50100
H  -8.47900 19.45900 24.18200
H  -5.02500 25.02600 21.06900
H  -2.34700 26.13000 21.74400
H  -2.25500 23.98800 20.93700
H  -3.87400 23.21200 20.54200
H  -3.09200 23.13700 22.10600
H  -3.91400 28.37400 21.94100
H  -4.89900 27.46900 20.86600
H  -3.28400 28.30000 19.20100
H  -2.04400 27.35600 19.89700
H  -2.35300 29.03800 20.46800
H  -0.81500 29.46200 24.98800
H  -0.19200 29.60700 26.73000
H  -1.49600 30.56000 26.06800
H  -4.26500 28.25600 30.35300
H  -1.43800 27.51700 33.49700
H  -1.78000 25.85800 33.18900
H  -2.98000 26.82700 34.07400

