158

Mg 23.86100 -6.80200 47.36100
C  26.54400 -4.66000 46.26900
C  21.84200 -5.14900 45.10300
C  21.57300 -9.20100 47.82700
C  26.26100 -8.65300 49.07200
N  24.19200 -5.07100 45.93300
C  25.30400 -4.36200 45.65100
C  25.14100 -3.41200 44.45600
C  23.57300 -3.42600 44.32800
C  23.16400 -4.65700 45.13300
C  22.79100 -2.19500 44.75500
C  25.87300 -4.01200 43.24100
C  27.10300 -3.13500 42.74400
H  27.10200 -2.49900 41.38300
N  21.90400 -7.05300 46.67400
C  21.24000 -6.22900 45.77800
C  19.89100 -6.74300 45.57800
C  19.81200 -7.93500 46.26700
C  21.13900 -8.10400 46.99500
C  18.78200 -5.95400 44.88000
C  18.61300 -8.86500 46.41600
O  17.59700 -8.51700 45.80200
C  18.52300 -10.08600 47.25000
N  23.91800 -8.72200 48.28800
C  22.79300 -9.55600 48.40700
C  23.12000 -10.93100 49.04300
C  24.66900 -10.71200 49.39800
C  24.98400 -9.27000 48.91500
C  22.30100 -11.33800 50.30100
C  25.73500 -11.65500 48.75500
C  26.84300 -12.07200 49.83600
N  25.96200 -6.61800 47.78800
C  26.78400 -7.49200 48.45600
C  28.07100 -6.86600 48.61300
C  28.04700 -5.63500 47.84600
C  26.75100 -5.63100 47.24600
C  29.34400 -7.45900 49.22100
C  28.74200 -4.48000 47.37100
O  29.80000 -4.04800 47.60500
C  27.76900 -3.81400 46.26400
C  27.38100 -2.46000 46.66900
O  26.86900 -2.23200 47.76700
O  27.84800 -1.51500 45.79800
C  27.78400 -0.10100 46.26000
H  21.18600 -4.54100 44.47700
H  20.98800 -10.10500 47.64400
H  27.07300 -9.24300 49.50200
H  25.43400 -2.38100 44.65400
H  23.26800 -3.59700 43.29500
H  23.44500 -1.45300 45.21200
H  22.04100 -2.52500 45.47400
H  22.25000 -1.87700 43.86400
H  25.14700 -4.10700 42.43400
H  26.23300 -5.03000 43.38600
H  28.02900 -3.69700 42.86200
H  27.20400 -2.33100 43.47200
H  17.90700 -5.69900 45.47600
H  18.59300 -6.33200 43.87500
H  19.25200 -4.97200 44.82200
H  17.49300 -10.44300 47.27800
H  18.81000 -9.85600 48.27600
H  19.23100 -10.85000 46.92900
H  23.04400 -11.63600 48.21500
H  24.85400 -10.70900 50.47200
H  21.68400 -10.48400 50.57800
H  22.96600 -11.60300 51.12300
H  21.62700 -12.15500 50.04300
H  26.20500 -11.15000 47.91100
H  25.24500 -12.55700 48.38900
H  26.70200 -13.14600 49.95600
H  26.64800 -11.68400 50.83600
H  27.83700 -11.90700 49.42100
H  30.12500 -6.70100 49.27200
H  29.61800 -8.37400 48.69400
H  29.14100 -7.66000 50.27200
H  28.32800 -3.94100 45.33700
H  26.74700 0.14200 46.49200
H  28.20200 0.50200 45.45500
H  28.41500 0.05900 47.13400
Mg 48.79500 44.95900 42.79800
C  45.27600 45.24400 42.01700
C  48.85500 41.99400 41.31500
C  52.07700 45.28000 43.00100
C  48.59900 48.51400 43.66800
N  47.17300 43.74600 41.93500
C  45.91800 44.05700 41.58300
C  45.31200 42.91900 40.70700
C  46.31900 41.71300 41.03700
C  47.54300 42.53300 41.38800
C  45.93100 40.78700 42.25200
C  45.16300 43.31300 39.19100
C  43.75000 43.08800 38.60300
H  43.36700 43.99400 37.44700
N  50.26500 43.69200 42.35100
C  50.10700 42.51500 41.72100
C  51.44000 41.86900 41.57700
C  52.39800 42.71600 42.20200
C  51.62000 43.97800 42.48300
C  51.63600 40.41700 40.97300
C  53.87400 42.37000 42.41700
O  54.37700 41.35100 41.93800
C  54.82000 43.30800 43.09300
N  50.06800 46.70700 43.14700
C  51.43300 46.48200 43.16600
C  52.16800 47.74300 43.36400
C  51.14800 48.81800 43.73400
C  49.84800 47.99100 43.57100
C  53.47400 47.60400 44.20700
C  51.25300 50.07600 42.93200
C  52.11900 51.20500 43.54100
N  47.31300 46.52200 42.98400
C  47.37100 47.85700 43.41600
C  46.07100 48.50300 43.35800
C  45.25000 47.45900 42.80700
C  46.04000 46.30300 42.60400
C  45.73700 49.92600 43.71300
C  43.94900 47.30000 42.26400
O  42.99100 48.08900 42.26000
C  43.92500 45.83100 41.68400
C  42.74800 44.99400 42.12500
O  41.88900 44.54700 41.43100
O  42.74900 44.84600 43.51200
C  41.45900 44.73500 44.12300
H  49.01800 40.99200 40.91200
H  53.16400 45.31800 42.90700
H  48.40900 49.48400 44.13100
H  44.36200 42.63200 41.15700
H  46.51700 41.08900 40.16600
H  44.97500 41.06500 42.69700
H  46.74700 40.94300 42.95900
H  45.90600 39.73500 41.96900
H  45.80300 42.83500 38.44900
H  45.27400 44.39700 39.20900
H  42.99600 43.17300 39.38500
H  43.58100 42.04700 38.32800
H  52.56500 40.25000 40.42800
H  50.82800 40.31200 40.25000
H  51.63800 39.64400 41.74100
H  55.20600 44.04600 42.39100
H  55.72000 42.74400 43.34000
H  54.40500 43.79200 43.97800
H  52.54900 47.94800 42.36400
H  51.32300 49.11300 44.76900
H  53.55800 48.41300 44.93200
H  54.26100 47.77100 43.47100
H  53.61600 46.62200 44.65900
H  50.28000 50.54900 42.79700
H  51.65400 49.79200 41.95900
H  52.31100 51.08700 44.60700
H  51.63600 52.16900 43.37900
H  53.06900 51.29400 43.01500
H  45.26700 50.33400 42.81800
H  46.59700 50.50500 44.05100
H  44.99800 49.88600 44.51400
H  44.04300 45.99800 40.61300
H  41.46200 43.87400 44.79200
H  40.60500 44.80600 43.45100
H  41.36900 45.56700 44.82200

