158

Mg 35.00000 3.55100 29.56500
C  32.56200 4.25800 32.12400
C  37.27600 2.98300 32.00300
C  37.10900 2.81100 27.18300
C  32.31100 4.10800 27.18200
N  34.96700 3.76000 31.78900
C  33.86400 3.96500 32.60500
C  34.30300 3.99100 34.13500
C  35.87000 3.70200 33.99000
C  36.07500 3.47400 32.48800
C  36.90200 4.71700 34.64000
C  33.48800 2.89600 34.92300
C  32.89600 3.47400 36.23500
H  33.76200 4.44500 37.03700
N  36.90800 2.92200 29.58900
C  37.68800 2.63200 30.68600
C  38.93800 1.98500 30.28900
C  38.91500 2.08300 28.80400
C  37.62400 2.65200 28.51500
C  40.05400 1.50600 31.20800
C  39.95600 1.60000 27.77100
O  39.76900 1.61500 26.56000
C  41.31900 1.11800 28.27200
N  34.69700 3.53300 27.41100
C  35.81000 3.08800 26.70000
C  35.41600 2.96800 25.23000
C  33.86900 3.21800 25.24700
C  33.57000 3.65800 26.67500
C  36.21600 3.96200 24.30200
C  32.97500 1.95400 24.89600
C  31.70100 2.42400 24.12900
N  32.89600 4.22800 29.60000
C  31.96300 4.35400 28.51500
C  30.71800 4.66200 29.09400
C  30.90400 4.65600 30.53400
C  32.24500 4.40300 30.78400
C  29.34900 4.78300 28.42600
C  30.21600 4.82200 31.79600
O  29.10000 5.08000 31.98000
C  31.33900 4.71800 32.95800
C  31.52200 6.03000 33.63600
O  31.97800 7.00300 33.06300
O  30.98600 6.07800 34.85800
C  30.92300 7.32700 35.61200
H  37.89000 2.53400 32.78700
H  37.67300 2.39900 26.34400
H  31.53900 4.22100 26.41900
H  34.16300 4.98000 34.57100
H  36.11300 2.74000 34.44000
H  37.45800 4.31300 35.48600
H  36.41900 5.58100 35.09700
H  37.72600 4.95600 33.96700
H  34.12300 2.03600 35.13400
H  32.65600 2.61100 34.27900
H  32.86500 2.57800 36.85500
H  31.88700 3.86700 36.10800
H  40.54400 0.57000 30.93900
H  39.66200 1.38800 32.21800
H  40.86300 2.22800 31.31600
H  41.63100 1.70700 29.13400
H  42.06200 1.06100 27.47600
H  41.03900 0.10700 28.57000
H  35.57600 1.92700 24.95000
H  33.82900 4.13700 24.66200
H  36.63400 4.76600 24.90800
H  35.49600 4.40200 23.61200
H  37.04100 3.48400 23.77500
H  32.67200 1.34700 25.74900
H  33.51200 1.33200 24.18100
H  31.63300 2.09300 23.09300
H  31.55300 3.50300 24.12800
H  30.81700 1.99900 24.60400
H  29.46300 5.46500 27.58300
H  28.63900 5.22500 29.12500
H  29.09300 3.75500 28.17200
H  30.98600 4.10100 33.78500
H  30.27300 7.16500 36.47200
H  30.31400 8.04200 35.05900
H  31.90600 7.56300 36.01900
Mg 28.52300 58.17200 41.56600
C  25.99000 56.18000 40.14500
C  30.81700 56.40200 39.73800
C  30.75400 60.49200 42.36000
C  25.91300 60.44300 42.76500
N  28.41800 56.52100 40.17800
C  27.29700 55.86500 39.74000
C  27.58400 54.91000 38.63400
C  29.18400 54.78000 38.66800
C  29.53600 56.01500 39.52600
C  29.85000 53.54400 39.35500
C  27.06800 55.43200 37.21600
C  26.72300 54.23000 36.33100
H  27.26300 54.16700 34.86800
N  30.58900 58.36500 41.27400
C  31.30500 57.52700 40.46200
C  32.69900 58.07200 40.49300
C  32.64300 59.35500 41.07600
C  31.25200 59.44100 41.63400
C  33.75700 57.33600 39.84300
C  33.87500 60.31000 41.03400
O  34.91200 59.75900 40.68100
C  33.88000 61.71300 41.53200
N  28.28700 60.21600 42.35900
C  29.41400 60.94400 42.70800
C  29.04000 62.34700 43.23300
C  27.49000 62.25000 43.43200
C  27.18700 60.86900 42.81000
C  29.89700 62.92400 44.38600
C  26.77300 63.46100 42.73200
C  25.59300 64.04700 43.53600
N  26.45100 58.22200 41.63500
C  25.53700 59.17200 42.17600
C  24.19200 58.65500 42.10200
C  24.27900 57.55200 41.24400
C  25.65400 57.28700 40.96800
C  22.97800 59.36000 42.64100
C  23.50300 56.58600 40.46800
O  22.33100 56.36800 40.30300
C  24.67300 55.66900 39.72400
C  24.35600 54.17900 40.00100
O  24.47000 53.62300 41.08800
O  23.99900 53.52200 38.88900
C  23.40100 52.16600 38.99400
H  31.61200 55.93400 39.15300
H  31.41000 61.30600 42.67400
H  25.14600 61.11000 43.16400
H  27.22000 53.92500 38.92600
H  29.52800 54.77300 37.63400
H  30.31400 53.82800 40.30000
H  30.63000 53.14700 38.70500
H  29.10900 52.78900 39.61700
H  27.82700 56.08500 36.78500
H  26.25300 56.14400 37.34400
H  25.63400 54.18800 36.32800
H  27.02800 53.32900 36.86400
H  33.60500 57.43100 38.76800
H  33.62000 56.27200 40.03800
H  34.82900 57.45100 40.00000
H  33.07500 62.06100 40.88400
H  34.79800 62.21900 41.23400
H  33.73300 61.79200 42.61000
H  29.27600 63.04700 42.43100
H  27.27500 62.35100 44.49600
H  29.41700 62.89200 45.36400
H  30.21600 63.92300 44.08600
H  30.84600 62.40000 44.49700
H  26.45300 63.12300 41.74600
H  27.51200 64.19700 42.41800
H  25.68300 63.56800 44.51100
H  24.71900 63.68200 42.99800
H  25.64200 65.13500 43.49800
H  22.20400 59.00200 41.96300
H  23.05100 60.44400 42.56400
H  22.95600 59.08000 43.69500
H  24.36100 55.88400 38.70200
H  24.24000 51.47000 39.00900
H  22.72700 51.85900 38.19500
H  22.88600 52.13300 39.95400

