158

Mg 41.91100 41.93900 27.40400
C  40.74700 44.34500 29.86100
C  42.58100 39.74800 29.95300
C  43.12200 39.78600 25.15500
C  41.46400 44.46100 25.05000
N  41.36000 41.90300 29.57700
C  41.01600 42.98200 30.41400
C  41.03000 42.66100 31.88700
C  41.55500 41.16800 31.85900
C  41.83100 40.91600 30.38100
C  42.83700 40.92100 32.76400
C  39.72200 42.99700 32.58200
C  39.37900 42.21900 33.83100
H  39.01600 43.15300 35.01000
N  42.66900 40.02100 27.52700
C  42.89200 39.29700 28.64300
C  43.54800 38.06700 28.27500
C  43.61700 38.07500 26.90800
C  43.10200 39.33100 26.48800
C  43.87100 37.00600 29.34100
C  44.13800 36.94000 26.02300
O  44.16700 36.98900 24.78200
C  44.59700 35.62500 26.59800
N  42.30300 42.13000 25.31800
C  42.59400 40.98800 24.58300
C  42.48000 41.29100 23.08800
C  42.00100 42.80900 23.06800
C  41.85900 43.17900 24.57300
C  43.69600 40.98300 22.17100
C  40.66400 43.05700 22.33800
C  39.51400 42.31600 22.84800
N  41.32900 43.99200 27.38100
C  41.23200 44.85700 26.33700
C  40.87400 46.18500 26.80500
C  40.62300 45.98200 28.17900
C  40.97600 44.64200 28.49800
C  40.70700 47.36600 26.01500
C  40.26200 46.58900 29.42100
O  39.96200 47.75600 29.67700
C  40.26500 45.58100 30.51500
C  41.32300 46.11200 31.52400
O  42.46800 46.31400 31.25900
O  40.78600 46.12400 32.82300
C  41.57900 46.48700 33.90500
H  42.57300 38.91700 30.66100
H  43.45900 39.03400 24.43900
H  41.27900 45.23400 24.30200
H  41.76900 43.37800 32.24500
H  40.65400 40.58300 32.04100
H  43.04200 41.77800 33.40500
H  43.65000 40.63700 32.09700
H  42.57600 40.09400 33.42500
H  39.01100 42.92100 31.75900
H  39.70100 44.04100 32.89500
H  40.22900 41.62000 34.15600
H  38.53500 41.55200 33.65300
H  44.86700 36.62000 29.12400
H  43.19900 36.16200 29.18900
H  43.75100 37.25900 30.39400
H  43.83400 35.03500 27.10500
H  45.48300 35.55500 27.23000
H  44.75000 34.91300 25.78800
H  41.66000 40.73200 22.63500
H  42.72700 43.47200 22.59500
H  43.42500 40.05300 21.67100
H  44.55900 40.80900 22.81300
H  43.95500 41.83800 21.54600
H  40.76200 42.77400 21.29000
H  40.39300 44.11000 22.26800
H  39.57500 42.11200 23.91700
H  39.33000 41.37700 22.32600
H  38.65200 42.96700 22.70100
H  39.71300 47.78500 26.17300
H  40.85000 47.17000 24.95200
H  41.47400 48.10800 26.23600
H  39.22800 45.59600 30.85000
H  40.97900 46.36500 34.80700
H  41.85100 47.53100 33.74800
H  42.42700 45.80100 33.90500
Mg 8.94900 47.01500 25.42600
C  6.80900 46.86000 28.07300
C  11.49800 48.21400 27.43100
C  10.90100 47.32600 22.71400
C  6.25200 46.36700 23.25100
N  9.10100 47.54400 27.43100
C  8.15000 47.17000 28.41200
C  8.65500 47.52200 29.82400
C  10.00200 48.27000 29.61600
C  10.21300 48.02600 28.09300
C  9.96200 49.76400 29.93900
C  8.69700 46.34900 30.85600
C  9.70300 46.41500 32.04400
H  9.38900 45.63200 33.35700
N  10.91300 47.64100 25.13500
C  11.82200 48.00200 26.12800
C  13.19800 48.02700 25.52000
C  13.04800 47.66500 24.19500
C  11.59300 47.56100 23.93300
C  14.41900 48.29200 26.42200
C  14.10900 47.19600 23.15300
O  13.75500 47.01100 21.97000
C  15.51800 46.97300 23.54800
N  8.55300 47.06200 23.23900
C  9.57100 47.21100 22.36800
C  9.09700 47.04700 20.91500
C  7.54200 46.82400 21.06200
C  7.42900 46.75300 22.59300
C  9.38100 48.16500 19.87200
C  6.97100 45.59100 20.27700
C  5.61500 45.88100 19.52700
N  6.92500 46.80700 25.60800
C  5.93400 46.48400 24.65900
C  4.64000 46.39700 25.35700
C  4.97200 46.50800 26.74700
C  6.34700 46.74700 26.81600
C  3.30100 46.05900 24.71500
C  4.37000 46.50800 28.09600
O  3.26300 46.36600 28.51800
C  5.60300 46.58200 28.98400
C  5.76500 45.23300 29.73900
O  6.34900 44.26500 29.33200
O  5.25700 45.31200 30.96000
C  5.35500 44.19800 31.88500
H  12.26000 48.47300 28.16900
H  11.44000 47.35400 21.76500
H  5.33700 46.41900 22.65700
H  7.86400 48.11800 30.27800
H  10.87900 47.84200 30.10300
H  9.52500 50.37200 29.14700
H  10.96200 50.16500 30.10300
H  9.42600 49.95000 30.87000
H  8.99700 45.56600 30.15900
H  7.70600 46.30000 31.30700
H  9.87500 47.44500 32.35600
H  10.67100 46.06000 31.69000
H  14.09900 48.62600 27.40900
H  15.05800 49.04800 25.96700
H  14.98700 47.38500 26.62900
H  15.39700 46.42000 24.48000
H  16.13200 47.82800 23.83100
H  16.05300 46.42100 22.77600
H  9.56800 46.12000 20.58600
H  6.99100 47.68100 20.67500
H  9.60100 49.09400 20.39800
H  8.57400 48.20000 19.14000
H  10.28300 47.96600 19.29300
H  6.68200 44.77600 20.94000
H  7.66900 45.20800 19.53200
H  5.54300 46.94800 19.31800
H  4.77600 45.63200 20.17700
H  5.52900 45.39400 18.55600
H  3.35700 46.23900 23.64200
H  2.52400 46.61400 25.24000
H  3.18200 44.98900 24.88500
H  5.51200 47.38500 29.71600
H  6.33900 43.74500 32.00400
H  4.62700 43.42600 31.63500
H  5.39800 44.59600 32.89800

