158

Mg 8.33200 3.10200 27.67200
C  9.48700 1.52300 30.65000
C  6.18600 4.87100 29.69300
C  6.98500 4.45300 24.92000
C  10.00000 0.82400 25.88500
N  7.91100 3.16600 29.90200
C  8.55700 2.57200 30.89700
C  8.05700 3.01500 32.32800
C  6.91600 4.03000 31.94200
C  6.96600 3.98400 30.38400
C  5.46300 3.64600 32.56400
C  9.14800 3.48600 33.26500
C  8.77800 4.59500 34.18100
H  9.64800 4.67700 35.46000
N  6.76300 4.52800 27.32300
C  6.12600 5.26800 28.29200
C  5.21800 6.19300 27.63000
C  5.33200 5.98100 26.23000
C  6.39400 4.99300 26.10600
C  4.22800 7.02500 28.42200
C  4.58100 6.62000 25.14600
O  4.89700 6.41600 24.00000
C  3.62000 7.70300 25.41000
N  8.47200 2.72100 25.64900
C  7.85500 3.42900 24.70800
C  8.28800 3.02600 23.32600
C  9.43900 1.96000 23.59200
C  9.28900 1.78800 25.13900
C  7.24400 2.61800 22.29000
C  10.88700 2.33300 23.16800
C  11.85500 3.07400 24.09600
N  9.46300 1.44900 28.11400
C  10.15600 0.67200 27.28400
C  10.91500 -0.31200 28.00000
C  10.74500 -0.00100 29.38900
C  9.85600 1.05600 29.34800
C  11.81900 -1.34600 27.33600
C  11.19700 -0.26100 30.74100
O  12.09500 -0.97100 31.17000
C  10.36100 0.68000 31.70000
C  9.62500 -0.02700 32.76500
O  8.58200 -0.63800 32.64600
O  10.39600 -0.03000 33.85100
C  9.77800 -0.56900 35.10700
H  5.48800 5.23800 30.44900
H  6.59700 4.91200 24.00900
H  10.47500 0.07000 25.25400
H  7.56700 2.24000 32.91700
H  7.10100 5.04200 32.30200
H  4.60200 4.05700 32.03700
H  5.40300 4.12700 33.54000
H  5.51800 2.55800 32.60400
H  10.00500 3.93800 32.76600
H  9.59200 2.72400 33.90600
H  7.74500 4.61300 34.52900
H  9.00500 5.47700 33.58400
H  3.24500 6.81100 28.00400
H  4.56500 8.05300 28.28700
H  4.30000 6.77200 29.48000
H  3.37200 8.15800 24.45200
H  4.16400 8.49500 25.92500
H  2.80800 7.25900 25.98700
H  8.82200 3.91800 22.99800
H  9.22900 1.09900 22.95800
H  6.22200 2.69300 22.66200
H  7.46900 1.61700 21.92200
H  7.17200 3.30700 21.44800
H  10.66700 3.06300 22.38800
H  11.33900 1.55200 22.55700
H  11.39600 3.64000 24.90700
H  12.38000 3.76400 23.43500
H  12.62500 2.41400 24.49600
H  12.16300 -0.96300 26.37500
H  11.29800 -2.24100 26.99600
H  12.55200 -1.68600 28.06800
H  11.08500 1.40800 32.06700
H  10.41000 -1.36700 35.49700
H  8.84400 -1.11000 34.95900
H  9.80600 0.24600 35.83100
Mg 35.27000 2.53600 30.55700
C  32.68500 3.36100 32.72900
C  37.53800 2.95100 33.20200
C  37.84400 2.00200 28.35800
C  33.14400 2.48200 27.84600
N  35.12400 3.13400 32.72700
C  33.94300 3.29500 33.40000
C  34.20800 3.31100 34.94800
C  35.73800 3.74700 34.93900
C  36.16800 3.20600 33.53400
C  36.26300 5.16100 35.14700
C  33.96900 1.97100 35.65500
C  33.77400 1.94200 37.16500
H  34.60500 3.00700 37.92200
N  37.37000 2.39100 30.72800
C  38.13100 2.51700 31.94600
C  39.50100 2.26200 31.65500
C  39.50200 1.81700 30.28700
C  38.21600 2.06700 29.68800
C  40.63300 2.20200 32.66300
C  40.64000 1.27300 29.48900
O  40.48600 0.68800 28.41500
C  42.03300 1.25500 30.08000
N  35.46900 2.30500 28.42500
C  36.58100 2.02900 27.75500
C  36.40100 1.71300 26.28000
C  34.84500 1.66300 26.20100
C  34.45100 2.17900 27.57900
C  37.13100 2.72900 25.41400
C  34.17200 0.31700 25.83000
C  33.25100 0.31100 24.60500
N  33.31100 2.90100 30.25100
C  32.55000 2.90400 29.13100
C  31.21000 3.21100 29.44200
C  31.16000 3.40900 30.86000
C  32.48600 3.11900 31.27700
C  30.15700 3.32100 28.37500
C  30.35500 3.72100 32.04400
O  29.15300 3.91700 32.14600
C  31.30300 3.65800 33.30200
C  31.32000 4.84100 34.14400
O  31.52800 5.95100 33.69200
O  30.94400 4.57300 35.43400
C  30.85400 5.69400 36.43100
H  38.24300 2.99600 34.03500
H  38.62500 1.97300 27.59500
H  32.47700 2.34500 26.99200
H  33.51700 4.04000 35.37100
H  36.13600 3.07800 35.70200
H  37.05400 5.26400 35.89100
H  35.48800 5.91100 35.30400
H  36.71800 5.57800 34.24900
H  34.73700 1.24800 35.37900
H  32.99400 1.67900 35.26500
H  34.17400 0.97900 37.48300
H  32.71900 2.07100 37.40600
H  40.19400 2.72200 33.51400
H  41.44500 2.83900 32.31300
H  40.93300 1.18600 32.92000
H  42.03300 0.63300 30.97600
H  42.37900 2.27100 30.27000
H  42.70500 0.81000 29.34800
H  36.86400 0.72600 26.28100
H  34.65600 2.38100 25.40300
H  36.45600 2.81600 24.56300
H  38.15900 2.50700 25.12700
H  37.21500 3.70400 25.89400
H  33.80400 -0.06300 26.78300
H  34.95500 -0.36800 25.50700
H  33.71500 -0.26900 23.80700
H  32.82100 1.23900 24.22900
H  32.36100 -0.27400 24.83500
H  29.36700 2.60400 28.59600
H  30.48400 2.88700 27.43100
H  29.94400 4.38900 28.31400
H  31.02100 2.83000 33.95300
H  31.50400 5.50100 37.28400
H  29.88500 5.80400 36.91900
H  31.09500 6.67200 36.01400

