158

Mg 24.83300 1.43500 29.54700
C  26.84900 0.97200 32.38200
C  22.08600 1.13500 31.58500
C  22.78400 1.50300 26.84200
C  27.63400 1.28900 27.57800
N  24.51000 0.81700 31.74900
C  25.47200 0.89900 32.73900
C  24.83400 0.95000 34.08100
C  23.30600 0.59300 33.80800
C  23.23200 0.97100 32.26800
C  22.90700 -0.84100 34.10400
C  25.04600 2.27300 34.85400
C  25.66300 2.04900 36.21800
H  25.68900 3.25200 37.22300
N  22.74900 1.34800 29.25400
C  21.78800 1.19200 30.23400
C  20.48800 1.18600 29.68300
C  20.71700 1.13800 28.29100
C  22.10200 1.30900 28.04100
C  19.22800 0.97100 30.53500
C  19.70300 0.86500 27.19500
O  20.08600 0.77400 26.06100
C  18.20600 0.59400 27.39200
N  25.17700 1.35400 27.51400
C  24.17000 1.55000 26.55200
C  24.78000 1.58400 25.08900
C  26.25400 1.86400 25.44800
C  26.39600 1.51200 26.91900
C  24.56200 0.25400 24.33500
C  26.78100 3.27400 24.99800
C  26.49000 4.44200 25.88200
N  26.85500 1.09300 29.87600
C  27.83900 1.04900 28.93000
C  29.13500 0.90900 29.64600
C  28.74300 0.89400 31.04100
C  27.36900 0.97900 31.07400
C  30.48500 0.91100 29.07800
C  29.30200 0.87400 32.35000
O  30.47800 0.84700 32.66400
C  28.09100 1.08600 33.28800
C  28.11300 0.17000 34.39800
O  27.61000 -0.97600 34.42600
O  28.94000 0.64800 35.39200
C  28.93600 -0.21100 36.60400
H  21.25400 1.20900 32.28800
H  22.14800 1.63100 25.96300
H  28.40800 1.37700 26.81300
H  25.13300 0.10900 34.70800
H  22.63400 1.28600 34.31400
H  22.72500 -1.35600 33.16000
H  21.95700 -0.74000 34.62800
H  23.53400 -1.50800 34.69500
H  24.09600 2.80500 34.90700
H  25.71400 2.89800 34.26200
H  26.63500 1.56000 36.28100
H  24.93000 1.35700 36.63100
H  18.39000 1.60000 30.23600
H  19.33300 1.09200 31.61400
H  18.84900 -0.03700 30.37400
H  18.08900 -0.41900 27.00500
H  17.59300 1.13800 26.67300
H  17.84900 0.69700 28.41600
H  24.42900 2.42300 24.48900
H  26.83300 1.06800 24.98000
H  23.95500 0.47900 23.45800
H  24.15900 -0.41400 25.09600
H  25.51700 -0.16300 24.01200
H  26.34000 3.49500 24.02600
H  27.85400 3.23800 24.80900
H  25.73900 5.09100 25.43200
H  27.42800 4.93200 26.14500
H  26.19700 4.07800 26.86700
H  30.72600 -0.12200 28.82600
H  31.27100 1.28900 29.73200
H  30.50000 1.48600 28.15300
H  28.08400 2.12700 33.61100
H  29.18900 -1.26600 36.49400
H  27.98700 -0.15500 37.13800
H  29.77400 0.19100 37.17400
Mg 27.04100 51.22100 26.14000
C  25.12700 52.14200 29.03100
C  29.39700 50.04900 28.38500
C  28.98900 50.72800 23.54200
C  24.65200 52.81200 24.11600
N  27.24200 51.16800 28.44300
C  26.31100 51.40100 29.39900
C  26.73900 50.97600 30.72400
C  28.24500 50.47400 30.57300
C  28.32500 50.58500 29.04000
C  29.28600 51.45200 31.17500
C  25.67500 49.91500 31.30200
C  24.91800 50.32200 32.60600
H  24.63300 49.22300 33.71700
N  28.86300 50.48200 25.97300
C  29.69400 49.99700 26.97300
C  30.90800 49.54600 26.39600
C  30.87900 49.75700 24.98100
C  29.55100 50.35300 24.80700
C  31.97700 48.72100 27.15200
C  31.93900 49.50400 24.01100
O  31.84800 49.86700 22.84800
C  33.25400 48.87700 24.45000
N  26.79400 51.56800 24.09600
C  27.76500 51.28800 23.18600
C  27.26800 51.58100 21.67500
C  25.79200 52.15100 21.93400
C  25.75500 52.25200 23.43100
C  28.22400 52.47800 20.78800
C  24.65600 51.21100 21.34300
C  23.55300 52.04700 20.71800
N  25.28700 52.24800 26.41200
C  24.44800 52.81900 25.50900
C  23.38200 53.43500 26.17700
C  23.57500 53.20400 27.51100
C  24.78800 52.49500 27.65500
C  22.23900 54.08700 25.60600
C  22.97300 53.34400 28.84900
O  21.93100 53.81200 29.25700
C  23.98300 52.71200 29.80500
C  24.47200 53.87100 30.70200
O  25.04100 54.87200 30.34100
O  24.23200 53.47300 32.02400
C  24.82100 54.48600 32.96500
H  30.04400 49.71600 29.20000
H  29.60900 50.52100 22.66800
H  24.04900 53.47000 23.48700
H  26.82400 51.81700 31.41200
H  28.33300 49.44700 30.92800
H  28.76900 52.29700 31.63000
H  29.99000 51.84600 30.44200
H  29.88300 50.87800 31.88300
H  26.20600 49.03300 31.66000
H  24.95400 49.50500 30.59500
H  23.92900 50.71800 32.37500
H  25.38800 51.20500 33.03800
H  32.87700 49.33500 27.12800
H  32.20600 47.75900 26.69500
H  31.74400 48.67700 28.21600
H  33.93200 48.71800 23.61000
H  33.00900 47.87800 24.81000
H  33.72800 49.54500 25.16800
H  27.24200 50.60100 21.19900
H  25.72700 53.18900 21.60800
H  28.86100 51.92400 20.09900
H  28.92200 53.08600 21.36300
H  27.57500 53.18100 20.26700
H  24.26100 50.45800 22.02500
H  25.02900 50.65200 20.48400
H  22.62400 51.71700 21.18300
H  23.43600 52.01100 19.63500
H  23.70700 53.09100 20.99400
H  21.50400 54.11600 26.41100
H  21.90300 53.42000 24.81300
H  22.43300 55.08800 25.22000
H  23.50100 51.85000 30.26700
H  23.98700 55.16900 33.12500
H  25.77900 54.92900 32.69200
H  24.98800 54.03900 33.94500

