158

Mg 35.91600 1.94300 29.59500
C  33.68400 3.33300 32.13900
C  38.32900 1.96600 31.85200
C  38.05100 1.31700 27.13500
C  33.28300 2.41400 27.27900
N  35.96000 2.75000 31.72800
C  34.99000 3.06900 32.58900
C  35.36200 3.01300 34.11800
C  36.94500 2.69800 33.96800
C  37.15300 2.52300 32.39000
C  37.95100 3.75100 34.59700
C  34.56900 1.89900 34.95100
C  34.10600 2.41400 36.30600
H  35.13900 3.28300 37.07500
N  37.84700 1.64300 29.54600
C  38.67200 1.64300 30.53300
C  39.99000 1.05400 30.10500
C  39.91500 0.94100 28.71600
C  38.54100 1.28800 28.43300
C  41.07000 0.70400 31.03600
C  40.97500 0.42700 27.71500
O  40.73700 0.22800 26.50000
C  42.29300 0.12900 28.21700
N  35.69700 1.81500 27.51700
C  36.73500 1.52900 26.67100
C  36.36400 1.49400 25.17100
C  34.92200 1.95700 25.23000
C  34.55300 2.03700 26.74500
C  37.29200 2.40200 24.34600
C  33.89500 1.08300 24.46300
C  33.38700 -0.20500 25.05300
N  33.84300 2.67000 29.65800
C  32.88300 2.68900 28.65000
C  31.65700 3.18700 29.18900
C  31.89700 3.44700 30.58300
C  33.25500 3.18100 30.81700
C  30.32600 3.43100 28.50300
C  31.35200 3.94500 31.81000
O  30.24600 4.40500 32.08900
C  32.46400 3.78100 32.89400
C  32.52200 5.01500 33.82900
O  32.93700 6.11800 33.49700
O  31.88300 4.74900 35.03200
C  31.63400 5.78700 36.01600
H  39.14800 1.88400 32.57000
H  38.70500 1.19800 26.26900
H  32.40600 2.51000 26.63600
H  35.44100 3.99000 34.59400
H  37.28000 1.85000 34.56600
H  37.56100 4.71000 34.93800
H  38.72900 4.08300 33.91100
H  38.41800 3.34200 35.49400
H  35.24500 1.05300 35.07700
H  33.69300 1.54900 34.40400
H  33.82800 1.54100 36.89700
H  33.18600 2.99600 36.34200
H  41.96000 1.33400 31.03200
H  41.29300 -0.36200 31.00100
H  40.72100 0.78700 32.06500
H  42.81100 1.04800 28.49100
H  42.75000 -0.50700 27.45900
H  42.17300 -0.48700 29.10800
H  36.25100 0.46100 24.84100
H  34.68700 2.95800 24.86900
H  37.93600 1.67700 23.84800
H  37.84700 3.04200 25.03200
H  36.75400 2.92300 23.55400
H  34.38800 0.72400 23.56000
H  33.04100 1.65200 24.09400
H  33.97400 -0.41500 25.94800
H  33.56500 -0.99600 24.32500
H  32.31800 -0.09500 25.23200
H  29.48600 3.80400 29.09000
H  29.91400 2.52000 28.06900
H  30.44300 4.08300 27.63700
H  32.08400 2.94800 33.48600
H  31.19900 6.66200 35.53300
H  32.52100 6.26300 36.43400
H  30.98800 5.58500 36.87000
Mg 40.65700 9.03600 29.49700
C  42.14500 10.55100 32.20300
C  38.30500 7.64000 31.71600
C  39.03300 7.70200 26.93500
C  43.07000 10.35800 27.43300
N  40.32300 9.05200 31.73200
C  41.05400 9.77700 32.60500
C  40.50100 9.56700 34.00500
C  39.33900 8.51300 33.83800
C  39.34600 8.25300 32.35500
C  39.43200 7.26900 34.69100
C  40.11000 10.98300 34.65500
C  39.38600 10.90900 35.99900
H  39.78600 11.78500 37.21000
N  38.93000 7.82700 29.36800
C  38.15200 7.38600 30.33700
C  37.01700 6.71300 29.78600
C  37.20400 6.63700 28.37800
C  38.43200 7.39500 28.16100
C  35.89100 6.04800 30.62200
C  36.44800 5.87900 27.27800
O  36.80200 5.87800 26.14900
C  35.15100 5.18700 27.62200
N  41.04300 8.92400 27.38700
C  40.22800 8.33200 26.56700
C  40.75600 8.55700 25.08200
C  41.93100 9.54500 25.21600
C  42.01200 9.66800 26.75700
C  41.01700 7.21900 24.38600
C  41.60800 10.90000 24.43700
C  40.50600 11.82700 24.97200
N  42.29600 10.07200 29.71800
C  43.20600 10.49900 28.82100
C  44.21800 11.39500 29.43800
C  43.83100 11.46200 30.80200
C  42.68900 10.64600 30.92500
C  45.34900 12.12500 28.72300
C  44.17200 11.98000 32.04200
O  45.13900 12.59800 32.34100
C  43.08200 11.39400 33.05900
C  43.72200 10.47200 34.06600
O  44.26200 9.38200 33.81600
O  43.64400 11.05100 35.31400
C  44.20500 10.34300 36.42600
H  37.61500 7.19000 32.43200
H  38.39900 7.62300 26.04900
H  43.79700 10.68800 26.68800
H  41.32700 9.07800 34.52100
H  38.40100 8.99000 34.12200
H  40.27000 7.27400 35.38900
H  39.57100 6.46900 33.96500
H  38.51300 7.08200 35.24500
H  39.54900 11.48000 33.86400
H  40.90800 11.69600 34.86600
H  39.50100 9.86700 36.29800
H  38.30800 10.96200 35.84800
H  36.27200 5.76500 31.60300
H  35.55800 5.07700 30.25300
H  35.03500 6.70500 30.76900
H  34.45800 5.90900 28.05300
H  35.37500 4.37300 28.31100
H  34.71200 4.78300 26.71000
H  39.88100 8.89900 24.52900
H  42.87600 9.07700 24.93900
H  42.06700 7.15000 24.10000
H  40.41600 7.06400 23.49000
H  40.82800 6.39600 25.07600
H  41.45600 10.67600 23.38100
H  42.52900 11.45700 24.26600
H  40.88100 12.79000 25.32000
H  40.02900 11.39700 25.85300
H  39.69700 11.79000 24.24200
H  45.88600 12.74000 29.44600
H  44.92700 12.88500 28.06600
H  45.96100 11.41000 28.17400
H  42.43500 12.16400 33.47900
H  43.79900 9.33200 36.46100
H  44.05200 10.76600 37.41900
H  45.28000 10.18700 36.33500

