158

Mg 1.70900 -1.40900 44.45400
C  5.07200 -0.53300 43.83500
C  0.89700 1.76000 42.95500
C  -1.51400 -2.36200 43.96400
C  2.74300 -4.47000 45.38700
N  2.87100 0.42200 43.41900
C  4.25000 0.46400 43.36900
C  4.75300 1.82400 42.79200
C  3.39400 2.65800 42.73900
C  2.31300 1.59000 42.98600
C  3.16900 3.72800 43.76600
C  5.47100 1.63600 41.45900
C  6.67700 2.58800 41.09900
H  6.92900 2.86000 39.63800
N  -0.10400 -0.40500 43.62800
C  -0.17200 0.83300 43.11200
C  -1.57200 1.14900 42.80500
C  -2.36900 -0.00000 43.12600
C  -1.35200 -1.01800 43.59900
C  -2.10500 2.47200 42.27800
C  -3.90300 -0.15700 43.04100
O  -4.59800 0.73200 42.59400
C  -4.57700 -1.40200 43.43200
N  0.77500 -3.11600 44.56500
C  -0.57000 -3.31400 44.46200
C  -0.94700 -4.81500 44.79300
C  0.43200 -5.42400 45.22000
C  1.41600 -4.29700 45.02300
C  -2.17500 -5.09000 45.65700
C  0.81300 -6.85500 44.54400
C  1.61900 -7.87600 45.46200
N  3.55200 -2.36800 44.56700
C  3.80000 -3.61600 45.05200
C  5.25400 -3.78300 45.12800
C  5.83800 -2.59200 44.69700
C  4.72800 -1.78500 44.30300
C  5.94600 -4.95600 45.58300
C  7.06700 -1.87000 44.50200
O  8.24100 -2.17700 44.72200
C  6.60300 -0.52900 43.90800
C  7.09600 0.63200 44.71300
O  6.55500 0.96900 45.74900
O  8.22500 1.23100 44.16900
C  8.48400 2.52100 44.70100
H  0.53700 2.72400 42.59100
H  -2.44100 -2.91800 43.81200
H  3.07600 -5.39700 45.85700
H  5.53300 2.32600 43.36300
H  3.15100 3.13900 41.79200
H  2.33400 3.49300 44.42700
H  2.91500 4.64400 43.23200
H  4.09900 3.99900 44.26500
H  4.81900 1.84500 40.61100
H  5.76900 0.59300 41.35900
H  7.59500 2.17300 41.51600
H  6.52100 3.53800 41.61000
H  -3.11500 2.53700 41.87500
H  -1.47100 2.66700 41.41200
H  -1.76000 3.32000 42.87000
H  -5.64700 -1.33400 43.23100
H  -4.45200 -1.52500 44.50800
H  -4.11500 -2.28700 42.99500
H  -1.24800 -5.18600 43.81300
H  0.44800 -5.54000 46.30400
H  -2.62100 -4.12700 45.90600
H  -2.00400 -5.48200 46.66000
H  -2.86000 -5.78500 45.17100
H  1.52600 -6.53500 43.78400
H  0.00400 -7.34900 44.00600
H  0.77300 -8.26100 46.03200
H  2.48800 -7.39600 45.91100
H  2.02800 -8.70900 44.89100
H  7.00500 -4.71200 45.49600
H  5.74400 -5.85300 44.99700
H  5.51200 -5.14600 46.56400
H  7.05700 -0.51300 42.91700
H  7.66400 3.09500 45.13300
H  8.82500 3.27900 43.99600
H  9.35600 2.43500 45.35000
Mg 42.56800 41.55600 25.94600
C  41.70400 43.94800 28.34100
C  43.43400 39.39400 28.41400
C  43.76000 39.39500 23.54700
C  41.96400 43.91700 23.48400
N  42.78000 41.76200 28.09600
C  42.22600 42.77600 28.88800
C  42.26000 42.38600 30.36100
C  42.77900 40.91500 30.37900
C  43.07000 40.63000 28.85000
C  43.92700 40.70700 31.33100
C  40.93600 42.61500 31.09400
C  40.73800 42.02400 32.51400
H  40.27700 42.84700 33.68400
N  43.54600 39.62400 26.00100
C  43.62500 38.88200 27.11600
C  44.09600 37.52900 26.73900
C  44.20500 37.51700 25.29500
C  43.81000 38.89600 24.90300
C  44.26500 36.32300 27.70300
C  44.55500 36.37000 24.32200
O  44.65700 36.45500 23.13900
C  44.88600 35.04200 24.93200
N  42.91600 41.64000 23.84700
C  43.33600 40.64500 23.08300
C  43.29400 40.94000 21.59300
C  42.71600 42.38600 21.60400
C  42.51600 42.74700 23.10700
C  44.70700 40.79400 20.85300
C  41.36500 42.51400 20.82900
C  40.13800 41.87600 21.37000
N  41.99600 43.59000 25.82200
C  41.69200 44.37400 24.75600
C  41.36500 45.68800 25.25700
C  41.26700 45.59700 26.61600
C  41.63300 44.24000 26.93500
C  40.99400 46.87300 24.36000
C  40.84100 46.20600 27.87400
O  40.41500 47.30400 28.17700
C  41.14900 45.19600 29.00900
C  42.11400 45.76000 29.95400
O  43.27500 45.96500 29.77600
O  41.47100 46.08400 31.08100
C  42.27100 46.80800 32.14400
H  43.56200 38.73000 29.27100
H  44.05100 38.77200 22.69900
H  41.86200 44.60700 22.64400
H  42.83900 43.14200 30.89200
H  41.98600 40.23300 30.68700
H  44.81700 40.82800 30.71300
H  43.91600 39.68000 31.69600
H  43.86900 41.39500 32.17300
H  40.06500 42.38800 30.47800
H  40.84500 43.65300 31.41300
H  41.67600 41.55200 32.80600
H  39.92400 41.30300 32.43700
H  44.15200 36.71100 28.71500
H  45.26100 35.93400 27.49200
H  43.54300 35.50700 27.65800
H  44.07100 34.62300 25.52300
H  45.70000 35.28900 25.61300
H  45.33100 34.28900 24.28100
H  42.64200 40.25300 21.05300
H  43.39100 43.16300 21.24400
H  44.90700 41.70200 20.28300
H  44.49000 39.98000 20.16200
H  45.47500 40.41400 21.52700
H  41.52500 42.17500 19.80500
H  41.20700 43.59100 20.76100
H  39.26300 42.50800 21.21900
H  40.25100 41.59100 22.41600
H  40.14700 40.96400 20.77300
H  40.01400 47.32000 24.52600
H  41.11600 46.54800 23.32600
H  41.78600 47.60300 24.52800
H  40.26000 44.85600 29.54000
H  42.97000 47.49700 31.67200
H  42.70600 46.18300 32.92500
H  41.72600 47.60400 32.65100

