158

Mg 40.97600 7.93400 29.61500
C  42.93000 9.32800 32.19500
C  38.74300 6.70200 31.91200
C  39.26200 6.57800 27.09900
C  43.48700 8.88900 27.43600
N  40.86800 8.12500 31.71300
C  41.73400 8.78200 32.51900
C  41.19700 8.68600 34.04700
C  39.80800 7.98100 33.92700
C  39.79900 7.51900 32.48400
C  39.63500 6.88300 34.94400
C  41.06700 10.12500 34.72800
C  40.33100 10.15700 36.09200
H  41.18100 10.36600 37.40000
N  39.22100 6.85400 29.53700
C  38.48600 6.41300 30.56700
C  37.34200 5.64400 30.09300
C  37.39800 5.67900 28.67300
C  38.68000 6.39600 28.33400
C  36.40100 4.86200 30.94900
C  36.42700 5.30200 27.60400
O  36.68600 5.32600 26.44200
C  34.98500 5.08200 28.07000
N  41.41300 7.66800 27.54100
C  40.40200 7.25500 26.72400
C  40.91500 7.34600 25.26000
C  42.11700 8.32000 25.34900
C  42.30900 8.37300 26.84900
C  41.36100 5.96500 24.65800
C  41.84600 9.82500 24.89600
C  40.55000 10.52400 25.28500
N  42.85500 8.72600 29.78000
C  43.77000 9.06100 28.82500
C  44.93300 9.66000 29.31700
C  44.62800 9.84900 30.64200
C  43.39700 9.22900 30.86600
C  46.05900 10.37400 28.55300
C  45.21100 10.32900 31.90100
O  46.27600 10.88100 32.09000
C  44.14400 9.92200 32.93600
C  44.74900 9.07600 33.99600
O  45.06300 7.87900 33.98000
O  44.92200 9.96900 35.03600
C  45.31400 9.36800 36.34800
H  37.98500 6.27900 32.57500
H  38.70800 6.23500 26.22300
H  44.22800 9.33300 26.76800
H  41.94000 8.03000 34.50000
H  39.04200 8.74800 34.04100
H  40.04200 7.20600 35.90200
H  40.22600 6.02300 34.63200
H  38.60500 6.57600 35.12900
H  40.56600 10.71800 33.96200
H  42.07100 10.51200 34.90200
H  39.78500 9.21700 36.17200
H  39.53200 10.88200 35.93800
H  37.04000 4.52200 31.76400
H  36.10300 3.90900 30.51200
H  35.60600 5.44600 31.41000
H  34.90200 4.12500 28.58600
H  34.36800 4.97200 27.17800
H  34.64800 5.91300 28.68900
H  40.15200 7.73200 24.58400
H  43.00300 8.06600 24.76800
H  41.04100 5.17800 25.34200
H  42.43400 6.02600 24.48200
H  40.83600 5.71100 23.73700
H  41.93300 9.81400 23.81000
H  42.78000 10.27300 25.23400
H  40.17300 11.01000 24.38500
H  40.74900 11.13800 26.16300
H  39.74500 9.84500 25.56400
H  45.71700 11.30800 28.10700
H  46.50300 9.76800 27.76300
H  46.87800 10.46700 29.26600
H  43.73700 10.83100 33.37800
H  46.38500 9.55700 36.41700
H  45.13200 8.29400 36.32900
H  44.75200 9.85600 37.14500
Mg -10.76800 39.74000 42.76500
C  -9.00800 36.92000 41.63400
C  -8.55600 41.59000 40.95300
C  -12.90100 42.35700 43.16200
C  -13.37600 37.60800 43.91000
N  -9.01000 39.19900 41.29000
C  -8.40800 38.01900 41.08500
C  -7.08100 38.08600 40.18900
C  -6.83400 39.67200 40.28500
C  -8.19800 40.22400 40.83400
C  -5.63000 40.07800 41.12900
C  -7.32200 37.55200 38.74400
C  -6.54200 36.33800 38.23800
H  -5.94400 36.52100 36.90000
N  -10.73300 41.70400 42.19000
C  -9.79500 42.23600 41.40700
C  -10.05100 43.70600 41.23900
C  -11.15100 43.98500 42.05900
C  -11.66400 42.65400 42.52400
C  -9.26900 44.57500 40.39600
C  -11.60900 45.40100 42.32300
O  -11.06300 46.38900 41.86600
C  -12.91000 45.68500 43.11500
N  -12.83200 39.93500 43.56100
C  -13.51000 41.15200 43.60900
C  -14.90700 40.95100 44.20400
C  -15.07600 39.40100 44.29000
C  -13.66200 38.95200 43.86200
C  -15.10300 41.77700 45.50800
C  -16.26000 38.83800 43.37300
C  -17.05100 37.62900 43.92700
N  -11.05100 37.71400 42.93600
C  -12.15200 36.98700 43.46400
C  -11.83800 35.55900 43.42000
C  -10.59500 35.49600 42.65700
C  -10.11800 36.82700 42.43300
C  -12.72200 34.42100 43.91500
C  -9.63500 34.63300 42.12300
O  -9.60800 33.38400 42.10600
C  -8.58000 35.53600 41.44400
C  -7.24100 35.21900 41.87200
O  -6.88900 35.29300 43.04500
O  -6.66700 34.51000 40.86900
C  -5.37300 33.85800 41.08000
H  -7.79000 42.27600 40.58600
H  -13.51500 43.26000 43.15700
H  -14.19900 36.91100 44.08000
H  -6.29000 37.47800 40.62800
H  -6.65800 40.12400 39.30900
H  -4.88500 40.59500 40.52500
H  -5.14000 39.29300 41.70500
H  -5.95900 40.92000 41.73800
H  -7.42400 38.39200 38.05700
H  -8.34600 37.18300 38.69600
H  -7.21300 35.49500 38.07400
H  -5.68000 36.23600 38.89700
H  -8.74200 43.90600 39.71600
H  -8.54800 45.02500 41.07800
H  -9.89100 45.32800 39.91000
H  -12.87400 45.19400 44.08700
H  -13.78500 45.38500 42.53800
H  -13.06000 46.75100 43.28600
H  -15.70000 41.46300 43.66000
H  -15.27100 39.06400 45.30900
H  -14.13300 42.10700 45.87700
H  -15.63500 41.14000 46.21600
H  -15.68100 42.65500 45.22100
H  -15.82200 38.57300 42.41000
H  -16.87100 39.65700 42.99200
H  -18.01300 37.86400 44.38300
H  -16.44500 36.99900 44.57800
H  -17.17700 37.01700 43.03400
H  -12.23300 33.44900 43.86300
H  -13.65100 34.39200 43.34500
H  -13.06100 34.49900 44.94900
H  -8.67500 35.27600 40.39000
H  -4.67300 34.41000 41.70500
H  -4.87800 33.86100 40.10900
H  -5.55200 32.93700 41.63500

