158

Mg 24.59800 -5.31600 45.48400
C  26.90600 -3.13200 43.84200
C  22.21700 -4.30900 43.43200
C  22.83900 -7.94100 46.50300
C  27.52300 -6.62200 47.27800
N  24.66000 -3.92400 43.79500
C  25.59000 -3.06300 43.34900
C  25.06300 -2.09600 42.25500
C  23.51200 -2.27000 42.52600
C  23.42300 -3.57800 43.32100
C  22.90400 -1.10000 43.26400
C  25.72600 -2.73000 40.91400
C  26.44200 -1.73000 40.01800
H  26.17000 -1.99400 38.50600
N  22.72900 -6.08200 44.90600
C  21.88200 -5.52200 44.08300
C  20.63000 -6.25300 44.10200
C  20.76700 -7.28600 45.12100
C  22.10200 -7.06700 45.62400
C  19.44900 -5.97400 43.10100
C  19.73700 -8.40300 45.47000
O  18.64400 -8.44300 44.89300
C  19.89200 -9.29400 46.72600
N  25.12200 -7.08500 46.69600
C  24.10400 -7.89800 47.06100
C  24.76200 -9.07300 47.87400
C  26.16300 -8.53700 48.35400
C  26.30400 -7.39500 47.41600
C  23.85800 -9.69200 48.92500
C  27.27300 -9.59500 48.20100
C  28.37600 -9.70000 49.28900
N  26.76100 -4.86100 45.74000
C  27.76900 -5.50400 46.40200
C  29.04700 -4.86100 46.18700
C  28.75500 -3.84000 45.28000
C  27.36300 -3.96900 44.92800
C  30.33800 -5.17100 46.88900
C  29.34200 -2.77600 44.48600
O  30.49700 -2.34400 44.39800
C  28.16500 -2.33000 43.43300
C  27.92900 -0.85800 43.55700
O  27.08400 -0.32500 44.25300
O  28.64000 -0.25600 42.53100
C  28.24800 1.15900 42.34100
H  21.36800 -3.84400 42.92700
H  22.40200 -8.92700 46.67600
H  28.30200 -7.11900 47.86000
H  25.37300 -1.08200 42.51000
H  22.98600 -2.45600 41.59000
H  21.90500 -0.93300 42.86300
H  23.42800 -0.15300 43.13500
H  22.87100 -1.13000 44.35300
H  24.92600 -3.14900 40.30200
H  26.40600 -3.55800 41.11100
H  27.50900 -1.91200 40.14800
H  26.18700 -0.72600 40.35700
H  18.47700 -6.25000 43.51000
H  19.69300 -6.44400 42.14800
H  19.28700 -4.92500 42.85000
H  20.46300 -8.68400 47.42500
H  20.28100 -10.27500 46.45400
H  18.89800 -9.32200 47.17400
H  24.97600 -9.75800 47.05400
H  26.09500 -8.17700 49.38100
H  22.90800 -9.17200 48.80300
H  24.23800 -9.71500 49.94600
H  23.74900 -10.69500 48.51200
H  27.77900 -9.42800 47.25000
H  26.85400 -10.60200 48.19600
H  28.46200 -10.72100 49.66000
H  28.13900 -9.04800 50.13000
H  29.32400 -9.21900 49.04700
H  30.14400 -5.13400 47.96100
H  31.07200 -4.40500 46.64100
H  30.58300 -6.19600 46.60800
H  28.60400 -2.57000 42.46500
H  27.29300 1.45400 42.77500
H  28.09500 1.41600 41.29200
H  28.98800 1.89000 42.66800
Mg 26.25400 49.85000 26.48800
C  24.27900 51.12500 29.00200
C  28.57800 48.87200 28.77100
C  28.34200 49.21700 23.95700
C  24.14700 51.55300 24.13800
N  26.35200 49.92500 28.63800
C  25.39000 50.36300 29.49200
C  25.65600 49.97100 30.97700
C  27.19200 49.46900 30.83700
C  27.38200 49.45200 29.32900
C  28.13400 50.45800 31.68200
C  24.63600 48.93400 31.53800
C  23.92400 49.31400 32.82700
H  24.74900 49.98300 34.04400
N  28.17800 49.07300 26.40600
C  28.99600 48.67600 27.44800
C  30.18000 48.11700 26.94200
C  30.04600 48.08900 25.51900
C  28.86900 48.84000 25.22000
C  31.26000 47.54500 27.84100
C  31.00800 47.53800 24.49200
O  30.86400 47.58100 23.25400
C  32.16500 46.79900 24.93200
N  26.28200 50.32300 24.45600
C  27.19400 49.81400 23.56300
C  26.88900 49.92800 21.98600
C  25.48800 50.68200 22.19300
C  25.25200 50.81500 23.68300
C  27.92300 50.66500 21.07300
C  24.30700 49.84800 21.41300
C  23.94600 50.21400 19.91900
N  24.49100 50.98600 26.47200
C  23.80100 51.69100 25.46800
C  22.63100 52.34000 26.05900
C  22.83500 52.13400 27.39500
C  23.97400 51.35400 27.63100
C  21.53800 53.23000 25.37800
C  22.30400 52.48600 28.70800
O  21.29600 53.04500 29.04000
C  23.14200 51.68900 29.84400
C  23.50400 52.65000 30.91000
O  24.53100 53.26300 30.95400
O  22.58800 52.71000 31.94700
C  22.80500 53.73000 33.00400
H  29.23000 48.49400 29.56100
H  28.96100 48.77000 23.17700
H  23.51600 51.89200 23.31400
H  25.54600 50.86400 31.59200
H  27.35300 48.45000 31.18900
H  27.87100 51.49300 31.46400
H  29.07500 50.18000 31.20600
H  28.06200 50.16200 32.72900
H  25.19200 48.01500 31.72200
H  23.92800 48.75000 30.72900
H  23.45600 48.37400 33.11800
H  23.09700 49.99700 32.63100
H  32.25900 47.78600 27.47700
H  31.25100 46.46300 27.96800
H  31.17100 47.98400 28.83500
H  32.97600 47.41900 25.31400
H  32.51600 46.27100 24.04600
H  31.86800 46.03700 25.65400
H  26.89300 48.89900 21.62400
H  25.53300 51.64000 21.67400
H  28.51400 51.30300 21.73100
H  27.50800 51.38100 20.36300
H  28.58300 50.01100 20.50300
H  23.43600 50.02800 22.04200
H  24.50700 48.78200 21.51900
H  24.52900 49.51200 19.32300
H  24.27700 51.22600 19.68900
H  22.86800 50.14200 19.77100
H  21.38400 52.82400 24.37800
H  21.58700 54.31300 25.49400
H  20.57200 52.92100 25.77900
H  22.68800 50.79900 30.28000
H  23.73300 53.63000 33.56700
H  22.03100 53.74800 33.77200
H  22.76900 54.72500 32.56200

