158

Mg 41.03100 8.52600 29.87600
C  42.72600 9.92100 32.63500
C  38.60000 7.46800 32.08300
C  39.31800 7.13900 27.25700
C  43.83700 8.75000 28.04800
N  40.69000 8.71800 32.14800
C  41.49500 9.45700 33.02200
C  40.75200 9.53100 34.36100
C  39.53600 8.67200 34.17700
C  39.57300 8.30200 32.69400
C  39.38500 7.33000 34.98900
C  40.62800 11.03100 34.94500
C  39.87400 11.33800 36.24400
H  40.67900 12.14500 37.34600
N  39.17400 7.49000 29.67600
C  38.40300 7.10500 30.71700
C  37.20500 6.48200 30.18500
C  37.33700 6.47000 28.77700
C  38.60000 7.10800 28.47900
C  36.09500 6.08200 31.09200
C  36.53300 5.79000 27.67700
O  36.78200 5.78800 26.45700
C  35.32200 4.98400 28.07000
N  41.51100 7.94300 28.02400
C  40.61600 7.47500 27.11100
C  41.35200 7.04300 25.75500
C  42.72800 7.66900 26.00200
C  42.71000 8.17400 27.43400
C  41.30000 5.54000 25.43600
C  43.06800 8.80100 24.88600
C  42.34900 10.11700 25.20700
N  42.89800 9.34000 30.20000
C  44.01400 9.31400 29.32600
C  45.08500 9.96800 29.99700
C  44.67400 10.28600 31.25500
C  43.33000 9.77300 31.36000
C  46.33700 10.21300 29.33600
C  45.06600 10.83700 32.46500
O  46.02400 11.42600 32.84300
C  43.81500 10.53500 33.53500
C  44.26500 9.69300 34.65200
O  45.02100 8.72600 34.54800
O  43.64700 10.02300 35.79900
C  44.18200 9.34300 36.96800
H  37.88500 7.19000 32.85900
H  38.91200 6.76200 26.31600
H  44.68100 8.67600 27.35900
H  41.30800 9.01800 35.14500
H  38.65700 9.30000 34.32400
H  39.48400 6.54800 34.23600
H  38.39500 7.29200 35.44300
H  40.17700 7.04700 35.68300
H  40.09600 11.65600 34.22800
H  41.61800 11.42100 35.18100
H  39.55400 10.36300 36.61100
H  38.99200 11.96400 36.10500
H  36.25400 6.04400 32.17000
H  35.89100 5.02000 30.95000
H  35.20400 6.68300 30.91200
H  35.62700 4.25500 28.82100
H  35.03300 4.45000 27.16400
H  34.52500 5.62700 28.44300
H  40.82700 7.54500 24.94200
H  43.56100 6.97000 26.08000
H  42.33100 5.19100 25.50400
H  40.96500 5.44500 24.40300
H  40.64400 5.01400 26.12900
H  42.77600 8.57400 23.86100
H  44.15200 8.89500 24.93700
H  41.55300 10.19600 24.46800
H  42.97100 11.01000 25.15600
H  41.80200 10.16300 26.14900
H  46.58700 9.39400 28.66100
H  47.17300 10.28900 30.03000
H  46.18300 11.15000 28.80000
H  43.55000 11.51300 33.93600
H  45.25800 9.23600 37.10200
H  43.72300 8.36100 37.08200
H  43.82000 9.86600 37.85300
Mg 48.22000 44.72900 42.39700
C  44.85400 43.97400 42.19500
C  48.82600 41.27900 41.89000
C  51.47700 45.37100 42.16500
C  47.40000 48.09200 42.07600
N  46.96500 42.80300 41.95100
C  45.57800 42.82400 41.99600
C  44.99200 41.38800 41.96600
C  46.33800 40.49800 42.09900
C  47.47100 41.55400 41.96900
C  46.51400 39.52600 43.28800
C  43.92900 41.10500 40.80200
C  44.07900 41.96100 39.53100
H  44.34300 41.18300 38.24400
N  49.98000 43.50600 42.10200
C  49.99200 42.15500 41.95900
C  51.38300 41.74100 41.84000
C  52.19100 42.91400 41.95900
C  51.25700 43.97900 42.13700
C  51.74000 40.25300 41.66000
C  53.72100 42.98800 41.72000
O  54.38300 42.02800 41.28000
C  54.41600 44.31100 41.89400
N  49.26400 46.48000 42.12000
C  50.64200 46.45500 42.15200
C  51.23900 47.91500 42.13000
C  49.90600 48.79900 42.08100
C  48.73300 47.75300 41.99400
C  52.29700 48.21800 43.18800
C  49.78200 49.75200 40.90700
C  50.00300 51.25500 41.20300
N  46.45600 45.85700 42.26000
C  46.27400 47.27400 42.17600
C  44.87200 47.59800 42.23600
C  44.23800 46.33800 42.35300
C  45.26400 45.34200 42.33100
C  44.33600 48.96100 42.14700
C  42.98000 45.65500 42.39000
O  41.83000 46.05000 42.38700
C  43.30000 44.09600 42.33600
C  42.71300 43.44400 43.53900
O  41.89900 42.54300 43.57900
O  43.33400 43.99200 44.64400
C  42.96000 43.52000 46.03000
H  49.13300 40.23900 41.76200
H  52.50100 45.74600 42.21800
H  47.16500 49.15900 42.08900
H  44.36100 41.37700 42.85500
H  46.50100 39.92200 41.18800
H  46.56900 38.51800 42.87900
H  45.72600 39.55600 44.04100
H  47.49200 39.64900 43.75300
H  42.92000 41.29200 41.16800
H  43.93400 40.04100 40.56400
H  44.82300 42.75500 39.59900
H  43.15500 42.53900 39.54000
H  52.82400 40.17400 41.58100
H  51.33800 39.77500 40.76700
H  51.36700 39.73200 42.54200
H  54.14100 45.13800 41.24000
H  55.48800 44.11300 41.87000
H  54.12600 44.57000 42.91300
H  51.77400 47.90500 41.18000
H  49.61700 49.34100 42.98200
H  52.03400 47.55000 44.00800
H  52.17900 49.25200 43.51100
H  53.35200 48.03900 42.98100
H  48.79600 49.73100 40.44500
H  50.52200 49.51400 40.14200
H  49.18400 51.82600 40.76400
H  50.84200 51.77600 40.74200
H  50.30900 51.45500 42.22900
H  44.77300 49.53700 41.33100
H  44.53800 49.42200 43.11400
H  43.25500 48.99900 42.01200
H  42.78700 43.66000 41.47900
H  42.12700 44.12500 46.38800
H  43.84900 43.69500 46.63500
H  42.59100 42.49500 46.07100

