158

Mg 53.52600 23.33800 45.29700
C  51.02000 25.49900 44.30600
C  51.61700 20.70200 44.20900
C  56.39000 21.27800 45.13200
C  55.65200 26.02500 46.06700
N  51.50700 23.11700 44.22700
C  50.69900 24.15700 44.08200
C  49.34500 23.59600 43.53600
C  49.41400 22.12800 44.05800
C  50.94200 21.91400 44.21600
C  48.62400 21.82500 45.38700
C  49.41000 23.65400 41.94800
C  48.07400 24.02700 41.28500
H  47.95400 23.76100 39.73700
N  53.87500 21.26800 44.86700
C  52.93300 20.41400 44.42100
C  53.50900 19.10200 44.41100
C  54.93700 19.17400 44.77400
C  55.13700 20.58900 44.91700
C  52.66600 17.84400 43.94200
C  55.84000 17.99000 45.08900
O  55.41100 16.91500 44.75900
C  57.18400 18.07900 45.80600
N  55.84400 23.59800 45.53700
C  56.74500 22.64100 45.52000
C  58.14500 23.18000 45.83700
C  57.88200 24.72500 46.17100
C  56.40000 24.80800 45.82800
C  58.77700 22.32400 46.98900
C  58.78700 25.73700 45.39700
C  59.47700 26.80500 46.31000
N  53.41900 25.34900 45.29800
C  54.24700 26.32600 45.77000
C  53.56700 27.66200 45.74300
C  52.31100 27.37600 45.13900
C  52.25700 25.92600 44.87700
C  54.09500 28.96200 46.24200
C  51.08100 27.95900 44.69900
O  50.63300 29.11100 44.71500
C  50.16500 26.77100 44.11200
C  49.87900 27.03600 42.64800
O  50.82200 27.20200 41.87000
O  48.58700 27.19600 42.42400
C  48.20600 27.84400 41.14600
H  50.85600 19.92300 44.13200
H  57.29400 20.67500 45.03100
H  56.35200 26.82500 46.31800
H  48.48600 24.13600 43.93400
H  48.93200 21.41700 43.38700
H  48.21600 22.72800 45.84100
H  49.31500 21.34900 46.08200
H  47.86400 21.06600 45.19900
H  49.69400 22.68900 41.52900
H  50.12300 24.34300 41.49400
H  47.87600 25.07100 41.52700
H  47.23400 23.49500 41.73200
H  52.20000 17.39500 44.81900
H  53.30300 17.04000 43.57500
H  51.86000 18.06300 43.24100
H  56.93100 18.62300 46.71600
H  57.99400 18.56500 45.26300
H  57.44900 17.04900 46.04500
H  58.66500 23.06800 44.88600
H  57.99000 24.78600 47.25400
H  59.40300 22.96700 47.60800
H  59.32700 21.49700 46.53800
H  57.97400 21.88200 47.57900
H  58.29500 26.36900 44.65900
H  59.60200 25.33600 44.79400
H  58.67300 27.51700 46.50000
H  60.34800 27.35100 45.94700
H  59.90900 26.29700 47.17100
H  55.11900 28.71500 46.52200
H  53.60900 29.33500 47.14300
H  53.97900 29.78600 45.53700
H  49.25100 26.83700 44.70300
H  49.03200 27.88600 40.43500
H  47.92400 28.85500 41.44000
H  47.31200 27.40200 40.70700
Mg 47.57000 34.20100 27.08800
C  45.68300 32.54700 29.63000
C  48.04700 36.77500 29.16600
C  48.97000 35.83900 24.50600
C  46.98000 31.44200 25.10100
N  46.97000 34.55900 29.17500
C  46.25200 33.76900 30.05400
C  46.27800 34.38500 31.49500
C  46.70300 35.87300 31.21800
C  47.32400 35.69500 29.75800
C  45.42500 36.76600 31.37600
C  47.26700 33.71000 32.52300
C  46.84900 33.48800 33.93300
H  46.39900 34.69900 34.81500
N  48.33100 36.03600 26.85700
C  48.55600 36.98500 27.87000
C  49.10400 38.18500 27.29900
C  49.40600 38.00500 25.88700
C  48.89200 36.58800 25.65100
C  49.34300 39.48300 28.12300
C  50.18500 38.81900 24.89300
O  50.35700 38.52200 23.74200
C  50.71700 40.18300 25.34000
N  47.94900 33.69900 25.11800
C  48.51600 34.54000 24.25200
C  48.75400 33.80800 22.82000
C  48.23800 32.37900 23.14400
C  47.71800 32.48700 24.58000
C  48.10400 34.43500 21.55600
C  49.40200 31.27800 22.99000
C  49.05000 30.07500 22.13200
N  46.41700 32.47300 27.16100
C  46.21200 31.45000 26.28500
C  45.28400 30.48200 26.72600
C  45.04600 30.84300 28.11100
C  45.86600 32.04000 28.35900
C  44.77200 29.28600 25.91100
C  44.36500 30.47500 29.30300
O  43.54300 29.54400 29.52800
C  44.66600 31.65100 30.34500
C  45.28500 30.98700 31.53200
O  46.32700 30.36900 31.52300
O  44.41000 31.02500 32.52900
C  44.80200 30.17700 33.63100
H  48.08900 37.65500 29.81100
H  49.44800 36.24500 23.61200
H  46.80700 30.69100 24.32800
H  45.26800 34.36800 31.90400
H  47.45700 36.30500 31.87700
H  45.64700 37.54100 32.10900
H  44.65000 36.16100 31.84700
H  45.05200 37.14300 30.42300
H  48.23300 34.18300 32.70100
H  47.63800 32.77800 32.09700
H  47.79500 33.12600 34.33500
H  46.03200 32.79500 34.13600
H  48.80000 40.26200 27.58800
H  50.41700 39.60800 28.26600
H  48.68300 39.42700 28.98700
H  51.37200 40.06500 26.20300
H  49.76800 40.67500 25.55200
H  51.28200 40.62400 24.51900
H  49.83100 33.80000 22.65000
H  47.42400 32.20900 22.43900
H  48.83900 35.11000 21.11800
H  47.29200 35.05300 21.93900
H  47.63100 33.74400 20.85800
H  49.49400 30.89700 24.00700
H  50.37400 31.66200 22.68000
H  48.13200 30.34000 21.60600
H  48.78300 29.17200 22.68100
H  49.73000 29.81900 21.31900
H  44.07100 29.70300 25.18800
H  44.26500 28.51600 26.49200
H  45.61000 28.78600 25.42400
H  43.75000 32.12300 30.70000
H  44.92900 29.12600 33.37300
H  43.91000 30.21600 34.25600
H  45.58300 30.43400 34.34700

