158

Mg 34.79800 3.25300 29.52500
C  32.55300 3.84300 32.15400
C  37.35500 3.53300 32.00300
C  37.13700 2.68600 27.20200
C  32.36300 3.80700 27.26100
N  34.96000 3.77900 31.81500
C  33.89400 3.89900 32.62900
C  34.33000 3.96900 34.07400
C  35.90700 4.27200 33.97500
C  36.14500 3.85000 32.48800
C  36.38700 5.78500 34.33000
C  33.87900 2.83100 34.93900
C  33.72200 3.12300 36.46300
H  34.47100 4.33100 37.06200
N  36.91800 2.88800 29.67100
C  37.81900 3.11800 30.75300
C  39.13100 2.74300 30.33500
C  39.01200 2.25100 28.97700
C  37.66200 2.63600 28.52500
C  40.26200 2.85100 31.18900
C  40.02400 1.49400 28.12200
O  39.81500 1.26300 26.92000
C  41.48100 0.96000 28.64400
N  34.88700 3.44700 27.53500
C  35.87600 3.02100 26.74300
C  35.50700 3.32700 25.24400
C  33.95700 3.52300 25.27400
C  33.69200 3.63500 26.76200
C  36.29300 4.60500 24.64700
C  33.17400 2.42300 24.57500
C  32.55800 1.26200 25.39300
N  32.78900 3.69300 29.58300
C  31.90200 3.75100 28.60700
C  30.53100 3.81600 29.07100
C  30.77200 3.89700 30.49900
C  32.16800 3.79200 30.75100
C  29.24600 3.92200 28.27300
C  30.11000 4.01100 31.81500
O  28.95000 4.04500 32.14800
C  31.27000 4.07700 32.91000
C  31.18700 5.39700 33.56300
O  31.23100 6.49200 32.99800
O  31.04000 5.20400 34.91000
C  31.14200 6.51500 35.65900
H  38.11800 3.57500 32.78300
H  37.89300 2.47900 26.44200
H  31.62100 3.80400 26.45900
H  33.95000 4.92900 34.42200
H  36.39400 3.52500 34.60100
H  35.64900 6.56200 34.52900
H  36.99400 6.04200 33.46100
H  37.02700 5.73500 35.21100
H  34.61700 2.03000 34.93100
H  32.99700 2.39200 34.47300
H  34.12200 2.19500 36.87300
H  32.66600 3.30100 36.66500
H  40.14300 3.72400 31.83100
H  41.13300 2.80200 30.53500
H  40.23100 1.96100 31.81700
H  41.92900 0.26200 27.93600
H  41.23300 0.49500 29.59800
H  42.02800 1.89000 28.79400
H  35.83200 2.50300 24.60700
H  33.63700 4.49300 24.89400
H  35.68000 5.50700 24.64700
H  36.66700 4.40400 23.64400
H  37.16300 4.72300 25.29300
H  33.82100 2.03900 23.78600
H  32.41500 2.98500 24.03100
H  31.51900 1.28600 25.72000
H  33.27800 1.09300 26.19400
H  32.72900 0.27200 24.97100
H  29.31200 3.96300 27.18600
H  28.69200 4.79400 28.62200
H  28.55400 3.11300 28.50600
H  31.29800 3.38000 33.74700
H  30.67300 7.33400 35.11400
H  32.20200 6.74300 35.77400
H  30.56100 6.32200 36.56000
Mg 17.39600 52.67100 26.33100
C  19.40400 50.98000 28.59200
C  15.10300 53.19900 29.05300
C  15.03000 54.10300 24.26600
C  19.25900 51.43100 23.66500
N  17.36100 52.18000 28.55000
C  18.42400 51.63100 29.23700
C  18.14400 51.58600 30.76600
C  16.54800 51.86900 30.79600
C  16.31400 52.56800 29.40400
C  15.62000 50.69200 31.03500
C  18.96400 52.66700 31.54000
C  19.13600 52.41500 33.02100
H  17.99500 51.69400 33.66500
N  15.32200 53.58300 26.55800
C  14.67500 53.75800 27.73800
C  13.33100 54.24500 27.39500
C  13.32400 54.66300 26.07800
C  14.57500 54.08800 25.56300
C  12.26400 54.24500 28.41000
C  12.23400 55.36900 25.23400
O  12.30100 55.63200 24.06400
C  10.97100 55.73300 25.99400
N  17.16100 52.81600 24.29400
C  16.21800 53.55300 23.65800
C  16.37500 53.40300 22.10000
C  17.73700 52.72300 21.98100
C  18.04200 52.19100 23.41500
C  15.21800 52.66800 21.34100
C  18.85400 53.67600 21.24600
C  19.27900 54.85100 22.09200
N  19.09400 51.58400 26.11000
C  19.76900 51.13000 24.95200
C  20.96000 50.38600 25.38400
C  20.86700 50.34900 26.80600
C  19.67800 50.97700 27.20000
C  22.04400 49.85800 24.47300
C  21.53900 49.93500 28.03200
O  22.57100 49.29000 28.04400
C  20.69300 50.35700 29.22100
C  20.35400 49.29600 30.15500
O  19.72300 48.27100 29.91200
O  20.94000 49.56900 31.37200
C  20.66100 48.54000 32.41500
H  14.47400 53.46000 29.90700
H  14.35200 54.63200 23.59400
H  19.74600 50.94800 22.81500
H  18.21700 50.55900 31.12500
H  16.30500 52.62800 31.53900
H  14.88500 50.61300 30.23400
H  15.02700 50.76000 31.94800
H  16.12700 49.74100 30.87700
H  18.56700 53.67400 31.41100
H  19.95100 52.64600 31.07900
H  19.25800 53.35800 33.55400
H  20.01400 51.77400 33.10100
H  11.96100 55.21100 28.81200
H  12.47200 53.64500 29.29600
H  11.42300 53.71200 27.96500
H  11.19900 56.37600 26.84400
H  10.43400 54.81800 26.24600
H  10.40300 56.26800 25.23400
H  16.41900 54.43000 21.73600
H  17.73100 51.83000 21.35500
H  15.52000 51.88100 20.65000
H  14.47200 53.27500 20.82900
H  14.64400 52.22500 22.15500
H  18.50700 53.91600 20.24100
H  19.65900 52.95500 21.09900
H  18.93400 55.71500 21.52300
H  20.35500 54.77400 22.24700
H  18.72300 54.80600 23.02800
H  22.03900 48.79800 24.72500
H  22.98300 50.38300 24.64700
H  21.67700 49.88200 23.44700
H  21.22700 51.11600 29.79300
H  20.85000 47.51500 32.09900
H  19.57800 48.62900 32.50400
H  21.09800 48.65700 33.40700

