158

Mg 41.09700 8.94500 29.39800
C  43.32800 10.17200 31.82300
C  38.98400 7.90800 32.08500
C  39.12100 7.51100 27.23900
C  43.64000 9.43800 26.98200
N  41.22900 8.97900 31.69000
C  42.18600 9.57900 32.44800
C  41.77000 9.64300 33.98500
C  40.55500 8.68400 34.02700
C  40.20900 8.51600 32.49900
C  40.79000 7.29500 34.77800
C  41.69200 11.06600 34.60500
C  40.96300 11.10200 35.93600
H  41.56100 11.83600 37.17400
N  39.32000 7.89400 29.60900
C  38.57000 7.61300 30.73200
C  37.35400 6.85500 30.30700
C  37.26200 6.96000 28.89100
C  38.62900 7.49200 28.53300
C  36.33900 6.27100 31.37300
C  36.12300 6.77700 28.00700
O  36.11700 6.78200 26.77500
C  34.69200 6.51500 28.63500
N  41.31700 8.48600 27.42600
C  40.30200 7.96700 26.62000
C  40.64700 7.91000 25.12700
C  41.97700 8.73100 25.15100
C  42.36300 8.85400 26.58500
C  40.76500 6.45300 24.69500
C  41.92400 10.07300 24.56000
C  42.96700 10.63400 23.73400
N  43.10000 9.72300 29.33700
C  44.02700 9.84600 28.31400
C  45.19900 10.46400 28.80000
C  44.99800 10.67200 30.15600
C  43.69400 10.10400 30.45300
C  46.48500 10.97100 28.06200
C  45.44800 11.24700 31.32700
O  46.45200 11.96300 31.51600
C  44.43100 10.90300 32.51900
C  45.10200 10.17100 33.52800
O  45.24900 8.97100 33.52500
O  45.36500 10.96600 34.58300
C  45.84000 10.30800 35.74600
H  38.25000 7.65400 32.85200
H  38.48300 7.18000 26.41700
H  44.20400 9.49100 26.04900
H  42.62400 9.08300 34.36600
H  39.72100 9.16100 34.54100
H  41.75600 7.23400 35.28000
H  40.77400 6.45200 34.08700
H  39.96500 7.07300 35.45400
H  40.97500 11.63600 34.01600
H  42.67100 11.54500 34.62400
H  40.75000 10.08900 36.27600
H  39.98900 11.58700 35.86800
H  36.64200 6.26100 32.42000
H  36.11600 5.23200 31.13000
H  35.33800 6.66700 31.20200
H  34.32200 7.45800 29.03700
H  34.57400 5.75300 29.40500
H  34.02900 6.20000 27.82800
H  39.94200 8.53000 24.57300
H  42.62400 8.08400 24.55700
H  39.75100 6.14500 24.43800
H  41.15300 5.89800 25.55000
H  41.34000 6.22700 23.79800
H  41.52100 10.79800 25.26800
H  41.10200 9.91300 23.86300
H  42.61600 10.70300 22.70400
H  43.90000 10.07100 23.77400
H  43.03400 11.67600 24.04400
H  46.72300 12.01000 28.28800
H  46.40300 10.95500 26.97600
H  47.27300 10.29600 28.39700
H  44.20900 11.90300 32.89100
H  45.01800 9.76100 36.20900
H  46.14100 10.92300 36.59400
H  46.67700 9.64400 35.53000
Mg 0.35600 44.08100 25.59000
C  2.39000 43.70100 28.38400
C  -2.37800 43.19200 27.54200
C  -1.64500 43.76600 22.71200
C  3.07900 44.32100 23.58200
N  0.03500 43.54400 27.70800
C  0.99300 43.57600 28.75000
C  0.43500 43.32400 30.18100
C  -1.05500 42.90500 29.78700
C  -1.18300 43.25100 28.26400
C  -1.41400 41.41200 30.16600
C  0.42600 44.63800 31.07900
C  0.85500 44.44000 32.48500
H  0.72200 43.06600 33.14800
N  -1.73500 43.78500 25.27200
C  -2.67400 43.51000 26.21800
C  -3.97700 43.49300 25.55700
C  -3.75400 43.62800 24.14300
C  -2.31100 43.73400 23.99500
C  -5.26500 43.36000 26.33400
C  -4.77900 43.55500 23.07700
O  -4.51900 43.58800 21.87300
C  -6.29100 43.41000 23.34600
N  0.69300 43.74100 23.40200
C  -0.26700 43.83500 22.43100
C  0.36700 43.94000 21.08700
C  1.81000 44.42700 21.40200
C  1.89700 44.14300 22.85900
C  0.14600 42.68300 20.27300
C  1.92300 45.95200 21.15800
C  3.07200 46.45600 20.40100
N  2.35200 43.97800 25.86500
C  3.36300 44.22300 24.93400
C  4.58600 44.36200 25.65200
C  4.28100 44.06000 27.03500
C  2.89200 43.81700 27.10300
C  5.96600 44.67900 25.04200
C  4.82400 44.06200 28.38500
O  5.98200 44.18600 28.79200
C  3.59800 43.79600 29.28100
C  3.77400 42.60300 30.11100
O  3.45400 41.44300 29.86100
O  4.37900 42.95800 31.26000
C  4.74000 41.99200 32.19900
H  -3.32000 42.98400 28.05300
H  -2.21000 43.67900 21.78200
H  3.91500 44.61000 22.94200
H  1.08300 42.51100 30.51100
H  -1.74700 43.60500 30.25500
H  -2.28300 41.47900 30.82000
H  -0.62800 41.02300 30.81300
H  -1.55700 40.78200 29.28800
H  -0.53200 45.15700 31.05700
H  1.14300 45.30300 30.59600
H  0.08900 45.02400 32.99500
H  1.83800 44.85900 32.69800
H  -6.04500 44.06900 26.05700
H  -5.17500 43.63600 27.38500
H  -5.65200 42.34100 26.30500
H  -6.90700 43.23600 22.46400
H  -6.68100 44.33200 23.77600
H  -6.37800 42.53400 23.98900
H  -0.12300 44.74000 20.53200
H  2.64200 43.92300 20.91000
H  -0.39400 41.94700 20.86800
H  1.13900 42.30200 20.03500
H  -0.46000 42.88100 19.38900
H  1.99300 46.51000 22.09200
H  1.07400 46.44400 20.68200
H  3.64500 47.12800 21.03900
H  2.79200 46.96000 19.47600
H  3.76100 45.69200 20.04100
H  6.39300 45.62600 25.37200
H  5.92100 44.76400 23.95700
H  6.59400 43.84800 25.36500
H  3.53700 44.69000 29.90100
H  4.73700 42.37500 33.21900
H  5.68600 41.49800 31.97700
H  3.90700 41.28900 32.23600

