158

Mg 25.66400 0.13000 29.18700
C  27.77700 -0.64700 31.95600
C  23.06800 0.59300 31.24800
C  23.90500 0.45000 26.49900
C  28.50400 -0.87600 27.17200
N  25.51500 0.02400 31.31800
C  26.48900 -0.22300 32.33100
C  25.96600 -0.07600 33.76900
C  24.47500 0.38000 33.43000
C  24.30600 0.30800 31.90100
C  23.39900 -0.27900 34.29000
C  26.77600 1.00700 34.65300
C  27.48100 0.56200 35.85000
H  27.36400 1.45900 37.06900
N  23.78700 0.51200 28.88700
C  22.83200 0.74200 29.84400
C  21.56300 1.05300 29.17900
C  21.88000 1.23200 27.81500
C  23.22800 0.67000 27.65300
C  20.26200 1.31200 30.04000
C  21.06000 1.75900 26.64300
O  21.48000 1.94000 25.50900
C  19.59900 1.94400 26.89800
N  26.19100 -0.06700 27.11200
C  25.22300 0.17300 26.18200
C  25.78000 0.02600 24.71500
C  27.30600 -0.09600 24.99100
C  27.37400 -0.32100 26.51600
C  25.02700 -1.09300 23.95400
C  28.17100 1.12700 24.50200
C  28.07100 2.45900 25.35200
N  27.65400 -0.92500 29.43900
C  28.68700 -1.18500 28.54600
C  29.87000 -1.72200 29.23800
C  29.53600 -1.54000 30.61200
C  28.21900 -0.96000 30.63500
C  31.14000 -2.27100 28.61000
C  30.04100 -1.66200 32.01500
O  31.14800 -1.98200 32.41900
C  28.82800 -1.09000 32.88700
C  28.48700 -2.12100 33.85600
O  27.61600 -2.93300 33.87400
O  29.37600 -1.98500 34.86000
C  29.13900 -2.74400 36.08800
H  22.19700 0.83400 31.86000
H  23.28300 0.73800 25.64800
H  29.32500 -1.19600 26.52700
H  25.82500 -1.01300 34.30600
H  24.33600 1.44400 33.61700
H  22.94100 -1.03000 33.64700
H  22.65200 0.50700 34.40400
H  23.70500 -0.69700 35.24900
H  26.05000 1.72500 35.03400
H  27.42000 1.58900 33.99400
H  28.51300 0.44700 35.51900
H  26.99600 -0.38900 36.06800
H  20.00700 2.37100 30.01100
H  20.33300 0.83500 31.01700
H  19.44000 0.82300 29.51800
H  19.15100 2.12300 25.92000
H  19.67500 2.90600 27.40600
H  19.15500 1.08200 27.39400
H  25.68600 0.95400 24.15100
H  27.60500 -1.05100 24.55900
H  24.09000 -1.12700 24.50900
H  25.54500 -2.05000 24.01200
H  24.66600 -0.92000 22.94000
H  27.93500 1.42700 23.48100
H  29.18400 0.75200 24.65100
H  27.35200 2.40500 26.16900
H  27.70600 3.22600 24.66900
H  29.02200 2.82900 25.73500
H  32.04900 -1.94700 29.11700
H  31.12800 -2.02200 27.54800
H  31.07300 -3.35100 28.47900
H  29.20600 -0.23600 33.45000
H  29.37000 -3.80300 35.97500
H  28.08400 -2.90600 36.30900
H  29.60000 -2.29500 36.96700
Mg 9.09200 48.06800 27.05200
C  7.00100 47.58600 29.94200
C  11.71300 48.27100 29.05600
C  10.71900 49.09800 24.30700
C  6.09900 48.01500 25.09200
N  9.25200 48.11000 29.31200
C  8.38100 47.72800 30.28300
C  9.05700 47.70800 31.62900
C  10.50900 48.15200 31.34600
C  10.52900 48.09800 29.77300
C  10.79600 49.58300 31.91300
C  9.02300 46.43800 32.49500
C  8.78100 46.59900 34.00700
H  9.23600 45.49600 34.98900
N  11.01300 48.44700 26.71500
C  11.94200 48.42500 27.68500
C  13.22000 48.48600 26.93800
C  12.99500 48.74100 25.56700
C  11.55400 48.76100 25.48000
C  14.55100 48.36300 27.68700
C  13.89700 48.99500 24.50000
O  13.51900 49.20800 23.31500
C  15.37100 48.86200 24.73100
N  8.50500 48.48500 25.00800
C  9.38100 49.00600 24.12200
C  8.60600 49.43200 22.79600
C  7.28500 48.63900 22.93100
C  7.26500 48.41000 24.43600
C  8.54600 51.02700 22.73800
C  7.31300 47.36100 22.14600
C  6.26900 47.30900 20.97000
N  6.94200 47.97700 27.32000
C  5.89800 47.94900 26.48300
C  4.67000 47.77300 27.18200
C  5.05400 47.71400 28.52900
C  6.47600 47.75500 28.55600
C  3.30800 47.78800 26.59100
C  4.49600 47.52900 29.85300
O  3.39300 47.50000 30.31700
C  5.79200 47.37300 30.78000
C  5.69400 46.07400 31.43400
O  5.88100 45.00600 30.87300
O  5.20900 46.26400 32.72000
C  5.07800 45.05400 33.50700
H  12.58700 48.18800 29.70400
H  11.21500 49.47400 23.41000
H  5.25200 48.08300 24.40500
H  8.55100 48.49600 32.18700
H  11.31800 47.58800 31.81000
H  10.96700 50.30200 31.11300
H  11.68500 49.54800 32.54300
H  10.13200 49.96500 32.68900
H  9.99800 45.95200 32.46400
H  8.26800 45.76900 32.08300
H  7.69500 46.61600 34.09100
H  9.19600 47.55200 34.33700
H  15.07800 49.31000 27.80800
H  15.24900 47.60700 27.32900
H  14.24600 47.93800 28.64300
H  15.87900 48.89800 23.76700
H  15.58400 47.96200 25.30800
H  15.68800 49.72700 25.31300
H  9.13800 49.05500 21.92200
H  6.56300 49.33000 22.49400
H  9.50800 51.43300 23.05000
H  7.73100 51.34100 23.39100
H  8.29500 51.39000 21.74100
H  7.17200 46.46800 22.75500
H  8.30200 47.15800 21.73400
H  6.86900 47.18600 20.06800
H  5.70600 48.24200 20.93900
H  5.53300 46.50900 21.05300
H  2.57300 47.39600 27.29300
H  3.25200 47.39400 25.57600
H  2.93000 48.80700 26.66600
H  5.75800 48.06400 31.62300
H  5.91000 45.14100 34.20500
H  5.11300 44.06500 33.05100
H  4.09700 45.22700 33.95000

