158

Mg 25.84000 0.79800 29.63400
C  27.92300 0.52400 32.56400
C  23.11100 0.83000 31.66000
C  24.00000 1.08500 26.85200
C  28.61600 -0.08000 27.76500
N  25.63000 0.70700 31.84200
C  26.56800 0.75500 32.84400
C  25.90200 0.89800 34.20300
C  24.37700 0.81500 33.94200
C  24.38500 0.69700 32.39700
C  23.63400 -0.37200 34.68300
C  26.37400 2.12000 35.06500
C  26.62200 1.87500 36.53000
H  26.27200 2.97300 37.52900
N  23.83200 1.01200 29.30400
C  22.87500 1.02500 30.27500
C  21.58100 1.27100 29.63000
C  21.81100 1.41400 28.23100
C  23.22200 1.14400 28.05400
C  20.25200 1.48400 30.39700
C  20.87900 1.83200 27.10700
O  21.22600 2.04200 25.91800
C  19.49900 2.35300 27.41300
N  26.29600 0.58200 27.63000
C  25.31400 0.73000 26.66100
C  25.98300 0.75900 25.30800
C  27.44500 0.42900 25.60400
C  27.50500 0.30500 27.07600
C  25.26500 -0.04300 24.18800
C  28.39700 1.48700 25.07300
C  28.28800 2.86800 25.83000
N  27.83300 0.26800 30.01800
C  28.83000 -0.03500 29.16600
C  30.03100 -0.35600 29.92600
C  29.71400 -0.03200 31.22800
C  28.40600 0.31800 31.25400
C  31.40100 -0.76000 29.30200
C  30.34300 0.01900 32.53900
O  31.49000 -0.13600 32.91500
C  29.16100 0.41200 33.47400
C  29.14000 -0.56800 34.64600
O  28.61100 -1.70500 34.70100
O  29.80000 0.02700 35.68500
C  29.97000 -0.66100 36.94000
H  22.27800 0.94000 32.35700
H  23.43400 1.19800 25.92500
H  29.43400 -0.48900 27.16900
H  26.13900 -0.04800 34.69000
H  23.93700 1.75100 34.28400
H  23.63500 -1.33400 34.17000
H  22.58000 -0.10800 34.76300
H  24.11100 -0.53900 35.64900
H  25.60900 2.89600 35.05400
H  27.30200 2.48800 34.62500
H  27.67400 1.72200 36.76800
H  26.03400 1.01700 36.85700
H  20.47500 1.35600 31.45600
H  19.59600 0.68500 30.05100
H  19.67700 2.39800 30.24300
H  19.72700 3.26000 27.97300
H  18.95000 1.65400 28.04400
H  18.93800 2.68800 26.54100
H  25.87300 1.81200 25.04800
H  27.74900 -0.56300 25.27000
H  24.29800 -0.38400 24.56100
H  25.90600 -0.84400 23.82000
H  25.02600 0.65900 23.39000
H  28.18900 1.61900 24.01100
H  29.36600 0.98900 25.10400
H  29.28800 3.26300 26.01000
H  27.70700 2.78300 26.74900
H  27.77300 3.55200 25.15600
H  31.33500 -1.82000 29.05800
H  32.21000 -0.54000 29.99900
H  31.50900 -0.20000 28.37300
H  29.45200 1.34600 33.95600
H  30.04000 -1.71600 36.67500
H  29.23900 -0.40000 37.70600
H  30.90900 -0.33000 37.38500
Mg 41.97500 40.81900 26.63200
C  41.61500 43.56000 28.88100
C  42.86900 38.87200 29.39100
C  43.07500 38.46800 24.50600
C  41.67000 43.11600 24.08200
N  42.01500 41.15200 28.91900
C  41.72600 42.30800 29.54700
C  41.84800 42.06400 31.08000
C  42.70000 40.68000 31.18200
C  42.51200 40.15000 29.81400
C  44.15000 40.69400 31.70600
C  40.39200 41.96000 31.70600
C  40.15700 43.02500 32.82800
H  39.69700 42.49500 34.21800
N  42.67900 38.85200 26.90200
C  42.90900 38.19800 28.13100
C  43.42500 36.91000 27.81800
C  43.56400 36.78300 26.41900
C  43.17600 38.09500 25.87500
C  43.76500 35.88500 28.91500
C  44.13100 35.57500 25.55500
O  44.35600 35.86900 24.38000
C  44.43100 34.28100 26.04400
N  42.51500 40.88700 24.53900
C  42.72200 39.70700 23.89400
C  42.51900 39.95400 22.40900
C  42.02900 41.45500 22.24500
C  42.01100 41.83800 23.71800
C  43.87800 39.61600 21.62200
C  40.65100 41.51500 21.52400
C  39.39200 41.37000 22.47500
N  41.67200 42.90300 26.45300
C  41.56400 43.67600 25.35900
C  41.26300 45.03100 25.66100
C  41.28600 45.01600 27.05900
C  41.54400 43.74200 27.50400
C  40.93100 46.10600 24.67100
C  41.04500 45.87700 28.21100
O  40.71700 47.06100 28.28500
C  41.22700 44.94600 29.46400
C  42.27700 45.56400 30.31400
O  43.48400 45.58700 30.08800
O  41.68300 46.16200 31.38800
C  42.58800 46.77700 32.33100
H  43.38200 38.24300 30.12200
H  43.11700 37.71900 23.71300
H  41.33000 43.78900 23.29200
H  42.38300 42.89700 31.53500
H  42.13100 40.03700 31.85400
H  44.80500 39.99700 31.18400
H  44.09800 40.65900 32.79400
H  44.56500 41.67300 31.46300
H  40.19000 40.99900 32.18000
H  39.59200 41.96200 30.96600
H  39.35700 43.66500 32.45800
H  41.04900 43.63500 32.97000
H  43.16800 34.99700 28.70900
H  43.48200 36.33200 29.86800
H  44.81500 35.62100 29.03900
H  45.20700 33.88700 25.38900
H  43.53900 33.79000 25.65600
H  44.61200 34.24100 27.11900
H  41.69600 39.27200 22.19300
H  42.74800 42.09100 21.73000
H  43.84100 39.86800 20.56300
H  44.06000 38.54100 21.64000
H  44.67900 40.19900 22.07700
H  40.62900 40.74100 20.75800
H  40.60500 42.46100 20.98400
H  38.64800 40.71100 22.02700
H  38.94700 42.35500 22.61000
H  39.62700 40.98900 23.46900
H  41.23400 45.78000 23.67600
H  41.51500 46.97100 24.98300
H  39.86800 46.31600 24.78600
H  40.28800 44.77600 29.99200
H  42.00200 47.17700 33.15800
H  43.04200 47.59700 31.77500
H  43.36100 46.07500 32.64300

