158

Mg 36.43200 49.14800 25.59700
C  36.93300 47.30800 28.27600
C  34.98800 51.52200 27.52400
C  35.54900 50.84700 22.73300
C  37.67400 46.60800 23.45000
N  35.93000 49.30600 27.65800
C  36.23700 48.49300 28.66100
C  35.79800 48.93400 29.96000
C  35.03100 50.26400 29.72600
C  35.33100 50.36100 28.22900
C  33.52800 50.30700 30.09800
C  37.03700 49.06400 30.90600
C  36.69700 48.64400 32.34700
H  35.21100 48.80100 32.83000
N  35.40000 50.94000 25.21200
C  34.93700 51.80600 26.12000
C  34.31400 52.96100 25.50100
C  34.47200 52.78800 24.08800
C  35.12500 51.43500 23.91700
C  33.79100 54.13200 26.38200
C  34.08100 53.78300 22.99100
O  34.29100 53.45400 21.84700
C  33.51000 55.10700 23.27700
N  36.48900 48.74400 23.36900
C  36.13800 49.62200 22.46100
C  36.47800 49.17100 21.06900
C  37.22900 47.79100 21.28100
C  37.11400 47.67500 22.76800
C  35.31000 49.20700 20.03300
C  38.62000 47.76400 20.67900
C  39.73800 48.57400 21.41000
N  37.05500 47.17000 25.71900
C  37.61100 46.27900 24.81800
C  38.08700 45.10400 25.55500
C  37.81800 45.45300 26.96000
C  37.20100 46.68700 26.99200
C  38.74000 43.92800 25.03100
C  37.87700 45.05400 28.32600
O  38.30700 43.98500 28.73800
C  37.26300 46.17000 29.24500
C  36.07700 45.56400 29.93300
O  34.98100 45.53800 29.48600
O  36.48700 45.02700 31.15100
C  35.43200 44.70500 32.11400
H  34.51600 52.22500 28.21300
H  35.28200 51.33400 21.79300
H  38.09200 45.82000 22.82000
H  35.15700 48.21500 30.47000
H  35.62100 51.02700 30.23300
H  33.09000 49.46000 30.62600
H  32.87700 50.52000 29.25000
H  33.48800 51.17000 30.76300
H  37.41500 50.08500 30.87500
H  37.84900 48.45200 30.51300
H  37.33500 49.29100 32.94900
H  37.09100 47.62800 32.35700
H  32.74600 54.34100 26.15200
H  34.36600 55.01400 26.10000
H  33.87500 54.14600 27.46900
H  32.53100 54.86800 23.69400
H  33.38600 55.61500 22.32100
H  34.13700 55.70500 23.93800
H  37.18200 49.89900 20.66600
H  36.61900 47.03700 20.78400
H  34.45100 49.47300 20.64900
H  35.13000 48.30600 19.44600
H  35.55600 49.98900 19.31400
H  38.62600 48.29200 19.72500
H  39.09100 46.78100 20.67600
H  39.82300 48.44500 22.48900
H  39.70800 49.63200 21.15000
H  40.67500 48.21400 20.98400
H  39.67400 43.88300 25.59100
H  38.93100 44.07500 23.96800
H  38.07400 43.09000 25.23800
H  37.93700 46.36500 30.07900
H  35.98600 44.45800 33.02000
H  34.95600 43.75900 31.85700
H  34.65300 45.42000 32.38000
Mg -6.52100 25.23200 26.68200
C  -5.26500 26.58600 29.44500
C  -8.32900 22.89100 28.54400
C  -7.62400 23.85000 23.83000
C  -4.30300 27.15500 24.72700
N  -6.71400 24.72300 28.68100
C  -6.12900 25.47500 29.67300
C  -6.79900 25.19200 31.05600
C  -7.57700 23.85900 30.75800
C  -7.53800 23.77000 29.26700
C  -7.16100 22.63200 31.64400
C  -7.82300 26.32800 31.57000
C  -7.90800 26.51300 33.11500
H  -7.27600 25.40900 34.03800
N  -7.76400 23.57700 26.20900
C  -8.46500 22.81300 27.11100
C  -9.27300 21.83400 26.37000
C  -9.16900 22.17500 25.00200
C  -8.22100 23.28000 24.97500
C  -10.05500 20.81000 27.02800
C  -9.92800 21.52400 23.84200
O  -9.63000 21.83600 22.68500
C  -10.97700 20.43500 24.04400
N  -6.03600 25.52500 24.48700
C  -6.63900 24.76400 23.54100
C  -5.99500 25.02000 22.20500
C  -5.00300 26.22200 22.43500
C  -5.13900 26.37700 23.98700
C  -5.56400 23.74900 21.46000
C  -5.41200 27.50000 21.66000
C  -4.91400 27.34400 20.23700
N  -5.29800 26.75200 26.98700
C  -4.39700 27.36400 26.16200
C  -3.50600 28.23000 26.86000
C  -3.86300 27.95500 28.17000
C  -4.89900 27.05600 28.21700
C  -2.37400 29.06000 26.31000
C  -3.44600 28.16700 29.51600
O  -2.49300 28.87700 29.82400
C  -4.39400 27.31500 30.47400
C  -3.50700 26.46800 31.25600
O  -2.87600 25.43700 30.85200
O  -3.49100 27.04200 32.50100
C  -2.71600 26.32400 33.51900
H  -8.70600 22.16200 29.26400
H  -8.10100 23.36800 22.97400
H  -3.58100 27.79800 24.22000
H  -6.00400 24.98100 31.77200
H  -8.63600 23.92500 31.00700
H  -6.20500 22.70400 32.16100
H  -7.20700 21.73400 31.02900
H  -7.98900 22.37600 32.30500
H  -8.80600 26.09800 31.15900
H  -7.44900 27.24900 31.12200
H  -8.93700 26.75300 33.38300
H  -7.20900 27.32200 33.32600
H  -9.69800 19.79300 26.86400
H  -11.11600 21.01000 26.87700
H  -10.00900 20.94200 28.10900
H  -11.56800 20.37300 23.13000
H  -11.79400 20.65100 24.73200
H  -10.60800 19.43600 24.27600
H  -6.79900 25.35600 21.55000
H  -3.94200 25.98400 22.35700
H  -4.48600 23.75400 21.29900
H  -5.88100 23.82400 20.42000
H  -5.88500 22.82200 21.93600
H  -4.97200 28.40800 22.07100
H  -6.48100 27.68000 21.55100
H  -5.44800 26.52800 19.75100
H  -3.84600 27.34500 20.01900
H  -5.25400 28.27600 19.78500
H  -2.69700 29.81100 25.58800
H  -1.68300 28.36700 25.83100
H  -1.82600 29.43300 27.17500
H  -4.94600 27.98900 31.12800
H  -2.03500 27.08700 33.89500
H  -2.13900 25.41700 33.33800
H  -3.45500 26.10300 34.28900

