158

Mg 53.35600 24.25700 43.94600
C  50.56400 26.45100 43.50700
C  51.23000 21.51000 43.06700
C  56.01000 22.34500 43.79600
C  55.24500 27.03400 44.82600
N  51.13500 24.06100 42.98500
C  50.24400 25.11600 43.09200
C  48.79600 24.51600 42.85800
C  49.01300 22.95100 43.05900
C  50.54600 22.82000 43.02100
C  48.26800 22.31900 44.30100
C  48.12200 24.81500 41.49400
C  49.01900 24.85000 40.16600
H  48.34300 24.16200 38.93800
N  53.60700 22.25400 43.51400
C  52.63600 21.26800 43.22400
C  53.21300 19.97200 43.24800
C  54.59800 20.14800 43.50400
C  54.80600 21.60400 43.56200
C  52.41800 18.68500 42.99900
C  55.70200 19.02700 43.61900
O  55.32400 17.80500 43.41900
C  57.12100 19.24700 43.90600
N  55.36400 24.60500 44.10400
C  56.32500 23.65500 43.95400
C  57.71200 24.30600 44.21400
C  57.45300 25.86900 44.31700
C  55.95200 25.89300 44.46800
C  58.41700 23.72900 45.47000
C  57.83200 26.80900 43.07100
C  58.59600 28.02300 43.44400
N  53.00800 26.28500 44.23100
C  53.88800 27.27100 44.61700
C  53.14500 28.48900 44.81200
C  51.84000 28.17500 44.49300
C  51.80900 26.84500 44.08200
C  53.84500 29.66600 45.16200
C  50.49200 28.74800 44.36500
O  50.17700 29.87000 44.62800
C  49.64200 27.61000 43.74500
C  49.07800 28.15300 42.45000
O  49.75700 28.49800 41.47900
O  47.72500 28.06500 42.56000
C  46.90200 28.45300 41.32300
H  50.57300 20.64200 43.15200
H  56.92100 21.74300 43.81500
H  55.88700 27.91300 44.91200
H  48.03300 24.88300 43.54400
H  48.64400 22.38800 42.20100
H  47.34700 21.86400 43.93500
H  48.06900 23.12300 45.01000
H  48.87500 21.52800 44.74300
H  47.55700 25.74700 41.49100
H  47.44400 23.99900 41.24100
H  49.98700 24.41400 40.41200
H  49.25100 25.88400 39.91400
H  52.86800 18.17200 42.14900
H  51.36900 18.82900 42.73900
H  52.40300 17.88300 43.73700
H  57.69600 19.72400 43.11300
H  57.52800 18.26100 44.12800
H  57.20700 19.78600 44.85000
H  58.39300 24.10300 43.38700
H  57.94800 26.19700 45.23200
H  59.43300 23.36400 45.32100
H  57.82700 22.88000 45.81700
H  58.30300 24.35000 46.35800
H  56.90300 27.07000 42.56300
H  58.37900 26.24200 42.31800
H  59.64500 27.95000 43.15500
H  58.59100 28.26000 44.50800
H  58.08200 28.85400 42.96200
H  54.39900 29.40400 46.06300
H  53.12200 30.42100 45.47300
H  54.65400 29.92200 44.47800
H  48.91300 27.27900 44.48500
H  46.89400 27.63700 40.60100
H  47.43400 29.29000 40.87300
H  45.85900 28.74900 41.43700
Mg 34.90900 49.67200 25.78900
C  35.03500 47.86700 28.87900
C  33.94300 52.31900 27.38700
C  34.59100 50.95000 22.75200
C  35.39400 46.47700 24.22000
N  34.51000 50.01400 27.92800
C  34.69000 49.22700 28.98700
C  34.18000 49.92600 30.28400
C  33.77000 51.26600 29.72000
C  34.08600 51.26700 28.26200
C  32.28100 51.60800 29.88900
C  35.31200 50.05500 31.34200
C  35.04300 49.71200 32.86300
H  33.53000 49.69900 33.19900
N  34.49100 51.44900 25.13700
C  34.08900 52.41500 25.94000
C  33.86400 53.56300 25.13300
C  34.05500 53.14100 23.77100
C  34.42300 51.77900 23.83000
C  33.45000 54.83700 25.75700
C  33.83800 53.98100 22.48600
O  33.99300 53.59000 21.34700
C  33.39700 55.43900 22.55200
N  35.05600 48.81500 23.67900
C  34.88700 49.58900 22.64000
C  35.03200 48.81400 21.28300
C  35.26400 47.34200 21.75700
C  35.27300 47.52300 23.31800
C  33.69500 48.91200 20.46600
C  36.57700 46.75900 21.17300
C  37.88500 46.95200 21.88300
N  35.26900 47.65300 26.33900
C  35.43700 46.53600 25.60500
C  35.71300 45.38400 26.40700
C  35.52700 45.86700 27.69500
C  35.21200 47.22900 27.63600
C  36.01200 43.96000 26.01000
C  35.44300 45.47900 29.06000
O  35.64500 44.39700 29.56300
C  35.13700 46.73700 29.94200
C  33.90600 46.42200 30.74800
O  32.77000 46.55400 30.44800
O  34.27500 45.72100 31.90700
C  33.14200 45.14100 32.66700
H  33.55000 53.21600 27.87100
H  34.41800 51.33600 21.74500
H  35.65000 45.57600 23.65900
H  33.31800 49.30100 30.51500
H  34.35300 52.03500 30.22700
H  31.76100 51.41000 28.95200
H  32.19100 52.65700 30.17100
H  31.84800 51.08400 30.74100
H  35.79400 51.02500 31.22600
H  36.13700 49.37200 31.13900
H  35.59200 50.41600 33.48800
H  35.42600 48.70400 33.02500
H  33.60200 54.95500 26.83000
H  32.41600 54.93700 25.42900
H  34.02700 55.64200 25.30200
H  34.26600 56.04700 22.80600
H  32.68500 55.57500 23.36500
H  32.84000 55.81700 21.69500
H  35.91800 49.25100 20.82400
H  34.43900 46.65200 21.57600
H  32.96400 49.57000 20.93600
H  33.20400 47.97200 20.21100
H  33.93700 49.51900 19.59400
H  36.58200 47.30200 20.22800
H  36.37700 45.72600 20.89100
H  38.02200 45.96300 22.32100
H  37.88000 47.57300 22.77900
H  38.60500 47.36000 21.17400
H  35.13500 43.41300 25.66400
H  36.37800 43.35300 26.83800
H  36.76300 43.94800 25.22000
H  36.01600 46.95600 30.54900
H  32.66800 44.35500 32.07800
H  32.38600 45.87400 32.94800
H  33.63600 44.71100 33.53900

