158

Mg 34.73700 2.65900 29.37500
C  32.72400 3.71600 32.07600
C  37.47200 2.57400 31.48600
C  36.80300 2.46000 26.70700
C  32.11300 3.44400 27.17100
N  34.99900 3.27100 31.56000
C  34.05400 3.53200 32.48400
C  34.64700 3.38300 33.91000
C  36.17500 3.18100 33.68600
C  36.27100 3.03600 32.13000
C  37.06800 4.31800 34.28000
C  33.87100 2.24700 34.73800
C  33.58100 2.35800 36.27200
H  34.20300 3.53000 37.07500
N  36.81100 2.42600 29.11500
C  37.77000 2.37700 30.15100
C  39.08000 2.17000 29.54200
C  38.91700 2.02700 28.13200
C  37.47200 2.22000 27.91200
C  40.35100 2.12700 30.34900
C  39.93200 1.69800 27.06200
O  39.55700 1.60500 25.90300
C  41.38000 1.40500 27.37500
N  34.44800 2.90100 27.23400
C  35.47900 2.76800 26.32400
C  35.05300 3.03800 24.86900
C  33.48900 3.13000 25.08700
C  33.28900 3.11700 26.56500
C  35.70100 4.27500 24.25000
C  32.62200 2.04800 24.41800
C  31.16500 2.35200 24.16100
N  32.75700 3.16900 29.53600
C  31.83500 3.45400 28.54600
C  30.55200 3.91200 29.15100
C  30.92300 3.95700 30.52900
C  32.25600 3.55200 30.76500
C  29.21500 4.21700 28.44800
C  30.32100 4.31400 31.83800
O  29.18800 4.79000 32.13800
C  31.51300 4.13700 32.85400
C  31.69000 5.50000 33.58000
O  32.10200 6.58700 33.16300
O  31.23200 5.31500 34.80800
C  31.00700 6.51200 35.61600
H  38.33300 2.45800 32.14800
H  37.47300 2.47700 25.84400
H  31.27100 3.68600 26.52000
H  34.59700 4.27000 34.54300
H  36.53700 2.21500 34.03700
H  37.83100 3.88800 34.92900
H  36.66100 5.12800 34.88600
H  37.62600 4.78400 33.46800
H  34.48900 1.38200 34.49700
H  32.95300 1.96000 34.22600
H  33.82700 1.39800 36.72500
H  32.51100 2.55800 36.33400
H  40.21400 2.77100 31.21800
H  41.16900 2.56200 29.77600
H  40.58000 1.12000 30.69900
H  41.52200 0.78000 28.25700
H  41.87300 2.32100 27.69900
H  41.82800 0.97500 26.47900
H  35.11200 2.12400 24.27700
H  33.10100 4.07400 24.70400
H  36.49000 4.68000 24.88400
H  34.97900 5.05300 24.00200
H  36.32900 3.94400 23.42300
H  32.81200 1.14500 24.99800
H  32.94700 1.88800 23.39000
H  30.94300 2.12200 23.11900
H  30.82400 3.35100 24.43500
H  30.59600 1.66200 24.78300
H  28.43600 4.57900 29.11900
H  28.87700 3.22600 28.14500
H  29.30100 4.78000 27.51800
H  31.35700 3.30700 33.54300
H  29.97600 6.86300 35.56700
H  31.72200 7.33300 35.56900
H  31.11600 6.08500 36.61300
Mg -5.62800 25.27100 25.61500
C  -4.16200 26.25100 28.70100
C  -7.54800 22.83900 27.44800
C  -6.76400 23.95000 22.74300
C  -3.48500 27.26200 24.01800
N  -5.70600 24.50200 27.84000
C  -5.03700 25.13000 28.90700
C  -5.54700 24.64100 30.24000
C  -6.49500 23.43300 29.76200
C  -6.57900 23.54100 28.23500
C  -5.89500 22.10200 30.25100
C  -6.35800 25.71200 31.07100
C  -6.13700 25.82600 32.59300
H  -5.23300 24.76500 33.24000
N  -7.13400 23.70900 25.18600
C  -7.85300 22.90800 26.05700
C  -8.90600 22.25900 25.34300
C  -8.68200 22.57600 23.91900
C  -7.40600 23.39700 23.91500
C  -10.00200 21.57600 26.13000
C  -9.46100 22.18400 22.68700
O  -9.18800 22.50200 21.55400
C  -10.57900 21.28700 22.82100
N  -5.08500 25.46300 23.72800
C  -5.67100 24.80200 22.63700
C  -5.06300 25.21500 21.31700
C  -4.19100 26.49100 21.70400
C  -4.24300 26.41500 23.25100
C  -4.20900 23.90700 20.77900
C  -4.63300 27.84100 21.07500
C  -3.45900 28.54500 20.40400
N  -4.19000 26.53200 26.13000
C  -3.46900 27.43200 25.35600
C  -2.62100 28.22600 26.17300
C  -2.85700 27.79900 27.46700
C  -3.84500 26.73200 27.41400
C  -1.64700 29.26500 25.83600
C  -2.45700 28.10300 28.80400
O  -1.72600 28.90500 29.26800
C  -3.34300 27.01700 29.64000
C  -2.46900 26.29400 30.66900
O  -1.80500 25.27500 30.43500
O  -2.46800 27.00300 31.83500
C  -1.39500 26.46200 32.75100
H  -8.16500 22.12300 27.99500
H  -6.96100 23.52300 21.75700
H  -2.83400 27.91400 23.43300
H  -4.63800 24.30500 30.74000
H  -7.51300 23.52900 30.14000
H  -6.64100 21.44600 30.69900
H  -5.10100 22.22800 30.98600
H  -5.59300 21.62600 29.31800
H  -7.43700 25.56600 31.01800
H  -6.23600 26.73800 30.72500
H  -7.01800 25.84000 33.23400
H  -5.68300 26.81000 32.70600
H  -9.75400 20.51400 26.11300
H  -10.96000 21.66000 25.61700
H  -10.14100 21.99400 27.12700
H  -11.12000 21.20000 21.87900
H  -11.30600 21.64100 23.55300
H  -10.20500 20.29000 23.05300
H  -5.80800 25.52000 20.58200
H  -3.20200 26.24000 21.32200
H  -4.75000 23.36400 20.00400
H  -3.97400 23.22100 21.59400
H  -3.25300 24.28000 20.41200
H  -4.94500 28.48000 21.90100
H  -5.49400 27.86400 20.40800
H  -3.72000 29.17500 19.55400
H  -2.63500 27.84400 20.26800
H  -2.99700 29.18700 21.15300
H  -1.75300 29.63200 24.81500
H  -0.66100 28.80600 25.90500
H  -1.82000 30.18900 26.38600
H  -4.11400 27.52000 30.22400
H  -1.32000 27.01000 33.69000
H  -0.41100 26.62100 32.31000
H  -1.53100 25.38100 32.78700

