158

Mg 42.14000 41.87200 26.66500
C  41.36300 44.27500 29.07000
C  43.18600 39.79500 29.18100
C  42.59300 39.44800 24.37400
C  40.93500 44.05300 24.22700
N  42.39400 42.10100 28.87600
C  41.87200 43.11000 29.65100
C  41.64900 42.70700 31.04500
C  42.39700 41.35600 31.19200
C  42.72800 41.04700 29.70100
C  43.64000 41.47500 32.16200
C  40.14500 42.50500 31.41300
C  39.53800 43.48400 32.46400
H  39.17000 43.00100 33.88800
N  42.84900 39.87200 26.81200
C  43.18900 39.21800 27.90700
C  43.68900 37.88600 27.59800
C  43.42400 37.68900 26.21200
C  42.93700 39.04700 25.69600
C  44.28800 36.96700 28.64100
C  43.57900 36.49800 25.46800
O  43.34400 36.50000 24.28200
C  43.93600 35.13200 26.05400
N  41.89300 41.85800 24.64500
C  42.11300 40.74800 23.86700
C  41.83800 40.98800 22.39500
C  41.17800 42.37900 22.37100
C  41.31400 42.81700 23.89200
C  43.13700 40.90100 21.51900
C  39.65500 42.28500 22.02200
C  38.71900 41.73200 23.00600
N  41.57100 43.89100 26.55000
C  41.00400 44.56800 25.51200
C  40.59900 45.86400 25.96600
C  40.67000 45.81400 27.38500
C  41.26300 44.57000 27.68900
C  40.22500 46.97300 25.13300
C  40.48000 46.52500 28.60500
O  40.19700 47.70600 28.79100
C  40.81600 45.55900 29.77300
C  41.73700 46.22500 30.69200
O  42.93400 46.24500 30.55100
O  41.02000 46.81300 31.75200
C  41.71400 47.22800 32.87900
H  43.38700 39.16400 30.04900
H  42.85700 38.70600 23.61800
H  40.48000 44.68700 23.46400
H  42.03900 43.31000 31.86500
H  41.78300 40.56500 31.62300
H  43.60200 42.32900 32.83700
H  44.54500 41.53500 31.55800
H  43.79800 40.53000 32.68200
H  39.84600 41.55000 31.84400
H  39.62300 42.45200 30.45700
H  38.62300 43.84200 31.99100
H  40.16700 44.33800 32.71400
H  45.28400 36.60000 28.39600
H  43.64000 36.12400 28.88200
H  44.41900 37.50300 29.58100
H  43.99700 34.46200 25.19700
H  43.28100 34.68100 26.79900
H  44.91800 35.29100 26.49800
H  41.19800 40.13100 22.18600
H  41.73900 43.03000 21.70000
H  43.75600 41.52000 22.16900
H  42.95100 41.33300 20.53600
H  43.35700 39.83300 21.50500
H  39.52000 41.70200 21.11100
H  39.31000 43.27800 21.73000
H  38.22500 42.42300 23.68900
H  39.19300 40.99500 23.65500
H  37.90100 41.15300 22.57700
H  39.23500 47.42300 25.21200
H  40.37200 46.82100 24.06400
H  41.03500 47.69600 25.22900
H  39.86500 45.26500 30.21700
H  42.79900 47.21100 32.78700
H  41.49400 46.59900 33.74200
H  41.33000 48.23600 33.03900
Mg 8.60600 47.52400 27.76900
C  6.85400 47.21000 30.98800
C  11.45200 47.84300 29.49000
C  9.93400 48.45500 24.89700
C  5.36700 47.95000 26.29500
N  9.05600 47.64600 29.98500
C  8.27700 47.36100 31.16000
C  9.06000 47.55800 32.46400
C  10.46700 48.04900 31.88400
C  10.32100 47.79800 30.36500
C  10.85200 49.49100 32.42000
C  9.13700 46.39500 33.52500
C  9.09100 46.82200 35.02900
H  9.66300 45.89600 36.06700
N  10.48900 47.78800 27.14200
C  11.54700 47.82000 28.04700
C  12.76500 47.99200 27.29300
C  12.37900 48.19200 25.89200
C  10.86000 48.13600 25.87600
C  14.17300 48.18200 27.97600
C  13.29800 48.47100 24.69800
O  12.89500 49.07400 23.68200
C  14.75900 48.21800 24.85500
N  7.76800 48.28300 25.85900
C  8.57300 48.44500 24.83000
C  7.81400 48.58800 23.48000
C  6.32800 48.51000 23.97500
C  6.42900 48.15900 25.44300
C  8.09900 49.89600 22.69400
C  5.44200 47.47900 23.17100
C  5.47100 47.65900 21.69600
N  6.52700 47.50500 28.44400
C  5.32600 47.73200 27.71200
C  4.12600 47.44900 28.51900
C  4.68000 47.27300 29.79400
C  6.14300 47.36300 29.73700
C  2.70500 47.40100 27.99400
C  4.38000 47.05700 31.19600
O  3.32100 46.81700 31.77500
C  5.73500 47.09500 32.04200
C  5.84800 45.88800 32.85900
O  5.75900 44.78400 32.34500
O  5.90500 46.16500 34.21600
C  5.85800 44.99100 35.06400
H  12.39000 47.93800 30.04200
H  10.42500 48.77200 23.97500
H  4.38800 47.93600 25.81100
H  8.75800 48.39700 33.09200
H  11.25700 47.33300 32.11300
H  11.66200 49.20600 33.09100
H  10.13200 50.12200 32.94200
H  11.22300 50.17900 31.66000
H  10.00300 45.75300 33.36700
H  8.42500 45.59400 33.32700
H  8.01300 46.74300 35.17000
H  9.45100 47.84300 35.16200
H  14.84600 47.32500 27.96300
H  14.13400 48.51100 29.01500
H  14.49200 49.08100 27.44900
H  15.34500 49.03300 25.28100
H  15.12800 48.01300 23.85000
H  15.04100 47.34100 25.43700
H  8.12300 47.80500 22.78700
H  5.82900 49.47100 23.84700
H  8.90300 49.71800 21.97900
H  8.40500 50.76600 23.27500
H  7.27000 50.16700 22.04000
H  4.37300 47.53600 23.37700
H  5.84700 46.48600 23.36800
H  6.15200 46.96800 21.20000
H  5.68500 48.69100 21.41800
H  4.45400 47.39900 21.40000
H  2.59400 48.36200 27.49300
H  2.11400 47.31500 28.90600
H  2.42900 46.57400 27.34100
H  5.74200 47.95600 32.71200
H  6.92000 44.74400 35.06800
H  5.35600 44.08700 34.71800
H  5.48200 45.22900 36.05900

