158

Mg 24.29400 -6.11600 46.44600
C  26.26600 -3.57900 44.77800
C  21.61200 -5.21300 44.39100
C  22.96700 -9.19000 46.87800
C  27.32000 -7.15400 47.86100
N  23.99400 -4.53600 44.85000
C  24.94100 -3.65300 44.30200
C  24.36300 -2.61500 43.31000
C  22.84600 -3.04600 43.40600
C  22.70600 -4.35900 44.31200
C  21.91700 -1.86700 43.82900
C  24.85900 -2.66700 41.83100
C  25.40100 -1.34900 41.17500
H  25.25800 -1.28700 39.65800
N  22.45800 -7.06400 45.75500
C  21.53800 -6.48200 44.97700
C  20.35300 -7.47700 44.89600
C  20.72300 -8.67200 45.53600
C  22.12400 -8.38800 46.07500
C  19.13900 -7.09200 44.15700
C  19.86300 -9.89400 45.57800
O  18.72100 -9.94200 45.07200
C  20.45700 -11.05600 46.31700
N  24.95900 -7.82300 47.31600
C  24.14800 -8.93000 47.48800
C  24.89700 -10.04300 48.19200
C  26.26600 -9.44000 48.59300
C  26.19600 -8.04300 47.92300
C  24.07100 -10.77400 49.35600
C  27.54100 -10.21600 48.24100
C  28.45500 -10.60000 49.41800
N  26.30600 -5.29900 46.56100
C  27.37800 -5.88500 47.17600
C  28.57100 -5.09900 46.90300
C  28.20600 -4.17100 45.92400
C  26.82000 -4.33800 45.77400
C  29.94400 -5.39300 47.49000
C  28.66300 -3.22800 45.01100
O  29.76600 -2.73900 44.77600
C  27.42300 -2.70600 44.20600
C  27.17800 -1.26100 44.55900
O  26.64400 -0.80600 45.57400
O  27.78900 -0.38400 43.67200
C  27.71300 1.06700 43.94700
H  20.74200 -4.97100 43.77800
H  22.57700 -10.16100 47.18900
H  28.24500 -7.56900 48.26700
H  24.47000 -1.67300 43.84700
H  22.59200 -3.28200 42.37200
H  22.32400 -0.86200 43.72200
H  21.58800 -2.08100 44.84700
H  21.04500 -1.97700 43.18400
H  24.26200 -3.18000 41.07800
H  25.75100 -3.29300 41.80000
H  26.45000 -1.33100 41.46800
H  25.05400 -0.38600 41.54800
H  18.44600 -7.91200 43.97000
H  19.46800 -6.54900 43.27100
H  18.59700 -6.28400 44.64900
H  20.70100 -10.64400 47.29600
H  21.32600 -11.49600 45.82600
H  19.71000 -11.84900 46.31200
H  25.10000 -10.76100 47.39800
H  26.18100 -9.27700 49.66700
H  24.11100 -11.84900 49.18300
H  23.02400 -10.48700 49.26200
H  24.41800 -10.53400 50.36100
H  28.17400 -9.69700 47.52100
H  27.19800 -11.14400 47.78400
H  28.62800 -11.67500 49.46800
H  27.93800 -10.47600 50.37000
H  29.35900 -10.00100 49.30700
H  30.55400 -4.49100 47.55800
H  30.43500 -5.95000 46.69300
H  29.91800 -5.87500 48.46700
H  27.63700 -2.80200 43.14100
H  27.56100 1.27300 45.00700
H  27.02100 1.64100 43.33000
H  28.69600 1.46800 43.70200
Mg 1.78600 42.17500 25.70500
C  2.97500 42.27900 29.06100
C  -1.17400 41.10300 26.83800
C  0.93500 41.74000 22.46700
C  4.92500 43.31900 24.66100
N  1.03000 41.91300 27.75200
C  1.63200 41.95000 28.95800
C  0.63400 41.78000 30.08400
C  -0.63600 41.25600 29.34700
C  -0.27400 41.49200 27.84200
C  -0.91500 39.76300 29.65400
C  0.51100 43.05000 30.96300
C  -0.38500 43.03900 32.21100
H  -0.82100 41.70700 32.81300
N  0.12000 41.52800 24.76700
C  -1.09700 41.17400 25.42600
C  -2.07900 40.75400 24.39400
C  -1.46000 40.85200 23.11500
C  -0.08800 41.44600 23.44500
C  -3.52500 40.31800 24.77300
C  -1.98000 40.49600 21.80400
O  -1.25500 40.44400 20.82500
C  -3.38300 39.81200 21.72100
N  2.77900 42.43400 23.83300
C  2.17900 42.26700 22.60900
C  3.11000 42.56700 21.44700
C  4.25700 43.30500 22.14300
C  4.02800 43.02900 23.62200
C  3.50900 41.30800 20.62900
C  4.45300 44.80900 21.66100
C  5.55200 45.12400 20.71100
N  3.54800 42.78900 26.60400
C  4.73700 43.20000 26.07700
C  5.71800 43.46600 27.15000
C  5.10800 43.05000 28.33800
C  3.79000 42.71400 27.98200
C  7.15300 43.86000 26.94200
C  5.24100 42.82400 29.73300
O  6.21500 42.97000 30.50700
C  3.86800 42.37200 30.24400
C  4.05000 41.01400 30.86900
O  4.31100 39.92000 30.29600
O  3.98000 41.12000 32.19900
C  4.15200 39.89900 32.96100
H  -2.14800 40.70500 27.13200
H  0.64500 41.68600 21.41600
H  5.77800 43.82700 24.20600
H  1.09900 41.04800 30.74400
H  -1.46900 41.85000 29.72100
H  -1.93500 39.57800 29.99100
H  -0.24400 39.30400 30.38100
H  -0.60300 39.27600 28.73000
H  0.08000 43.82000 30.32300
H  1.54200 43.38300 31.08100
H  -1.19800 43.74900 32.05800
H  0.23200 43.51700 32.97200
H  -4.22100 40.93500 24.20500
H  -3.82400 40.63400 25.77200
H  -3.72900 39.24800 24.72900
H  -4.08200 40.64200 21.61600
H  -3.49400 39.04300 22.48500
H  -3.50200 39.26700 20.78500
H  2.54300 43.30000 20.87300
H  5.17100 42.86100 21.74800
H  3.44000 40.39800 21.22500
H  4.52500 41.34300 20.23800
H  2.75300 41.05900 19.88400
H  4.52300 45.36000 22.59800
H  3.47500 45.18500 21.35800
H  6.12800 44.23100 20.46900
H  6.12500 45.93000 21.17100
H  5.13400 45.40300 19.74300
H  7.78200 42.97000 26.94900
H  7.48100 44.61700 27.65500
H  7.24500 44.29800 25.94800
H  3.48700 43.03300 31.02200
H  5.20200 39.62300 33.05800
H  3.67600 39.05000 32.47000
H  3.73300 39.82500 33.96500

