158

Mg 16.48300 -2.97700 28.01300
C  15.89300 -0.92900 30.74300
C  18.26200 -5.04600 30.24700
C  17.71100 -4.76700 25.40100
C  15.36200 -0.49400 25.92700
N  17.02800 -2.94300 30.26100
C  16.54900 -2.08400 31.17700
C  16.90000 -2.49000 32.58900
C  17.65900 -3.78700 32.42800
C  17.74700 -3.89800 30.85200
C  19.09100 -3.96500 33.12700
C  15.66000 -2.73300 33.53000
C  15.67400 -1.93100 34.84600
H  17.03100 -1.58800 35.44600
N  17.64400 -4.76700 27.86600
C  18.28100 -5.47500 28.87200
C  18.82900 -6.59900 28.31900
C  18.78500 -6.48200 26.91200
C  18.03700 -5.29300 26.66400
C  19.40100 -7.56200 29.24200
C  19.51000 -7.38500 25.95800
O  19.44900 -7.22400 24.74100
C  20.31600 -8.51100 26.45100
N  16.59700 -2.60600 26.05100
C  17.11500 -3.49900 25.07700
C  17.10900 -2.90300 23.63600
C  16.20600 -1.65800 23.85700
C  16.01200 -1.56400 25.36900
C  18.51800 -2.45100 23.08000
C  14.87800 -1.56400 22.95300
C  13.61400 -1.99500 23.71100
N  15.47100 -1.21000 28.24200
C  15.12400 -0.25600 27.33500
C  14.47700 0.79600 27.94400
C  14.72800 0.57300 29.30500
C  15.42900 -0.66300 29.44900
C  13.74500 1.96400 27.27000
C  14.62400 1.12900 30.63300
O  14.15300 2.21500 30.95900
C  15.28500 0.17300 31.61100
C  16.32000 0.88100 32.38600
O  17.50800 1.04900 32.13000
O  15.71500 1.50900 33.38200
C  16.47800 2.47100 34.18400
H  18.76000 -5.62800 31.02600
H  17.92800 -5.28700 24.46600
H  15.08500 0.31200 25.24400
H  17.53100 -1.66900 32.92900
H  17.07400 -4.62600 32.80400
H  19.83800 -3.76100 32.36100
H  19.07300 -4.95500 33.58300
H  19.20600 -3.31700 33.99600
H  15.60100 -3.80400 33.72200
H  14.85800 -2.37900 32.88200
H  15.18300 -2.54200 35.60300
H  15.02900 -1.06200 34.71900
H  18.75000 -7.85500 30.06600
H  20.26800 -7.20400 29.79600
H  19.62000 -8.52000 28.76900
H  21.13000 -8.24000 27.12400
H  20.82500 -8.96600 25.60100
H  19.72500 -9.31100 26.89700
H  16.51000 -3.49300 22.94200
H  16.74200 -0.73500 23.63400
H  19.12700 -2.36600 23.98000
H  18.60600 -1.45200 22.65200
H  19.08000 -3.08900 22.40000
H  14.95700 -2.11400 22.01500
H  14.73100 -0.50700 22.73200
H  13.81500 -2.87100 24.32800
H  12.93900 -2.29500 22.91000
H  13.17900 -1.23000 24.35500
H  12.94000 1.65500 26.60400
H  14.48600 2.45800 26.64100
H  13.37500 2.57500 28.09300
H  14.53400 -0.11300 32.34700
H  16.51400 3.49000 33.79900
H  17.52700 2.23000 34.35200
H  16.01300 2.56100 35.16600
Mg -10.16300 40.12400 42.01300
C  -8.90400 36.84200 41.36100
C  -7.15700 41.29500 40.49800
C  -11.48400 43.10300 41.54700
C  -13.30300 38.57300 42.50300
N  -8.19500 39.19000 41.22900
C  -8.05200 37.87800 40.96700
C  -6.62100 37.60400 40.30800
C  -5.98800 38.97200 40.39900
C  -7.20400 39.91700 40.69500
C  -4.86500 39.27900 41.43700
C  -6.67400 37.05200 38.83100
C  -5.92600 35.73700 38.48500
H  -4.84100 35.76200 37.42200
N  -9.45500 42.00600 41.15900
C  -8.18500 42.27400 40.65900
C  -8.15700 43.65000 40.27900
C  -9.43500 44.25500 40.48500
C  -10.17500 43.14400 41.05800
C  -6.94000 44.35700 39.67700
C  -9.92500 45.69700 40.30100
O  -9.03500 46.45700 39.96700
C  -11.32800 46.15500 40.36600
N  -12.07200 40.67900 42.07900
C  -12.35600 42.01300 41.93000
C  -13.84700 42.26900 42.12600
C  -14.44300 40.89400 42.51400
C  -13.24600 39.99100 42.36100
C  -14.13700 43.39300 43.17800
C  -15.64800 40.39800 41.63600
C  -16.99000 40.18400 42.26100
N  -10.94700 38.09100 42.22200
C  -12.22000 37.63000 42.38300
C  -12.25100 36.27200 42.51700
C  -10.96700 35.84400 42.16800
C  -10.19600 37.00300 41.95300
C  -13.47600 35.44600 42.90500
C  -10.01400 34.78800 41.92100
O  -10.23200 33.56700 42.04400
C  -8.69800 35.36300 41.30000
C  -7.54700 34.93100 42.12300
O  -6.96500 35.53400 43.05600
O  -6.96000 33.86000 41.48900
C  -5.56500 33.46400 41.90100
H  -6.17700 41.51700 40.06900
H  -11.98000 44.06400 41.39700
H  -14.28700 38.14300 42.69900
H  -6.05900 36.86300 40.87600
H  -5.42000 39.19500 39.49500
H  -4.67900 38.41700 42.07800
H  -5.21900 40.06500 42.10300
H  -3.92000 39.67500 41.06500
H  -6.32800 37.77300 38.08900
H  -7.73500 36.90100 38.62900
H  -6.71900 35.05500 38.18000
H  -5.45800 35.29000 39.36300
H  -5.94600 43.93000 39.81200
H  -6.83400 45.38000 40.04000
H  -6.97600 44.39300 38.58800
H  -11.92200 45.51600 39.71300
H  -11.40200 47.16900 39.97200
H  -11.65000 46.19800 41.40700
H  -14.33000 42.66600 41.23300
H  -14.66800 40.85000 43.57900
H  -15.09500 43.15400 43.64000
H  -14.33700 44.21600 42.49200
H  -13.39700 43.47800 43.97400
H  -15.48600 39.43400 41.15300
H  -15.89100 41.12200 40.85900
H  -16.94400 40.62700 43.25500
H  -17.26900 39.13000 42.25600
H  -17.81500 40.61100 41.69100
H  -13.21300 34.48800 43.35300
H  -14.17200 35.22400 42.09500
H  -14.03800 36.00900 43.65000
H  -8.55000 35.05400 40.26500
H  -4.96200 33.53900 40.99600
H  -5.51000 32.48100 42.36900
H  -5.18200 34.12100 42.68100

