158

Mg 36.01900 1.70200 29.52100
C  34.23400 2.86500 32.39700
C  38.87000 1.88600 31.40600
C  37.59800 1.31100 26.61000
C  32.87300 1.84300 27.76000
N  36.47000 2.22100 31.77900
C  35.60100 2.68800 32.71500
C  36.46000 2.99100 33.99100
C  37.97400 2.76600 33.62800
C  37.81200 2.15700 32.17400
C  38.55400 4.16000 33.51300
C  36.04700 2.03500 35.21000
C  36.74800 2.35100 36.57500
H  35.84300 2.48700 37.82800
N  37.92000 1.44800 29.09900
C  39.00700 1.48500 30.00900
C  40.22200 1.16500 29.29200
C  39.86600 1.14800 27.87800
C  38.33300 1.21200 27.81800
C  41.59300 1.18000 29.91400
C  40.78600 1.00800 26.69800
O  40.29800 1.05100 25.52600
C  42.31200 0.75200 26.96400
N  35.30300 1.44900 27.52100
C  36.20300 1.45200 26.48700
C  35.56500 1.48000 25.05600
C  34.03400 1.46500 25.59000
C  34.05100 1.60900 27.09500
C  35.88100 2.72700 24.19200
C  33.30500 0.11500 25.21500
C  32.86400 0.05000 23.67900
N  34.03100 2.16200 29.94600
C  32.88900 2.09400 29.15700
C  31.77700 2.59500 29.96700
C  32.23200 2.82800 31.28800
C  33.60900 2.60500 31.19400
C  30.40100 2.81500 29.46200
C  31.88600 3.37100 32.55600
O  30.89100 3.82600 32.98700
C  33.25200 3.41800 33.33400
C  33.47800 4.76400 33.77100
O  34.25700 5.58300 33.32700
O  32.57600 5.06000 34.75800
C  32.65000 6.40900 35.34600
H  39.82400 2.05300 31.91000
H  38.09900 1.33600 25.64000
H  32.00300 1.75700 27.10500
H  36.12400 3.96200 34.35600
H  38.55500 2.12400 34.29000
H  37.86700 4.98900 33.68100
H  38.90700 4.21400 32.48300
H  39.39300 4.23500 34.20500
H  36.26000 0.99400 34.96500
H  34.98000 2.14600 35.39900
H  37.35000 3.25800 36.63200
H  37.35600 1.44900 36.62800
H  42.28100 0.39700 29.59400
H  41.39200 0.99700 30.96900
H  42.01800 2.17400 29.77700
H  42.79600 0.62200 25.99600
H  42.30400 -0.21600 27.46500
H  42.72100 1.59400 27.52100
H  35.73400 0.55000 24.51200
H  33.48900 2.35200 25.26700
H  36.68000 3.32100 24.63600
H  34.94400 3.24300 23.98100
H  36.36100 2.41200 23.26600
H  32.37800 -0.02300 25.77200
H  34.07500 -0.61000 25.48000
H  33.51900 -0.67400 23.19400
H  33.00500 1.01000 23.18200
H  31.80500 -0.19900 23.62100
H  30.34200 2.38600 28.46100
H  30.33200 3.88700 29.27500
H  29.75200 2.34700 30.20200
H  33.03800 2.78600 34.19600
H  31.65400 6.79700 35.56000
H  33.04400 7.21300 34.72500
H  33.27200 6.35700 36.23900
Mg -11.29200 16.89100 41.62100
C  -8.23200 15.32900 40.71900
C  -10.22000 19.64000 39.92900
C  -14.44900 18.10600 41.67600
C  -12.50100 13.74100 42.61900
N  -9.51600 17.35500 40.21800
C  -8.38300 16.55000 40.10200
C  -7.26100 17.26600 39.36900
C  -7.79500 18.76300 39.28300
C  -9.24600 18.63200 39.81700
C  -6.86300 19.80400 39.92900
C  -7.00500 16.48100 38.00000
C  -5.51400 16.27600 37.67900
H  -4.86600 17.10700 36.39600
N  -12.28300 18.62900 40.95000
C  -11.61300 19.65600 40.28700
C  -12.54300 20.78200 40.03500
C  -13.74400 20.35300 40.60100
C  -13.54500 18.96000 41.03600
C  -12.18700 22.08300 39.29600
C  -15.02300 21.23500 40.82300
O  -15.20000 22.31600 40.32000
C  -16.10600 20.72600 41.76700
N  -13.32700 15.99200 41.96000
C  -14.36200 16.82200 42.17300
C  -15.54900 15.92500 42.58200
C  -14.92400 14.54400 43.11600
C  -13.49300 14.74100 42.49500
C  -16.61600 16.47100 43.58000
C  -15.67200 13.22400 42.81200
C  -16.18200 12.53800 44.02000
N  -10.55900 14.94900 41.78000
C  -11.12600 13.79400 42.24200
C  -10.06900 12.82200 42.38000
C  -8.94200 13.41300 41.81600
C  -9.24900 14.70000 41.45700
C  -10.32900 11.39500 43.00100
C  -7.59600 13.14500 41.46100
O  -7.05300 12.03400 41.46700
C  -7.05400 14.39800 40.69600
C  -5.98900 14.94700 41.48000
O  -5.99300 15.30300 42.63700
O  -4.92200 15.07400 40.59600
C  -3.73300 15.58000 41.29700
H  -9.86000 20.57400 39.49400
H  -15.49000 18.43100 41.62400
H  -12.89800 12.85300 43.11500
H  -6.35800 17.29100 39.97800
H  -7.96800 18.97300 38.22800
H  -6.22900 19.43600 40.73600
H  -7.55300 20.47300 40.44400
H  -6.29600 20.42100 39.23200
H  -7.45200 17.04000 37.17900
H  -7.48600 15.50300 37.97100
H  -5.34300 15.22300 37.45600
H  -4.99400 16.60900 38.57800
H  -12.56100 22.07800 38.27200
H  -11.10200 22.17800 39.26000
H  -12.54600 22.90800 39.91100
H  -16.60800 21.59200 42.19700
H  -15.64100 20.24800 42.63000
H  -16.76700 20.02900 41.25100
H  -16.02100 15.86400 41.60100
H  -14.69700 14.69000 44.17200
H  -16.29500 16.13400 44.56600
H  -17.57400 15.99700 43.36700
H  -16.62300 17.56100 43.56900
H  -15.02900 12.58600 42.20600
H  -16.62900 13.41900 42.32900
H  -17.24400 12.29500 44.00500
H  -16.06400 13.05100 44.97400
H  -15.73800 11.56400 44.22300
H  -11.03600 11.65100 43.79000
H  -9.36000 11.07700 43.38400
H  -10.83400 10.81900 42.22500
H  -6.62100 14.06100 39.75300
H  -2.87500 15.74000 40.64400
H  -3.36900 14.80000 41.96600
H  -3.81500 16.46200 41.93200

