158

Mg 8.53300 3.31000 27.77300
C  10.08500 2.03100 30.44700
C  6.61900 5.42900 29.87900
C  6.89000 4.58700 25.08000
C  10.01600 0.94200 25.75300
N  8.25800 3.61300 29.98100
C  9.11500 2.95100 30.91300
C  8.93600 3.54300 32.26900
C  7.68600 4.59900 32.01500
C  7.44000 4.51700 30.54000
C  6.46700 4.36800 32.84100
C  10.19700 4.28000 32.88600
C  9.98800 4.64300 34.33900
H  10.83900 3.93900 35.41100
N  6.94600 4.76900 27.56700
C  6.34300 5.55400 28.55000
C  5.42800 6.47500 27.94800
C  5.45400 6.14100 26.55800
C  6.45400 5.13400 26.34100
C  4.63500 7.42200 28.74300
C  4.54600 6.62800 25.41300
O  4.79700 6.36000 24.23900
C  3.39200 7.60300 25.65900
N  8.48600 2.82900 25.79800
C  7.88500 3.59100 24.86200
C  8.12500 3.09600 23.45800
C  8.96400 1.81200 23.67200
C  9.12500 1.85400 25.15900
C  6.82500 2.85900 22.53700
C  10.30600 1.76400 22.85500
C  10.41400 0.62200 21.84900
N  9.77500 1.69900 28.02600
C  10.41400 0.86800 27.10800
C  11.29200 -0.09100 27.81700
C  11.26900 0.41400 29.10300
C  10.27600 1.50000 29.20900
C  12.14300 -1.16400 27.23700
C  11.70100 0.13100 30.46100
O  12.53300 -0.69700 30.90800
C  10.96100 1.15100 31.36400
C  10.13100 0.50200 32.42700
O  9.17300 -0.18400 32.24500
O  10.67100 0.74800 33.66600
C  9.95800 0.24800 34.89400
H  6.24400 6.05700 30.69000
H  6.36200 4.90200 24.17800
H  10.53500 0.27600 25.06000
H  8.65300 2.79100 33.00600
H  8.09900 5.60100 32.12800
H  6.45800 5.01700 33.71600
H  6.56800 3.28900 32.96200
H  5.53400 4.56200 32.31200
H  10.38200 5.17700 32.29600
H  11.07900 3.71500 32.58600
H  8.96700 4.33900 34.56900
H  10.16800 5.71100 34.46700
H  4.87600 7.40500 29.80600
H  3.58900 7.11600 28.71600
H  4.72200 8.42800 28.33300
H  2.55800 7.06200 26.10700
H  3.09400 7.91400 24.65700
H  3.61900 8.38600 26.38200
H  8.69000 3.82000 22.87000
H  8.37200 0.95900 23.33800
H  5.97400 2.94800 23.21100
H  6.94100 1.93100 21.97700
H  6.71100 3.68600 21.83700
H  11.15400 1.73000 23.53900
H  10.40200 2.70000 22.30600
H  11.23300 -0.03600 22.13800
H  10.76700 1.03800 20.90600
H  9.53900 0.02000 21.60400
H  13.09600 -0.72100 26.94700
H  11.69200 -1.44300 26.28500
H  12.16500 -2.07300 27.84000
H  11.75200 1.70400 31.86900
H  9.38800 -0.67100 34.75900
H  9.25300 1.05800 35.07900
H  10.64000 0.18200 35.74100
Mg 35.65800 2.07500 30.35400
C  33.25300 3.24800 32.64800
C  38.08300 2.17300 32.73100
C  37.90200 1.37100 27.97900
C  33.19600 2.66400 27.80200
N  35.65500 2.78700 32.36500
C  34.56500 3.16400 33.11800
C  35.01200 3.34400 34.58800
C  36.55200 3.41300 34.45400
C  36.78200 2.69200 33.10100
C  37.13100 4.84900 34.47200
C  34.55000 2.31300 35.63900
C  34.33900 2.87000 37.12800
H  35.06700 4.07700 37.69000
N  37.69000 1.70000 30.36100
C  38.50900 1.62200 31.46300
C  39.76200 0.97800 31.08000
C  39.71200 0.73100 29.65900
C  38.42000 1.32000 29.27800
C  40.84500 0.81300 32.03400
C  40.70400 0.22000 28.70900
O  40.48000 -0.09100 27.52500
C  42.17700 -0.01000 29.18100
N  35.64300 2.34500 28.14900
C  36.73800 1.87900 27.42600
C  36.39900 1.87900 25.94500
C  34.84700 2.01100 25.84900
C  34.53300 2.43600 27.33900
C  37.35400 2.79900 25.15400
C  34.25500 0.66900 25.48000
C  32.78400 0.48600 25.21900
N  33.57700 2.69100 30.17900
C  32.77200 2.89900 29.10700
C  31.45700 3.25500 29.63700
C  31.56900 3.36600 31.04300
C  32.90100 3.07600 31.32000
C  30.29800 3.60200 28.75600
C  30.88400 3.71400 32.23300
O  29.72200 4.04100 32.37300
C  31.94000 3.60000 33.36100
C  31.94000 4.96200 34.02600
O  32.29900 6.03200 33.54400
O  31.51700 4.86500 35.34700
C  31.73100 6.10200 36.09700
H  38.76200 2.14400 33.58600
H  38.55600 0.98900 27.19300
H  32.46400 2.62900 26.99300
H  34.59900 4.25500 35.02200
H  37.19500 2.83200 35.11500
H  36.82500 5.24000 35.44200
H  36.80500 5.36900 33.57100
H  38.21700 4.76200 34.48000
H  35.27500 1.50500 35.72700
H  33.58800 1.93500 35.29200
H  34.40900 1.97500 37.74600
H  33.29800 3.19300 37.13000
H  40.86400 -0.22400 32.37100
H  40.66300 1.35900 32.95900
H  41.86200 1.08500 31.75100
H  42.17500 -0.60000 30.09800
H  42.51500 1.00600 29.37900
H  42.76600 -0.39300 28.34800
H  36.65900 0.83900 25.74900
H  34.63300 2.80900 25.13900
H  37.71200 3.48200 25.92400
H  36.82100 3.31700 24.35700
H  38.12300 2.14000 24.75100
H  34.61400 -0.08100 26.18500
H  34.78100 0.30300 24.59900
H  32.34600 1.37100 24.75900
H  32.29500 0.00400 26.06600
H  32.60200 -0.19800 24.39000
H  30.61300 3.95900 27.77500
H  29.60900 4.32500 29.19400
H  29.82300 2.65200 28.51300
H  31.49400 2.92100 34.08700
H  31.18000 5.90700 37.01700
H  31.30900 6.91400 35.50500
H  32.79700 6.25800 36.26800

