158

Mg 1.44900 -2.11900 44.10600
C  4.92500 -1.58000 43.92300
C  1.01000 0.66700 42.28300
C  -1.74800 -3.04000 43.88500
C  2.13400 -5.26800 45.72900
N  2.89400 -0.58700 43.26000
C  4.21600 -0.58500 43.22300
C  4.79200 0.58600 42.28200
C  3.44500 1.35900 41.99100
C  2.33800 0.43800 42.55100
C  3.42800 2.78500 42.47900
C  5.54100 0.06100 41.06800
C  7.03700 0.59500 41.03900
H  7.42800 1.49600 39.91000
N  -0.10400 -1.24500 43.30200
C  -0.10700 -0.06700 42.63700
C  -1.45100 0.24700 42.33200
C  -2.31400 -0.86900 42.57900
C  -1.42300 -1.81400 43.23600
C  -1.94900 1.47200 41.70000
C  -3.76600 -0.99200 42.34700
O  -4.43300 0.02900 42.13400
C  -4.40800 -2.35800 42.40100
N  0.33200 -3.88000 44.78300
C  -1.01300 -4.00400 44.60300
C  -1.57200 -5.35000 45.02600
C  -0.33600 -5.91400 45.86200
C  0.80300 -5.02100 45.39700
C  -2.95000 -5.25300 45.73900
C  -0.10000 -7.44500 45.75000
C  0.49100 -8.19700 47.03400
N  3.13900 -3.25700 44.67600
C  3.21800 -4.47700 45.41700
C  4.59400 -4.80800 45.53600
C  5.30800 -3.67000 45.03500
C  4.38700 -2.73300 44.54200
C  5.03700 -6.10100 46.18500
C  6.66500 -3.08700 44.88200
O  7.71300 -3.43300 45.31200
C  6.43100 -1.73800 44.10200
C  6.80000 -0.52400 44.91200
O  6.20200 -0.02300 45.83700
O  7.91300 0.06600 44.33400
C  8.13600 1.41100 44.71500
H  0.95600 1.57500 41.68000
H  -2.80100 -3.32400 43.93600
H  2.30600 -6.25100 46.17100
H  5.36600 1.31700 42.85000
H  3.27800 1.38700 40.91400
H  2.68400 2.80500 43.27500
H  3.27400 3.49600 41.66700
H  4.37000 3.06200 42.95200
H  5.06900 0.44900 40.16500
H  5.50300 -1.02300 40.96500
H  7.66000 -0.29800 40.97500
H  7.25000 1.07600 41.99400
H  -2.59400 1.25900 40.84800
H  -1.09800 2.12400 41.50300
H  -2.53700 2.01500 42.44000
H  -5.22100 -2.38100 41.67600
H  -4.93500 -2.51200 43.34200
H  -3.75200 -3.12200 41.98500
H  -1.74000 -5.93200 44.11900
H  -0.28900 -5.66400 46.92200
H  -2.76200 -5.86700 46.62000
H  -3.78500 -5.69100 45.19300
H  -3.14100 -4.18900 45.88400
H  0.61200 -7.76200 44.98900
H  -1.05400 -7.91900 45.51900
H  1.43200 -8.72500 46.88100
H  -0.19800 -8.85000 47.57000
H  0.71800 -7.42500 47.76900
H  4.61800 -6.98500 45.70600
H  4.63600 -6.11800 47.19900
H  6.12700 -6.08800 46.18000
H  6.99200 -1.93900 43.19000
H  8.82500 1.82400 43.97900
H  8.57400 1.70800 45.66800
H  7.21700 1.96600 44.52600
Mg -1.59600 35.19600 27.28200
C  -3.73600 33.12600 29.33000
C  -0.80900 36.97600 30.10900
C  0.24500 37.20500 25.26800
C  -2.59600 33.30200 24.58400
N  -2.23900 35.03400 29.44500
C  -2.86500 33.97300 30.04200
C  -2.71000 34.02300 31.57600
C  -2.04200 35.45200 31.84700
C  -1.59200 35.78600 30.43500
C  -2.95700 36.57000 32.35400
C  -1.92600 32.84500 32.23500
C  -2.65600 32.10200 33.37500
H  -1.96600 31.86300 34.75600
N  -0.60700 36.92500 27.61100
C  -0.32600 37.48000 28.87600
C  0.53300 38.62700 28.67000
C  0.85600 38.72700 27.28500
C  0.17800 37.59100 26.69900
C  0.89000 39.55000 29.83800
C  1.64300 39.81100 26.46900
O  1.68300 39.82400 25.25700
C  2.37100 40.96200 27.12000
N  -1.20200 35.22400 25.20500
C  -0.38600 36.15600 24.61900
C  -0.37800 35.93700 23.05200
C  -1.11500 34.57400 22.93300
C  -1.74200 34.36100 24.30000
C  -1.02100 37.11800 22.07300
C  -0.09800 33.43500 22.41700
C  0.51300 32.49900 23.44800
N  -2.93800 33.57300 26.94200
C  -3.24300 32.90800 25.77200
C  -4.21000 31.84800 26.04400
C  -4.40100 31.93100 27.42700
C  -3.61400 32.99400 27.95400
C  -4.94800 30.97200 25.06300
C  -5.02800 31.24500 28.49100
O  -5.81800 30.32300 28.51900
C  -4.55500 31.97200 29.79300
C  -5.74800 32.38600 30.57100
O  -6.75800 32.93000 30.19400
O  -5.59800 32.00600 31.85300
C  -6.67700 32.20100 32.86000
H  -0.42000 37.40400 31.03500
H  0.88000 37.80500 24.61200
H  -2.79000 32.84400 23.61100
H  -3.73100 34.05800 31.95400
H  -1.24300 35.35600 32.58200
H  -2.59000 36.89900 33.32600
H  -3.92600 36.11200 32.55400
H  -3.03600 37.45600 31.72400
H  -0.96800 33.31900 32.45000
H  -1.73900 32.12500 31.43800
H  -2.67800 31.04900 33.09300
H  -3.70300 32.39900 33.43700
H  1.95800 39.58100 30.05100
H  0.49500 39.25800 30.81100
H  0.63700 40.59200 29.64200
H  1.70300 41.46800 27.81700
H  2.67400 41.62200 26.30700
H  3.22700 40.65700 27.72100
H  0.65900 35.85100 22.72900
H  -1.95500 34.64900 22.24300
H  -1.45400 37.87200 22.73200
H  -1.88500 36.87700 21.45400
H  -0.21600 37.59100 21.51000
H  0.81700 33.96900 22.16200
H  -0.50600 32.91600 21.55000
H  1.55500 32.78300 23.59600
H  0.38600 31.47000 23.11000
H  -0.13800 32.57900 24.31800
H  -5.90200 30.66700 25.49400
H  -4.23900 30.16700 24.86600
H  -5.15200 31.63700 24.22300
H  -3.84700 31.30800 30.29000
H  -7.43500 32.84800 32.41900
H  -6.25000 32.71900 33.71800
H  -7.03300 31.20600 33.12600

