158

Mg 48.59400 34.53500 26.93800
C  46.49000 33.15200 29.42400
C  48.88700 37.38300 28.83800
C  50.11400 36.06100 24.29000
C  47.90700 31.80800 24.91600
N  47.78900 35.25400 28.86400
C  47.08900 34.42300 29.77100
C  47.22800 34.90700 31.19100
C  47.50000 36.40100 30.99700
C  48.14600 36.37500 29.46700
C  46.22500 37.33400 31.16600
C  48.41200 34.19400 31.97800
C  48.40200 34.33800 33.51600
H  47.33700 35.26100 34.19300
N  49.42000 36.47900 26.60400
C  49.51600 37.48300 27.58100
C  50.13000 38.63000 26.99700
C  50.39400 38.31300 25.60100
C  49.91000 36.93100 25.40500
C  50.53600 39.81800 27.75200
C  51.10800 39.13900 24.49200
O  51.38500 38.59100 23.36200
C  51.54400 40.56000 24.70000
N  48.95400 33.99600 24.97100
C  49.66900 34.77100 24.12000
C  49.67700 34.07500 22.70700
C  49.41300 32.58100 23.01300
C  48.76600 32.76400 24.42000
C  48.82100 34.85900 21.74500
C  50.53100 31.54100 23.11900
C  51.67400 31.86300 24.14100
N  47.52400 32.78700 27.11900
C  47.33600 31.78400 26.17900
C  46.54100 30.74400 26.77600
C  46.11700 31.27400 27.95000
C  46.78600 32.45300 28.15800
C  46.26600 29.40800 26.20300
C  45.37900 30.98400 29.19800
O  44.76000 30.05700 29.59500
C  45.47700 32.25300 30.11100
C  45.72900 31.86000 31.49000
O  46.68900 31.26100 31.97000
O  44.70200 32.29400 32.25900
C  44.78800 31.84700 33.66300
H  48.86200 38.32400 29.39100
H  50.60500 36.44300 23.39300
H  47.74600 30.95100 24.25800
H  46.28700 34.69300 31.69800
H  48.29800 36.87400 31.56800
H  45.40200 36.83500 31.67700
H  45.85000 37.57500 30.17100
H  46.54800 38.20400 31.73800
H  49.34000 34.68800 31.69200
H  48.49700 33.14200 31.70300
H  49.37400 34.71800 33.82900
H  48.38400 33.38900 34.05100
H  51.32800 39.40300 28.37400
H  49.70200 39.94300 28.44300
H  50.66400 40.76400 27.22500
H  52.47300 40.57700 25.26900
H  50.77000 41.16000 25.17800
H  51.57300 41.02100 23.71200
H  50.68700 34.24100 22.33200
H  48.58900 32.14100 22.45200
H  48.13200 35.43000 22.36800
H  48.32800 34.16300 21.06600
H  49.44500 35.55300 21.18200
H  50.89200 31.42000 22.09800
H  50.10900 30.60300 23.48200
H  51.41500 31.43500 25.11000
H  51.69500 32.95100 24.20600
H  52.66300 31.55400 23.80600
H  45.42800 28.96400 26.74200
H  47.06600 28.69700 26.41000
H  45.96900 29.46700 25.15600
H  44.58200 32.86700 30.01000
H  45.78300 32.01000 34.07900
H  44.69700 30.76100 33.67500
H  43.95100 32.36300 34.13300
Mg 30.35100 57.59300 41.16400
C  27.34200 55.89800 40.21200
C  32.07200 54.81900 40.16800
C  32.95500 59.53100 41.42600
C  28.23500 60.50700 41.64100
N  29.74200 55.57800 40.27800
C  28.48500 55.16200 39.92500
C  28.58800 53.95100 39.15200
C  30.01600 53.35500 39.46900
C  30.68100 54.61000 40.08200
C  30.07500 52.21200 40.53200
C  28.26300 54.18700 37.61700
C  27.00800 53.50200 36.96400
H  26.47700 54.22200 35.65700
N  32.29000 57.24500 40.84200
C  32.83700 56.02300 40.45900
C  34.24400 56.16400 40.60900
C  34.52400 57.49700 41.14600
C  33.25600 58.13800 41.20100
C  35.33200 55.18500 40.06100
C  35.89700 58.04900 41.51000
O  36.87400 57.37800 41.30900
C  36.16100 59.40400 42.09400
N  30.53000 59.77000 41.54500
C  31.79500 60.27200 41.57300
C  31.76700 61.87300 41.60500
C  30.20500 62.16500 41.80600
C  29.62800 60.75000 41.66400
C  32.78100 62.58300 42.61500
C  29.50800 63.23000 40.87000
C  28.81600 64.43600 41.56100
N  28.24600 58.09300 41.15500
C  27.57000 59.26300 41.42200
C  26.12600 59.06700 41.48700
C  26.00200 57.72300 40.99000
C  27.33300 57.23700 40.78300
C  25.07200 60.09400 41.90000
C  25.04200 56.62400 40.60200
O  23.82900 56.55400 40.65400
C  25.82500 55.49500 39.98000
C  25.49100 54.16000 40.54600
O  25.96400 53.78400 41.64900
O  24.43800 53.49300 39.91300
C  24.21000 52.15800 40.44900
H  32.72500 53.96100 39.99200
H  33.79900 60.22200 41.47500
H  27.70700 61.43400 41.87500
H  27.90700 53.15000 39.43900
H  30.66500 53.00600 38.66600
H  30.94300 51.56600 40.40500
H  29.21200 51.55200 40.43700
H  30.16600 52.61100 41.54200
H  29.12900 53.71900 37.14700
H  28.31100 55.27400 37.56300
H  26.24900 53.50900 37.74600
H  27.28900 52.46600 36.77700
H  34.88500 54.45000 39.39300
H  35.95900 54.64300 40.76900
H  36.05300 55.71800 39.44100
H  35.41000 59.63000 42.85100
H  36.10100 60.18000 41.33100
H  37.17200 59.52700 42.48000
H  32.07100 62.13800 40.59300
H  29.99700 62.42100 42.84500
H  32.57000 62.36000 43.66100
H  32.65900 63.66600 42.59300
H  33.78100 62.23400 42.35700
H  28.77900 62.69000 40.26500
H  30.32100 63.61600 40.25600
H  27.74700 64.23000 41.50400
H  28.95500 65.39400 41.06000
H  29.12700 64.53200 42.60200
H  24.53000 60.51700 41.05400
H  25.55900 60.99200 42.28000
H  24.37200 59.63700 42.60000
H  25.67100 55.34800 38.91100
H  23.14000 52.11800 40.24600
H  24.23000 52.02000 41.53000
H  24.71900 51.40600 39.84700

