158

Mg 25.66700 0.20300 29.02900
C  27.75500 -0.34400 31.83400
C  23.11100 0.67900 31.16800
C  23.64100 0.33900 26.32000
C  28.43100 -0.62500 27.01000
N  25.49800 0.04000 31.26200
C  26.48500 0.01200 32.24100
C  25.97700 0.22800 33.71700
C  24.42300 0.29100 33.35900
C  24.30500 0.38300 31.78900
C  23.52900 -0.86100 33.88200
C  26.66600 1.36100 34.56800
C  27.15400 1.12000 36.01300
H  26.42600 1.95100 37.13300
N  23.66100 0.44500 28.85100
C  22.75400 0.68900 29.83100
C  21.48000 0.97800 29.29700
C  21.59100 0.75700 27.86800
C  23.01500 0.50400 27.63000
C  20.27000 1.32900 30.13800
C  20.54100 0.76600 26.79100
O  20.70300 0.33100 25.67900
C  19.16600 1.31900 27.06600
N  26.02300 0.11800 27.00600
C  25.06000 0.21700 26.05000
C  25.63100 0.02000 24.61600
C  27.10100 -0.27800 24.81500
C  27.19000 -0.30000 26.39000
C  24.86300 -1.00400 23.70400
C  28.13400 0.72900 24.16000
C  29.35800 0.03500 23.54400
N  27.65900 -0.42600 29.26600
C  28.66200 -0.74100 28.39100
C  29.82100 -1.07400 29.05600
C  29.53700 -0.91500 30.45600
C  28.17200 -0.49800 30.50400
C  31.19300 -1.38000 28.47600
C  30.13900 -1.03500 31.73400
O  31.28900 -1.37000 32.08000
C  28.98400 -0.54200 32.71300
C  28.85300 -1.49600 33.74700
O  28.17600 -2.49900 33.67200
O  29.50400 -1.06100 34.86000
C  29.40300 -1.93200 35.99700
H  22.28400 0.81500 31.86900
H  22.98100 0.47700 25.46100
H  29.21800 -1.00000 26.35300
H  26.14500 -0.71400 34.23700
H  24.07900 1.22400 33.80600
H  23.13900 -0.38200 34.78100
H  24.15600 -1.70800 34.15900
H  22.74800 -1.20500 33.20300
H  25.82500 2.04900 34.65200
H  27.43900 1.79000 33.93000
H  28.19900 1.43000 36.02300
H  27.04000 0.04700 36.16700
H  19.37800 0.81800 29.77800
H  20.18800 2.39900 29.94300
H  20.45200 1.10900 31.19000
H  18.65200 1.36500 26.10600
H  19.35300 2.28900 27.52700
H  18.63500 0.66300 27.75600
H  25.57900 0.97800 24.09800
H  27.25900 -1.31700 24.52700
H  25.39600 -1.87800 23.33000
H  24.30400 -0.47700 22.93000
H  24.18900 -1.50000 24.40300
H  28.41600 1.46500 24.91300
H  27.72600 1.28300 23.31400
H  29.54400 0.52100 22.58700
H  29.14400 -1.02100 23.38000
H  30.11800 0.14700 24.31700
H  32.05800 -1.08100 29.06800
H  31.26600 -0.77000 27.57600
H  31.22300 -2.40400 28.10100
H  29.32600 0.39700 33.14900
H  28.69700 -1.55800 36.73800
H  30.40200 -2.09000 36.40300
H  28.96900 -2.92300 35.86400
Mg 8.69300 46.86600 26.34900
C  6.72200 46.92100 29.20200
C  11.35700 47.80300 28.33200
C  10.51700 47.07800 23.59200
C  5.75300 46.80600 24.34100
N  8.96600 47.24400 28.54100
C  8.01700 47.18700 29.48800
C  8.49200 47.61500 30.90900
C  9.96400 48.17000 30.52800
C  10.16200 47.73400 29.02800
C  10.03000 49.65800 30.69400
C  8.32100 46.41800 31.87900
C  9.34800 46.24700 33.03100
H  9.14400 45.32900 34.24300
N  10.77600 47.17700 26.01000
C  11.68500 47.54800 26.93600
C  12.99600 47.59600 26.30400
C  12.75000 47.27800 24.94900
C  11.30000 47.21300 24.80900
C  14.29100 47.90400 27.07700
C  13.83400 46.98500 23.82800
O  13.42800 46.78900 22.71200
C  15.34500 46.93800 24.10900
N  8.15600 47.06500 24.23800
C  9.15600 47.13900 23.29200
C  8.56300 47.17900 21.83400
C  7.09100 46.83700 22.08600
C  6.97500 46.89500 23.63100
C  8.85100 48.58800 21.20200
C  6.67800 45.53100 21.42400
C  5.31900 45.37300 20.69800
N  6.67600 46.79800 26.63300
C  5.59800 46.69700 25.77900
C  4.44700 46.47700 26.61500
C  4.83100 46.62400 27.90500
C  6.20600 46.80200 27.92300
C  3.06400 46.15200 26.24100
C  4.36200 46.60400 29.26400
O  3.23900 46.45800 29.78800
C  5.56100 46.81600 30.12700
C  5.57100 45.52200 30.89700
O  5.95300 44.43800 30.45600
O  4.99200 45.68600 32.17200
C  4.93100 44.40700 32.93900
H  12.22800 48.10700 28.91700
H  11.10900 47.02100 22.67700
H  4.85100 46.67500 23.74100
H  7.90800 48.45200 31.29100
H  10.74700 47.77700 31.17600
H  9.76500 49.81800 31.73900
H  9.34000 50.15500 30.01200
H  11.07400 49.96500 30.63200
H  8.28300 45.56700 31.19900
H  7.41800 46.53700 32.47900
H  9.62800 47.27300 33.27300
H  10.20700 45.92600 32.44200
H  14.04300 48.14200 28.11100
H  14.72800 48.84700 26.74900
H  14.96100 47.04500 27.03600
H  15.67500 47.94900 24.35000
H  15.92200 46.65500 23.22900
H  15.55300 46.29900 24.96700
H  9.23400 46.51300 21.29100
H  6.38900 47.60900 21.77000
H  7.97300 49.11700 20.83300
H  9.47300 48.47900 20.31300
H  9.21700 49.33900 21.90200
H  6.49900 44.82000 22.23000
H  7.51000 45.11000 20.86000
H  4.60700 46.07200 21.13600
H  4.87400 44.38700 20.83100
H  5.42800 45.60400 19.63900
H  2.26400 46.70400 26.73200
H  2.94900 45.09000 26.46000
H  2.85700 46.29100 25.18000
H  5.42700 47.60700 30.86400
H  4.76200 43.50900 32.34500
H  4.20700 44.52000 33.74500
H  5.90400 44.39400 33.43000

