158

Mg 50.44100 45.87600 42.70900
C  47.58800 46.93900 41.02400
C  50.02300 42.72400 41.26100
C  53.66300 45.15100 43.35500
C  51.04500 49.24400 43.77600
N  48.94900 45.01000 41.21100
C  47.83100 45.60000 40.80200
C  46.95700 44.60000 40.00200
C  47.70100 43.16000 40.21700
C  48.95300 43.60800 40.94400
C  46.87100 42.09800 40.91700
C  46.75600 45.09800 38.50400
C  45.37400 44.88500 37.93600
H  45.13300 43.69800 36.98500
N  51.55700 44.07400 42.59300
C  51.24800 42.95900 41.95500
C  52.35200 41.93600 42.06200
C  53.42100 42.64100 42.65800
C  52.90900 44.03800 42.87900
C  52.11000 40.52300 41.59600
C  54.75000 42.07700 43.05900
O  54.88900 40.88400 43.07600
C  55.86600 42.95700 43.56700
N  52.03700 47.00400 43.55000
C  53.26400 46.44100 43.67400
C  54.24100 47.51000 44.15200
C  53.45400 48.75200 44.49800
C  52.08200 48.32800 44.02000
C  55.23400 47.11600 45.31800
C  53.98600 50.08200 43.96400
C  54.07400 51.25200 44.97100
N  49.55700 47.70800 42.63100
C  49.87200 48.95000 43.09900
C  48.81000 49.88300 42.69000
C  47.92600 49.12300 41.93900
C  48.41000 47.81900 41.82600
C  48.77200 51.32400 43.00500
C  46.65700 49.27400 41.16400
O  45.94000 50.23900 40.89200
C  46.46500 47.79800 40.55700
C  45.13800 47.33900 41.17300
O  44.86600 46.82600 42.29700
O  44.20500 47.49100 40.18800
C  42.85300 47.07200 40.46300
H  49.77000 41.73300 40.87700
H  54.75200 45.12900 43.27600
H  51.20900 50.30300 43.99200
H  45.95600 44.47600 40.41500
H  47.90100 42.54700 39.33800
H  45.81800 42.29600 40.71900
H  46.96300 42.02700 42.00100
H  47.17900 41.15800 40.45900
H  47.44600 44.55000 37.86300
H  46.93200 46.17000 38.41900
H  45.08000 45.72500 37.30700
H  44.63300 44.77700 38.72800
H  52.97900 39.88800 41.76900
H  51.87300 40.34100 40.54700
H  51.41100 39.99200 42.24200
H  55.53800 43.54600 44.42400
H  56.24300 43.59300 42.76700
H  56.74700 42.36100 43.80500
H  54.75500 47.62400 43.19800
H  53.21400 48.88000 45.55300
H  54.80600 46.24700 45.81800
H  55.26900 47.83200 46.13900
H  56.22100 47.01800 44.86500
H  53.47600 50.32100 43.03100
H  55.03500 49.93000 43.70900
H  54.50700 50.87300 45.89700
H  53.06400 51.56700 45.23400
H  54.57700 52.14800 44.60900
H  48.73000 51.96900 42.12700
H  49.63500 51.62900 43.59700
H  47.85100 51.44400 43.57600
H  46.31200 47.79900 39.47800
H  42.24800 47.55100 39.69300
H  42.60200 47.36500 41.48200
H  42.72600 46.01100 40.24900
Mg 41.69100 41.36800 26.16000
C  41.14500 43.64300 28.70000
C  42.65300 39.10800 28.60900
C  42.22400 39.12600 23.71100
C  41.49900 43.95200 23.89600
N  41.95400 41.41400 28.34800
C  41.58000 42.41300 29.21000
C  41.84900 42.12700 30.68600
C  42.51300 40.67600 30.63500
C  42.36400 40.37400 29.13400
C  44.00100 40.56300 31.06000
C  40.55000 42.12000 31.57300
C  40.47600 43.01100 32.78400
H  39.99800 42.26800 34.05400
N  42.40500 39.33500 26.20200
C  42.69300 38.60300 27.29900
C  43.04300 37.22100 26.88200
C  42.93500 37.21700 25.45400
C  42.50500 38.59900 25.02800
C  43.28500 36.09200 27.80800
C  43.16800 36.07800 24.49100
O  42.95000 36.24500 23.29400
C  43.69800 34.80400 24.98000
N  42.02100 41.53200 24.10200
C  42.06800 40.48600 23.22600
C  42.07500 40.85500 21.77300
C  42.00100 42.45200 21.82800
C  41.70500 42.67900 23.31600
C  43.25300 40.30800 21.00400
C  40.94400 43.05500 20.81200
C  41.37000 44.35200 20.14800
N  41.28600 43.32000 26.26500
C  41.13600 44.24000 25.22700
C  40.74800 45.52800 25.75400
C  40.69600 45.28600 27.13100
C  41.04900 43.96300 27.39900
C  40.66400 46.82200 25.00000
C  40.52100 46.04700 28.33300
O  40.23100 47.24200 28.51200
C  40.80000 44.97700 29.44400
C  41.93800 45.52400 30.19200
O  43.15100 45.56700 29.81600
O  41.48100 46.03200 31.36200
C  42.49700 46.53600 32.25100
H  43.19400 38.48700 29.32600
H  42.18200 38.44700 22.85700
H  41.43600 44.68700 23.09200
H  42.60900 42.79900 31.08500
H  41.97100 39.95100 31.24200
H  44.09400 40.06500 32.02500
H  44.38400 41.57300 31.20500
H  44.63200 40.11200 30.29400
H  40.27100 41.12600 31.92400
H  39.80600 42.52600 30.88800
H  39.77200 43.82900 32.63400
H  41.44300 43.49700 32.91400
H  44.33500 35.80800 27.74500
H  42.68600 35.25800 27.44200
H  43.10700 36.49600 28.80500
H  43.79800 34.03500 24.21500
H  42.92600 34.35600 25.60600
H  44.66800 34.97400 25.44800
H  41.17200 40.34800 21.43300
H  43.02800 42.76000 21.62900
H  43.99600 39.75500 21.57900
H  43.78700 41.15500 20.57400
H  42.88100 39.60500 20.25900
H  40.02300 43.20100 21.37700
H  40.69900 42.28700 20.07900
H  41.24700 44.02800 19.11400
H  42.45000 44.43400 20.26300
H  40.80500 45.25600 20.37400
H  39.68700 46.91500 24.52400
H  41.37000 46.75200 24.17300
H  40.73300 47.64400 25.71300
H  39.96100 44.95300 30.14000
H  42.83600 45.75300 32.92800
H  41.98000 47.31600 32.81000
H  43.30900 47.04900 31.73500

