158

Mg -11.47400 37.88400 43.30900
C  -9.52100 35.23800 42.14000
C  -9.40300 40.05900 41.98900
C  -13.80600 40.26900 43.94300
C  -14.00700 35.44800 44.12600
N  -9.70900 37.59100 42.13400
C  -9.03100 36.47800 41.87900
C  -7.63700 36.80200 41.23000
C  -7.49200 38.36100 41.33100
C  -8.89300 38.70900 41.89100
C  -6.34500 38.79500 42.29500
C  -7.66500 36.29800 39.76400
C  -6.53700 35.55800 39.24600
H  -5.76000 36.33200 38.15700
N  -11.68000 39.91400 42.94800
C  -10.65800 40.62100 42.28700
C  -11.02600 42.02700 42.16100
C  -12.36600 42.14300 42.79100
C  -12.69700 40.75400 43.27100
C  -10.07300 43.11000 41.67200
C  -13.23700 43.38700 42.94800
O  -12.71600 44.53900 42.78800
C  -14.66200 43.26100 43.27200
N  -13.55900 37.84400 43.94100
C  -14.21000 38.97900 44.20800
C  -15.61700 38.68400 44.78800
C  -15.72300 37.14500 44.92400
C  -14.36500 36.79100 44.23800
C  -15.81900 39.43000 46.23000
C  -17.05800 36.47400 44.50100
C  -17.32600 36.33100 43.00800
N  -11.77200 35.73000 43.25000
C  -12.81300 34.87600 43.63600
C  -12.47700 33.53400 43.37300
C  -11.21300 33.61600 42.64700
C  -10.81500 34.99100 42.68300
C  -13.19100 32.28300 43.77200
C  -10.08100 32.79900 42.09400
O  -9.87200 31.60400 41.94500
C  -8.99100 33.85100 41.64900
C  -7.68500 33.37100 42.21800
O  -7.05000 32.40800 41.77900
O  -7.20100 34.17600 43.24000
C  -5.90900 33.78200 43.71800
H  -8.61400 40.78500 41.78000
H  -14.57000 41.01700 44.16400
H  -14.65900 34.60600 44.36500
H  -6.81000 36.36000 41.78600
H  -7.32600 38.94400 40.42500
H  -5.40600 38.94300 41.76100
H  -6.20900 38.12900 43.14800
H  -6.58900 39.80000 42.63900
H  -7.82700 37.15000 39.10300
H  -8.49400 35.62400 39.54900
H  -6.88900 34.58700 38.89900
H  -5.84900 35.27000 40.04000
H  -10.17400 43.43800 40.63800
H  -9.02400 42.88800 41.86900
H  -10.23500 44.02000 42.25000
H  -15.30100 42.48500 42.85000
H  -15.12800 44.20000 42.97400
H  -14.75800 43.08100 44.34200
H  -16.36800 39.15400 44.15300
H  -15.42700 36.81900 45.92100
H  -15.13100 40.25000 46.43400
H  -15.66300 38.75500 47.07200
H  -16.80400 39.89700 46.21600
H  -17.90900 37.01500 44.91400
H  -16.88800 35.52000 45.00000
H  -16.84600 37.17100 42.50600
H  -18.39200 36.27400 42.78600
H  -16.89800 35.41600 42.59800
H  -13.72300 32.39900 44.71600
H  -12.56100 31.39600 43.83100
H  -14.00200 32.11200 43.06500
H  -9.01800 33.85200 40.55900
H  -6.11300 32.81800 44.18600
H  -5.50100 34.50500 44.42400
H  -5.17200 33.73200 42.91700
Mg -1.38400 34.90900 28.06500
C  -3.13500 33.05400 30.35500
C  0.24300 36.54800 30.84900
C  -0.16300 37.02800 25.94600
C  -3.31900 33.35500 25.51400
N  -1.60400 34.91100 30.36400
C  -2.32900 33.99000 31.06100
C  -1.88500 33.91400 32.51200
C  -1.04500 35.21200 32.70000
C  -0.74900 35.58500 31.22100
C  -1.79100 36.33300 33.45700
C  -1.18300 32.55400 32.82700
C  -1.79400 31.56000 33.90400
H  -1.13700 31.44800 35.25200
N  -0.01200 36.46000 28.35500
C  0.57400 36.92600 29.50800
C  1.51000 37.95400 29.13100
C  1.36200 38.20500 27.68600
C  0.30900 37.26100 27.26600
C  2.53500 38.54000 30.11200
C  2.04300 39.22200 26.76800
O  1.77100 39.36100 25.59500
C  3.14900 40.10500 27.31500
N  -1.82100 35.26800 26.06800
C  -1.16900 36.20400 25.43600
C  -1.58900 36.20800 23.91200
C  -2.32700 34.92500 23.66800
C  -2.54100 34.51900 25.16400
C  -2.29800 37.43200 23.41100
C  -1.58300 33.82000 22.82300
C  -1.22600 34.25900 21.41200
N  -2.82000 33.46500 27.90500
C  -3.50800 32.88900 26.80000
C  -4.29600 31.76000 27.17800
C  -4.14400 31.83100 28.55800
C  -3.32000 32.86700 28.94700
C  -5.09400 30.84900 26.29800
C  -4.61800 31.15500 29.77400
O  -5.42700 30.22900 29.96600
C  -4.07400 32.00400 30.95500
C  -5.32200 32.40100 31.68500
O  -6.25900 33.09700 31.22400
O  -5.23000 31.98600 32.95500
C  -6.31100 32.42100 33.95400
H  0.79300 36.93600 31.70900
H  0.26500 37.55800 25.09300
H  -3.89000 32.83200 24.74400
H  -2.82700 33.98000 33.05600
H  -0.06900 35.03800 33.15400
H  -1.69400 36.21600 34.53600
H  -2.86200 36.29600 33.26000
H  -1.42900 37.30900 33.13300
H  -0.14900 32.66500 33.15400
H  -1.04300 31.99000 31.90500
H  -1.83800 30.53800 33.52600
H  -2.85000 31.74900 34.09600
H  3.52900 38.42800 29.67700
H  2.45700 38.10400 31.10800
H  2.46500 39.62300 30.21300
H  2.83000 40.74400 28.13800
H  3.55300 40.66900 26.47400
H  3.96400 39.52900 27.75400
H  -0.69300 36.06400 23.30900
H  -3.29500 35.02200 23.17700
H  -2.08600 38.32900 23.99200
H  -3.36100 37.28200 23.22400
H  -1.93500 37.71100 22.42200
H  -1.89800 32.78200 22.92700
H  -0.63900 33.74000 23.36400
H  -1.98100 33.68100 20.87900
H  -0.20600 34.03700 21.09800
H  -1.49300 35.31500 21.37900
H  -6.02400 31.23100 25.87600
H  -5.32100 29.89700 26.77800
H  -4.50700 30.67300 25.39600
H  -3.56400 31.25500 31.56000
H  -5.75900 32.89600 34.76500
H  -6.79200 31.46300 34.15300
H  -7.07000 33.07200 33.52000

