158

Mg 16.59200 -2.42800 28.86700
C  15.50000 -0.41500 31.50400
C  18.37500 -4.24500 31.01900
C  17.59500 -4.20000 26.25300
C  14.95100 -0.20200 26.64700
N  17.01600 -2.20900 31.01500
C  16.40900 -1.36800 31.95600
C  16.93500 -1.59400 33.39900
C  17.89000 -2.82500 33.09800
C  17.71800 -3.16700 31.60300
C  19.35900 -2.57900 33.63800
C  15.84600 -1.84300 34.47800
C  15.94300 -0.89700 35.70400
H  17.32800 -0.37100 36.13200
N  17.82600 -4.11200 28.63500
C  18.49000 -4.67400 29.66000
C  19.11800 -5.90300 29.19300
C  19.01800 -5.87900 27.73600
C  18.15100 -4.69900 27.46100
C  19.87800 -6.86300 30.07300
C  19.61500 -6.78800 26.71600
O  19.29500 -6.65900 25.55100
C  20.51200 -7.87600 27.03600
N  16.31400 -2.23700 26.76300
C  16.76300 -3.10000 25.89300
C  16.36700 -2.70300 24.40200
C  15.29600 -1.63100 24.65900
C  15.50200 -1.33900 26.08500
C  17.49400 -2.36400 23.48800
C  13.84600 -2.10100 24.37100
C  13.60400 -2.42900 22.89900
N  15.48500 -0.65600 28.96200
C  14.93900 0.20800 27.98600
C  14.11400 1.32400 28.61100
C  14.25800 1.05200 29.97200
C  15.15500 -0.11500 30.13300
C  13.19400 2.30400 28.02400
C  13.85900 1.48000 31.31600
O  13.00300 2.28600 31.69100
C  14.84100 0.64600 32.34400
C  15.69700 1.58900 33.02300
O  16.94800 1.65500 32.88600
O  15.01200 2.33500 33.93900
C  15.85400 3.27600 34.68700
H  18.94300 -4.87800 31.70400
H  18.08000 -4.65400 25.38600
H  14.43800 0.36300 25.86700
H  17.57100 -0.73600 33.61400
H  17.73000 -3.70500 33.72200
H  20.09900 -2.88800 32.90000
H  19.47900 -3.26800 34.47300
H  19.58700 -1.57500 33.99700
H  15.78000 -2.85800 34.87000
H  14.92200 -1.74400 33.90700
H  15.49500 -1.47100 36.51500
H  15.35100 0.01100 35.59000
H  19.34200 -6.82100 31.02100
H  20.86900 -6.43100 30.21400
H  19.99500 -7.93300 29.90500
H  21.29400 -7.40800 27.63400
H  20.91000 -8.26900 26.10100
H  20.05300 -8.66600 27.63000
H  15.79000 -3.47500 23.89200
H  15.46600 -0.66700 24.18000
H  18.36600 -2.31300 24.14100
H  17.34000 -1.40700 22.99100
H  17.64900 -3.12800 22.72700
H  13.13400 -1.31700 24.62900
H  13.44700 -2.92200 24.96700
H  12.77300 -1.87000 22.47000
H  13.30600 -3.47200 22.79300
H  14.47400 -2.27900 22.26000
H  12.21900 1.81900 27.96600
H  13.39800 2.66000 27.01500
H  13.30200 3.17100 28.67600
H  14.23500 0.16700 33.11200
H  15.83400 4.21400 34.13300
H  16.88300 3.01200 34.93000
H  15.33000 3.37600 35.63700
Mg 54.56100 24.44500 44.37900
C  51.49300 26.16800 44.09900
C  52.67000 21.45600 44.14900
C  57.23900 22.87700 43.17300
C  56.18000 27.53100 43.84900
N  52.32700 23.89200 44.05700
C  51.29900 24.76600 44.01700
C  50.03000 24.00100 44.30500
C  50.43300 22.55400 44.59200
C  51.89700 22.60000 44.16800
C  50.26600 22.06200 46.06400
C  48.96100 24.10400 43.07400
C  49.38900 23.46400 41.74800
H  49.82300 24.36700 40.55600
N  54.96000 22.42700 43.84300
C  54.04700 21.38700 43.90500
C  54.82200 20.21700 43.55400
C  56.12000 20.63500 43.02100
C  56.15100 22.01400 43.32700
C  54.23200 18.81000 43.52600
C  57.16300 19.77800 42.37700
O  57.02000 18.56900 42.47000
C  58.35000 20.24700 41.55600
N  56.35900 25.05400 43.44300
C  57.36000 24.23500 43.33800
C  58.65200 24.98600 42.84700
C  58.33400 26.48600 43.08000
C  56.84600 26.38000 43.49800
C  59.88200 24.42300 43.54900
C  58.47100 27.27400 41.77300
C  59.61200 28.31900 41.76700
N  54.01400 26.48600 44.21600
C  54.79700 27.58200 44.13200
C  53.95500 28.71900 44.43400
C  52.68600 28.18900 44.46800
C  52.75600 26.84000 44.22100
C  54.47100 30.15200 44.67300
C  51.31000 28.48900 44.66900
O  50.76300 29.53600 45.01200
C  50.52600 27.33400 44.23200
C  49.83800 27.76100 42.94800
O  50.39800 27.94400 41.88700
O  48.46100 27.75200 43.02700
C  47.54300 28.00500 41.88000
H  52.10000 20.53000 44.25200
H  58.18100 22.41200 42.87400
H  56.66600 28.50900 43.87100
H  49.58600 24.45700 45.19000
H  49.87900 21.84300 43.98100
H  49.75100 21.10300 46.00800
H  49.74600 22.88000 46.56300
H  51.17600 21.94300 46.65300
H  48.93100 25.16900 42.84300
H  47.91500 23.90900 43.31400
H  48.57200 22.82700 41.41000
H  50.22500 22.80700 41.98800
H  54.50500 18.21600 42.65400
H  53.14400 18.79800 43.46200
H  54.55100 18.20000 44.37100
H  57.91400 21.12400 41.07700
H  58.74800 19.39100 41.01000
H  59.01600 20.60800 42.34000
H  58.75000 24.79100 41.77900
H  58.83600 26.97200 43.91600
H  60.68100 24.45800 42.80900
H  59.70700 23.46000 44.02800
H  60.18000 25.10800 44.34300
H  57.60000 27.88700 41.53900
H  58.71100 26.65700 40.90700
H  59.12900 29.27400 41.56200
H  60.40000 28.14300 41.03600
H  60.03700 28.38500 42.76900
H  55.23800 30.18300 45.44600
H  53.68100 30.75700 45.11700
H  54.91900 30.66500 43.82200
H  49.84300 27.01800 45.02100
H  46.67300 28.45600 42.35800
H  47.25900 27.01200 41.53100
H  47.91400 28.58500 41.03500

