158

Mg 9.70500 47.24000 27.68400
C  8.05400 46.77600 30.73100
C  12.71800 47.57500 29.48700
C  11.12200 48.32500 24.88800
C  6.52600 47.79400 26.19200
N  10.27700 46.97000 29.76300
C  9.43500 46.80500 30.86700
C  10.25600 46.88800 32.20100
C  11.63300 47.37300 31.68300
C  11.52800 47.38700 30.22400
C  12.19700 48.76000 32.21800
C  10.29000 45.62100 33.16900
C  9.98900 45.89700 34.65200
H  10.64600 44.86100 35.64200
N  11.67100 47.68800 27.19200
C  12.72500 47.71400 28.02300
C  13.92100 47.96600 27.22600
C  13.49900 48.20000 25.85300
C  12.07000 48.09400 25.90700
C  15.24800 48.13700 27.83300
C  14.25600 48.54300 24.59900
O  13.66200 48.57500 23.50400
C  15.75800 48.52900 24.64400
N  8.88700 47.77000 25.75500
C  9.73300 48.20900 24.75500
C  8.94500 48.60000 23.46800
C  7.51000 48.31500 23.90400
C  7.61500 47.87500 25.31100
C  9.22300 49.99600 22.86800
C  6.61300 47.44900 23.00300
C  6.75800 47.51600 21.42800
N  7.74600 47.22900 28.29700
C  6.58900 47.52300 27.60700
C  5.44700 47.42400 28.50300
C  5.97900 47.12400 29.77000
C  7.35700 47.02600 29.55200
C  3.97100 47.52500 28.18300
C  5.68100 46.95600 31.13400
O  4.60500 47.00300 31.72100
C  7.02500 46.70400 31.81600
C  6.84300 45.28500 32.37000
O  6.70500 44.30100 31.66900
O  6.81700 45.19100 33.73000
C  6.86400 43.84400 34.26200
H  13.66100 47.66700 30.03000
H  11.48800 48.58600 23.89300
H  5.57600 48.07700 25.73400
H  9.90700 47.69900 32.84000
H  12.35100 46.56700 31.83600
H  12.31500 49.38700 31.33400
H  13.17400 48.68600 32.69600
H  11.44000 49.25400 32.82700
H  11.14100 44.93900 33.15100
H  9.50700 44.92300 32.87300
H  8.93700 46.09900 34.85300
H  10.42800 46.88900 34.76100
H  16.01400 47.55500 27.31900
H  15.26200 47.83900 28.88200
H  15.51600 49.19300 27.82400
H  15.98000 47.52700 25.01000
H  16.19900 49.25300 25.32800
H  16.13500 48.74300 23.64300
H  9.28600 47.78600 22.82800
H  6.95100 49.24600 24.00000
H  9.92400 50.59500 23.45000
H  8.26300 50.51200 22.91500
H  9.67700 50.00600 21.87800
H  5.58500 47.78000 23.15100
H  6.65500 46.41600 23.34700
H  7.49000 48.23900 21.06600
H  5.74700 47.77000 21.10900
H  7.13200 46.59200 20.98500
H  3.53600 46.53300 28.30600
H  3.75800 47.89100 27.17800
H  3.42700 48.08400 28.94400
H  7.07300 47.38900 32.66300
H  6.26400 43.19400 33.62600
H  6.60700 43.69500 35.31100
H  7.89300 43.52000 34.10700
Mg -1.76400 34.81600 26.86700
C  -3.04100 32.84500 29.53200
C  -0.23400 36.76500 29.07100
C  -0.97500 36.73600 24.23500
C  -3.40600 32.53800 24.59500
N  -1.81500 34.86700 29.11400
C  -2.19200 33.82600 29.99300
C  -1.72100 34.09600 31.41500
C  -0.76600 35.41200 31.19100
C  -0.97200 35.77200 29.69000
C  -1.02500 36.55600 32.18700
C  -0.98400 32.91800 32.04400
C  -1.67200 32.27800 33.25200
H  -0.82200 32.29700 34.53200
N  -0.72700 36.56500 26.69000
C  -0.13700 37.18600 27.73700
C  0.59200 38.22900 27.19900
C  0.44600 38.23400 25.76900
C  -0.46700 37.12700 25.48400
C  1.38700 39.18900 28.07900
C  1.02600 39.22200 24.72000
O  0.72900 39.25600 23.51700
C  2.02900 40.18500 25.14200
N  -2.53100 34.90300 24.68900
C  -1.80300 35.69100 23.87100
C  -1.84600 35.24300 22.40200
C  -2.35300 33.73800 22.62100
C  -2.85300 33.70300 24.02400
C  -2.85300 36.10100 21.55300
C  -1.21100 32.64000 22.35600
C  -1.74600 31.28300 21.92100
N  -3.03900 33.09100 26.95100
C  -3.55000 32.28000 25.97800
C  -4.12700 31.18000 26.64200
C  -4.08400 31.38000 28.04300
C  -3.32100 32.56000 28.16400
C  -4.88300 30.08800 25.98200
C  -4.50500 30.91700 29.31000
O  -5.27200 29.98000 29.59700
C  -3.79200 31.80800 30.33900
C  -4.93800 32.38100 31.10500
O  -5.60000 33.35600 30.81700
O  -5.13400 31.70600 32.33800
C  -5.99600 32.24700 33.36500
H  0.39500 37.28700 29.79400
H  -0.44400 37.19500 23.39800
H  -3.65700 31.76200 23.86900
H  -2.61600 34.33900 31.98800
H  0.26000 35.05800 31.29400
H  -1.55500 37.42400 31.79500
H  -0.00900 36.89500 32.38400
H  -1.45600 36.15600 33.10500
H  -0.00200 33.24400 32.38600
H  -0.85100 32.13900 31.29400
H  -1.85500 31.22500 33.04000
H  -2.68000 32.61100 33.50000
H  2.31700 39.50800 27.60800
H  1.67400 38.65700 28.98600
H  0.69000 40.02300 28.15400
H  1.65500 40.86300 25.90800
H  2.29800 40.65200 24.19400
H  2.90300 39.69700 25.57500
H  -0.81600 35.35500 22.06400
H  -3.10900 33.40600 21.91000
H  -3.15800 36.91600 22.20900
H  -3.74500 35.57000 21.22000
H  -2.48600 36.55000 20.63000
H  -0.64800 32.39100 23.25600
H  -0.55800 33.16500 21.66000
H  -1.29500 30.50000 22.53000
H  -1.44900 31.14900 20.88100
H  -2.83600 31.29100 21.94600
H  -5.07400 29.25900 26.66300
H  -4.37500 29.55400 25.17900
H  -5.83100 30.41300 25.55400
H  -3.16600 31.18900 30.98200
H  -6.73300 32.98500 33.04700
H  -5.39000 32.63200 34.18500
H  -6.45500 31.34200 33.76200

