158

Mg 30.33700 59.27700 40.17400
C  27.81000 57.35900 38.85100
C  32.63900 56.89300 38.91200
C  32.98300 61.30700 40.70100
C  28.09400 61.90100 40.72000
N  30.18200 57.25700 39.04500
C  29.05300 56.68800 38.64400
C  29.24500 55.40900 37.85100
C  30.80000 55.07200 38.22300
C  31.28200 56.46100 38.68300
C  31.04500 53.97700 39.21900
C  29.18100 55.69200 36.30400
C  28.07200 54.90800 35.54900
H  27.21300 55.71500 34.56400
N  32.53200 59.12300 39.92100
C  33.27500 58.04600 39.51400
C  34.71000 58.30800 39.58600
C  34.83100 59.60400 40.13200
C  33.43700 60.06300 40.29300
C  35.84900 57.23800 39.26300
C  36.13100 60.26400 40.48000
O  37.16200 59.66700 40.27900
C  36.20600 61.57900 41.18400
N  30.51700 61.32500 40.59600
C  31.69500 61.86400 40.99100
C  31.55300 63.34200 41.34800
C  29.99400 63.60400 41.23900
C  29.43600 62.19100 40.81600
C  32.19400 63.75200 42.71000
C  29.53400 64.66300 40.25200
C  30.37600 65.92300 40.30600
N  28.31600 59.55700 40.00200
C  27.52300 60.70600 40.18000
C  26.09700 60.27300 40.03200
C  26.15600 58.98300 39.47900
C  27.54300 58.64900 39.41600
C  24.97300 61.13300 40.49800
C  25.38300 57.85900 39.04000
O  24.15600 57.81000 38.99200
C  26.37000 56.78900 38.49900
C  25.97500 55.55300 39.18900
O  26.58600 55.11900 40.16000
O  24.79300 55.11400 38.66700
C  24.19100 53.90900 39.30000
H  33.37000 56.19700 38.49400
H  33.71700 62.09400 40.88800
H  27.45500 62.74200 40.99400
H  28.59200 54.57500 38.10800
H  31.44900 54.76700 37.40200
H  30.07300 53.65100 39.58900
H  31.62800 54.63300 39.86600
H  31.66300 53.17000 38.82600
H  30.13700 55.32200 35.93400
H  29.05800 56.75800 36.11100
H  27.38100 54.53300 36.30400
H  28.55100 54.13200 34.95200
H  36.40700 57.50100 38.36400
H  35.49300 56.20800 39.29100
H  36.54000 57.30500 40.10300
H  37.15600 61.73300 41.69400
H  35.52800 61.57700 42.03800
H  36.05900 62.38300 40.46200
H  32.10900 63.93400 40.62100
H  29.47200 63.76900 42.18200
H  33.13300 64.28100 42.54700
H  32.62900 62.96200 43.32100
H  31.48600 64.39100 43.24000
H  28.49800 64.93800 40.44700
H  29.75800 64.28300 39.25500
H  30.87700 66.14200 39.36300
H  31.10300 65.85500 41.11500
H  29.83300 66.82900 40.57700
H  24.91100 62.07700 39.95600
H  25.24900 61.27600 41.54300
H  24.08200 60.50600 40.45600
H  26.27800 56.64900 37.42200
H  23.10800 53.98900 39.20600
H  24.55300 53.94900 40.32700
H  24.48300 52.97600 38.81700
Mg 6.26300 54.89400 39.56400
C  5.78000 51.38200 39.23600
C  9.63200 54.37900 39.34000
C  6.70000 58.28300 39.32200
C  2.76200 55.36700 39.29300
N  7.51500 53.07800 39.30100
C  7.13800 51.73800 39.25900
C  8.40500 50.88300 39.10400
C  9.59400 51.88100 39.43500
C  8.89300 53.22400 39.29300
C  10.34700 51.72600 40.75900
C  8.59300 50.26400 37.67100
C  8.40000 51.17900 36.51900
H  7.72400 50.53400 35.27000
N  7.97100 56.16100 39.34700
C  9.28500 55.71200 39.22000
C  10.15400 56.92200 39.09500
C  9.35000 58.03900 39.31100
C  7.90700 57.53400 39.35200
C  11.60300 56.78700 38.81000
C  9.84700 59.44500 39.45700
O  10.99500 59.69700 39.55200
C  8.92800 60.65300 39.47400
N  4.92100 56.58400 39.35100
C  5.34100 57.87300 39.36900
C  4.14800 58.89000 39.34900
C  2.90100 57.94800 39.24500
C  3.52700 56.53600 39.23300
C  3.87600 59.82100 40.55800
C  1.96000 58.19400 38.04600
C  0.36600 58.24300 38.31000
N  4.53400 53.69500 39.52600
C  3.22100 53.98000 39.41200
C  2.49700 52.73600 39.52200
C  3.41000 51.68500 39.49000
C  4.67600 52.32300 39.41700
C  1.04800 52.82600 39.61300
C  3.63500 50.20700 39.50300
O  2.91000 49.23400 39.61800
C  5.19800 50.01400 39.32000
C  5.56600 49.03900 38.24000
O  5.42700 49.27500 37.03100
O  6.10400 47.85200 38.71200
C  6.21800 46.78900 37.63900
H  10.72300 54.32000 39.33800
H  6.69000 59.36700 39.18700
H  1.71000 55.65900 39.33100
H  8.37200 50.10300 39.86400
H  10.32300 51.89000 38.62500
H  10.43000 52.56500 41.45000
H  11.36800 51.51800 40.44200
H  9.93200 50.85700 41.26900
H  8.16600 49.26200 37.65300
H  9.67500 50.13200 37.69700
H  9.40100 51.46500 36.19500
H  7.89800 52.13900 36.63500
H  11.73600 55.86200 38.24900
H  12.09500 56.69400 39.77900
H  11.94100 57.56500 38.12500
H  9.58900 61.49800 39.66800
H  8.13200 60.51400 40.20600
H  8.49700 60.68400 38.47300
H  4.07300 59.50300 38.45100
H  2.34500 57.86900 40.17900
H  4.63200 60.60600 40.54100
H  3.97900 59.27600 41.49600
H  2.89700 60.27800 40.41500
H  2.21200 57.37100 37.37700
H  2.24900 59.09500 37.50600
H  0.25700 58.23500 39.39500
H  -0.11600 57.35100 37.91000
H  -0.00000 59.17000 37.86900
H  0.62300 52.42000 38.69500
H  0.61500 53.82500 39.66200
H  0.79300 52.27200 40.51600
H  5.48900 49.66100 40.30900
H  6.95900 47.15400 36.92700
H  5.21900 46.72900 37.20800
H  6.43800 45.78900 38.01300

