158

Mg 40.40500 9.19600 29.56000
C  42.36400 10.56200 32.21300
C  38.26100 7.93000 32.00100
C  38.64400 7.70200 27.19000
C  42.81700 10.17400 27.43700
N  40.31200 9.28300 31.84300
C  41.16300 10.02900 32.64400
C  40.66300 10.02000 34.14200
C  39.49300 8.99500 34.06200
C  39.31000 8.72900 32.52700
C  39.56800 7.65900 34.88100
C  40.36100 11.43300 34.66500
C  39.32700 11.59900 35.75400
H  39.57200 12.32200 37.12500
N  38.63800 7.99700 29.56700
C  37.90900 7.60500 30.66800
C  36.71100 6.91400 30.21500
C  36.84800 6.79200 28.80900
C  38.08600 7.49100 28.44100
C  35.54500 6.46500 31.12700
C  35.92600 6.07400 27.87100
O  36.16700 6.14300 26.67200
C  34.72400 5.25400 28.39900
N  40.53800 9.13000 27.58700
C  39.76700 8.37300 26.74000
C  40.20000 8.51600 25.24000
C  41.60000 9.22000 25.38600
C  41.67800 9.51100 26.89100
C  40.25700 7.26500 24.36000
C  41.83600 10.45200 24.48000
C  41.03500 11.73800 24.90900
N  42.23200 10.09500 29.70200
C  43.11200 10.46100 28.75000
C  44.27500 11.18000 29.31200
C  44.05900 11.23400 30.67800
C  42.83400 10.49700 30.88500
C  45.40900 11.79400 28.55100
C  44.49700 11.67300 32.01700
O  45.48400 12.28800 32.39600
C  43.40200 11.23400 33.09600
C  43.87200 10.32100 34.16500
O  43.89900 9.11300 34.05700
O  44.21300 10.98100 35.28600
C  44.35600 10.08400 36.41700
H  37.60600 7.52500 32.77600
H  38.20600 7.26900 26.28800
H  43.59400 10.45500 26.72300
H  41.46900 9.62600 34.76200
H  38.52600 9.41600 34.33800
H  38.65900 7.54100 35.47000
H  40.41600 7.64200 35.56600
H  39.77200 6.73500 34.34100
H  40.03000 12.10400 33.87300
H  41.26400 11.75100 35.18500
H  39.14800 10.65400 36.26700
H  38.37700 11.80000 35.26000
H  34.75100 7.18400 30.92500
H  35.85100 6.64000 32.15900
H  35.15400 5.46400 30.94600
H  35.11100 4.42000 28.98600
H  34.36100 4.75700 27.50000
H  34.19900 5.95400 29.04900
H  39.48200 9.22300 24.82400
H  42.52600 8.66100 25.25100
H  39.83700 7.48900 23.37900
H  39.65700 6.50400 24.86000
H  41.23400 6.86700 24.08500
H  41.41600 10.18000 23.51200
H  42.91400 10.58900 24.38900
H  40.39200 11.42900 25.73300
H  40.42000 12.20700 24.14100
H  41.77600 12.46700 25.23500
H  45.08300 12.14200 27.57200
H  46.21000 11.05700 28.48900
H  45.85100 12.64600 29.06800
H  42.98300 12.08800 33.62700
H  45.16800 9.38400 36.22500
H  43.39700 9.64000 36.68700
H  44.64400 10.64800 37.30400
Mg 53.19300 24.58200 45.13300
C  50.68600 26.87100 44.13500
C  51.50300 22.07100 43.50100
C  55.86600 22.62500 45.59500
C  55.11600 27.36000 46.01700
N  51.30300 24.57000 43.82700
C  50.38200 25.56500 43.67000
C  49.14900 25.03200 42.87000
C  49.28800 23.48200 43.03000
C  50.81100 23.35400 43.49700
C  48.45100 22.60500 44.04200
C  49.12700 25.55500 41.37000
C  50.48200 25.81000 40.70400
H  50.40600 26.23000 39.28500
N  53.51800 22.66200 44.78200
C  52.73000 21.73900 44.13100
C  53.27900 20.43000 44.29200
C  54.48600 20.51800 45.02800
C  54.64800 21.98100 45.21100
C  52.55100 19.21400 43.85200
C  55.39500 19.37200 45.50200
O  55.15800 18.17100 45.31000
C  56.68300 19.51200 46.33700
N  55.24800 24.98300 45.49700
C  56.15700 24.00800 45.64100
C  57.52900 24.59900 45.85800
C  57.34200 26.13300 45.77700
C  55.84300 26.21000 45.70400
C  58.23200 24.07100 47.17100
C  58.15400 26.71900 44.58000
C  57.38600 27.09300 43.27700
N  52.91900 26.64900 45.22700
C  53.73500 27.62400 45.73800
C  53.00300 28.90300 45.78700
C  51.79100 28.61300 45.21400
C  51.79300 27.25400 44.85100
C  53.48600 30.13300 46.46700
C  50.56100 29.17900 44.78400
O  50.17700 30.32100 44.86400
C  49.72700 28.04500 44.05800
C  49.50600 28.56400 42.68700
O  50.39600 28.91100 41.91700
O  48.14500 28.76700 42.46700
C  47.80300 29.10300 41.09200
H  50.97900 21.18900 43.12500
H  56.75700 22.03700 45.82700
H  55.75500 28.23500 46.15000
H  48.30300 25.43100 43.43100
H  49.10400 22.91400 42.11800
H  48.22100 21.71800 43.45200
H  47.55200 23.19100 44.23200
H  48.86100 22.32500 45.01200
H  48.55700 26.48100 41.44000
H  48.61100 24.84900 40.71900
H  51.12200 24.92900 40.76100
H  51.10200 26.44000 41.34100
H  51.59400 19.11300 44.36200
H  53.07200 18.26100 43.93800
H  52.29100 19.43900 42.81700
H  56.98300 18.58500 46.82500
H  56.52200 20.26800 47.10600
H  57.55300 19.79800 45.74600
H  58.17800 24.24000 45.05900
H  57.58300 26.66200 46.69900
H  58.68800 24.80700 47.83400
H  59.14700 23.52000 46.95400
H  57.59300 23.40400 47.75000
H  58.93100 26.07800 44.16400
H  58.40500 27.73400 44.88900
H  56.69000 26.36600 42.86000
H  58.08600 27.18500 42.44600
H  56.94600 28.08800 43.35200
H  53.60200 30.98100 45.79200
H  54.47100 30.08700 46.93300
H  52.75800 30.37300 47.24100
H  48.85000 27.86700 44.68000
H  47.88100 30.19000 41.11300
H  46.78600 28.85700 40.78700
H  48.39600 28.58900 40.33500

