158

Mg 25.61600 1.58800 29.57100
C  27.40800 1.46500 32.56800
C  22.69800 1.67000 31.52200
C  23.89700 1.76900 26.88300
C  28.55200 0.94300 27.87500
N  25.08900 1.45500 31.79400
C  26.03000 1.64400 32.79100
C  25.33000 1.73500 34.17600
C  23.80900 1.44200 33.84100
C  23.83800 1.49100 32.32100
C  23.05900 0.12700 34.28900
C  25.62600 3.09500 34.93100
C  26.11000 2.91300 36.41000
H  25.86200 3.97300 37.43200
N  23.59200 1.72300 29.24400
C  22.59500 1.81500 30.13900
C  21.34300 1.96200 29.41600
C  21.69700 1.89600 28.05700
C  23.11200 1.85100 28.00400
C  19.96800 2.12100 30.00500
C  20.77700 1.81800 26.87600
O  21.18000 1.79100 25.70800
C  19.25800 1.68700 27.02700
N  26.20700 1.45100 27.65700
C  25.27400 1.71600 26.66800
C  25.91800 1.73800 25.25400
C  27.49400 1.64700 25.62000
C  27.42700 1.34200 27.14900
C  25.47100 0.49800 24.40100
C  28.29200 2.88600 25.25000
C  27.96800 4.21000 25.96800
N  27.56500 1.17100 30.05900
C  28.66700 0.82300 29.28800
C  29.82000 0.46500 30.10200
C  29.39700 0.81900 31.38000
C  28.01700 1.19700 31.31900
C  31.09300 -0.07900 29.56200
C  29.77500 0.93100 32.79100
O  30.84400 0.66500 33.30300
C  28.51900 1.43800 33.56700
C  28.39600 0.48800 34.65700
O  27.92700 -0.64000 34.59500
O  29.11100 0.98900 35.72800
C  28.93000 0.13100 36.90900
H  21.72600 1.84500 31.98700
H  23.51300 1.88000 25.86700
H  29.45600 0.71600 27.30400
H  25.55900 0.84800 34.76800
H  23.24500 2.30700 34.19100
H  22.05400 0.38200 34.62500
H  23.57000 -0.26100 35.17000
H  22.99300 -0.68100 33.56100
H  24.81400 3.82000 34.98200
H  26.44100 3.55300 34.37000
H  27.11000 2.50000 36.28500
H  25.62400 2.04400 36.85400
H  19.25500 2.81900 29.56600
H  20.08300 2.38500 31.05700
H  19.51200 1.13200 30.03600
H  18.80400 1.40600 26.07600
H  18.96000 2.69300 27.32300
H  19.00500 1.01100 27.84400
H  25.69500 2.64700 24.69500
H  27.88300 0.77300 25.09800
H  24.38500 0.43300 24.33200
H  25.64900 -0.35300 25.05900
H  25.94100 0.49200 23.41800
H  28.03800 3.08800 24.20900
H  29.35500 2.69600 25.40100
H  27.37800 4.88600 25.34900
H  28.74700 4.84500 26.39100
H  27.28800 3.94700 26.77800
H  31.73500 0.60800 29.01100
H  30.84700 -1.01900 29.06800
H  31.48600 -0.37200 30.53600
H  28.71200 2.47300 33.85000
H  29.05300 -0.93700 36.73100
H  28.06100 0.44200 37.48800
H  29.75000 0.37100 37.58600
Mg -5.93700 25.51400 26.61700
C  -4.35900 26.95100 29.33700
C  -7.81600 23.51400 28.65100
C  -7.03300 23.82900 23.90300
C  -4.04800 27.44900 24.57300
N  -6.11000 25.29300 28.83000
C  -5.28500 25.91600 29.74400
C  -5.71100 25.48800 31.13000
C  -6.76200 24.27600 30.89600
C  -6.97600 24.37700 29.39700
C  -6.18000 22.99000 31.39800
C  -6.45400 26.72500 31.82900
C  -6.25200 26.89900 33.30500
H  -5.80400 25.69800 34.16800
N  -7.37100 24.03300 26.30700
C  -8.02600 23.37300 27.25700
C  -8.88000 22.30900 26.61600
C  -8.47300 22.31700 25.23300
C  -7.61700 23.44500 25.08200
C  -9.90400 21.46400 27.47500
C  -8.92100 21.30800 24.18100
O  -8.63500 21.29400 22.99800
C  -9.86900 20.19300 24.51000
N  -5.63800 25.71100 24.50100
C  -6.24100 24.90900 23.58300
C  -5.78100 25.16600 22.17300
C  -4.87100 26.39100 22.31200
C  -4.77500 26.55500 23.84900
C  -5.29200 23.98400 21.37200
C  -5.38300 27.73000 21.63800
C  -4.43900 28.55500 20.71500
N  -4.58100 26.96300 26.82600
C  -3.85900 27.59900 25.94200
C  -2.90500 28.45900 26.54100
C  -3.01200 28.21900 27.91500
C  -4.08700 27.29400 28.04000
C  -1.97300 29.48000 25.88600
C  -2.58900 28.58400 29.21600
O  -1.74300 29.36800 29.61600
C  -3.43600 27.76400 30.17800
C  -2.63700 26.94700 31.07400
O  -1.86500 25.96900 30.80000
O  -2.62200 27.51700 32.28400
C  -1.90000 26.76500 33.34700
H  -8.24800 22.79700 29.35200
H  -7.32100 23.27500 23.00800
H  -3.35300 28.10800 24.04900
H  -4.81600 25.13200 31.63800
H  -7.72300 24.41900 31.38900
H  -5.65800 22.57600 30.53500
H  -7.07800 22.40500 31.59800
H  -5.58300 23.08800 32.30400
H  -7.50800 26.73800 31.55300
H  -6.03200 27.58600 31.31000
H  -7.22900 27.16300 33.70900
H  -5.52200 27.69500 33.45200
H  -10.46700 22.06500 28.18900
H  -9.25300 20.84800 28.09600
H  -10.53600 20.85500 26.83000
H  -9.58800 19.62800 25.39900
H  -10.05500 19.52200 23.67200
H  -10.88200 20.57400 24.64200
H  -6.62600 25.47700 21.55800
H  -3.89000 26.13300 21.91400
H  -5.70400 24.07400 20.36700
H  -5.53700 23.03500 21.84900
H  -4.20900 24.03600 21.48700
H  -5.80900 28.37500 22.40700
H  -6.20100 27.51800 20.94900
H  -4.18700 29.47400 21.24600
H  -4.89600 28.64300 19.73000
H  -3.57500 27.94700 20.44700
H  -2.49400 29.90500 25.02800
H  -1.03200 29.14400 25.45000
H  -1.82600 30.21300 26.67900
H  -3.98700 28.45200 30.81800
H  -2.12900 25.70000 33.35400
H  -2.18500 27.08900 34.34800
H  -0.81200 26.83200 33.34500

