158

Mg 49.05500 35.64100 27.19100
C  47.22400 33.84400 29.61600
C  49.11100 38.33700 29.49800
C  50.38500 37.48200 24.87100
C  48.43300 32.99700 24.97300
N  48.40900 35.94300 29.34300
C  47.75900 35.00700 30.11500
C  47.49500 35.56000 31.51700
C  47.68500 37.12200 31.28200
C  48.42900 37.15200 29.93600
C  46.48100 38.06700 31.35300
C  48.35400 34.89000 32.64300
C  48.63900 35.76200 33.89700
H  47.47500 36.52200 34.48900
N  49.82600 37.55400 27.24700
C  49.74800 38.49300 28.23200
C  50.45600 39.63200 27.80600
C  50.68800 39.48600 26.41500
C  50.27200 38.09600 26.15500
C  50.65500 40.83900 28.76500
C  51.10900 40.47200 25.40500
O  51.34900 40.25800 24.23600
C  51.22100 41.91800 25.83200
N  49.39700 35.26900 25.27600
C  50.06900 36.17700 24.55000
C  50.47100 35.52700 23.16400
C  50.19800 33.97800 23.38800
C  49.26100 34.03100 24.60700
C  49.60400 36.17300 22.09600
C  51.48000 33.18100 23.74300
C  51.99200 32.29200 22.61700
N  47.93500 33.86200 27.20500
C  47.73100 32.92100 26.16600
C  46.88300 31.84500 26.67900
C  46.61500 32.19700 27.98600
C  47.30800 33.41400 28.28000
C  46.62500 30.59300 25.96700
C  46.00200 31.70600 29.29100
O  45.23200 30.74400 29.51000
C  46.32700 32.71900 30.32800
C  47.03700 32.08400 31.43300
O  48.23100 31.85300 31.51200
O  46.15500 31.77900 32.43600
C  46.61900 31.02800 33.61000
H  49.04100 39.14100 30.23300
H  51.09600 37.96700 24.19800
H  48.36600 32.13400 24.30700
H  46.44600 35.37200 31.74200
H  48.40900 37.55600 31.97100
H  46.30800 38.67600 30.46600
H  46.72000 38.79400 32.12800
H  45.70100 37.37900 31.67900
H  49.28800 34.44200 32.30400
H  47.74100 34.09900 33.07300
H  49.54500 36.34900 33.74500
H  48.85500 35.25100 34.83500
H  49.98800 41.65500 28.48600
H  51.64900 41.27100 28.65000
H  50.56500 40.52600 29.80500
H  50.25100 42.23800 26.21400
H  51.61400 42.53400 25.02300
H  51.99200 41.89200 26.60200
H  51.53800 35.61400 22.96000
H  49.70700 33.56800 22.50500
H  48.70200 36.59400 22.53800
H  49.41400 35.42500 21.32600
H  50.14700 37.00300 21.64400
H  51.30500 32.56300 24.62300
H  52.28900 33.88600 23.93700
H  51.44200 32.47400 21.69400
H  51.86700 31.22400 22.79800
H  53.04600 32.49600 22.43000
H  47.51200 29.97300 26.10000
H  46.42800 30.69200 24.90000
H  45.69800 30.20900 26.39400
H  45.41400 33.14900 30.73900
H  45.90300 30.73900 34.37900
H  47.32200 31.66200 34.15000
H  47.00000 30.10300 33.17700
Mg 5.99300 54.81500 40.53300
C  3.32800 52.49000 40.40800
C  8.05800 52.37900 39.38100
C  8.34600 57.10300 40.21300
C  3.56500 57.33900 41.21800
N  5.64300 52.73700 39.79400
C  4.55000 51.97700 39.80600
C  4.69300 50.58400 39.15500
C  6.27400 50.52900 39.09200
C  6.68800 51.96300 39.46700
C  7.09400 49.49000 39.85600
C  4.02200 50.53700 37.72200
C  3.32200 49.12500 37.43500
H  3.90400 48.25100 36.39200
N  8.09200 54.71700 40.09400
C  8.69900 53.63300 39.58500
C  10.05700 54.03200 39.41900
C  10.06400 55.44000 39.34100
C  8.80900 55.82600 39.88500
C  11.17800 53.04800 39.12800
C  11.23500 56.32100 38.84200
O  12.27700 55.75700 38.49200
C  11.19500 57.77000 38.86700
N  5.85700 56.92900 40.42600
C  7.07400 57.59300 40.56300
C  6.92400 59.08500 40.96100
C  5.36300 59.17600 41.05300
C  4.89600 57.70600 40.89300
C  7.60500 59.23000 42.30700
C  4.80500 60.27600 40.05900
C  4.00900 59.79500 38.82400
N  3.87600 54.96600 40.87500
C  3.10300 56.02000 41.25200
C  1.82600 55.51400 41.68000
C  1.88900 54.20500 41.35900
C  3.15400 53.85800 40.89600
C  0.71600 56.24200 42.21200
C  1.14800 52.93900 41.30100
O  -0.00100 52.64700 41.59500
C  2.06200 51.85700 40.68100
C  1.32800 51.15200 39.64300
O  0.98200 51.59800 38.58000
O  1.03200 49.89500 40.13100
C  0.03400 49.20800 39.28900
H  8.77500 51.64800 39.00100
H  9.17900 57.80700 40.26000
H  3.01100 58.22900 41.52300
H  4.29600 49.90500 39.91000
H  6.53700 50.38300 38.04500
H  7.58500 48.96900 39.03400
H  6.50800 48.81000 40.47400
H  7.74800 49.93100 40.61000
H  4.84900 50.73500 37.04000
H  3.28600 51.31700 37.52900
H  2.28700 49.31100 37.14500
H  3.34100 48.52400 38.34400
H  10.84400 52.01400 39.21900
H  11.94600 53.16900 39.89100
H  11.66500 53.27200 38.17900
H  10.32400 58.14900 38.33300
H  11.94200 58.17500 38.18400
H  11.22200 58.18100 39.87600
H  7.46100 59.64600 40.19800
H  4.93700 59.45900 42.01600
H  6.89900 59.81300 42.89800
H  8.51800 59.81700 42.20700
H  7.87600 58.29500 42.79800
H  5.55800 60.96900 39.68400
H  4.06100 60.90100 40.55500
H  2.94400 59.95300 38.99300
H  4.22200 58.75500 38.57900
H  4.27600 60.37000 37.93700
H  1.02700 56.77600 43.11000
H  -0.11000 55.53900 42.32100
H  0.44200 57.02200 41.50200
H  2.27500 51.20900 41.53100
H  -0.56000 48.45700 39.81000
H  0.53600 48.79400 38.41400
H  -0.82800 49.82200 39.02800

