158

Mg 49.57400 46.45100 43.76300
C  46.24600 46.92000 42.68200
C  49.07800 43.03600 42.80700
C  52.85600 45.94300 43.97400
C  49.88100 49.78100 44.35700
N  47.79400 45.15200 42.83600
C  46.58200 45.58400 42.53000
C  45.75700 44.51500 41.82600
C  46.61400 43.26400 42.09100
C  47.93000 43.82700 42.59600
C  46.00000 42.46000 43.26800
C  45.38600 44.85400 40.27100
C  46.45400 44.63700 39.17900
H  45.86500 44.20400 37.82600
N  50.78300 44.73800 43.63400
C  50.36000 43.43600 43.28100
C  51.49500 42.52900 43.27100
C  52.68200 43.37400 43.67000
C  52.11600 44.76700 43.80300
C  51.42800 41.04900 42.90200
C  54.03300 42.88700 43.90600
O  54.29500 41.67400 43.87000
C  55.10200 43.76000 44.39400
N  51.15900 47.70300 44.05200
C  52.46600 47.28200 44.13800
C  53.47300 48.44100 44.40400
C  52.47800 49.65300 44.54600
C  51.06800 49.02900 44.27200
C  54.35900 48.17800 45.70600
C  52.75400 50.81300 43.57300
C  53.33400 52.14100 44.09500
N  48.33500 48.16900 43.64900
C  48.58500 49.41100 43.95900
C  47.39700 50.19700 43.81300
C  46.42200 49.28600 43.32800
C  47.03500 48.02600 43.24100
C  47.07700 51.67800 44.25200
C  45.05300 49.09200 42.92600
O  44.12700 49.83300 43.00100
C  44.91600 47.56600 42.39900
C  43.87600 46.85200 43.13600
O  43.89400 46.67000 44.36400
O  42.90200 46.41300 42.27300
C  41.72000 45.84300 42.93800
H  49.10700 42.01000 42.43200
H  53.94400 45.85100 43.97800
H  50.12300 50.82800 44.55300
H  44.85000 44.58800 42.42600
H  46.65500 42.53600 41.28100
H  45.02200 42.85600 43.54400
H  46.59000 42.53900 44.18100
H  45.74300 41.44400 42.96800
H  45.07400 45.89700 40.20500
H  44.50000 44.23400 40.13300
H  47.23200 43.94300 39.49600
H  47.07900 45.53000 39.18200
H  51.01000 41.03200 41.89600
H  50.71200 40.59200 43.58600
H  52.34600 40.46500 42.83100
H  54.82300 44.31700 45.28900
H  55.65600 44.39500 43.70300
H  55.83200 43.05200 44.78600
H  53.98500 48.63300 43.46100
H  52.52300 50.04100 45.56400
H  54.39300 47.14600 46.05700
H  54.05500 48.83000 46.52400
H  55.37100 48.28100 45.31400
H  51.88000 51.07400 42.97700
H  53.46700 50.53000 42.79800
H  54.41800 52.09300 43.98900
H  53.10400 52.26200 45.15400
H  52.80000 52.95600 43.60700
H  47.18900 52.48000 43.52300
H  47.67500 51.93100 45.12800
H  46.04500 51.72100 44.59800
H  44.78200 47.78800 41.34000
H  41.28100 46.61200 43.57400
H  42.11600 44.96700 43.45100
H  41.03600 45.63800 42.11500
Mg -6.14600 24.95900 25.86800
C  -4.26000 26.25700 28.54900
C  -8.09600 23.24400 28.25500
C  -7.38800 23.37500 23.35700
C  -3.82600 26.52000 23.63800
N  -5.89900 24.50600 28.13900
C  -5.32100 25.41300 28.97100
C  -5.72300 25.15900 30.48300
C  -6.58200 23.87700 30.32500
C  -6.87900 23.80900 28.83800
C  -5.99000 22.59300 30.84800
C  -6.46500 26.44600 31.05300
C  -6.47000 26.52200 32.62100
H  -5.77200 25.42200 33.49900
N  -7.73600 23.66700 25.78000
C  -8.40100 23.07200 26.79800
C  -9.49300 22.27600 26.23300
C  -9.24600 22.21500 24.80200
C  -8.08300 23.10900 24.55000
C  -10.35000 21.35000 27.09000
C  -9.92900 21.36500 23.74700
O  -9.52000 21.38500 22.61300
C  -11.11400 20.51200 23.97700
N  -5.57200 24.90900 23.73700
C  -6.31000 24.14800 22.89600
C  -5.75600 24.26800 21.41900
C  -4.74700 25.44400 21.56200
C  -4.68100 25.66900 23.04400
C  -5.03100 23.03700 20.78000
C  -5.17700 26.76500 20.75100
C  -4.34200 27.06900 19.52100
N  -4.39200 26.21600 25.99100
C  -3.61200 26.76000 25.02000
C  -2.59600 27.56900 25.67900
C  -2.77400 27.40700 27.02800
C  -3.90900 26.59200 27.19200
C  -1.49700 28.31700 24.93000
C  -2.24300 27.73500 28.35500
O  -1.25300 28.41900 28.71200
C  -3.14400 26.95400 29.34900
C  -2.34500 26.03500 30.29800
O  -1.66300 25.07000 29.97500
O  -2.42800 26.53100 31.62800
C  -1.49000 26.04800 32.69200
H  -8.74600 22.81500 29.02100
H  -7.81400 22.83400 22.50900
H  -3.06400 26.95200 22.98600
H  -4.82200 24.94400 31.05700
H  -7.54700 24.07700 30.79000
H  -4.96000 22.69100 31.19200
H  -6.15300 21.80500 30.11300
H  -6.56100 22.16300 31.67100
H  -7.50500 26.28400 30.76800
H  -6.00200 27.29300 30.54700
H  -7.49600 26.55900 32.98700
H  -6.07600 27.50300 32.88700
H  -10.49100 20.37200 26.63000
H  -11.33400 21.81000 27.18200
H  -10.07600 21.18900 28.13200
H  -10.69000 19.52400 24.16000
H  -11.76600 20.43300 23.10700
H  -11.59700 20.97600 24.83600
H  -6.65700 24.65000 20.94100
H  -3.71900 25.25800 21.25000
H  -5.16200 22.13400 21.37600
H  -3.97600 23.18900 20.55200
H  -5.64400 22.76200 19.92200
H  -5.20500 27.70900 21.29600
H  -6.23400 26.76700 20.48400
H  -3.84400 26.20600 19.07900
H  -3.59200 27.85100 19.64300
H  -4.94800 27.55700 18.75800
H  -0.73400 27.57500 24.69500
H  -1.14400 29.13300 25.56000
H  -2.02600 28.86600 24.15100
H  -3.76200 27.57000 30.00200
H  -0.52600 25.73800 32.29000
H  -1.86000 25.24000 33.32200
H  -1.34500 26.88500 33.37600

