158

Mg 36.01500 2.00000 29.93900
C  33.86000 3.14500 32.35100
C  38.56500 1.95300 32.49300
C  38.32200 1.13900 27.61700
C  33.59200 2.47800 27.54500
N  36.16400 2.44800 32.14400
C  35.10700 2.92400 32.88900
C  35.53600 3.05800 34.35700
C  37.07100 3.00500 34.20600
C  37.28400 2.40500 32.87300
C  37.86500 4.37100 34.39100
C  34.86700 2.04700 35.26600
C  34.45200 2.48100 36.65600
H  35.01800 3.77500 37.32100
N  38.08400 1.51500 30.02300
C  38.92200 1.56000 31.14200
C  40.21600 1.12600 30.68600
C  40.21200 0.79700 29.29400
C  38.84800 1.23400 28.91500
C  41.44700 1.20300 31.63400
C  41.29600 0.31400 28.38000
O  41.09500 0.17400 27.20100
C  42.77300 0.12700 28.92400
N  36.00600 2.00300 27.83000
C  37.09200 1.44300 27.10700
C  36.68600 1.15900 25.63300
C  35.18400 1.67000 25.61700
C  34.87700 2.01000 27.10800
C  37.61100 1.75800 24.54600
C  34.14500 0.52700 25.03100
C  33.04500 1.13300 24.12500
N  34.13300 2.69500 29.93800
C  33.23600 2.77900 28.84600
C  31.92300 3.07900 29.31900
C  32.09400 3.28700 30.73700
C  33.44100 2.99700 31.02200
C  30.66400 3.35200 28.38500
C  31.47900 3.77900 32.02600
O  30.42400 4.24100 32.26100
C  32.66100 3.57500 33.08000
C  32.78900 4.81200 33.85400
O  33.24600 5.88600 33.42400
O  32.16500 4.71900 35.08300
C  31.72800 5.96000 35.75700
H  39.29700 1.89600 33.30100
H  38.98500 0.93400 26.77300
H  32.83000 2.66400 26.78500
H  35.31100 4.06700 34.70200
H  37.52300 2.47000 35.04200
H  38.55500 4.22400 35.22200
H  37.31700 5.27700 34.64700
H  38.48700 4.54500 33.51200
H  35.54700 1.19500 35.24900
H  34.01700 1.62100 34.73500
H  34.81900 1.64200 37.24700
H  33.36600 2.40400 36.60800
H  41.96800 0.24600 31.66900
H  41.07100 1.40300 32.63700
H  42.03500 2.05700 31.29700
H  43.49800 -0.11900 28.14800
H  42.84400 -0.82200 29.45600
H  43.11000 1.01400 29.46100
H  36.63100 0.07200 25.58200
H  35.07800 2.57700 25.02200
H  38.40700 1.02800 24.39500
H  38.05100 2.66800 24.95400
H  37.09800 1.92400 23.59900
H  33.67200 -0.03100 25.83900
H  34.74000 -0.10400 24.37100
H  33.17700 0.77300 23.10500
H  33.12400 2.22000 24.15000
H  32.08600 0.79400 24.51700
H  30.35900 2.44800 27.85700
H  30.99000 4.18000 27.75500
H  29.85400 3.73000 29.00900
H  32.44200 2.71400 33.71200
H  30.69800 5.85000 36.09900
H  31.72400 6.88600 35.18200
H  32.31500 6.14700 36.65600
Mg 55.03800 23.36200 44.39800
C  52.30800 25.61300 43.70800
C  52.94300 20.70900 43.28800
C  57.67600 21.27300 44.42600
C  57.03100 26.04600 45.22000
N  52.89400 23.23700 43.49000
C  52.02900 24.30100 43.37000
C  50.71600 23.72700 42.71400
C  50.82300 22.23000 43.03900
C  52.34300 21.97500 43.37300
C  49.84300 21.78600 44.18700
C  50.65400 23.90100 41.14800
C  49.36200 24.56800 40.61300
H  48.98900 24.17600 39.15000
N  55.24700 21.27300 43.89400
C  54.31700 20.39000 43.37100
C  54.92700 19.12200 43.09300
C  56.26800 19.20400 43.64400
C  56.45700 20.60600 44.04200
C  54.23300 17.95600 42.47600
C  57.21300 18.09600 43.70000
O  56.88800 16.98500 43.26400
C  58.57700 18.21500 44.38500
N  57.01800 23.59400 44.82700
C  57.95700 22.57900 44.78000
C  59.38100 23.05600 45.06600
C  59.17800 24.59400 45.36200
C  57.69100 24.77900 45.01900
C  60.14400 22.31600 46.18100
C  60.09700 25.62400 44.60000
C  61.46200 25.14700 44.12500
N  54.75700 25.42600 44.59900
C  55.65100 26.34400 44.96400
C  54.97500 27.62800 45.08700
C  53.68500 27.40000 44.59900
C  53.57300 26.00800 44.31200
C  55.55100 28.93600 45.37800
C  52.41600 28.06900 44.30200
O  52.12800 29.26500 44.30400
C  51.43200 26.88800 43.65600
C  51.24600 27.43300 42.23100
O  52.12800 27.53700 41.38000
O  49.97600 27.73100 41.97000
C  49.56400 28.34500 40.68200
H  52.28300 19.84500 43.19000
H  58.66000 20.81000 44.32600
H  57.74100 26.84700 45.43800
H  49.84500 24.12300 43.23700
H  50.40400 21.66100 42.20800
H  49.89500 20.70000 44.26700
H  48.82300 22.16200 44.11800
H  50.27900 22.21200 45.09100
H  50.93200 23.01900 40.57100
H  51.40700 24.65600 40.92200
H  49.51700 25.64500 40.67500
H  48.48200 24.23600 41.16500
H  53.37300 18.36000 41.94200
H  53.85500 17.29000 43.25100
H  54.87200 17.46000 41.74500
H  59.21900 18.84300 43.76700
H  59.11400 17.26800 44.33300
H  58.41500 18.65800 45.36800
H  59.88800 23.03200 44.10100
H  59.22500 24.84000 46.42300
H  61.19000 22.13200 45.93400
H  59.65400 21.39400 46.49400
H  60.29700 22.96100 47.04600
H  60.14900 26.48600 45.26500
H  59.51500 26.04100 43.77800
H  62.22400 25.91000 44.28900
H  61.49500 25.00800 43.04400
H  61.63800 24.22500 44.67800
H  55.26300 29.25200 46.38100
H  55.18100 29.66000 44.65200
H  56.62500 29.03500 45.22500
H  50.43300 26.74000 44.06600
H  49.68600 27.69000 39.82000
H  50.18700 29.21700 40.48200
H  48.59000 28.83400 40.68700

