158

Mg 16.10500 -2.09600 27.72600
C  15.02500 -0.16700 30.30000
C  18.16000 -3.93600 29.91000
C  17.34100 -3.62300 25.15400
C  14.23500 0.00300 25.50500
N  16.73900 -1.84500 29.83900
C  15.90600 -1.20300 30.71800
C  16.27200 -1.53500 32.22200
C  17.41800 -2.55800 32.00400
C  17.47300 -2.80400 30.49400
C  18.78900 -1.89500 32.48100
C  15.14500 -2.06300 33.09200
C  15.15100 -1.49000 34.53900
H  16.39700 -0.95000 35.34100
N  17.34800 -3.70600 27.50000
C  18.02400 -4.35800 28.53900
C  18.56700 -5.57300 28.01900
C  18.39500 -5.45700 26.59400
C  17.73100 -4.26100 26.34800
C  19.22500 -6.71600 28.82800
C  18.68700 -6.57500 25.51400
O  18.40700 -6.40800 24.32600
C  19.26400 -7.85500 25.89000
N  15.90400 -1.74700 25.59400
C  16.62200 -2.47100 24.72900
C  16.57700 -1.89500 23.26400
C  15.35900 -0.93400 23.40100
C  15.12900 -0.88900 24.94900
C  17.88300 -1.28100 22.67800
C  14.08900 -1.45700 22.76200
C  13.44000 -0.48400 21.86400
N  14.79700 -0.40700 27.80700
C  14.10100 0.26700 26.84200
C  13.28200 1.31000 27.48600
C  13.58900 1.16300 28.82000
C  14.57400 0.14000 28.96200
C  12.47100 2.30700 26.86500
C  13.30800 1.69500 30.20000
O  12.50000 2.54200 30.57900
C  14.21200 0.76700 31.19100
C  15.11300 1.65400 31.93800
O  16.20600 2.12400 31.56000
O  14.44900 2.16800 32.99500
C  14.99400 3.39000 33.57800
H  18.91500 -4.41000 30.54000
H  17.72500 -4.13700 24.27000
H  13.58100 0.52400 24.80300
H  16.72900 -0.63800 32.64000
H  17.27000 -3.45700 32.60200
H  18.76600 -0.80600 32.44600
H  19.59900 -2.34200 31.90500
H  18.81200 -2.13200 33.54500
H  15.03400 -3.14600 33.14300
H  14.21200 -1.61900 32.74700
H  14.57400 -2.19200 35.14100
H  14.51000 -0.61000 34.48500
H  18.58300 -7.59500 28.90000
H  19.47300 -6.46800 29.86000
H  20.25500 -6.91500 28.53300
H  18.61300 -8.37800 26.59100
H  20.29000 -7.75600 26.24600
H  19.23200 -8.49000 25.00400
H  16.27600 -2.69500 22.58700
H  15.66000 0.03200 22.99500
H  18.48700 -1.58000 23.53500
H  17.82100 -0.22400 22.42000
H  18.12800 -1.93800 21.84400
H  13.43400 -1.86600 23.53100
H  14.34600 -2.22500 22.03400
H  13.83000 0.52700 21.98300
H  12.36800 -0.39200 22.04200
H  13.53000 -0.78000 20.81900
H  11.83600 2.86900 27.55000
H  11.65600 1.89600 26.26900
H  13.08400 2.99200 26.28000
H  13.66200 0.36300 32.04100
H  15.63200 3.96900 32.91000
H  15.56700 3.16700 34.47900
H  14.11200 3.92300 33.93200
Mg 48.42900 35.78600 28.83400
C  46.22100 34.07900 31.00200
C  48.39800 38.33900 31.03600
C  50.05800 37.62800 26.59500
C  47.76300 33.34100 26.40600
N  47.40600 36.10200 30.76300
C  46.60400 35.26600 31.48600
C  46.31200 35.85000 32.85400
C  46.62200 37.36200 32.65400
C  47.59300 37.27000 31.42400
C  45.49300 38.27500 32.24900
C  46.92100 35.05800 34.03500
C  48.15400 35.54600 34.75900
H  48.00800 36.46300 35.94200
N  49.23000 37.69200 28.86600
C  49.19600 38.56900 29.95100
C  49.99700 39.68900 29.58500
C  50.52000 39.49600 28.27600
C  49.92900 38.26800 27.79200
C  50.37400 40.74000 30.64300
C  51.41200 40.38300 27.40400
O  51.69900 40.09600 26.27300
C  51.97400 41.67900 28.00900
N  48.54800 35.56600 26.64000
C  49.42200 36.43200 26.09200
C  49.89200 35.93400 24.77400
C  49.33600 34.45700 24.73200
C  48.58200 34.41400 26.04300
C  49.45900 36.84900 23.58800
C  50.46400 33.31300 24.76500
C  50.79600 32.68100 23.37500
N  47.37800 34.02700 28.71400
C  47.15500 33.13200 27.63600
C  46.34000 32.10000 28.04500
C  45.91200 32.39800 29.34800
C  46.58600 33.59300 29.72200
C  46.06400 30.88800 27.27500
C  45.07500 31.99700 30.42400
O  44.33800 31.02600 30.56600
C  45.09900 33.13400 31.46100
C  45.09900 32.48400 32.80200
O  45.71800 31.47400 33.18600
O  44.05700 33.09900 33.47700
C  43.83900 32.67900 34.92100
H  48.47300 39.19000 31.71600
H  50.71600 38.12800 25.88000
H  47.84500 32.51300 25.69900
H  45.24400 35.88100 33.06700
H  47.14100 37.77300 33.51900
H  44.58400 37.72500 32.00200
H  45.74300 38.82300 31.34000
H  45.29800 39.06700 32.97200
H  47.13600 34.01300 33.80800
H  46.11300 35.00900 34.76400
H  48.73800 36.07200 34.00300
H  48.75700 34.73800 35.17200
H  51.46400 40.78200 30.63800
H  49.91200 40.57800 31.61700
H  49.85800 41.66200 30.37600
H  52.27400 41.46700 29.03500
H  51.07200 42.28300 28.10600
H  52.78200 42.09800 27.41100
H  50.97600 35.86800 24.67700
H  48.66200 34.39100 23.87800
H  49.05800 36.31700 22.72500
H  50.31200 37.39100 23.17900
H  48.62000 37.47200 23.90000
H  50.15200 32.53800 25.46400
H  51.42800 33.76500 24.99700
H  50.38000 33.18400 22.50200
H  50.33900 31.69200 23.32500
H  51.83400 32.64100 23.04400
H  45.29000 30.25800 27.71200
H  47.00400 30.35200 27.14500
H  45.85200 31.20300 26.25300
H  44.14300 33.63100 31.29500
H  42.75800 32.60700 35.03500
H  44.31200 33.45300 35.52500
H  44.29800 31.69900 35.05800

