158

Mg -1.42300 17.50200 27.17900
C  -1.86000 15.29600 29.83200
C  -1.73900 20.14300 29.52200
C  -1.22200 19.58500 24.67600
C  -1.65900 14.76100 24.94300
N  -1.82000 17.68300 29.50000
C  -1.83300 16.61700 30.35300
C  -1.99300 17.10900 31.81400
C  -1.93000 18.66900 31.63900
C  -1.89500 18.83900 30.11900
C  -3.17900 19.31700 32.28800
C  -0.94600 16.58700 32.85300
C  -0.54700 17.44800 34.05800
H  -0.57000 16.79900 35.44400
N  -1.40700 19.47800 27.13300
C  -1.54500 20.44200 28.13500
C  -1.39800 21.74900 27.63100
C  -1.15400 21.56200 26.22200
C  -1.20400 20.18300 25.91800
C  -1.76500 23.00000 28.34100
C  -0.86900 22.63200 25.07700
O  -0.42300 22.45200 23.92000
C  -0.88000 24.03000 25.48500
N  -1.48100 17.26100 25.16300
C  -1.32800 18.28100 24.34300
C  -1.35900 17.81100 22.84700
C  -1.45100 16.26900 22.95000
C  -1.46600 16.02300 24.44500
C  -2.51500 18.35400 21.96300
C  -0.34000 15.52800 22.20300
C  1.01900 15.45300 22.91000
N  -1.62000 15.45400 27.29700
C  -1.77900 14.46200 26.33400
C  -1.90400 13.13900 26.95800
C  -1.90800 13.47800 28.31200
C  -1.73300 14.87800 28.46600
C  -2.32100 11.82600 26.28000
C  -2.02000 12.88200 29.59100
O  -2.15800 11.70900 29.96000
C  -2.04500 14.00700 30.61600
C  -0.94100 13.74600 31.56000
O  0.23200 13.94900 31.25800
O  -1.43400 13.27400 32.69800
C  -0.35800 12.95400 33.67600
H  -1.51100 20.90200 30.27400
H  -1.06900 20.29500 23.86100
H  -1.69600 13.93100 24.23500
H  -2.97200 16.74600 32.13000
H  -1.02000 19.18700 31.94300
H  -4.04300 19.38700 31.62700
H  -2.90000 20.35800 32.45600
H  -3.63200 18.82100 33.14600
H  -0.07100 16.09900 32.42200
H  -1.52200 15.71600 33.16500
H  -1.17100 18.33800 33.98100
H  0.51400 17.68800 33.98400
H  -1.09000 23.85600 28.31900
H  -2.12400 22.79200 29.34900
H  -2.65800 23.26400 27.77500
H  -0.66700 24.63400 24.60300
H  0.09500 24.18200 25.94900
H  -1.77100 24.37800 26.00700
H  -0.35600 18.01300 22.47200
H  -2.40700 15.97200 22.51900
H  -2.89700 19.22700 22.49200
H  -3.37800 17.72000 21.75700
H  -2.01400 18.69900 21.05800
H  -0.37000 15.96400 21.20500
H  -0.80300 14.54300 22.13600
H  1.10600 14.44500 23.31700
H  0.95900 16.21900 23.68300
H  1.80000 15.58500 22.16200
H  -2.82800 11.14600 26.96400
H  -1.43000 11.29900 25.93900
H  -3.05400 12.17200 25.55100
H  -2.99800 13.92900 31.13900
H  -0.69500 12.59200 34.64700
H  0.28700 13.81100 33.87100
H  0.25900 12.19200 33.20000
Mg -12.11500 16.08900 42.28100
C  -9.29300 14.18100 41.64100
C  -10.78400 18.75000 40.38600
C  -15.21600 17.59500 42.13200
C  -13.73100 13.09100 43.26600
N  -10.25000 16.30600 41.07400
C  -9.24300 15.38900 40.90500
C  -8.09400 15.94000 40.19500
C  -8.47500 17.40200 39.80300
C  -9.96000 17.55300 40.42300
C  -7.48300 18.34000 40.41200
C  -7.69100 15.01300 39.03700
C  -6.19600 14.59500 38.85000
H  -5.47400 15.28000 37.63000
N  -12.82200 18.01700 41.63400
C  -12.10800 19.00100 40.97400
C  -12.92900 20.15600 40.79200
C  -14.23800 19.85800 41.30600
C  -14.16700 18.42200 41.72700
C  -12.40100 21.52300 40.11400
C  -15.36200 20.81700 41.45800
O  -15.14000 21.95000 41.16600
C  -16.69500 20.46900 41.84000
N  -14.22100 15.52100 42.75300
C  -15.30800 16.26200 42.55800
C  -16.67500 15.49300 42.71800
C  -16.12600 14.12100 43.17600
C  -14.55100 14.25200 43.08900
C  -17.86700 16.09200 43.55800
C  -16.59600 12.89900 42.28900
C  -16.90400 11.56100 43.01200
N  -11.58900 14.08600 42.62900
C  -12.30800 13.02700 43.07200
C  -11.43200 11.91600 43.37200
C  -10.13900 12.35200 42.85400
C  -10.35800 13.64000 42.35700
C  -11.89700 10.56700 43.72500
C  -8.83400 11.95600 42.63400
O  -8.18300 10.94800 42.90100
C  -8.23500 13.14800 41.82000
C  -7.00800 13.59100 42.49900
O  -6.94600 14.18300 43.52700
O  -5.85600 13.17800 41.79700
C  -4.63200 13.73300 42.34800
H  -10.35700 19.55000 39.77800
H  -16.20100 18.02200 41.93000
H  -14.23400 12.15400 43.51100
H  -7.23700 15.96000 40.86800
H  -8.66000 17.67600 38.76400
H  -6.97200 17.93800 41.28700
H  -8.04600 19.17500 40.82900
H  -6.76500 18.56800 39.62500
H  -7.92900 15.43500 38.06100
H  -8.23600 14.07600 39.14800
H  -6.05300 13.51600 38.79200
H  -5.72000 14.96900 39.75700
H  -12.75800 22.43100 40.59900
H  -12.56000 21.49100 39.03600
H  -11.33700 21.56000 40.34800
H  -17.40700 21.29400 41.80000
H  -16.68700 19.95100 42.79900
H  -17.14600 19.81200 41.09700
H  -17.02000 15.40700 41.68700
H  -16.44000 13.90400 44.19700
H  -18.35400 15.27000 44.08300
H  -18.46800 16.61200 42.81300
H  -17.64600 16.96100 44.17900
H  -15.85500 12.69800 41.51500
H  -17.48300 13.18300 41.72300
H  -17.98200 11.40400 43.03100
H  -16.60600 11.67600 44.05500
H  -16.50100 10.63500 42.60100
H  -11.06100 9.91000 43.48800
H  -12.80200 10.32000 43.17000
H  -12.36200 10.55900 44.71000
H  -7.97900 12.74200 40.84200
H  -4.68500 14.81300 42.20900
H  -3.70500 13.39700 41.88500
H  -4.46100 13.50300 43.39900

