158

Mg 43.69400 41.80100 26.48000
C  42.63500 44.08200 28.82800
C  44.87600 39.77000 28.92500
C  44.49300 39.58400 24.09700
C  42.60400 43.98000 23.97900
N  43.81200 41.97100 28.54200
C  43.11000 42.93800 29.36900
C  43.11600 42.56400 30.82800
C  44.13700 41.35600 30.86600
C  44.31200 41.01600 29.34900
C  45.49700 41.77400 31.56000
C  41.74400 42.24400 31.51100
C  41.31800 43.05100 32.78800
H  42.09200 42.98500 34.09200
N  44.52300 39.82300 26.50900
C  44.98700 39.20200 27.61800
C  45.28700 37.86600 27.27300
C  45.01100 37.73000 25.79400
C  44.67200 39.07900 25.40100
C  45.82600 36.83000 28.26300
C  45.11700 36.60500 24.88200
O  44.89200 36.69700 23.63900
C  45.50600 35.34600 25.41800
N  43.54200 41.71000 24.41000
C  43.99100 40.74900 23.63000
C  43.75700 40.99500 22.13500
C  42.88200 42.27300 22.11500
C  43.03800 42.70100 23.59400
C  45.05400 41.10900 21.35200
C  41.38700 42.08400 21.65200
C  40.51200 41.04300 22.39800
N  43.03100 43.74400 26.33600
C  42.56000 44.51300 25.31200
C  42.18700 45.81100 25.77900
C  42.05400 45.63000 27.11500
C  42.66300 44.41000 27.44900
C  41.81400 46.99900 24.99600
C  41.56500 46.23200 28.34100
O  41.04400 47.31400 28.64100
C  41.95200 45.22100 29.49800
C  42.67800 45.91100 30.55800
O  43.92300 45.99200 30.63600
O  41.82800 46.33500 31.55800
C  42.46200 46.87300 32.78100
H  45.36700 39.19400 29.71200
H  44.68100 38.88000 23.28400
H  42.29400 44.63900 23.16600
H  43.39200 43.37700 31.50000
H  43.69200 40.53000 31.42000
H  45.41200 42.84000 31.77500
H  46.33600 41.68600 30.87100
H  45.63000 41.28600 32.52600
H  41.67500 41.23900 31.92700
H  40.89500 42.40600 30.84600
H  40.27300 42.82800 33.00300
H  41.36600 44.11900 32.57800
H  46.72700 36.36100 27.86600
H  45.04700 36.08300 28.41700
H  46.15300 37.30800 29.18600
H  46.57300 35.37000 25.64200
H  45.33900 34.65500 24.59200
H  44.97800 34.96600 26.29300
H  43.35200 40.10800 21.64700
H  43.32000 43.05000 21.48800
H  45.15800 42.10000 20.90900
H  44.92900 40.38000 20.55100
H  45.95600 40.91900 21.93500
H  41.41700 41.63700 20.65800
H  40.85300 43.03100 21.57600
H  41.13600 40.39600 23.01400
H  39.91800 40.42700 21.72200
H  39.83100 41.62400 23.01900
H  40.87900 46.67000 24.54400
H  42.65300 47.27300 24.35600
H  41.48700 47.77500 25.68800
H  41.03400 44.76500 29.86700
H  43.24800 47.58000 32.51600
H  42.85300 46.01000 33.31900
H  41.69800 47.40200 33.35100
Mg 17.34500 51.14700 26.56600
C  19.42800 49.83600 29.13000
C  15.12100 52.13100 29.00800
C  15.47100 52.37600 24.18600
C  19.61300 49.92100 24.20600
N  17.27600 51.00900 28.85400
C  18.24800 50.44000 29.62100
C  17.74900 50.53000 31.10400
C  16.23100 50.90300 30.97300
C  16.19100 51.41500 29.53600
C  15.17800 49.80400 31.28200
C  18.63000 51.39900 32.02900
C  18.68900 50.95300 33.51500
H  17.82100 51.50700 34.61500
N  15.58000 52.14400 26.59000
C  14.79300 52.51900 27.67000
C  13.73700 53.48500 27.20600
C  13.73800 53.31600 25.78000
C  14.92300 52.57300 25.44200
C  12.79500 54.07700 28.16500
C  12.78300 53.91600 24.76900
O  12.85100 53.68500 23.58400
C  11.66800 54.68200 25.30100
N  17.47100 51.03800 24.48400
C  16.63800 51.73100 23.74600
C  16.94900 51.74400 22.26300
C  18.46300 51.25500 22.34100
C  18.53300 50.71800 23.71100
C  15.93900 50.90100 21.39000
C  19.46900 52.32400 21.95000
C  20.29300 51.93600 20.70200
N  19.04100 49.94700 26.58100
C  19.88100 49.57200 25.51900
C  21.02400 48.90800 26.06200
C  20.89900 49.00800 27.47500
C  19.66900 49.68000 27.76000
C  22.19200 48.37500 25.17900
C  21.51600 48.63300 28.73800
O  22.59300 48.14700 29.02000
C  20.50900 49.11300 29.82500
C  20.07500 47.86100 30.58200
O  19.16600 47.10300 30.21900
O  20.74500 47.77800 31.74100
C  20.07800 46.91000 32.76700
H  14.48200 52.53000 29.79800
H  14.86200 52.71600 23.34600
H  20.31700 49.63000 23.42300
H  17.74800 49.50100 31.46300
H  16.08000 51.77200 31.61400
H  14.68900 50.08900 32.21300
H  15.64900 48.83200 31.13600
H  14.44600 49.66900 30.48500
H  18.15700 52.38000 32.07200
H  19.65600 51.57000 31.70300
H  19.72200 51.16700 33.78700
H  18.60900 49.86600 33.53600
H  13.23800 54.06500 29.16100
H  11.87000 53.50100 28.19900
H  12.59600 55.14600 28.09600
H  12.00700 55.55900 25.85300
H  11.09300 54.00400 25.93300
H  11.09700 55.04600 24.44700
H  16.94100 52.78400 21.93600
H  18.55400 50.36800 21.71500
H  15.64900 51.48400 20.51600
H  15.09900 50.47700 21.94100
H  16.46700 50.08800 20.89200
H  20.20100 52.44500 22.74800
H  18.99600 53.30500 21.89100
H  20.29200 52.75300 19.98100
H  19.89300 51.13300 20.08300
H  21.35500 51.80000 20.90700
H  21.74700 47.67400 24.47300
H  22.96500 47.92200 25.80000
H  22.58100 49.25000 24.65900
H  21.01300 49.64300 30.63300
H  20.78700 46.23000 33.24000
H  19.22600 46.29500 32.47600
H  19.75200 47.47000 33.64400

