158

Mg 36.22400 49.91500 24.61100
C  36.70700 48.32500 27.86000
C  34.81200 52.57700 26.38500
C  35.69100 51.16800 21.69900
C  37.74800 47.10400 23.18300
N  35.97700 50.42600 26.91400
C  36.20000 49.64100 28.00900
C  35.80700 50.34000 29.33000
C  35.14900 51.74300 28.77500
C  35.30000 51.62700 27.27300
C  33.73200 51.99500 29.26900
C  37.08500 50.53800 30.29400
C  36.79800 50.60600 31.79600
H  35.38000 50.35500 32.38900
N  35.46100 51.61600 24.08200
C  34.93300 52.61900 24.88500
C  34.32000 53.62700 24.05900
C  34.61200 53.23900 22.73100
C  35.29900 51.96800 22.77500
C  33.54900 54.80300 24.65400
C  34.41700 54.03300 21.43300
O  34.96200 53.77600 20.32800
C  33.55100 55.29400 21.40000
N  36.79300 49.22400 22.78000
C  36.40000 49.92600 21.73000
C  36.77900 49.23900 20.36400
C  37.70600 48.03200 20.86700
C  37.42300 48.09900 22.36500
C  35.56100 48.89000 19.49000
C  39.25200 48.23000 20.60100
C  40.08300 49.15800 21.48700
N  37.02000 48.12100 25.33300
C  37.52600 47.00100 24.59800
C  37.85500 45.98900 25.49200
C  37.55600 46.46100 26.71700
C  37.01400 47.75900 26.62700
C  38.54900 44.77300 25.13900
C  37.61800 46.03300 28.10100
O  37.98000 44.97000 28.62300
C  36.98600 47.17400 28.89100
C  35.84300 46.74000 29.68100
O  34.63800 47.04200 29.51100
O  36.28200 45.81500 30.59000
C  35.20300 45.42000 31.47400
H  34.34800 53.46800 26.81400
H  35.38600 51.46800 20.69500
H  38.11000 46.18100 22.72500
H  35.07900 49.68500 29.80800
H  35.69000 52.62200 29.12600
H  33.38000 51.20700 29.93600
H  32.99800 52.10200 28.47100
H  33.82800 52.89800 29.87100
H  37.62300 51.47600 30.15900
H  37.78400 49.71100 30.17600
H  37.21700 51.56300 32.11000
H  37.51700 49.88000 32.17500
H  32.63400 54.93500 24.07700
H  34.18400 55.68500 24.57100
H  33.29000 54.60300 25.69300
H  34.06300 55.92700 22.12500
H  32.60600 54.85800 21.72300
H  33.46000 55.71700 20.39900
H  37.35300 50.01100 19.85200
H  37.38400 47.07200 20.46600
H  34.71400 48.75200 20.16100
H  35.65500 47.97800 18.90000
H  35.41000 49.64900 18.72200
H  39.31700 48.57800 19.57000
H  39.65300 47.21600 20.61000
H  39.48500 49.80500 22.12800
H  40.78000 49.73000 20.87300
H  40.69000 48.54200 22.15100
H  39.47700 44.96000 24.59900
H  37.96100 44.27000 24.37100
H  38.75000 44.24700 26.07200
H  37.76500 47.51600 29.57100
H  34.48300 44.79000 30.95200
H  34.51800 46.18400 31.83900
H  35.61000 44.78100 32.25800
Mg 6.58700 52.10500 40.69200
C  6.08900 48.52700 40.08200
C  9.81300 51.56700 39.97400
C  6.80800 55.35800 40.28000
C  3.13700 52.27500 41.36000
N  7.81200 50.25200 40.19400
C  7.44000 48.99900 39.83600
C  8.61100 48.12700 39.54000
C  9.84400 48.98500 40.02700
C  9.13700 50.39300 40.12500
C  10.58100 48.64800 41.40400
C  8.60500 47.56500 38.11600
C  8.64900 48.61700 36.91300
H  7.60600 48.41000 35.82700
N  8.12900 53.32600 40.16700
C  9.40200 52.92500 39.93100
C  10.24100 54.12000 39.62400
C  9.36300 55.23500 39.59200
C  8.03400 54.69600 40.08700
C  11.79300 53.98500 39.41900
C  9.78500 56.66400 39.20300
O  10.88800 56.91300 38.80500
C  8.88200 57.81400 39.38600
N  5.12000 53.60100 40.69800
C  5.50900 54.93600 40.66800
C  4.37700 55.86000 40.89000
C  3.22900 54.83200 41.24900
C  3.87900 53.45900 41.12900
C  4.65100 56.92400 42.02900
C  2.05400 55.00300 40.20100
C  0.64400 55.28500 40.81400
N  5.00700 50.73700 40.85000
C  3.64800 50.99500 41.17200
C  2.98000 49.75900 41.34600
C  3.89200 48.79800 40.92200
C  5.11000 49.40200 40.66800
C  1.57900 49.58300 41.97500
C  3.94800 47.43700 40.59700
O  3.12500 46.56500 40.54800
C  5.40900 47.14800 40.14200
C  5.22600 46.46400 38.86500
O  4.97700 46.99600 37.78000
O  5.50500 45.13200 39.05700
C  5.67500 44.25400 37.89500
H  10.89800 51.45600 39.91400
H  6.89600 56.44600 40.24600
H  2.08900 52.41100 41.63700
H  8.46000 47.24900 40.16900
H  10.45600 49.05300 39.12800
H  11.62400 48.39700 41.21000
H  10.13900 47.70800 41.73500
H  10.41400 49.53400 42.01600
H  7.91800 46.73200 37.97400
H  9.55400 47.03100 38.07200
H  9.63400 48.51900 36.45600
H  8.60700 49.55200 37.47000
H  12.37800 54.76900 39.90000
H  12.03800 54.03000 38.35800
H  12.26800 53.09400 39.83000
H  8.55400 57.75400 40.42400
H  8.17300 57.80000 38.55900
H  9.38800 58.75000 39.15200
H  4.22500 56.50900 40.02700
H  2.86700 54.96300 42.26800
H  5.71600 56.80700 42.23200
H  3.99300 56.77600 42.88500
H  4.43500 57.94000 41.69900
H  2.11000 54.12600 39.55600
H  2.28100 55.85100 39.55400
H  0.25800 54.33400 41.18100
H  -0.03900 55.69600 40.07100
H  0.65500 55.93700 41.68800
H  1.25800 50.44200 42.56500
H  1.50800 48.67200 42.56900
H  0.88200 49.32800 41.17800
H  5.90900 46.47000 40.83300
H  6.37100 43.42800 38.04500
H  5.82700 44.74900 36.93600
H  4.73100 43.74500 37.69500

