158

Mg 26.02900 0.89100 28.80800
C  27.77100 0.85600 31.85400
C  23.03900 1.11300 30.68000
C  24.32200 0.80900 25.90100
C  28.96300 0.00100 27.19900
N  25.50400 1.15600 31.03900
C  26.38700 1.09500 32.06400
C  25.61000 1.19000 33.40900
C  24.09000 1.26600 33.02900
C  24.21500 1.27700 31.48600
C  23.27600 0.02400 33.61000
C  26.06200 2.55000 34.25100
C  26.86500 2.25700 35.55800
H  26.72900 3.21300 36.73400
N  24.02200 0.99000 28.33800
C  22.96900 1.08000 29.25300
C  21.75300 0.98000 28.54100
C  22.05000 0.94800 27.18800
C  23.51600 0.89700 27.07300
C  20.40900 1.00300 29.25400
C  21.01300 0.72900 26.06100
O  21.36900 0.67900 24.92000
C  19.54300 0.61600 26.28900
N  26.61700 0.50700 26.84900
C  25.73200 0.74000 25.82000
C  26.51800 0.77500 24.50100
C  28.01600 0.69800 24.96800
C  27.85500 0.35900 26.43200
C  26.11200 -0.42700 23.62600
C  28.75300 2.06300 24.68800
C  30.21400 1.86200 24.33600
N  28.00800 0.46000 29.33700
C  29.03700 -0.00700 28.60900
C  30.20100 -0.20400 29.45100
C  29.73500 0.02400 30.73000
C  28.36800 0.50900 30.60300
C  31.58900 -0.72100 28.94700
C  30.14700 0.17200 32.11100
O  31.23600 -0.08800 32.57600
C  28.93300 0.63400 32.90000
C  28.58300 -0.22900 34.06900
O  27.84100 -1.20000 34.06300
O  29.34400 0.07900 35.15900
C  29.11800 -0.83200 36.29900
H  22.12800 1.08700 31.28200
H  23.77800 0.91100 24.96000
H  29.90000 -0.25500 26.70100
H  25.78300 0.29000 33.99900
H  23.74900 2.23300 33.39900
H  23.83200 -0.59900 34.31100
H  22.90700 -0.65300 32.83900
H  22.43300 0.41600 34.17800
H  25.26400 3.26000 34.46700
H  26.66300 2.96100 33.43900
H  27.93600 2.38100 35.39900
H  26.69300 1.23800 35.90300
H  19.84200 1.84600 28.85800
H  20.36700 1.12600 30.33600
H  19.86700 0.07600 29.06600
H  19.26200 -0.28300 26.83800
H  19.11100 0.33300 25.32900
H  19.19400 1.61800 26.53900
H  26.34600 1.73300 24.01200
H  28.56000 -0.11900 24.49400
H  25.56900 -0.01500 22.77500
H  25.57000 -1.25600 24.08000
H  26.99200 -0.96000 23.26700
H  28.64400 2.75100 25.52600
H  28.35400 2.56700 23.80700
H  30.83300 2.29900 25.12000
H  30.42100 2.28800 23.35400
H  30.42100 0.80100 24.19600
H  32.16900 0.12600 28.58300
H  31.42600 -1.36300 28.08100
H  32.06800 -1.29000 29.74400
H  29.34900 1.56700 33.28000
H  28.22100 -0.67000 36.89700
H  29.87800 -0.68900 37.06700
H  29.19400 -1.87700 35.99800
Mg 48.58200 44.60800 43.19400
C  45.10000 44.26100 42.98500
C  48.79000 40.98600 43.01900
C  51.92300 44.95600 42.92700
C  48.17700 48.05800 42.68700
N  47.06600 42.93400 43.04500
C  45.70300 42.98300 43.09700
C  44.98900 41.60200 43.01800
C  46.21100 40.66000 43.41600
C  47.45800 41.52900 43.11900
C  46.15000 40.17500 44.90600
C  44.25200 41.27000 41.72200
C  45.16500 41.50600 40.43500
H  45.50800 40.26400 39.50300
N  50.19400 43.14500 42.97800
C  50.07000 41.73900 42.93300
C  51.43300 41.22900 42.91900
C  52.38000 42.32000 42.98400
C  51.56000 43.54600 43.02300
C  51.59800 39.75600 42.72900
C  53.89500 42.18800 42.99300
O  54.40500 41.10200 43.09100
C  54.70300 43.35400 42.66100
N  49.88100 46.28500 42.76300
C  51.20100 46.16100 42.86800
C  51.95400 47.43900 42.45000
C  50.71500 48.44400 42.64800
C  49.48800 47.60500 42.70600
C  53.16300 47.92300 43.29700
C  50.62800 49.56000 41.54600
C  51.93100 50.23200 41.03300
N  47.03400 45.97600 43.03100
C  46.99400 47.32400 42.85900
C  45.60200 47.84000 42.81300
C  44.82400 46.66500 42.83600
C  45.73000 45.54200 43.03100
C  45.19800 49.21300 42.67400
C  43.52000 46.19400 42.72800
O  42.50300 46.82000 42.64700
C  43.57200 44.61300 42.91600
C  42.69700 44.12000 44.09500
O  41.78500 43.36500 44.04700
O  43.09600 44.69600 45.24200
C  42.44000 44.13000 46.48300
H  48.78500 39.89900 43.12100
H  52.98500 45.13000 42.74100
H  47.94300 49.12400 42.73800
H  44.38200 41.63000 43.92200
H  46.17100 39.79300 42.75700
H  46.82600 40.79800 45.49300
H  46.55500 39.16300 44.92600
H  45.13300 40.18700 45.29800
H  43.36400 41.89500 41.63100
H  43.90900 40.24600 41.86600
H  46.12500 41.83800 40.82900
H  44.74800 42.27900 39.79000
H  51.00000 39.53600 41.84500
H  51.17800 39.26200 43.60600
H  52.61000 39.40600 42.53000
H  54.25600 43.85700 41.80400
H  55.72600 43.04300 42.44900
H  54.78900 43.90800 43.59600
H  52.20900 47.54200 41.39500
H  50.84600 48.97800 43.58900
H  53.32800 47.08600 43.97700
H  53.18400 48.89000 43.80000
H  54.10000 47.97400 42.74200
H  49.98400 50.38800 41.84300
H  50.18500 49.10800 40.65900
H  52.80000 49.78800 41.51900
H  51.94000 51.27500 41.34900
H  52.14700 50.21600 39.96500
H  45.22600 49.58100 41.64800
H  45.73000 49.89700 43.33600
H  44.15900 49.34400 42.97800
H  43.15600 44.13300 42.02900
H  42.60700 43.05400 46.53500
H  41.35200 44.11100 46.42000
H  42.80800 44.73900 47.30800

