158

Mg 0.83900 8.25700 26.86000
C  1.54200 10.44500 29.53400
C  0.81800 5.65400 28.94500
C  0.40900 6.19500 24.28900
C  1.13500 11.08200 24.67400
N  1.36400 8.08500 28.94200
C  1.53900 9.08100 29.84500
C  1.42000 8.49900 31.28400
C  1.45200 6.97900 31.08800
C  1.18500 6.87300 29.56300
C  2.85800 6.24800 31.38100
C  0.16700 9.02000 32.13900
C  0.36700 9.28200 33.69600
H  1.58700 8.56400 34.28200
N  0.44800 6.24900 26.69000
C  0.47000 5.33900 27.61700
C  0.27300 4.00900 27.12300
C  0.05700 4.11200 25.73300
C  0.30300 5.57700 25.51800
C  0.21600 2.75200 27.98600
C  -0.31000 3.04600 24.68200
O  -0.28000 3.20600 23.48200
C  -0.76400 1.64800 25.10800
N  1.05300 8.61900 24.78500
C  0.76600 7.58000 23.92600
C  0.72100 8.04500 22.45800
C  0.51200 9.61400 22.62800
C  0.98900 9.81200 24.11900
C  1.98400 7.55600 21.73600
C  -1.01200 9.99200 22.56500
C  -1.40600 10.68200 21.23000
N  1.32100 10.49600 26.99600
C  1.45500 11.45800 26.03300
C  1.56400 12.73300 26.75700
C  1.73400 12.47000 28.13600
C  1.52100 11.03200 28.24800
C  1.59800 14.00700 26.03400
C  1.88900 12.97500 29.44400
O  2.03500 14.09600 29.89600
C  1.76800 11.72200 30.34500
C  2.84100 11.63100 31.34000
O  3.90300 11.08300 31.11900
O  2.51100 12.24900 32.53700
C  3.48400 12.12400 33.61000
H  0.88400 4.88400 29.71700
H  0.21100 5.59600 23.39800
H  0.91000 11.84300 23.92400
H  2.28600 8.90900 31.80500
H  0.70500 6.42500 31.65700
H  3.36600 6.09800 30.42800
H  2.77700 5.37200 32.02400
H  3.46000 6.97500 31.92700
H  -0.67000 8.33300 32.01600
H  0.03700 9.99700 31.67300
H  -0.53700 9.04300 34.25700
H  0.51100 10.35800 33.78700
H  0.61300 1.97900 27.32900
H  -0.81500 2.52100 28.25200
H  0.83700 2.83700 28.87800
H  0.06800 0.99300 25.36800
H  -1.39300 1.28300 24.29600
H  -1.39500 1.63700 25.99700
H  -0.12300 7.50000 22.03600
H  1.07000 10.23100 21.92400
H  2.62400 7.03500 22.44800
H  2.62200 8.37100 21.39400
H  1.79000 6.84100 20.93700
H  -1.38100 10.59300 23.39600
H  -1.62500 9.10400 22.71700
H  -2.07400 10.03800 20.65900
H  -0.53700 10.93800 20.62500
H  -2.04000 11.55600 21.37600
H  0.56300 14.25900 25.80300
H  2.10600 13.82900 25.08700
H  2.18900 14.84500 26.40600
H  0.81200 11.79900 30.86400
H  4.41000 11.59800 33.38000
H  3.10000 11.62200 34.49800
H  3.63600 13.13100 34.00000
Mg 0.11500 43.03900 26.63000
C  2.18600 42.86400 29.47500
C  -2.65700 42.44400 28.91400
C  -1.88100 42.33200 24.01900
C  2.96400 43.19200 24.61600
N  -0.25200 42.57100 28.91300
C  0.82500 42.73600 29.80900
C  0.28500 42.90700 31.24200
C  -1.17500 42.63200 31.05500
C  -1.39300 42.54600 29.52400
C  -1.75900 41.36600 31.80400
C  0.55300 44.38600 31.63200
C  1.04600 44.61400 33.07600
H  1.07500 43.43500 34.09900
N  -2.03500 42.51000 26.50500
C  -2.92800 42.44800 27.55200
C  -4.18800 42.42900 26.94800
C  -4.02600 42.38900 25.54200
C  -2.62800 42.38000 25.26200
C  -5.46600 42.34700 27.78100
C  -5.11900 42.34800 24.43100
O  -4.90100 42.23300 23.22500
C  -6.60300 42.32400 24.83700
N  0.45500 42.90000 24.68000
C  -0.48300 42.47600 23.79100
C  0.11100 42.37900 22.35900
C  1.48600 42.96600 22.52600
C  1.68600 43.03900 24.04900
C  -0.00100 40.92700 21.96900
C  1.64200 44.43900 21.97300
C  2.51300 44.61200 20.67300
N  2.07600 43.08700 26.95400
C  3.17500 43.13900 26.02000
C  4.43900 43.22900 26.71100
C  4.08600 43.09200 27.97500
C  2.62900 42.94300 28.16500
C  5.77900 43.34600 26.06900
C  4.60600 43.01400 29.31400
O  5.77500 42.96100 29.71700
C  3.42800 42.89400 30.30600
C  3.64900 41.61500 31.08500
O  3.15500 40.48300 30.98800
O  4.40200 42.13000 32.13500
C  4.50400 41.04700 33.13100
H  -3.47300 42.29800 29.62500
H  -2.46600 42.40600 23.10000
H  3.80500 43.10700 23.92400
H  0.87900 42.26400 31.89100
H  -1.83200 43.43300 31.39200
H  -1.32800 41.28800 32.80200
H  -1.39400 40.49800 31.25500
H  -2.83600 41.20000 31.83000
H  -0.38400 44.90500 31.43000
H  1.28200 44.81100 30.94300
H  0.53400 45.54300 33.32900
H  2.09700 44.87200 33.20800
H  -5.85400 43.34800 27.96600
H  -5.23300 41.88500 28.74100
H  -6.19500 41.71900 27.27000
H  -6.87700 41.34000 25.21800
H  -7.10300 42.52200 23.88900
H  -6.83400 43.12200 25.54200
H  -0.62500 42.90300 21.74800
H  2.25000 42.34500 22.05900
H  -0.31900 40.27900 22.78600
H  0.93300 40.48000 21.62800
H  -0.78500 40.92500 21.21200
H  2.01600 45.01100 22.82300
H  0.69800 44.91300 21.70400
H  3.49200 44.88500 21.06700
H  2.11200 45.42000 20.06200
H  2.66200 43.68300 20.12300
H  5.83500 42.56000 25.31700
H  6.66600 43.24300 26.69500
H  5.80500 44.27300 25.49600
H  3.38400 43.74700 30.98500
H  5.31600 40.34500 32.94000
H  3.59900 40.61000 33.55400
H  4.91300 41.56900 33.99600

