158

Mg 24.46000 -7.98100 47.81000
C  26.84200 -5.42500 46.80200
C  22.28900 -6.62700 45.55600
C  22.54100 -10.50200 48.52000
C  26.96100 -9.34400 49.93500
N  24.58800 -6.32400 46.28800
C  25.64000 -5.39500 46.08000
C  25.22200 -4.34300 45.03400
C  23.66100 -4.55500 44.88900
C  23.52300 -5.92500 45.64700
C  22.66100 -3.51800 45.50600
C  26.03200 -4.55500 43.65400
C  26.80300 -3.39000 43.07900
H  26.09100 -2.69900 41.95000
N  22.66800 -8.55400 47.11300
C  21.85000 -7.82000 46.21800
C  20.66600 -8.57400 46.01900
C  20.71700 -9.69500 46.82800
C  21.98700 -9.64800 47.57900
C  19.51800 -8.08200 45.24200
C  19.65000 -10.77100 46.93100
O  18.57000 -10.65200 46.36000
C  19.83400 -11.91800 47.76300
N  24.69200 -9.64200 49.08500
C  23.71300 -10.47500 49.25800
C  24.13300 -11.66800 50.16100
C  25.42300 -11.18200 50.70300
C  25.78400 -10.03900 49.80200
C  22.97200 -12.09600 51.12000
C  26.50700 -12.29700 50.95500
C  27.21300 -12.36900 52.32700
N  26.51000 -7.52400 48.28700
C  27.37900 -8.23800 49.14800
C  28.65300 -7.45900 49.13700
C  28.48400 -6.35900 48.24400
C  27.17200 -6.45800 47.76600
C  29.86300 -7.78800 49.91500
C  29.11900 -5.21400 47.63600
O  30.22100 -4.70900 47.79600
C  28.09500 -4.60800 46.61300
C  27.94200 -3.17400 46.89100
O  27.52300 -2.58000 47.91500
O  28.45600 -2.41400 45.90200
C  28.45500 -0.97300 45.96700
H  21.56100 -6.14700 44.89900
H  21.97900 -11.41500 48.72500
H  27.69500 -9.73500 50.64200
H  25.52400 -3.42700 45.54100
H  23.45500 -4.65900 43.82400
H  23.01900 -2.49900 45.64700
H  22.15300 -3.83800 46.41600
H  21.91900 -3.29100 44.74000
H  25.34200 -4.81100 42.85000
H  26.75400 -5.37200 43.67700
H  27.78100 -3.72800 42.73600
H  27.01900 -2.68500 43.88200
H  18.80500 -8.04400 46.06600
H  19.26200 -8.84500 44.50700
H  19.59000 -7.14500 44.68900
H  19.90100 -11.70900 48.83100
H  20.61700 -12.51800 47.30100
H  18.93600 -12.53100 47.68700
H  24.37700 -12.48700 49.48300
H  25.27600 -10.62600 51.62800
H  21.97700 -11.68200 50.95500
H  23.19800 -11.65000 52.08900
H  22.85700 -13.17100 51.25600
H  27.18200 -12.31500 50.10000
H  25.98400 -13.24800 50.84900
H  26.88900 -11.50600 52.90900
H  28.29700 -12.41100 52.22300
H  26.94500 -13.26100 52.89200
H  29.65300 -7.92000 50.97700
H  30.51600 -6.91600 49.91700
H  30.43600 -8.65200 49.58000
H  28.42500 -4.69100 45.57700
H  29.00400 -0.41500 45.20800
H  28.86600 -0.56200 46.88900
H  27.40100 -0.69400 45.96100
Mg 46.99500 24.67200 28.31700
C  47.30700 27.02700 30.59800
C  46.57300 22.34400 30.75900
C  46.94300 22.38100 26.00900
C  47.72600 27.09800 25.79900
N  46.67100 24.71500 30.43700
C  46.85300 25.80100 31.17100
C  46.63100 25.53400 32.67200
C  46.80600 24.02800 32.69300
C  46.69000 23.65200 31.23300
C  48.11000 23.60000 33.43200
C  45.40300 26.20900 33.31600
C  45.26900 25.87000 34.83000
H  45.25200 26.95700 35.86000
N  46.65700 22.69400 28.35000
C  46.54000 21.91700 29.48400
C  46.32400 20.55200 29.08000
C  46.42700 20.49700 27.65200
C  46.69900 21.90100 27.27100
C  45.86900 19.39800 30.02000
C  46.40200 19.24200 26.69300
O  46.39000 19.42600 25.47100
C  46.35800 17.80000 27.13200
N  47.18800 24.80400 26.18200
C  47.19300 23.63300 25.48200
C  47.47000 23.97700 23.93600
C  47.22600 25.49300 23.86200
C  47.47100 25.83500 25.33000
C  48.84600 23.57700 23.44200
C  45.88400 26.13600 23.38800
C  44.63300 25.49100 23.94200
N  47.62400 26.64800 28.16400
C  47.92100 27.50200 27.12300
C  48.19300 28.84500 27.63200
C  47.87500 28.76000 28.98700
C  47.59200 27.35500 29.28600
C  48.54400 29.98800 26.72700
C  47.81800 29.47200 30.26000
O  48.11800 30.57900 30.65100
C  47.41100 28.36500 31.31600
C  48.55300 28.34400 32.28500
O  49.64900 27.85500 32.08500
O  48.11300 28.74400 33.53100
C  49.01000 28.50400 34.70900
H  46.55900 21.68600 31.63100
H  46.82200 21.69700 25.16600
H  47.81800 27.86200 25.02400
H  47.52000 26.05500 33.02700
H  46.02800 23.56300 33.29700
H  48.98400 23.38300 32.81800
H  47.82500 22.72800 34.02000
H  48.37600 24.35800 34.16900
H  44.48300 25.84300 32.86000
H  45.45600 27.29500 33.24100
H  46.12500 25.24200 35.07700
H  44.35900 25.29800 35.01600
H  46.54800 18.58300 29.76700
H  44.86000 19.20900 29.65300
H  45.95100 19.67900 31.07000
H  47.35600 17.56700 27.50400
H  46.07400 17.12000 26.32900
H  45.60600 17.62500 27.90200
H  46.79300 23.51300 23.22000
H  48.04900 25.90600 23.27800
H  49.24400 22.90300 24.20100
H  49.52400 24.39500 23.20000
H  48.85600 23.10400 22.46000
H  45.95600 26.06400 22.30300
H  45.89000 27.20500 23.59800
H  44.02400 26.32000 24.30400
H  44.80900 24.72800 24.70000
H  44.10000 24.94300 23.16600
H  48.36500 30.96100 27.18600
H  48.01000 29.90300 25.78000
H  49.58400 29.91100 26.41100
H  46.49800 28.68000 31.82000
H  49.58300 27.58200 34.61400
H  48.26800 28.43000 35.50300
H  49.53000 29.43800 34.92400

