158

Mg 47.68200 25.68700 28.36600
C  48.65500 27.86500 31.01900
C  46.86700 23.33200 30.76500
C  46.94700 23.73900 25.85600
C  49.26700 27.89800 26.14900
N  47.73800 25.65700 30.67700
C  48.18600 26.59500 31.49400
C  47.66900 26.34100 32.90200
C  47.14200 24.87300 32.84300
C  47.25000 24.60400 31.34400
C  47.86200 23.71300 33.63100
C  46.65900 27.39100 33.56100
C  46.91000 28.03500 34.92500
H  45.68700 28.51600 35.71900
N  47.12500 23.80700 28.26100
C  46.80400 22.98400 29.32400
C  46.36300 21.74000 28.87600
C  46.40700 21.79800 27.37200
C  46.87900 23.19200 27.08100
C  45.96200 20.58300 29.77100
C  46.19800 20.69800 26.37500
O  46.48400 20.82100 25.20600
C  45.64400 19.39400 26.82500
N  48.10400 25.82800 26.34000
C  47.53000 24.94100 25.50000
C  47.69300 25.26600 24.08300
C  48.52300 26.51300 24.05800
C  48.67400 26.76400 25.58300
C  47.92800 24.09300 23.14400
C  47.94900 27.62400 23.24500
C  48.25700 27.49400 21.75500
N  48.53700 27.65900 28.47900
C  49.19800 28.36300 27.48700
C  49.71800 29.54500 28.09100
C  49.51800 29.42100 29.43400
C  48.83500 28.23600 29.62900
C  50.57100 30.59600 27.37900
C  49.69300 30.05500 30.73100
O  50.27300 31.06900 31.07600
C  49.07100 29.04300 31.80300
C  50.10800 28.86000 32.86800
O  50.83300 27.86300 32.86400
O  49.88000 29.80200 33.83800
C  50.60800 29.45400 35.07900
H  46.46000 22.62400 31.49000
H  46.62100 23.08900 25.04200
H  49.68600 28.59900 25.42400
H  48.59700 26.37600 33.47300
H  46.06700 24.93100 33.01500
H  48.17800 22.91200 32.96300
H  47.11100 23.28200 34.29300
H  48.70300 24.09300 34.21100
H  45.71400 26.87400 33.73000
H  46.44700 28.22600 32.89400
H  47.61400 28.86700 34.90900
H  47.35600 27.26400 35.55400
H  46.53000 19.71000 29.45100
H  44.91900 20.27200 29.71300
H  46.26500 20.58900 30.81800
H  45.36700 18.88400 25.90300
H  44.73200 19.48300 27.41500
H  46.39000 18.87900 27.43100
H  46.69400 25.58400 23.78400
H  49.58100 26.35700 23.84500
H  48.13400 23.17100 23.68900
H  48.67800 24.24200 22.36800
H  46.95100 23.98700 22.67200
H  48.34100 28.61300 23.48300
H  46.87100 27.78100 23.25700
H  47.31800 27.63900 21.22200
H  48.60400 26.46400 21.67500
H  48.98500 28.24300 21.44400
H  51.40000 29.89100 27.31700
H  50.76100 31.46000 28.01600
H  50.23900 30.76600 26.35500
H  48.23400 29.47600 32.35000
H  50.07600 28.57700 35.44700
H  50.81500 30.38200 35.61200
H  51.59200 29.14300 34.72700
Mg 49.10300 35.32200 27.06600
C  46.98300 33.93200 29.51700
C  49.30300 38.06400 29.05000
C  50.86700 36.67000 24.70100
C  48.37700 32.57900 25.04800
N  48.12100 35.92600 29.09000
C  47.50800 35.13600 29.98900
C  47.55400 35.69700 31.41300
C  47.95300 37.16600 31.06100
C  48.58300 37.01200 29.64200
C  46.68800 38.15700 30.97500
C  48.56500 34.93000 32.35800
C  48.12700 34.86400 33.84400
H  49.04100 35.79800 34.75100
N  49.92600 37.21600 26.88300
C  49.96100 38.17600 27.83800
C  50.76600 39.32700 27.35400
C  51.19300 38.91500 26.05600
C  50.70000 37.53100 25.84700
C  50.90600 40.61000 28.12900
C  52.15300 39.63900 25.12700
O  52.48900 39.12800 24.07400
C  52.72700 40.95500 25.45400
N  49.50000 34.72000 25.07200
C  50.35700 35.48400 24.35500
C  50.46100 34.88400 22.95100
C  49.88800 33.41400 23.07500
C  49.17300 33.59400 24.41000
C  49.79600 35.76300 21.86000
C  50.89000 32.26500 23.12300
C  50.50200 31.03700 22.33600
N  47.86100 33.59000 27.18500
C  47.63200 32.63900 26.27800
C  46.79500 31.61200 26.84700
C  46.45700 32.17400 28.05000
C  47.15700 33.34400 28.24200
C  46.54400 30.21800 26.25500
C  45.71700 31.96300 29.16700
O  44.96700 31.05900 29.43800
C  45.96300 33.07000 30.13600
C  46.28700 32.59200 31.55900
O  47.29200 31.95500 31.87600
O  45.15600 32.97600 32.36600
C  45.25000 32.43300 33.76900
H  49.38800 38.87100 29.78000
H  51.43700 37.15300 23.90400
H  48.13000 31.71200 24.43100
H  46.49600 35.67400 31.67300
H  48.63400 37.49100 31.84800
H  45.73400 37.71900 31.26900
H  46.50200 38.55400 29.97700
H  46.87800 39.00100 31.63700
H  49.57900 35.32700 32.30600
H  48.67400 33.92800 31.94300
H  48.18200 33.85100 34.24300
H  47.10000 35.21600 33.94600
H  50.59000 40.61700 29.17200
H  50.19100 41.37800 27.83600
H  51.98300 40.77100 28.15200
H  52.02500 41.77300 25.61700
H  53.32000 41.24900 24.58800
H  53.45800 40.87300 26.25800
H  51.54100 34.90600 22.80000
H  49.08000 33.24100 22.36500
H  50.55800 36.43800 21.47200
H  48.93200 36.28400 22.27300
H  49.53000 35.03900 21.09000
H  51.08900 31.90800 24.13300
H  51.84900 32.67200 22.80000
H  51.39600 30.46700 22.08400
H  50.11300 31.13800 21.32300
H  49.80400 30.37000 22.84300
H  47.20700 30.02400 25.41200
H  45.54500 30.15000 25.82400
H  46.85400 29.55700 27.06400
H  45.06200 33.67600 30.22100
H  44.25100 32.21500 34.14700
H  45.49500 33.27400 34.41800
H  45.95700 31.63900 34.00700

