158

Mg -10.65700 39.08800 42.23600
C  -10.04500 35.90500 41.35800
C  -7.76800 40.09200 40.66600
C  -11.82300 42.31500 42.46900
C  -13.99100 38.06100 43.31900
N  -9.22100 38.12700 40.89600
C  -9.17900 36.79300 40.67400
C  -7.86500 36.44000 39.99600
C  -7.01100 37.74300 40.05500
C  -8.05900 38.71200 40.53600
C  -5.86400 37.69200 41.10300
C  -8.12000 35.90700 38.51200
C  -7.16000 34.74800 38.06300
H  -6.16600 35.22700 37.07300
N  -9.93900 40.95900 41.71500
C  -8.72800 41.19800 41.14800
C  -8.46900 42.60900 40.96000
C  -9.61900 43.29400 41.38500
C  -10.53300 42.20400 41.84700
C  -7.13700 43.20000 40.43200
C  -9.76300 44.87100 41.46000
O  -8.81500 45.60100 41.15500
C  -11.12100 45.47900 41.88800
N  -12.62300 40.06200 42.88000
C  -12.73400 41.37900 42.96300
C  -14.12600 41.78600 43.34900
C  -14.78800 40.47800 43.75400
C  -13.75600 39.44700 43.30500
C  -14.34200 43.02200 44.29800
C  -16.17400 40.18300 43.13200
C  -17.21100 39.70100 44.13200
N  -11.74900 37.40100 42.49800
C  -13.01900 37.09300 42.98000
C  -13.23100 35.69300 42.98500
C  -12.13300 35.14600 42.44100
C  -11.26600 36.22600 42.07600
C  -14.47800 34.90300 43.39000
C  -11.41100 33.92600 42.07800
O  -11.75100 32.75700 42.23900
C  -10.05400 34.35900 41.26500
C  -8.86200 33.86800 42.07200
O  -8.71000 33.87200 43.29200
O  -8.05300 33.24300 41.17400
C  -6.79500 32.66500 41.62100
H  -6.77400 40.39100 40.32600
H  -12.21600 43.33100 42.55000
H  -14.98200 37.72500 43.63300
H  -7.57700 35.52700 40.51800
H  -6.68900 38.04000 39.05700
H  -5.69500 36.64900 41.37000
H  -6.06200 38.28100 41.99800
H  -4.90700 38.09100 40.76600
H  -8.16900 36.70000 37.76600
H  -9.14000 35.52700 38.45000
H  -7.63500 33.82600 37.72900
H  -6.64100 34.32200 38.92200
H  -6.64600 43.94700 41.05500
H  -7.45700 43.73500 39.53800
H  -6.40700 42.47700 40.06900
H  -11.25100 45.21700 42.93800
H  -11.87900 45.01500 41.25800
H  -11.12000 46.53600 41.62000
H  -14.54800 42.16700 42.42000
H  -14.90200 40.52900 44.83700
H  -14.78400 42.76300 45.26000
H  -14.88000 43.77600 43.72200
H  -13.36300 43.41100 44.57600
H  -16.16400 39.41600 42.35800
H  -16.52600 41.09800 42.65600
H  -17.90300 39.01400 43.64600
H  -17.75300 40.60300 44.41600
H  -16.75400 39.19500 44.98300
H  -15.07100 34.82900 42.47800
H  -15.13300 35.37600 44.12200
H  -14.20100 33.96800 43.87700
H  -10.05700 34.05900 40.21700
H  -5.96100 33.35400 41.75200
H  -6.40100 31.98300 40.86700
H  -6.96700 32.08100 42.52500
Mg -1.62200 34.81200 26.86200
C  -3.31900 32.92900 29.38700
C  -0.78000 36.99100 29.32000
C  -0.60400 36.81900 24.40100
C  -3.16300 32.72000 24.43600
N  -2.05100 34.96200 29.12100
C  -2.65500 34.03600 29.91700
C  -2.51400 34.37200 31.35500
C  -1.92000 35.82100 31.31300
C  -1.56900 35.99700 29.83700
C  -2.83000 36.92000 31.96500
C  -1.55700 33.32700 32.06200
C  -2.06400 32.40500 33.19600
H  -1.04600 32.35000 34.42200
N  -0.69400 36.54700 26.87000
C  -0.39100 37.28600 27.97200
C  0.39900 38.47900 27.53300
C  0.32400 38.47400 26.11800
C  -0.31700 37.27900 25.74600
C  1.18600 39.39700 28.46200
C  1.07800 39.40100 25.14600
O  0.96800 39.32400 23.90900
C  1.92700 40.50400 25.56600
N  -1.92900 34.83000 24.71700
C  -1.25800 35.66900 23.92800
C  -1.43400 35.30100 22.43500
C  -2.04400 33.91500 22.47400
C  -2.44700 33.80600 23.94500
C  -2.30800 36.34500 21.66900
C  -1.05400 32.76400 22.07000
C  0.13800 32.51600 23.01800
N  -2.86000 33.05300 26.85900
C  -3.46600 32.38400 25.78800
C  -4.23800 31.23200 26.32200
C  -4.21600 31.44800 27.71700
C  -3.41000 32.57000 28.00400
C  -5.04800 30.37700 25.51400
C  -4.68300 30.95300 28.98500
O  -5.38800 29.92200 29.15800
C  -4.03400 31.75600 30.08900
C  -5.05400 32.11900 31.11400
O  -5.96500 32.88100 30.91000
O  -5.00700 31.23700 32.15000
C  -6.13300 31.35100 33.08700
H  -0.38400 37.62800 30.11400
H  -0.26000 37.32300 23.49500
H  -3.51200 32.03900 23.65800
H  -3.50300 34.43300 31.80900
H  -1.02300 35.91800 31.92400
H  -2.28500 37.36000 32.80000
H  -3.82700 36.63300 32.29700
H  -2.96700 37.60200 31.12500
H  -0.65400 33.81400 32.42900
H  -0.90800 32.84800 31.32900
H  -2.25900 31.38700 32.86100
H  -2.98600 32.91800 33.47000
H  2.23400 39.47400 28.17000
H  1.13400 38.90800 29.43500
H  0.81300 40.40800 28.62200
H  2.21800 41.04200 24.66400
H  2.90900 40.13400 25.86100
H  1.52100 41.20500 26.29600
H  -0.40500 35.30400 22.07700
H  -2.93500 33.75900 21.86600
H  -3.18700 35.85400 21.25200
H  -1.63900 36.71500 20.89300
H  -2.50900 37.22200 22.28600
H  -0.59600 33.00100 21.11000
H  -1.67700 31.88000 21.93300
H  1.03400 32.65200 22.41200
H  0.21800 31.46300 23.28800
H  0.11800 33.14400 23.90900
H  -4.93900 29.44200 26.06400
H  -4.52600 30.02500 24.62400
H  -6.11300 30.57600 25.39600
H  -3.37400 31.13400 30.69400
H  -5.90100 32.09900 33.84500
H  -6.26300 30.38500 33.57500
H  -7.06500 31.66900 32.62000

