158

Mg 8.56500 5.01600 27.58700
C  9.86500 3.29900 30.35300
C  6.60500 6.91200 29.59900
C  7.49400 6.63400 24.85100
C  10.09600 2.59400 25.49400
N  8.06400 4.91500 29.75500
C  8.84900 4.23900 30.65800
C  8.41000 4.67700 32.04300
C  7.45700 5.89600 31.80800
C  7.38700 5.95200 30.27100
C  5.96300 5.81100 32.43600
C  9.42700 4.89600 33.12900
C  8.82700 4.80200 34.52800
H  9.76200 5.00600 35.76900
N  7.28600 6.61500 27.29400
C  6.47200 7.12000 28.22700
C  5.48400 8.16700 27.55400
C  5.96200 8.24200 26.16800
C  6.99800 7.19300 26.06200
C  4.34200 8.98800 28.35900
C  5.52900 9.12600 25.05300
O  6.00900 9.06600 23.91900
C  4.46300 10.12000 25.32400
N  8.81500 4.73500 25.46300
C  8.31200 5.58000 24.57100
C  8.65100 5.16300 23.14300
C  9.48100 3.85700 23.24600
C  9.49400 3.68700 24.79600
C  7.39000 4.98100 22.19200
C  10.98000 3.86200 22.68100
C  11.28400 2.68300 21.75100
N  9.81600 3.29300 27.79600
C  10.29400 2.36700 26.89800
C  11.03100 1.30000 27.58300
C  10.97400 1.68400 28.91700
C  10.19900 2.89000 29.00800
C  11.56400 0.07600 26.95300
C  11.38500 1.38300 30.33200
O  12.13700 0.50800 30.71400
C  10.72900 2.46000 31.24600
C  9.93700 1.53500 32.16000
O  8.82800 1.03100 32.00100
O  10.51800 1.65400 33.38100
C  9.98500 0.85500 34.49000
H  6.06700 7.59600 30.25900
H  7.00800 7.10300 23.99200
H  10.59600 1.88800 24.82800
H  7.83400 3.78800 32.29900
H  7.98000 6.74300 32.25300
H  6.01800 4.99200 33.15300
H  5.27500 5.68800 31.60000
H  5.75900 6.70700 33.02300
H  10.06300 5.75500 32.91700
H  10.10900 4.04600 33.15800
H  8.65100 3.74100 34.70600
H  7.91200 5.38800 34.60800
H  3.38700 9.16500 27.86300
H  4.60200 10.03000 28.55100
H  4.17000 8.67200 29.38800
H  4.76200 10.64300 26.23300
H  3.47800 9.66000 25.40200
H  4.50700 10.87800 24.54200
H  9.24400 5.98300 22.73700
H  8.86200 3.00100 22.97600
H  7.49000 4.13000 21.51800
H  7.40100 5.84600 21.53000
H  6.39800 4.95500 22.64400
H  11.68300 3.91200 23.51300
H  11.19300 4.72100 22.04500
H  11.42400 2.93100 20.69900
H  10.47300 1.95600 21.79000
H  12.15000 2.12900 22.11200
H  11.93800 -0.49600 27.80200
H  12.27800 0.55800 26.28500
H  10.79600 -0.35800 26.31200
H  11.55400 2.84100 31.84800
H  9.53200 1.46800 35.26900
H  10.90200 0.45600 34.92400
H  9.33000 0.03600 34.19200
Mg 48.31600 34.82100 26.28800
C  46.21100 33.36000 28.85400
C  48.59500 37.52000 28.31200
C  49.47800 36.40500 23.72300
C  47.40700 32.02100 24.34600
N  47.47700 35.26900 28.36100
C  46.83600 34.52000 29.23700
C  46.90900 35.02200 30.70600
C  47.33600 36.51700 30.39900
C  47.90400 36.39700 28.95400
C  46.34100 37.73300 30.61300
C  48.05100 34.24700 31.47200
C  47.80300 33.99200 32.99000
H  46.89000 34.89500 33.70000
N  49.14800 36.66000 26.13400
C  49.16400 37.63500 27.03400
C  49.93100 38.75800 26.49300
C  50.24200 38.45600 25.18100
C  49.59900 37.17300 24.97000
C  50.26200 39.92800 27.36200
C  51.02100 39.29600 24.14800
O  51.04100 39.04900 22.95400
C  51.74100 40.57400 24.56100
N  48.21800 34.41500 24.15100
C  48.85400 35.21100 23.32600
C  49.39000 34.34200 22.13500
C  48.87800 32.85500 22.46000
C  48.13700 33.10300 23.74800
C  49.02000 34.89500 20.75600
C  49.98200 31.82000 22.61900
C  50.04500 30.60700 21.60600
N  47.15700 32.96500 26.50500
C  46.81500 32.02600 25.67200
C  46.00900 31.01000 26.25800
C  45.75000 31.51400 27.48000
C  46.37800 32.78400 27.59800
C  45.52400 29.70500 25.72200
C  45.11200 31.22700 28.73200
O  44.60400 30.18800 29.13500
C  45.29300 32.42400 29.62600
C  45.74500 31.84200 30.94800
O  46.80300 31.20400 31.15200
O  44.73300 32.06500 31.82700
C  44.81200 31.46300 33.18600
H  48.91300 38.30900 28.99600
H  50.07400 36.91500 22.96300
H  47.31300 31.12100 23.73400
H  46.05200 34.89500 31.36700
H  48.18900 36.85100 30.99000
H  46.81500 38.65900 30.94000
H  45.57600 37.57400 31.37400
H  45.91400 37.90900 29.62600
H  48.99900 34.78500 31.42900
H  48.23800 33.31900 30.93200
H  48.77100 34.29200 33.39100
H  47.61100 32.94800 33.23700
H  51.30000 40.20400 27.18000
H  50.15500 39.76500 28.43400
H  49.52300 40.68900 27.11300
H  52.39700 41.06200 23.84000
H  52.40700 40.19000 25.33400
H  51.06500 41.37100 24.87200
H  50.47800 34.36600 22.19100
H  48.28200 32.46000 21.63800
H  48.77800 35.94900 20.89300
H  48.11400 34.50400 20.29400
H  49.82000 34.82200 20.02000
H  49.99200 31.50500 23.66300
H  50.94300 32.32900 22.55200
H  50.95200 30.71300 21.01100
H  49.20900 30.59000 20.90600
H  50.04800 29.72300 22.24300
H  46.01700 29.53900 24.76400
H  44.46400 29.63700 25.47500
H  45.63200 28.95700 26.50700
H  44.29800 32.84900 29.76000
H  45.76200 30.97900 33.41000
H  43.94800 30.82400 33.37000
H  44.65000 32.25000 33.92300

