158

Mg 40.19400 9.61700 29.55200
C  42.33000 11.23400 31.95000
C  38.17700 8.75000 31.95800
C  38.35600 8.35200 27.08000
C  42.64900 10.38000 27.11200
N  40.43100 9.77300 31.86700
C  41.21700 10.57700 32.55300
C  40.69000 10.81900 33.98900
C  39.51400 9.74000 34.06600
C  39.29900 9.30700 32.55500
C  39.72000 8.50500 35.02200
C  40.22600 12.26100 34.28000
C  39.60700 12.47000 35.64100
H  40.38200 13.32900 36.75200
N  38.50700 8.58000 29.53300
C  37.76400 8.35000 30.67500
C  36.58200 7.62400 30.29500
C  36.68600 7.39700 28.86500
C  37.84300 8.21300 28.42200
C  35.51600 7.22000 31.24800
C  35.83000 6.58800 27.94600
O  35.92400 6.64000 26.73600
C  34.69100 5.80100 28.61400
N  40.54700 9.27400 27.36700
C  39.55900 8.78900 26.55200
C  39.85300 8.98300 25.05600
C  41.33500 9.37800 25.13100
C  41.57400 9.71900 26.60700
C  39.40100 7.76500 24.05200
C  41.72500 10.52300 24.17500
C  41.33400 11.88600 24.63600
N  42.11000 10.53700 29.46600
C  42.93700 10.75900 28.40300
C  44.17300 11.47900 28.91200
C  43.88800 11.68200 30.27900
C  42.62400 11.14000 30.54600
C  45.36700 11.97700 28.15200
C  44.45800 12.29500 31.44400
O  45.53400 12.88600 31.44100
C  43.46700 12.02100 32.63100
C  44.18100 11.32000 33.74800
O  44.78400 10.22000 33.65300
O  43.98700 12.02700 34.92900
C  44.56500 11.31600 36.11700
H  37.36300 8.77800 32.68500
H  37.67900 8.01500 26.29200
H  43.47700 10.50700 26.41200
H  41.52200 10.54000 34.63500
H  38.56800 10.16000 34.40500
H  39.63100 7.59200 34.43300
H  38.93000 8.68300 35.75200
H  40.71600 8.49300 35.46400
H  39.67600 12.63400 33.41700
H  41.15200 12.83100 34.36400
H  39.56200 11.44400 36.00600
H  38.59500 12.84500 35.49100
H  34.56700 7.63300 30.90500
H  35.83500 7.45700 32.26300
H  35.27900 6.15900 31.33600
H  35.08900 5.12300 29.36900
H  34.29300 5.26500 27.75300
H  33.97600 6.46800 29.09400
H  39.27300 9.88200 24.84700
H  41.96200 8.52100 24.88700
H  39.00700 6.87500 24.54200
H  40.24900 7.56000 23.39900
H  38.57600 8.09500 23.42100
H  41.22600 10.38900 23.21500
H  42.79700 10.62700 24.00700
H  40.55400 11.83500 25.39700
H  41.03500 12.49100 23.78000
H  42.26200 12.25200 25.07500
H  45.28700 11.55800 27.14900
H  46.22700 11.45500 28.57100
H  45.52200 13.05600 28.10900
H  43.04900 12.97300 32.95700
H  45.63900 11.45700 36.23700
H  44.42000 10.24100 36.00800
H  44.15400 11.72600 37.03900
Mg 28.16900 58.39200 42.14300
C  25.87000 56.20500 40.71800
C  30.69100 56.90600 40.43500
C  30.06200 60.79800 43.27600
C  25.33100 60.14300 43.43400
N  28.23900 56.83300 40.74300
C  27.18400 56.07900 40.25100
C  27.64500 55.19800 39.14500
C  29.19400 55.06500 39.49200
C  29.37600 56.39400 40.20900
C  29.65800 53.73700 40.17100
C  27.29000 55.79900 37.74800
C  27.05000 54.74000 36.63700
H  26.52400 55.29600 35.31700
N  30.21100 58.72600 41.98600
C  31.09300 57.98000 41.26700
C  32.37100 58.59900 41.41400
C  32.24400 59.73300 42.28200
C  30.81900 59.75500 42.56700
C  33.46200 58.19500 40.55400
C  33.29300 60.79300 42.71400
O  34.41400 60.62800 42.24100
C  33.10300 61.95400 43.59000
N  27.71800 60.23100 43.07500
C  28.68200 61.02500 43.49500
C  28.11800 62.26900 44.25800
C  26.59200 62.13000 44.10400
C  26.54600 60.73800 43.49600
C  28.62700 62.26000 45.72300
C  25.97800 63.27500 43.20400
C  26.02600 64.73100 43.84000
N  26.02600 58.24600 42.24900
C  25.04800 58.96200 42.87500
C  23.72600 58.38500 42.60000
C  23.97000 57.33100 41.69300
C  25.36000 57.25100 41.58500
C  22.38600 58.96200 42.96600
C  23.37200 56.23600 40.88500
O  22.18300 55.94400 40.67400
C  24.59100 55.39100 40.34400
C  24.63300 53.93600 40.82300
O  25.29900 53.49100 41.74000
O  23.80000 53.17800 40.03100
C  23.90400 51.70500 40.08800
H  31.37000 56.31400 39.81800
H  30.69200 61.62000 43.62300
H  24.50300 60.76700 43.77800
H  27.06300 54.27900 39.20700
H  29.70000 55.11500 38.52800
H  30.36800 53.30300 39.46700
H  28.83100 53.07000 40.41300
H  30.18200 53.89000 41.11400
H  28.04500 56.49900 37.38900
H  26.34700 56.33400 37.86200
H  26.31000 54.08400 37.09500
H  27.91300 54.08100 36.54000
H  33.29000 57.21100 40.11800
H  34.45900 58.13100 40.98900
H  33.53300 58.93600 39.75800
H  32.54300 62.76500 43.12300
H  34.08100 62.26900 43.95400
H  32.66300 61.57000 44.51000
H  28.45400 63.12500 43.67300
H  26.07600 62.25500 45.05700
H  29.70500 62.13600 45.62700
H  28.23700 61.38900 46.25000
H  28.46900 63.19600 46.25800
H  24.95200 62.95800 43.01300
H  26.54300 63.24700 42.27200
H  25.03700 65.17800 43.94300
H  26.58300 65.30400 43.09800
H  26.51600 64.80300 44.81100
H  22.29300 60.02700 42.75000
H  22.31000 58.91400 44.05200
H  21.48700 58.40300 42.70500
H  24.53600 55.28300 39.26100
H  22.89400 51.54100 39.71100
H  24.03200 51.24000 41.06600
H  24.56000 51.26400 39.33700

