158

Mg 42.09100 41.77100 26.53400
C  41.01100 44.03100 28.95400
C  43.26800 39.73000 28.96400
C  43.19400 39.74200 24.07800
C  41.37700 44.23900 24.11400
N  42.12500 41.95200 28.65700
C  41.54100 42.86800 29.45000
C  41.58600 42.50800 30.92200
C  42.31200 41.12500 30.86500
C  42.66300 40.92800 29.42100
C  43.57900 40.93800 31.78300
C  40.18400 42.42400 31.71200
C  40.24600 42.98800 33.21000
H  39.39700 42.29400 34.33600
N  43.13800 39.96400 26.55100
C  43.50300 39.21400 27.66200
C  44.00800 37.97500 27.20600
C  44.03800 37.97500 25.77300
C  43.50400 39.24400 25.35800
C  44.45600 36.97800 28.14800
C  44.54100 37.00500 24.67700
O  44.90100 37.23300 23.49200
C  44.92500 35.62400 25.21600
N  42.28300 42.01900 24.41000
C  42.63100 40.95400 23.66700
C  42.25100 41.20300 22.20300
C  41.92700 42.76300 22.12500
C  41.84300 43.05200 23.67200
C  43.22700 40.67700 21.13300
C  40.67300 43.09300 21.26800
C  40.45400 44.44000 20.66100
N  41.34000 43.67400 26.48100
C  41.20500 44.59400 25.44900
C  40.73600 45.88200 25.96400
C  40.53400 45.62500 27.32600
C  40.95100 44.32000 27.59400
C  40.53800 47.06500 25.14400
C  40.05500 46.16500 28.51500
O  39.52800 47.25800 28.75200
C  40.27300 45.14600 29.63500
C  41.24900 45.82100 30.57400
O  42.42400 46.03500 30.39000
O  40.66500 45.83100 31.83400
C  41.49200 46.33100 32.90000
H  43.29100 38.96400 29.74100
H  43.52800 38.94500 23.41000
H  41.08000 45.00600 23.39600
H  42.23800 43.25700 31.37200
H  41.68500 40.29100 31.18000
H  43.44700 41.46400 32.72800
H  44.41200 41.49800 31.35900
H  43.90900 39.91300 31.95300
H  39.93100 41.36300 31.71300
H  39.42700 43.05900 31.25300
H  39.91300 44.02500 33.22400
H  41.28000 42.94400 33.55400
H  44.49600 37.33900 29.17500
H  45.41500 36.55100 27.85300
H  43.70700 36.18700 28.19000
H  44.84400 34.93100 24.37900
H  44.13900 35.36200 25.92400
H  45.84700 35.60700 25.79700
H  41.27700 40.71300 22.18600
H  42.84000 43.22700 21.75200
H  44.19800 40.34600 21.50100
H  43.49400 41.49300 20.46100
H  42.88300 39.81900 20.55600
H  39.77200 42.96100 21.86800
H  40.51200 42.28700 20.55300
H  40.72200 44.23900 19.62400
H  41.05700 45.19900 21.15800
H  39.41100 44.74500 20.75500
H  39.49000 47.36200 25.16300
H  40.79400 46.91900 24.09400
H  40.91100 47.96600 25.63100
H  39.32200 44.96300 30.13400
H  41.82400 45.39600 33.35000
H  40.90800 46.90700 33.61800
H  42.27100 47.04800 32.64100
Mg 26.85100 50.73500 26.00400
C  24.68700 51.81900 28.61700
C  28.94500 49.46300 28.36100
C  28.85400 49.71400 23.52100
C  24.36300 51.67600 23.80000
N  26.70700 50.61900 28.18200
C  25.79200 51.13400 29.06900
C  26.17800 50.84100 30.51400
C  27.52600 50.05300 30.37400
C  27.75700 50.05100 28.86500
C  28.70400 50.49100 31.30300
C  25.07600 50.00000 31.34000
C  25.56300 49.18400 32.62600
H  25.48100 49.88400 33.95800
N  28.65600 49.83200 25.94600
C  29.33800 49.29800 27.03100
C  30.56800 48.64300 26.56000
C  30.61800 48.82800 25.12600
C  29.38500 49.52800 24.83100
C  31.62900 48.02900 27.48500
C  31.70800 48.50300 24.15700
O  31.70400 48.92600 22.98600
C  32.87100 47.58300 24.61300
N  26.75000 50.93900 24.01300
C  27.64100 50.34700 23.15700
C  27.17500 50.37600 21.65600
C  25.73600 50.82600 21.79700
C  25.61100 51.19600 23.30600
C  28.01300 51.36900 20.80000
C  24.71300 49.71800 21.41200
C  23.34200 50.09600 20.85800
N  24.99300 51.72200 26.16400
C  24.07200 52.03700 25.15500
C  22.89200 52.67000 25.67700
C  23.10100 52.56200 27.08500
C  24.36100 52.01800 27.30100
C  21.73900 53.25100 24.93500
C  22.48800 52.86200 28.40700
O  21.39600 53.38400 28.68800
C  23.48000 52.40400 29.49900
C  23.75100 53.63000 30.33000
O  24.41100 54.59500 29.93500
O  23.33700 53.37800 31.63300
C  23.69400 54.38200 32.62300
H  29.41500 48.92900 29.18900
H  29.44600 49.42900 22.64800
H  23.61700 52.03700 23.08800
H  26.20200 51.78100 31.06500
H  27.50900 48.97900 30.56100
H  28.30100 51.17300 32.05200
H  29.55900 50.88600 30.75500
H  29.11600 49.64200 31.84900
H  24.69900 49.36900 30.53500
H  24.15400 50.50800 31.62300
H  26.60000 48.84600 32.61700
H  24.93800 48.32800 32.87800
H  31.72400 46.95900 27.29800
H  31.48500 48.18800 28.55400
H  32.52900 48.62700 27.34400
H  32.38800 46.67600 24.97600
H  33.28400 48.08100 25.49000
H  33.62800 47.49400 23.83500
H  27.19400 49.43200 21.11000
H  25.49600 51.72700 21.23300
H  28.96000 51.43500 21.33600
H  27.49200 52.32300 20.71200
H  28.23500 50.92400 19.83000
H  24.47400 49.22200 22.35300
H  25.22000 48.91100 20.88200
H  23.05300 49.59300 19.93500
H  23.34900 51.15500 20.60000
H  22.73600 49.85600 21.73200
H  21.25500 52.41700 24.42800
H  22.18300 54.01400 24.29500
H  21.06400 53.62200 25.70600
H  23.06800 51.55100 30.03700
H  23.25900 55.35300 32.38700
H  24.76300 54.56800 32.52000
H  23.42000 54.11000 33.64200

