158

Mg 0.18900 7.35300 26.02500
C  1.32600 9.21400 28.90200
C  0.49600 4.48300 28.03800
C  -0.44400 5.51500 23.46600
C  0.64000 10.25000 24.10100
N  0.74900 6.92500 28.17600
C  1.02000 7.85300 29.11600
C  1.16400 7.21300 30.49900
C  1.35700 5.70900 30.12700
C  0.69500 5.68800 28.69800
C  2.83800 5.30300 30.32500
C  -0.05100 7.61200 31.43700
C  0.16700 7.77900 32.94100
H  1.41000 7.07800 33.48300
N  0.00300 5.28000 25.80800
C  0.27000 4.22700 26.67300
C  0.14500 2.94600 25.99800
C  -0.18000 3.27800 24.62900
C  -0.25000 4.73600 24.61800
C  0.15100 1.59700 26.85700
C  -0.50300 2.34700 23.44500
O  -1.01200 2.69800 22.35700
C  -0.41800 0.89400 23.66300
N  0.01900 7.87300 24.03000
C  -0.33800 6.90300 23.15400
C  -0.53900 7.50000 21.75800
C  -0.20300 9.02000 21.90800
C  0.23300 9.07300 23.42200
C  0.14300 6.93800 20.51400
C  -1.26500 10.02400 21.45000
C  -0.91000 10.85900 20.21200
N  0.68000 9.39500 26.39800
C  0.74200 10.42400 25.49500
C  1.19700 11.65000 26.17300
C  1.50800 11.23400 27.48100
C  1.12000 9.86700 27.59900
C  1.30700 13.07800 25.63000
C  1.99800 11.63800 28.75200
O  2.50900 12.68700 29.07300
C  1.78600 10.42600 29.73600
C  2.91600 10.29700 30.73200
O  3.91900 9.59900 30.57900
O  2.73800 11.15600 31.81000
C  3.85300 11.17000 32.77900
H  0.80000 3.65600 28.68200
H  -0.64800 4.92800 22.56800
H  0.70900 11.15300 23.49000
H  2.11100 7.50200 30.95400
H  0.65000 5.21000 30.79000
H  3.43400 6.20500 30.46200
H  3.21900 4.67400 29.52100
H  2.92200 4.74500 31.25800
H  -0.80700 6.83300 31.34700
H  -0.53900 8.56100 31.21700
H  -0.70100 7.43500 33.50300
H  0.40900 8.83200 33.09000
H  0.69800 1.68400 27.79600
H  0.35200 0.82100 26.11700
H  -0.84100 1.23700 27.12700
H  -1.10300 0.58400 24.45200
H  0.63900 0.74400 23.88300
H  -0.74600 0.35100 22.77600
H  -1.62000 7.35500 21.76200
H  0.78800 9.16800 21.47800
H  0.55000 7.63800 19.78400
H  -0.72000 6.43800 20.07300
H  1.06300 6.38000 20.68600
H  -1.34600 10.67000 22.32500
H  -2.17900 9.52700 21.12500
H  0.08700 10.59500 19.86000
H  -1.11900 11.91600 20.38100
H  -1.56900 10.40900 19.47000
H  1.45200 13.11900 24.55000
H  2.09900 13.67900 26.07600
H  0.37300 13.52300 25.97200
H  0.98900 10.80700 30.37500
H  3.99300 12.23700 32.95500
H  4.75700 10.60800 32.54500
H  3.34800 10.85100 33.69100
Mg 24.06700 -7.16600 45.85200
C  26.35700 -4.87700 44.52600
C  21.81600 -5.99600 43.57700
C  22.32300 -9.81000 46.54900
C  26.86000 -8.65500 47.65400
N  24.19000 -5.78700 44.04300
C  25.23600 -4.94000 43.76000
C  24.98200 -4.15200 42.48500
C  23.41000 -4.24800 42.35300
C  23.09900 -5.42400 43.34100
C  22.58900 -2.93500 42.70300
C  25.79400 -4.77400 41.24200
C  26.44800 -3.62300 40.27900
H  25.85300 -3.36900 38.93800
N  22.23300 -7.76300 45.22000
C  21.43300 -7.13100 44.33200
C  20.15000 -7.77800 44.19200
C  20.21300 -8.92600 45.10100
C  21.60600 -8.93600 45.65300
C  18.95500 -7.43000 43.29000
C  19.09000 -9.86400 45.45100
O  17.97700 -9.72600 44.99000
C  19.24800 -10.93200 46.49500
N  24.61900 -9.06200 46.76600
C  23.60600 -9.87400 47.09900
C  24.03400 -10.99500 48.06300
C  25.44000 -10.57600 48.46400
C  25.65400 -9.34600 47.57500
C  23.02700 -11.30900 49.22300
C  26.48500 -11.68900 48.51500
C  27.63700 -11.64300 49.53100
N  26.16400 -6.76700 46.27600
C  27.19700 -7.48400 46.93300
C  28.40000 -6.64300 47.00400
C  28.11400 -5.68800 45.99300
C  26.74700 -5.75000 45.61100
C  29.65700 -7.01000 47.86500
C  28.74100 -4.58300 45.25000
O  29.83900 -4.03600 45.36900
C  27.62200 -4.05100 44.31200
C  27.35200 -2.60800 44.59600
O  27.24700 -1.99400 45.65300
O  27.31900 -1.90800 43.43100
C  27.04900 -0.47300 43.40700
H  21.04100 -5.65000 42.89000
H  21.73900 -10.70300 46.78000
H  27.65900 -9.07100 48.27100
H  25.21500 -3.09200 42.58900
H  23.19500 -4.57700 41.33600
H  23.26100 -2.09600 42.88500
H  21.98900 -3.02600 43.60800
H  21.95400 -2.66100 41.86100
H  25.09200 -5.34200 40.63100
H  26.57700 -5.43000 41.62000
H  27.51300 -3.84200 40.20200
H  26.33000 -2.65900 40.77400
H  18.64800 -8.35500 42.80300
H  19.27900 -6.73700 42.51400
H  18.05500 -6.98600 43.71500
H  19.46100 -10.40100 47.42200
H  20.03000 -11.64100 46.22300
H  18.37700 -11.57800 46.60900
H  24.06900 -11.90900 47.47000
H  25.37900 -10.23000 49.49600
H  22.46300 -12.19700 48.93800
H  22.26900 -10.54400 49.39300
H  23.42200 -11.62600 50.18800
H  26.86300 -11.91100 47.51700
H  26.03400 -12.63300 48.82000
H  27.75800 -12.56400 50.10000
H  27.41100 -10.83800 50.23000
H  28.50500 -11.64300 48.87200
H  29.41600 -7.19300 48.91200
H  30.30900 -6.14500 47.97500
H  30.16700 -7.90800 47.51700
H  27.87600 -3.99600 43.25300
H  26.27300 -0.22200 44.13000
H  26.75200 -0.22400 42.38800
H  27.96600 0.05500 43.66800

