158

Mg -12.13200 37.66800 41.76500
C  -9.52300 35.25400 41.24300
C  -10.07600 40.04300 40.51600
C  -14.82200 39.78200 41.15400
C  -14.24000 35.10400 42.60200
N  -10.11600 37.55700 40.80000
C  -9.18100 36.57700 40.76200
C  -7.84200 37.08400 40.16900
C  -7.97400 38.61500 40.18300
C  -9.43000 38.76000 40.61000
C  -6.85300 39.38100 40.99300
C  -7.62700 36.31300 38.81400
C  -6.34800 35.42800 38.65800
H  -5.24500 35.83800 37.70000
N  -12.38200 39.75700 41.11600
C  -11.37300 40.50300 40.64500
C  -11.90100 41.75800 40.20300
C  -13.32900 41.72300 40.25300
C  -13.61600 40.42700 40.88600
C  -11.02600 42.82600 39.67900
C  -14.33900 42.82400 39.75100
O  -13.94500 43.91000 39.21700
C  -15.85700 42.60900 39.87500
N  -14.28100 37.49600 41.82200
C  -15.15100 38.50800 41.58700
C  -16.66300 37.85500 41.61600
C  -16.32800 36.42600 42.10300
C  -14.83900 36.28400 42.12400
C  -17.58500 38.81700 42.45600
C  -16.93200 35.26500 41.15300
C  -18.15900 34.57300 41.83200
N  -11.97800 35.61700 41.87800
C  -12.89100 34.71200 42.35600
C  -12.20900 33.46100 42.68400
C  -10.83300 33.72400 42.28800
C  -10.78600 34.97900 41.74100
C  -12.79800 32.27800 43.33000
C  -9.50400 33.05400 42.27000
O  -9.21700 31.88600 42.64100
C  -8.59400 34.04100 41.50200
C  -7.40800 34.39100 42.37300
O  -6.24200 34.03600 42.15600
O  -7.79600 34.98300 43.56200
C  -6.80600 34.81800 44.67400
H  -9.38300 40.74200 40.04400
H  -15.70400 40.39200 40.95100
H  -14.80000 34.22300 42.92200
H  -7.08200 36.73500 40.86900
H  -7.79500 39.12300 39.23500
H  -6.37600 40.07400 40.30100
H  -6.11300 38.69900 41.41100
H  -7.32100 39.96100 41.78900
H  -7.47500 37.15200 38.13400
H  -8.50000 35.73600 38.51000
H  -6.73300 34.46800 38.31400
H  -5.92200 35.16200 39.62500
H  -11.53800 43.08000 38.75100
H  -10.02900 42.50800 39.37300
H  -11.13700 43.71100 40.30600
H  -16.34000 43.55300 39.62100
H  -16.02800 42.36600 40.92300
H  -16.31700 41.87100 39.21800
H  -17.05800 37.86800 40.60000
H  -16.74900 36.31900 43.10300
H  -17.12500 39.73700 42.81600
H  -18.02000 38.19000 43.23500
H  -18.30000 39.10100 41.68400
H  -16.27600 34.41100 40.97800
H  -17.17600 35.69000 40.17900
H  -18.75400 35.27000 42.42200
H  -17.77100 33.75000 42.43100
H  -18.76400 34.13400 41.03900
H  -12.10700 31.76600 43.99900
H  -13.11100 31.51900 42.61300
H  -13.77600 32.49300 43.75900
H  -8.20800 33.67200 40.55200
H  -6.67500 33.76400 44.91800
H  -7.09800 35.23600 45.63800
H  -5.85400 35.26400 44.38600
Mg -4.84500 25.19800 25.56800
C  -3.34400 26.12600 28.62500
C  -6.79400 22.88500 27.56700
C  -5.72600 23.62000 22.88300
C  -2.56800 27.21900 23.88500
N  -4.92800 24.53700 27.89200
C  -4.29500 25.19100 28.87400
C  -4.87500 24.87900 30.26100
C  -5.72500 23.61500 29.84400
C  -5.88500 23.70800 28.31700
C  -5.11600 22.27900 30.27100
C  -5.75200 26.12400 30.79200
C  -5.55200 26.46500 32.32500
H  -4.69700 25.57000 33.16200
N  -6.26400 23.66300 25.21600
C  -6.95000 22.89800 26.11800
C  -7.95500 22.17000 25.44200
C  -7.60000 22.26500 24.06500
C  -6.48300 23.19000 23.95400
C  -9.06200 21.40300 26.19500
C  -8.32300 21.63400 22.87700
O  -7.98300 21.84200 21.72500
C  -9.62800 20.84900 23.10700
N  -4.14000 25.31600 23.63100
C  -4.62100 24.47900 22.67300
C  -3.96900 24.83700 21.28700
C  -3.26200 26.23000 21.50000
C  -3.34200 26.30000 23.05700
C  -2.90500 23.74500 20.81600
C  -3.98900 27.38700 20.76600
C  -3.09200 28.60300 20.54000
N  -3.22800 26.38000 26.07200
C  -2.46700 27.21300 25.28600
C  -1.61900 28.01200 26.11700
C  -1.91700 27.59100 27.40300
C  -2.92400 26.61100 27.35300
C  -0.76500 29.07600 25.63800
C  -1.63400 27.86000 28.76100
O  -0.82400 28.63200 29.33300
C  -2.49200 26.85400 29.62600
C  -1.56300 26.19100 30.52400
O  -1.03100 25.10400 30.29900
O  -1.50900 26.90600 31.73200
C  -0.54800 26.27600 32.71600
H  -7.49500 22.20000 28.05000
H  -6.13200 23.12000 22.00100
H  -1.96200 27.84800 23.23000
H  -4.19200 24.55700 31.04700
H  -6.66500 23.63900 30.39500
H  -5.86200 21.86800 30.95100
H  -4.11500 22.35600 30.69600
H  -4.97000 21.64000 29.40100
H  -6.82100 25.91400 30.74300
H  -5.67700 27.02400 30.18200
H  -6.51600 26.67500 32.79000
H  -5.09600 27.45500 32.31300
H  -9.73200 20.66800 25.74900
H  -9.72300 22.12000 26.68300
H  -8.56600 20.89700 27.02400
H  -9.29200 19.95200 23.62600
H  -9.94900 20.63500 22.08700
H  -10.30100 21.39500 23.76800
H  -4.78600 24.81200 20.56600
H  -2.24000 26.25900 21.12200
H  -1.95900 24.17400 20.48400
H  -3.39800 23.07600 20.11000
H  -2.55100 23.12100 21.63700
H  -4.93400 27.67500 21.22500
H  -4.18300 26.92800 19.79600
H  -2.95600 28.75600 19.46900
H  -2.15900 28.44300 21.08000
H  -3.58800 29.52200 20.85100
H  -0.56600 29.80500 26.42400
H  -1.23900 29.59200 24.80300
H  0.20700 28.61600 25.45800
H  -3.08900 27.55000 30.21500
H  -0.52900 25.18700 32.77000
H  -0.71300 26.64800 33.72800
H  0.47700 26.57000 32.49100

