158

Mg 6.41400 53.86600 40.86500
C  5.95400 50.47500 40.88200
C  9.54200 53.47400 39.61600
C  6.63100 57.42000 40.56700
C  3.04500 54.32500 41.76500
N  7.48100 52.06800 39.93400
C  7.18000 50.76900 40.22500
C  8.31700 49.79600 39.79000
C  9.57200 50.80600 39.75600
C  8.84800 52.22700 39.84800
C  10.71400 50.61400 40.81600
C  8.11700 49.08000 38.46400
C  7.51600 49.87200 37.30800
H  6.77600 49.08400 36.10300
N  7.83900 55.21300 40.18700
C  9.07100 54.83700 39.76200
C  9.92000 55.99400 39.58000
C  9.12900 57.12500 39.98300
C  7.79000 56.58500 40.27400
C  11.31900 55.91600 39.13400
C  9.66500 58.57000 39.99400
O  10.80000 58.80500 39.63600
C  8.90600 59.76000 40.48000
N  5.04700 55.69800 41.18800
C  5.34800 57.00400 40.94700
C  4.11800 57.92200 41.05600
C  2.99000 56.86000 41.28500
C  3.71600 55.55300 41.56600
C  4.27500 59.12600 42.11600
C  2.00600 56.83400 40.05000
C  1.27800 58.20000 39.73100
N  4.87200 52.70800 41.33100
C  3.57800 53.01100 41.74900
C  2.88700 51.80700 42.07100
C  3.85400 50.79600 41.85300
C  5.03300 51.34700 41.35700
C  1.50200 51.60900 42.69400
C  4.07600 49.36400 41.95500
O  3.38700 48.48400 42.41500
C  5.42600 49.15500 41.23300
C  5.12500 48.22000 40.09400
O  4.62200 48.63200 39.05500
O  5.30100 46.88100 40.48200
C  4.98700 46.07800 39.33200
H  10.62300 53.34400 39.53500
H  6.67400 58.47700 40.30000
H  2.01300 54.39800 42.11300
H  8.30600 49.07100 40.60400
H  10.14200 50.62800 38.84400
H  11.62000 50.33700 40.27800
H  10.30100 49.82000 41.43800
H  11.02200 51.42300 41.47900
H  7.37500 48.31700 38.69700
H  9.12000 48.79400 38.14500
H  8.27200 50.49100 36.82500
H  6.74500 50.50700 37.74400
H  11.30300 56.49300 38.21000
H  11.79300 54.97300 38.86400
H  11.97600 56.51600 39.76500
H  8.42700 59.49800 41.42400
H  8.22500 59.81800 39.63100
H  9.56800 60.61400 40.62400
H  3.97700 58.40400 40.08900
H  2.48600 57.18100 42.19600
H  5.25700 59.59700 42.07300
H  4.13900 58.71600 43.11700
H  3.64400 59.98800 41.90000
H  1.18400 56.17300 40.32100
H  2.57200 56.40300 39.22400
H  1.46200 58.43200 38.68200
H  1.53700 59.04200 40.37300
H  0.21100 58.04300 39.88200
H  0.97300 52.55600 42.78900
H  1.56500 51.15600 43.68400
H  0.92100 50.93400 42.06500
H  6.00400 48.61200 41.98000
H  5.50700 46.43100 38.44100
H  3.90700 45.94900 39.25800
H  5.50100 45.14700 39.57200
Mg -9.77500 40.15700 42.16900
C  -8.61700 36.82000 41.02000
C  -6.88300 41.43300 40.85800
C  -11.39600 43.08400 42.21500
C  -12.89000 38.41700 42.78100
N  -7.94900 39.20000 41.01800
C  -7.67600 37.85200 40.76800
C  -6.24700 37.72100 40.08700
C  -5.68900 39.17700 40.23300
C  -6.89300 40.01700 40.68300
C  -4.50400 39.31300 41.19500
C  -6.45100 37.08900 38.67200
C  -5.50000 35.90800 38.34300
H  -4.55600 36.25900 37.09300
N  -9.16100 41.99400 41.80600
C  -7.96600 42.31900 41.31200
C  -7.95400 43.77100 41.22100
C  -9.16000 44.27600 41.73000
C  -9.94600 43.12900 42.00600
C  -6.76600 44.52000 40.65200
C  -9.56300 45.75500 41.94400
O  -8.84100 46.70500 41.52800
C  -10.73600 46.12200 42.62500
N  -11.82300 40.62400 42.32800
C  -12.21500 41.90200 42.33900
C  -13.75700 42.04100 42.44300
C  -14.22800 40.53700 42.63100
C  -12.88700 39.79300 42.57200
C  -14.19900 43.05200 43.59400
C  -15.22600 40.02000 41.59200
C  -16.47200 39.24100 42.27600
N  -10.54700 38.09600 42.07900
C  -11.80700 37.64700 42.44600
C  -11.82300 36.17700 42.35300
C  -10.56100 35.86100 41.77800
C  -9.88000 37.03800 41.54400
C  -12.84400 35.25400 42.85000
C  -9.80700 34.73600 41.26400
O  -9.97900 33.47300 41.28200
C  -8.52900 35.34100 40.76600
C  -7.36800 34.67600 41.60400
O  -7.15800 34.63700 42.79900
O  -6.56200 34.06500 40.66000
C  -5.27300 33.53600 41.25300
H  -5.98800 41.99400 40.58200
H  -12.06100 43.95000 42.18900
H  -13.77800 37.81900 43.00100
H  -5.74100 36.97200 40.69700
H  -5.32400 39.33900 39.21800
H  -4.05200 38.35000 41.43200
H  -4.86600 39.82500 42.08600
H  -3.68200 39.92500 40.82300
H  -6.36700 37.90300 37.95200
H  -7.44600 36.66400 38.54200
H  -6.14300 35.10300 37.98900
H  -4.91900 35.67400 39.23500
H  -7.21100 45.37900 40.15000
H  -6.19500 43.84900 40.01100
H  -6.14000 44.81500 41.49400
H  -10.66200 47.10400 43.09300
H  -11.08900 45.40800 43.36900
H  -11.48400 46.23900 41.84100
H  -14.15400 42.51500 41.54500
H  -14.68600 40.32300 43.59600
H  -13.34200 43.44100 44.14300
H  -14.91000 42.58700 44.27800
H  -14.71200 43.89500 43.13100
H  -14.80600 39.37900 40.81700
H  -15.55700 40.84700 40.96300
H  -16.46700 39.09200 43.35500
H  -16.61400 38.20100 41.98300
H  -17.42600 39.69300 42.00500
H  -13.44400 35.84900 43.53700
H  -12.37200 34.43100 43.38700
H  -13.51400 34.83800 42.09800
H  -8.52600 35.02700 39.72200
H  -4.75300 32.97700 40.47500
H  -5.55300 32.80000 42.00600
H  -4.62000 34.26900 41.72700

