158

Mg 43.97500 4.40100 46.58900
C  41.80700 7.09700 46.39300
C  41.11400 2.35200 46.37500
C  46.01700 1.70300 46.05500
C  46.66400 6.57200 45.97500
N  41.81400 4.70200 46.39900
C  41.11600 5.90000 46.26600
C  39.60500 5.76100 46.00500
C  39.41100 4.22300 46.33200
C  40.86900 3.73200 46.36000
C  38.89800 3.83600 47.71500
C  39.15500 6.11400 44.58200
C  40.03500 5.68900 43.40400
H  40.23700 6.68400 42.23700
N  43.61600 2.35900 46.28700
C  42.38300 1.73400 46.24100
C  42.54600 0.32000 46.12100
C  43.97600 0.07300 45.82600
C  44.64600 1.37700 46.12200
C  41.43300 -0.68300 46.14000
C  44.57500 -1.23800 45.36200
O  43.84400 -2.17800 45.03000
C  46.09200 -1.34500 45.16700
N  45.99200 4.21100 46.07900
C  46.62600 2.97700 46.17000
C  48.16900 3.04600 46.16700
C  48.33800 4.58200 46.16200
C  46.94100 5.17800 46.09300
C  48.95200 2.32000 47.33700
C  49.26400 5.15000 45.03500
C  48.86500 4.95700 43.56800
N  44.26800 6.45600 46.49300
C  45.41900 7.20500 46.18200
C  45.02500 8.66300 46.27800
C  43.61400 8.65700 46.45600
C  43.22000 7.29500 46.49600
C  45.80400 9.84100 46.18000
C  42.42300 9.46100 46.49600
O  42.30800 10.69300 46.52600
C  41.25400 8.52600 46.53200
C  40.36100 8.78600 47.74900
O  40.35000 8.15000 48.77800
O  39.49300 9.68900 47.35100
C  38.36500 9.92600 48.24100
H  40.22600 1.77300 46.11300
H  46.74800 0.89400 46.01100
H  47.58700 7.15300 46.02800
H  39.07500 6.42100 46.69200
H  38.85400 3.78000 45.50700
H  38.58300 4.77100 48.17800
H  39.58100 3.45200 48.47400
H  38.05100 3.15800 47.60500
H  38.85300 7.16100 44.54100
H  38.32800 5.42400 44.41500
H  39.75400 4.73300 42.96200
H  41.05600 5.60500 43.77600
H  41.81200 -1.61600 46.55600
H  41.13800 -0.89500 45.11200
H  40.59200 -0.23100 46.66600
H  46.51900 -1.23900 46.16400
H  46.56000 -0.59300 44.53100
H  46.39200 -2.35700 44.89500
H  48.56200 2.66600 45.22400
H  48.80600 5.00000 47.05300
H  49.82600 1.83700 46.89900
H  48.33500 1.50700 47.72100
H  49.43500 2.93400 48.09700
H  50.18400 4.57500 45.13900
H  49.31100 6.23100 45.16300
H  48.26000 5.83800 43.35500
H  48.33300 4.03700 43.32500
H  49.78100 4.98600 42.97800
H  45.48900 10.63600 45.50300
H  46.83500 9.58000 45.94500
H  45.84100 10.31500 47.16100
H  40.67800 8.74700 45.63300
H  38.20000 9.06200 48.88500
H  37.43400 10.03600 47.68500
H  38.59100 10.78000 48.88000
Mg 6.48900 53.22800 42.28400
C  6.37100 49.71800 42.07400
C  9.46600 53.11800 40.71500
C  6.09800 56.47100 41.70200
C  3.09500 53.05100 43.24000
N  7.64300 51.57700 41.30500
C  7.44800 50.21700 41.37900
C  8.59900 49.40500 40.65800
C  9.61800 50.58800 40.55300
C  8.86800 51.84300 40.84000
C  10.91800 50.31100 41.44700
C  8.27600 48.77000 39.25500
C  7.21300 49.45200 38.28500
H  7.62900 49.73800 36.81300
N  7.58800 54.64800 41.38500
C  8.88400 54.39800 40.98900
C  9.52200 55.67500 40.70200
C  8.55700 56.68700 40.94300
C  7.31400 55.96600 41.31500
C  10.98500 55.79800 40.37200
C  8.82900 58.15600 41.02600
O  9.94900 58.55200 40.75300
C  7.83300 59.09700 41.45700
N  4.83100 54.57000 42.56200
C  4.98500 55.90100 42.32100
C  3.64100 56.71900 42.62100
C  2.65800 55.53900 42.92700
C  3.58000 54.29500 43.01400
C  3.80600 57.65500 43.84800
C  1.67700 55.25300 41.76100
C  0.77400 56.38000 41.35400
N  5.05100 51.80500 42.80800
C  3.77400 51.88000 43.24000
C  3.18200 50.58500 43.48100
C  4.18400 49.70400 43.12900
C  5.32400 50.45200 42.70000
C  1.75500 50.14600 43.91800
C  4.49400 48.30800 43.09800
O  3.95900 47.30500 43.51800
C  5.94000 48.22900 42.32400
C  5.64800 47.52800 41.05800
O  4.77600 47.91100 40.21000
O  6.34200 46.36300 40.92700
C  5.89300 45.43900 39.85000
H  10.46400 53.11000 40.27200
H  5.91700 57.54200 41.59100
H  2.06600 52.94500 43.58900
H  8.86800 48.65900 41.40600
H  9.86100 50.71900 39.49800
H  11.17900 51.24900 41.93700
H  11.78500 50.24800 40.78900
H  10.85400 49.44800 42.11000
H  7.95300 47.77800 39.57000
H  9.26700 48.78400 38.80200
H  6.97400 50.41600 38.73500
H  6.29500 48.88200 38.42900
H  11.34000 56.81400 40.53900
H  11.14200 55.49200 39.33800
H  11.50500 55.14000 41.06900
H  7.06100 59.20000 40.69500
H  8.33600 60.06200 41.52500
H  7.49300 58.70700 42.41700
H  3.39200 57.32600 41.75100
H  2.19200 55.59600 43.91100
H  3.59300 58.68600 43.56400
H  4.80200 57.71800 44.28700
H  3.15900 57.36800 44.67700
H  1.01600 54.48900 42.17100
H  2.14500 54.78700 40.89300
H  0.68000 57.14600 42.12300
H  -0.25600 56.08900 41.15000
H  1.13700 56.79400 40.41200
H  1.37900 50.80600 44.70000
H  1.81900 49.11500 44.26700
H  1.04900 50.16400 43.08700
H  6.65000 47.61400 42.87600
H  5.96000 46.00600 38.92100
H  4.86800 45.07400 39.92100
H  6.56600 44.58100 39.83300

