158

Mg 1.73900 -1.58300 42.81100
C  5.30700 -0.92200 42.53100
C  1.25100 1.10100 40.85600
C  -1.38100 -2.65500 42.40700
C  2.62000 -4.77100 43.89700
N  3.12600 -0.04600 41.79500
C  4.56400 0.06600 41.85900
C  4.99400 1.36300 41.20200
C  3.66900 2.06500 40.67700
C  2.62300 1.00100 41.14000
C  3.43500 3.48900 41.15600
C  6.11800 1.15900 40.14800
C  6.18500 -0.06800 39.20400
H  5.54500 -0.00700 37.80500
N  0.12400 -0.79800 41.98200
C  0.12000 0.35400 41.22200
C  -1.22900 0.62700 40.74200
C  -2.05200 -0.37300 41.40700
C  -1.11800 -1.32300 41.95600
C  -1.57100 1.84200 39.93700
C  -3.56400 -0.37300 41.39000
O  -4.16000 0.58400 40.93800
C  -4.43600 -1.37900 41.91900
N  0.73200 -3.47600 43.14400
C  -0.56700 -3.63300 42.96300
C  -1.07600 -4.93400 43.43400
C  0.16100 -5.60300 43.99200
C  1.29000 -4.55300 43.66000
C  -2.40800 -4.89000 44.31000
C  0.45000 -6.96700 43.40900
C  0.46600 -8.11100 44.47100
N  3.53800 -2.62000 43.28400
C  3.69400 -3.91500 43.68700
C  5.09300 -4.23200 43.97300
C  5.78700 -3.01500 43.53000
C  4.74400 -2.14500 43.03100
C  5.76100 -5.58600 44.35000
C  7.12100 -2.45100 43.26900
O  8.20500 -2.90900 43.32000
C  6.82900 -1.04900 42.61500
C  7.49900 0.01600 43.36500
O  8.23600 0.88000 42.84500
O  7.13100 -0.04000 44.66700
C  7.84200 0.95000 45.53300
H  1.09100 1.96400 40.20700
H  -2.43900 -2.91900 42.35100
H  2.83400 -5.76400 44.29700
H  5.49800 1.96600 41.95700
H  3.63100 2.02100 39.58900
H  3.46300 4.07400 40.23600
H  4.23300 3.80700 41.82700
H  2.47300 3.43300 41.66400
H  7.10100 1.33800 40.58300
H  5.93900 1.90500 39.37400
H  5.82800 -0.97900 39.68500
H  7.23300 -0.22500 38.94600
H  -2.44800 1.55300 39.35700
H  -0.85700 2.10400 39.15500
H  -1.72500 2.69400 40.59900
H  -5.44600 -1.02300 42.12200
H  -3.99300 -1.35400 42.91500
H  -4.51900 -2.28600 41.32100
H  -1.21300 -5.43600 42.47700
H  0.06100 -5.83100 45.05300
H  -3.21300 -5.53100 43.95100
H  -2.73700 -3.85100 44.31500
H  -2.17600 -5.13200 45.34700
H  1.44900 -6.94700 42.97400
H  -0.23300 -7.27500 42.61600
H  -0.12400 -8.95000 44.10200
H  0.17400 -7.85100 45.48900
H  1.52000 -8.38700 44.51000
H  6.33100 -5.38700 45.25800
H  6.33200 -5.85400 43.46100
H  4.98100 -6.25300 44.71700
H  7.31800 -1.03500 41.64100
H  7.79100 0.56700 46.55200
H  7.36500 1.92000 45.39300
H  8.91900 0.86000 45.39200
Mg 1.46100 42.81000 26.13300
C  2.99300 42.74900 29.28700
C  -1.46600 41.70100 27.59200
C  0.12600 42.45100 23.01800
C  4.50100 43.57000 24.68100
N  0.90800 42.17400 28.22600
C  1.61100 42.43100 29.32700
C  0.76800 42.29000 30.61900
C  -0.61400 41.58900 29.99200
C  -0.44800 41.93700 28.48300
C  -0.76700 40.12200 30.31200
C  0.52300 43.58900 31.34800
C  0.88600 43.50000 32.89000
H  -0.09400 42.80800 33.87500
N  -0.45000 42.27700 25.40900
C  -1.46500 41.81800 26.12800
C  -2.57800 41.54200 25.29900
C  -2.19100 41.86500 23.97300
C  -0.77500 42.22800 24.10900
C  -3.85500 41.01300 25.88100
C  -3.00900 41.85700 22.69200
O  -2.58800 42.34000 21.66200
C  -4.45900 41.54800 22.68600
N  2.18500 43.04700 24.20200
C  1.49200 42.65300 23.06600
C  2.38700 42.75300 21.81200
C  3.75500 43.36900 22.30300
C  3.48600 43.31900 23.80400
C  2.67000 41.46600 21.08300
C  3.92500 44.78500 21.89400
C  2.82600 45.81800 22.15900
N  3.39800 43.16900 26.80600
C  4.54100 43.49200 26.13100
C  5.62400 43.64700 27.02500
C  5.06400 43.25200 28.25300
C  3.71200 43.03900 28.07500
C  6.92000 44.26400 26.74100
C  5.34900 43.14500 29.64800
O  6.42100 43.35900 30.25500
C  4.07700 42.82100 30.40100
C  4.31200 41.60200 31.19900
O  4.43000 40.46400 30.79600
O  4.28000 42.01300 32.51800
C  4.34800 40.84000 33.42400
H  -2.42200 41.38800 28.01800
H  -0.22300 42.21600 22.01000
H  5.44000 43.70900 24.14200
H  1.38400 41.60900 31.20700
H  -1.54400 42.01300 30.37100
H  -0.10100 39.85200 31.13200
H  -0.46300 39.43200 29.52500
H  -1.81800 40.04500 30.58900
H  -0.50900 43.86700 31.13300
H  1.09300 44.39800 30.89300
H  1.12800 44.51500 33.20300
H  1.74100 42.82600 32.94600
H  -4.74400 41.33000 25.33600
H  -4.01100 41.42500 26.87700
H  -3.81100 39.93400 26.02600
H  -4.87400 41.54900 21.67800
H  -5.01300 42.32100 23.22000
H  -4.62900 40.59900 23.19400
H  1.85300 43.38600 21.10400
H  4.60000 42.69700 22.15200
H  1.98500 41.26900 20.25800
H  2.44500 40.59700 21.70200
H  3.69900 41.21800 20.82600
H  4.19600 44.83500 20.84000
H  4.77800 45.24400 22.39500
H  3.06800 46.45500 23.01000
H  1.97200 45.25900 22.54200
H  2.63200 46.40200 21.25900
H  7.67800 43.81100 27.38000
H  7.00900 45.33400 26.93000
H  7.18800 44.22000 25.68500
H  3.81300 43.62400 31.08900
H  5.17900 40.17700 33.18200
H  3.34000 40.47200 33.23300
H  4.53200 41.16700 34.44800

