158

Mg 52.88300 24.18100 45.45700
C  50.08800 26.33500 44.76600
C  51.14000 21.78200 43.88700
C  55.65600 22.53600 45.53400
C  54.52000 27.11200 46.58200
N  50.89300 24.22100 44.19700
C  49.97800 25.12900 44.04300
C  48.74400 24.51200 43.26800
C  48.89900 23.01100 43.52300
C  50.40700 22.98500 43.94800
C  48.12000 22.35000 44.60500
C  48.75400 24.93700 41.76200
C  47.30100 25.04200 41.16500
H  46.89700 23.87300 40.23400
N  53.34800 22.41000 44.76500
C  52.51500 21.50500 44.21200
C  53.22700 20.25900 44.09400
C  54.55900 20.51300 44.55400
C  54.58200 21.93700 44.98900
C  52.65900 19.04700 43.37100
C  55.72600 19.48200 44.52500
O  55.51600 18.33300 44.06500
C  57.15500 19.80900 44.87400
N  54.85200 24.79800 45.86400
C  55.78500 23.87600 45.98000
C  56.95300 24.39200 46.85400
C  56.73000 25.94900 46.73600
C  55.27400 25.94300 46.38500
C  57.04300 23.81700 48.31400
C  57.54300 26.63800 45.62300
C  58.49800 27.79300 45.98200
N  52.39200 26.28200 45.87400
C  53.16100 27.32700 46.37100
C  52.29400 28.50300 46.56500
C  51.09200 28.13300 45.94900
C  51.21700 26.76600 45.51600
C  52.74400 29.89900 47.13300
C  49.73500 28.57300 45.68200
O  49.20600 29.57900 46.08100
C  49.13700 27.58300 44.72300
C  49.04800 28.25800 43.44400
O  49.93600 28.49100 42.67800
O  47.66300 28.35100 43.25400
C  47.27100 28.84400 41.91900
H  50.55100 20.99100 43.41700
H  56.50300 21.90800 45.81800
H  55.14400 27.96000 46.87400
H  47.73400 24.77900 43.57800
H  48.70600 22.48100 42.59000
H  47.42500 23.05900 45.05600
H  48.81100 21.92100 45.33000
H  47.59700 21.47900 44.21000
H  49.28800 24.24800 41.10700
H  49.24600 25.90800 41.81100
H  47.38200 25.89200 40.48800
H  46.52000 25.17200 41.91400
H  52.96000 18.90200 42.33300
H  51.58900 19.25700 43.34500
H  52.77600 18.07000 43.84000
H  57.84200 19.07100 44.46100
H  57.06500 19.82500 45.96000
H  57.43000 20.75600 44.40900
H  57.88000 24.12000 46.34900
H  56.95400 26.31000 47.73900
H  56.43000 22.92100 48.42000
H  56.76800 24.61500 49.00400
H  58.10200 23.60900 48.46400
H  56.90300 27.06900 44.85300
H  58.00900 25.82600 45.06400
H  58.41900 27.92800 47.06000
H  58.31000 28.77100 45.53900
H  59.53700 27.50200 45.82800
H  52.06700 30.26000 47.90800
H  52.75400 30.59100 46.29000
H  53.75000 29.83100 47.54700
H  48.10600 27.28200 44.91100
H  47.07400 29.91400 41.99000
H  46.33600 28.35200 41.65000
H  48.00800 28.50200 41.19200
Mg 46.46200 15.66700 27.82400
C  44.48200 15.48300 30.76200
C  48.39900 18.09600 29.40600
C  48.32000 15.98600 25.07100
C  44.18200 13.65500 26.21700
N  46.37500 16.75100 29.80700
C  45.60800 16.33000 30.88100
C  46.04100 17.07700 32.14800
C  47.03600 18.17300 31.65300
C  47.31000 17.66800 30.19900
C  46.58900 19.63000 31.63100
C  46.66100 16.07400 33.19500
C  46.50800 16.63300 34.60900
H  47.66200 16.41800 35.53300
N  48.20000 16.76500 27.36700
C  48.80700 17.73300 28.12800
C  49.93800 18.27800 27.37800
C  49.96200 17.68800 26.13900
C  48.80400 16.75400 26.15500
C  50.71200 19.46000 27.87000
C  51.00500 17.79900 25.01100
O  50.95100 17.24500 23.93400
C  52.28500 18.62900 25.27800
N  46.25900 15.01500 25.89200
C  47.20800 15.20500 24.93600
C  46.80600 14.49500 23.63300
C  45.78900 13.49200 24.10900
C  45.31000 14.10000 25.50200
C  46.34100 15.45800 22.44600
C  46.26500 12.04200 24.22200
C  47.28200 11.71100 25.28900
N  44.66400 14.84100 28.29100
C  43.81400 14.02100 27.52300
C  42.70600 13.51300 28.30700
C  42.96100 14.02700 29.62200
C  44.15800 14.89300 29.51200
C  41.56700 12.59500 28.00700
C  42.45700 14.09200 30.94000
O  41.42700 13.59000 31.50500
C  43.45800 14.91900 31.75500
C  42.74000 15.94300 32.58800
O  42.28700 16.98500 32.10700
O  42.81100 15.56600 33.91700
C  42.22300 16.52800 34.87300
H  49.02700 18.78000 29.98000
H  48.69100 16.13000 24.05400
H  43.63300 12.82400 25.76800
H  45.20100 17.60200 32.60200
H  48.01400 18.09200 32.12600
H  47.44300 20.25000 31.90400
H  45.74700 19.79500 32.30300
H  46.30200 19.97300 30.63700
H  47.72400 16.00400 32.96200
H  46.26600 15.06200 33.29000
H  45.56200 16.35000 35.07000
H  46.56700 17.71100 34.46300
H  51.72400 19.15300 28.13400
H  50.18600 19.95800 28.68500
H  50.89000 20.25000 27.14000
H  52.00600 19.68200 25.25500
H  52.87500 18.45700 24.37800
H  52.96700 18.26700 26.04700
H  47.68500 13.96000 23.27600
H  44.94600 13.58300 23.42500
H  46.85000 15.31300 21.49300
H  46.63100 16.48400 22.67200
H  45.27200 15.43000 22.23300
H  46.60600 11.63800 23.26800
H  45.41800 11.36900 24.35000
H  48.21700 11.48900 24.77400
H  46.98200 10.83500 25.86500
H  47.52500 12.51300 25.98600
H  40.71400 13.17700 27.65800
H  41.22100 12.04800 28.88400
H  41.87300 11.92300 27.20400
H  43.89000 14.17400 32.42300
H  41.23100 16.91200 34.63300
H  42.88700 17.34300 35.16300
H  41.94500 15.87300 35.69800

