158

Mg 35.74300 1.99900 30.51800
C  33.02700 3.09900 32.62100
C  37.77900 2.27000 33.01600
C  38.22100 1.25500 28.29300
C  33.50600 2.15800 27.74200
N  35.43300 2.73500 32.57000
C  34.28200 2.93000 33.27800
C  34.58100 3.07700 34.80100
C  36.13500 2.99700 34.77500
C  36.48000 2.66900 33.37000
C  36.94000 4.18400 35.30700
C  33.84900 1.95000 35.61800
C  33.69400 2.12800 37.09200
H  34.39000 3.33900 37.75400
N  37.77400 1.73000 30.64000
C  38.46000 1.80600 31.82300
C  39.72200 1.30200 31.63800
C  39.82800 0.94700 30.25300
C  38.56700 1.31100 29.64400
C  40.69500 1.17100 32.83300
C  41.04200 0.35200 29.54100
O  41.00200 0.08200 28.36000
C  42.33000 -0.04200 30.22600
N  35.80400 1.72500 28.33800
C  36.99000 1.42700 27.69000
C  36.82400 1.45900 26.15800
C  35.24200 1.66300 25.99800
C  34.80900 1.73800 27.46500
C  37.58300 2.65300 25.42700
C  34.51700 0.55800 25.11700
C  34.08700 -0.73500 25.88900
N  33.68600 2.40100 30.14700
C  32.94000 2.47800 29.03700
C  31.61700 2.95000 29.35400
C  31.59900 3.14400 30.69200
C  32.90200 2.90900 31.16400
C  30.55600 3.17700 28.26600
C  30.75500 3.62300 31.81400
O  29.59600 3.91900 31.87900
C  31.63800 3.61400 33.14700
C  31.68300 4.89500 33.78900
O  31.79700 5.94500 33.20700
O  31.35400 4.68900 35.09100
C  31.55200 5.91100 36.03900
H  38.44400 2.24500 33.88200
H  39.00500 0.93400 27.60400
H  32.97600 2.40800 26.82000
H  34.18500 4.06000 35.05500
H  36.39600 2.10800 35.35000
H  37.73200 3.76500 35.92800
H  36.30900 4.79700 35.95100
H  37.20700 4.86700 34.50000
H  34.45100 1.07200 35.38300
H  32.88500 1.81700 35.12700
H  33.87900 1.29300 37.76800
H  32.65800 2.43700 37.23200
H  41.47500 0.41700 32.73200
H  40.06100 1.03000 33.70800
H  41.24900 2.11000 32.85600
H  42.05800 -0.80600 30.95400
H  42.97800 0.77100 30.55300
H  43.04000 -0.52600 29.55600
H  37.00500 0.47100 25.73400
H  34.93700 2.63900 25.61900
H  38.35200 2.17900 24.81800
H  38.02900 3.38100 26.10500
H  37.02800 3.27900 24.72900
H  35.10600 0.29400 24.23900
H  33.63200 0.91100 24.58900
H  34.45300 -0.73400 26.91600
H  34.51600 -1.63400 25.44600
H  33.01500 -0.92800 25.92400
H  29.60900 3.54600 28.66100
H  30.38900 2.16400 27.90200
H  30.84400 3.91000 27.51200
H  31.35600 2.88300 33.90500
H  31.68000 5.50300 37.04200
H  30.58900 6.42200 36.00700
H  32.40700 6.50300 35.71300
Mg 40.56700 9.05400 30.51000
C  42.50100 10.36900 32.97200
C  38.36200 7.84300 32.99800
C  38.68900 7.60400 28.16100
C  43.12100 9.48300 28.20800
N  40.48300 9.03100 32.78200
C  41.30000 9.82400 33.52000
C  40.87300 9.90400 34.96600
C  39.59200 8.92200 34.96300
C  39.43300 8.56900 33.50900
C  39.74700 7.64800 35.93200
C  40.74700 11.30800 35.56300
C  39.94300 11.49000 36.86400
H  40.60100 12.11300 38.08400
N  38.76800 8.00000 30.57300
C  38.07900 7.56000 31.69300
C  36.82700 6.99400 31.23400
C  36.82900 6.95800 29.84500
C  38.18400 7.52100 29.45200
C  35.76600 6.46800 32.15000
C  35.82000 6.41800 28.87900
O  36.00900 6.40800 27.65500
C  34.58200 5.76900 29.34400
N  40.93400 8.42600 28.47600
C  39.94200 8.07400 27.70200
C  40.34900 7.93100 26.25000
C  41.80500 8.55200 26.19800
C  42.01200 8.78700 27.71400
C  40.21500 6.48300 25.72700
C  42.04000 9.82600 25.35900
C  43.19200 9.69800 24.38700
N  42.42100 9.72200 30.49100
C  43.34300 9.96200 29.47700
C  44.43800 10.66600 29.98700
C  44.14300 10.88100 31.31700
C  42.90300 10.26000 31.59500
C  45.54900 11.23500 29.19300
C  44.67600 11.38000 32.52600
O  45.75200 11.90000 32.78700
C  43.60500 11.18600 33.61300
C  44.17600 10.58200 34.86300
O  44.27300 9.35400 35.21100
O  44.58800 11.53400 35.76500
C  45.04900 11.24700 37.10600
H  37.71600 7.54400 33.82600
H  38.06000 7.20500 27.36300
H  43.88900 9.62600 27.44500
H  41.69900 9.41700 35.48500
H  38.69600 9.42200 35.33000
H  40.70500 7.52900 36.43800
H  39.68600 6.75600 35.30800
H  38.89700 7.63400 36.61500
H  40.32400 11.90900 34.75800
H  41.72900 11.68900 35.84000
H  39.78100 10.45400 37.16500
H  39.03400 12.06100 36.67200
H  35.70900 5.41100 31.89000
H  34.82500 6.99200 31.98200
H  36.05300 6.44500 33.20100
H  33.89000 5.59100 28.52100
H  33.99500 6.39000 30.02200
H  34.75900 4.76300 29.72400
H  39.79400 8.66300 25.66300
H  42.63000 7.85000 26.08000
H  40.10000 5.69800 26.47500
H  41.02300 6.10600 25.10000
H  39.40300 6.35700 25.01100
H  42.27400 10.58600 26.10400
H  41.13900 10.21000 24.88000
H  44.09700 10.14000 24.80300
H  42.98700 10.17900 23.43000
H  43.52300 8.67700 24.19600
H  45.82000 10.52600 28.41000
H  46.41500 11.25200 29.85400
H  45.31000 12.20100 28.74800
H  43.29700 12.17400 33.95400
H  44.18900 10.92200 37.69200
H  45.53300 12.14600 37.48900
H  45.80300 10.46500 37.19700

