158

Mg 43.61300 4.14400 47.03700
C  41.06900 6.56500 46.99000
C  41.10300 1.79500 47.16800
C  45.91000 1.69300 47.01600
C  46.04700 6.56800 46.57300
N  41.39400 4.24200 47.11100
C  40.50900 5.29200 47.25000
C  39.02500 4.90400 47.16300
C  39.06700 3.31900 47.35300
C  40.63300 3.09400 47.28500
C  38.39100 2.91200 48.63100
C  38.38800 5.30500 45.83800
C  39.04700 4.92100 44.47900
H  39.29700 5.97700 43.41400
N  43.50900 2.05000 47.03100
C  42.40800 1.30700 47.05200
C  42.67400 -0.08300 46.90100
C  44.10200 -0.22800 46.88900
C  44.60500 1.20200 47.02800
C  41.65200 -1.20200 46.86400
C  44.89000 -1.48400 46.62400
O  44.28500 -2.58600 46.59700
C  46.36700 -1.56800 46.51200
N  45.65900 4.13900 46.62000
C  46.40200 3.02300 46.91900
C  47.91200 3.30400 46.83100
C  47.91800 4.87400 46.88100
C  46.47300 5.24900 46.68200
C  48.90000 2.60800 47.83000
C  48.97300 5.65000 46.05600
C  49.62800 6.82200 46.71400
N  43.64300 6.21000 46.78900
C  44.69800 7.02100 46.54000
C  44.13700 8.40500 46.50100
C  42.75300 8.26200 46.75700
C  42.47400 6.92900 46.85700
C  44.93500 9.67900 46.28100
C  41.55200 9.02100 46.88900
O  41.28400 10.20600 46.78100
C  40.34100 7.92900 47.06500
C  39.69300 8.09900 48.37200
O  40.17200 7.82000 49.49500
O  38.38700 8.30100 48.21100
C  37.64600 7.90400 49.47700
H  40.36400 0.99800 47.26900
H  46.71300 1.01600 47.31700
H  46.81300 7.34400 46.51900
H  38.54700 5.46900 47.96300
H  38.65900 2.74400 46.52100
H  38.01300 3.72600 49.24900
H  39.13000 2.58600 49.36300
H  37.76400 2.03300 48.48500
H  38.24400 6.38500 45.80800
H  37.42300 4.80200 45.88500
H  38.40100 4.13800 44.08000
H  40.05400 4.51500 44.56800
H  41.79100 -2.05800 47.52500
H  41.71900 -1.60900 45.85500
H  40.61700 -0.86300 46.91400
H  46.89600 -1.10700 47.34600
H  46.63100 -1.22600 45.51100
H  46.73300 -2.59100 46.61000
H  48.33300 2.97200 45.88200
H  48.17100 5.06100 47.92400
H  49.52600 1.82500 47.40300
H  48.30400 2.16600 48.62900
H  49.56400 3.32500 48.31300
H  48.43500 6.09400 45.21800
H  49.68600 5.01000 45.53700
H  50.70200 6.75700 46.54000
H  49.43800 6.96900 47.77800
H  49.27700 7.75200 46.26700
H  45.49000 9.77100 47.21400
H  44.31900 10.56100 46.10700
H  45.60500 9.44500 45.45400
H  39.65400 8.11200 46.23900
H  37.81400 8.78800 50.09300
H  38.04800 7.02600 49.98100
H  36.62200 7.62800 49.22800
Mg 36.51500 49.37700 25.76300
C  37.00000 47.56300 28.80200
C  35.30000 51.98700 27.52800
C  35.73800 50.83500 22.80600
C  37.70100 46.58100 24.05800
N  36.27300 49.73900 27.91100
C  36.49300 48.90200 28.96200
C  36.18900 49.61600 30.31700
C  35.48300 50.95800 29.83400
C  35.66400 50.88200 28.30100
C  34.03800 51.13400 30.37800
C  37.44200 49.95400 31.21900
C  37.20700 49.70800 32.76400
H  35.88900 49.90800 33.48500
N  35.74600 51.28500 25.17600
C  35.25800 52.18000 26.09800
C  34.77500 53.32600 25.35000
C  34.98200 53.08400 23.93700
C  35.46400 51.67600 23.88200
C  34.18500 54.57200 25.98800
C  34.79100 53.94700 22.84200
O  35.18600 53.68600 21.72600
C  34.23800 55.28400 23.10600
N  36.59600 48.74600 23.75500
C  36.31500 49.59200 22.65500
C  36.63300 48.92700 21.35400
C  37.56000 47.78400 21.81600
C  37.35000 47.67700 23.28200
C  35.39500 48.52600 20.42300
C  39.09200 47.96500 21.54500
C  39.91100 46.70500 21.34000
N  37.07700 47.44100 26.27600
C  37.58300 46.45900 25.45300
C  37.74700 45.17200 26.21400
C  37.61600 45.62100 27.55400
C  37.21800 46.99900 27.53100
C  38.18300 43.85600 25.68600
C  37.69000 45.20600 28.95200
O  38.08900 44.14000 29.40000
C  37.28500 46.47900 29.90000
C  36.02500 46.01600 30.66900
O  34.87100 46.14100 30.27800
O  36.31100 45.41500 31.88400
C  35.15300 44.99100 32.71400
H  34.98200 52.87500 28.07700
H  35.71500 51.19500 21.77500
H  38.02700 45.83700 23.32900
H  35.42100 49.09900 30.89300
H  36.07200 51.76800 30.26500
H  33.92500 52.06400 30.93300
H  33.72200 50.29500 30.99800
H  33.27800 51.18800 29.59800
H  37.75400 50.99400 31.12000
H  38.34700 49.44800 30.88100
H  38.03800 50.26300 33.19800
H  37.45600 48.65200 32.86400
H  33.12600 54.68700 25.75500
H  34.78800 55.45600 25.78600
H  34.26000 54.33600 27.05000
H  33.22300 55.25700 23.50200
H  34.39700 55.86000 22.19400
H  34.90200 55.95400 23.65200
H  37.09200 49.65500 20.68600
H  37.16700 46.87500 21.36100
H  34.63000 48.29200 21.16400
H  35.51900 47.71800 19.70300
H  35.18000 49.41700 19.83400
H  39.39900 48.56000 22.40600
H  39.19800 48.58200 20.65300
H  39.21300 45.93300 21.01700
H  40.36800 46.39700 22.28100
H  40.62800 46.96500 20.56200
H  38.80200 44.02700 24.80500
H  37.33800 43.27800 25.31100
H  38.72700 43.43400 26.53100
H  38.11600 46.72400 30.56200
H  34.48400 44.31800 32.17800
H  34.53400 45.87500 32.86600
H  35.35900 44.37500 33.59000

