158

Mg 50.24200 45.63200 42.24400
C  47.04500 46.92900 41.28800
C  49.64900 42.95200 40.15800
C  53.47900 44.60400 42.60200
C  51.02600 48.81000 43.36900
N  48.48300 45.05300 40.81500
C  47.23500 45.63100 40.70900
C  46.32500 44.86400 39.74500
C  47.15800 43.52000 39.59500
C  48.50900 43.82800 40.22000
C  46.48800 42.33800 40.32900
C  46.05200 45.61200 38.36900
C  44.69500 45.39700 37.77900
H  44.56400 44.28500 36.67400
N  51.33000 43.94700 41.60100
C  50.86800 43.01300 40.78600
C  51.82300 41.97000 40.74600
C  53.00300 42.44300 41.29100
C  52.67700 43.70900 41.91900
C  51.64000 40.64800 40.02400
C  54.37200 41.83500 41.16000
O  54.51800 40.85700 40.44300
C  55.61900 42.40700 41.73400
N  52.04100 46.55700 42.87100
C  53.20500 45.95800 43.06400
C  54.24700 46.88400 43.66200
C  53.56600 48.26800 43.58500
C  52.07900 47.82500 43.28400
C  54.77900 46.60900 45.01700
C  54.09900 49.19000 42.46900
C  54.79500 50.48800 42.90700
N  49.21900 47.50000 42.44900
C  49.65000 48.67200 42.98300
C  48.60400 49.67400 42.95400
C  47.57900 48.98600 42.34800
C  48.03100 47.67900 41.99300
C  48.69300 51.09500 43.37000
C  46.24500 49.16600 41.85200
O  45.47800 50.10900 42.04700
C  45.84700 47.78300 41.15800
C  44.46800 47.34900 41.57300
O  44.09000 47.03300 42.67500
O  43.67200 47.34900 40.46400
C  42.24400 47.04600 40.64700
H  49.30900 42.15200 39.49800
H  54.54300 44.40500 42.74000
H  51.26600 49.74900 43.87300
H  45.39300 44.72000 40.29200
H  47.18100 43.01700 38.62900
H  45.51100 42.56600 40.75500
H  47.13000 42.10900 41.18000
H  46.43700 41.46600 39.67700
H  46.70700 45.23500 37.58300
H  46.28100 46.67500 38.43900
H  44.39600 46.38600 37.43100
H  43.99800 45.10900 38.56600
H  51.98200 40.67400 38.98900
H  50.58200 40.38800 39.98600
H  51.96100 39.82400 40.66100
H  55.63400 42.40900 42.82400
H  55.75400 43.43000 41.38500
H  56.51800 41.85300 41.46600
H  55.03400 46.87400 42.90800
H  53.51700 48.81000 44.52900
H  54.55100 45.59800 45.35500
H  54.44400 47.35800 45.73500
H  55.85800 46.66100 44.86800
H  53.21900 49.44500 41.87800
H  54.72800 48.58900 41.81300
H  55.29200 50.40300 43.87300
H  54.22400 51.41500 42.86000
H  55.72600 50.44100 42.34200
H  48.96300 51.70500 42.50800
H  49.36300 51.19900 44.22400
H  47.69000 51.40100 43.66500
H  45.69600 48.00600 40.10200
H  41.90600 46.75700 39.65200
H  41.86400 48.06500 40.72500
H  41.98000 46.37400 41.46400
Mg 48.98800 34.94600 26.70400
C  47.01400 33.50100 29.23000
C  49.16400 37.88700 28.53900
C  50.18900 36.57400 23.96200
C  47.73700 32.27300 24.55500
N  48.08100 35.64500 28.67300
C  47.51100 34.80200 29.56800
C  47.69900 35.41800 30.98700
C  47.86800 36.88700 30.59300
C  48.40400 36.81300 29.18800
C  46.62000 37.75800 30.84000
C  48.95300 34.76200 31.69700
C  48.81200 34.21500 33.14900
H  47.82500 34.87700 34.19500
N  49.78300 36.84000 26.40500
C  49.79100 37.90300 27.30400
C  50.47700 38.98900 26.68700
C  50.85200 38.63600 25.36100
C  50.33900 37.30100 25.16000
C  50.59600 40.40600 27.29600
C  51.45400 39.48000 24.26400
O  51.63000 39.01100 23.21700
C  51.95200 40.85800 24.57200
N  48.74900 34.64200 24.57100
C  49.42000 35.43900 23.68300
C  49.18800 34.82800 22.26700
C  48.75400 33.39800 22.53200
C  48.34200 33.41000 23.96500
C  48.17500 35.75200 21.46300
C  49.92500 32.36200 22.38000
C  50.12800 31.94600 20.88200
N  47.76400 33.12300 26.85600
C  47.40500 32.13100 25.90900
C  46.63200 31.17900 26.57700
C  46.39500 31.62100 27.87600
C  47.04500 32.84700 27.97600
C  46.15400 29.93300 25.97600
C  45.79600 31.40700 29.16300
O  45.10800 30.51100 29.61200
C  46.12900 32.63100 30.07900
C  46.79800 31.99400 31.26500
O  47.87000 31.40800 31.33100
O  45.94600 32.02400 32.34100
C  46.17700 31.17500 33.51500
H  49.20200 38.71800 29.24700
H  50.78700 36.90700 23.11100
H  47.50100 31.43300 23.89800
H  46.79400 35.42100 31.59500
H  48.54100 37.38100 31.29400
H  47.03200 38.68500 31.23900
H  45.87300 37.23000 31.43200
H  46.17700 38.11200 29.90900
H  49.68000 35.56700 31.59100
H  49.18000 33.86700 31.11800
H  49.81000 34.30300 33.57900
H  48.50100 33.17400 33.22900
H  51.61000 40.80200 27.23400
H  50.23500 40.52100 28.31800
H  49.84700 40.97100 26.74100
H  52.83800 40.74200 25.19600
H  51.19800 41.57000 24.90900
H  52.41000 41.25900 23.66800
H  50.12800 34.92200 21.72300
H  48.00200 33.19600 21.77000
H  48.09000 36.70400 21.98800
H  47.20000 35.28800 21.31600
H  48.45100 35.84700 20.41300
H  49.66800 31.48400 22.97100
H  50.82600 32.82800 22.77900
H  49.38100 32.33600 20.19100
H  50.05000 30.85900 20.90300
H  51.17800 32.18900 20.71800
H  45.20300 29.53300 26.33000
H  46.87600 29.15100 26.21200
H  46.14700 30.07600 24.89600
H  45.17000 33.05600 30.37300
H  45.57200 31.44700 34.38000
H  47.22300 31.21200 33.81800
H  45.92300 30.15200 33.23900

