158

Mg 30.50300 57.67900 40.96100
C  27.62300 55.96400 39.79600
C  32.56900 55.11200 39.58600
C  33.13300 59.75500 41.07500
C  28.38300 60.32800 41.97500
N  30.11400 55.95400 39.72200
C  28.88100 55.34300 39.43300
C  29.09700 54.04400 38.68200
C  30.47500 53.57900 39.27400
C  31.15200 55.00000 39.46600
C  30.36800 52.97900 40.63600
C  28.90600 53.93200 37.19300
C  29.02400 55.22100 36.28200
H  27.85000 55.50600 35.40000
N  32.65000 57.45200 40.49600
C  33.24000 56.31200 39.94000
C  34.66700 56.53400 39.83200
C  34.84200 57.92100 40.20200
C  33.50700 58.47200 40.67500
C  35.69100 55.45800 39.45200
C  36.20200 58.57800 40.18800
O  37.16700 57.88500 39.93000
C  36.50200 60.02800 40.62300
N  30.77000 59.70200 41.60800
C  31.95800 60.32800 41.56300
C  31.87000 61.84100 41.79700
C  30.39500 62.00700 42.29100
C  29.77500 60.60700 42.01500
C  32.89700 62.49300 42.68400
C  29.61200 63.03600 41.35500
C  28.66800 63.91700 42.14800
N  28.43000 58.04800 40.94600
C  27.70600 59.16000 41.39100
C  26.30700 58.86700 41.13500
C  26.20700 57.63300 40.52700
C  27.51600 57.19400 40.45200
C  25.14000 59.75300 41.42700
C  25.32100 56.72100 39.99300
O  24.05700 56.74300 39.88000
C  26.25000 55.53500 39.36700
C  25.82700 54.24600 40.06700
O  25.98000 54.02500 41.26900
O  24.95200 53.51900 39.23500
C  24.36500 52.28000 39.83900
H  33.22500 54.26100 39.39100
H  33.96200 60.46300 41.14700
H  27.70400 61.11400 42.31200
H  28.39300 53.30900 39.07200
H  31.13700 53.06600 38.57600
H  29.34300 52.83700 40.97800
H  30.85900 53.54000 41.43100
H  30.88100 52.01800 40.57700
H  27.84900 53.70300 37.05500
H  29.68900 53.26700 36.83000
H  29.82600 54.95800 35.59200
H  29.22400 56.09300 36.90500
H  36.11100 55.57900 38.45400
H  35.22200 54.49400 39.64900
H  36.49100 55.52000 40.19000
H  35.73000 60.67200 40.20100
H  37.49500 60.38900 40.35800
H  36.32900 60.10300 41.69700
H  31.98600 62.30500 40.81800
H  30.45800 62.13500 43.37100
H  32.96500 61.88700 43.58800
H  32.50500 63.46600 42.98000
H  33.78000 62.64700 42.06300
H  29.05400 62.48000 40.60100
H  30.27700 63.72100 40.83100
H  29.01600 64.94900 42.10100
H  28.59600 63.55200 43.17300
H  27.66000 63.83100 41.74000
H  24.97200 60.55300 40.70600
H  25.45100 60.32600 42.30000
H  24.15900 59.27800 41.40100
H  26.14200 55.48100 38.28400
H  23.54000 51.92300 39.22200
H  23.85700 52.51100 40.77500
H  25.15300 51.52800 39.80600
Mg 5.78200 55.22500 41.05400
C  5.15700 51.71200 40.94300
C  8.80700 54.40500 39.50800
C  6.27700 58.44100 40.37600
C  2.53600 55.71500 42.01200
N  6.89600 53.19200 40.38600
C  6.38700 51.96800 40.46300
C  7.36400 50.98100 39.79600
C  8.67500 51.84000 39.88300
C  8.16600 53.23100 39.87600
C  9.62800 51.67700 41.08300
C  7.03600 50.48000 38.41200
C  6.30500 51.49400 37.44400
H  7.17000 52.09900 36.28500
N  7.37500 56.23200 40.11400
C  8.56200 55.73500 39.68600
C  9.43100 56.76000 39.26600
C  8.75000 58.01900 39.59500
C  7.42800 57.60700 40.02900
C  10.89900 56.54700 38.81300
C  9.34900 59.38800 39.36900
O  10.42900 59.55200 38.85300
C  8.57000 60.61300 39.74700
N  4.61700 56.79900 41.11900
C  5.04200 58.04400 40.80200
C  3.89200 59.08700 41.15100
C  2.65300 58.19600 41.48900
C  3.29200 56.80600 41.59300
C  4.21200 60.20000 42.17200
C  1.51400 58.22500 40.45200
C  0.13300 58.62300 41.01900
N  4.21300 54.03300 41.54100
C  2.92300 54.33300 42.03600
C  2.22900 53.08800 42.38800
C  3.13900 52.12400 42.05500
C  4.30400 52.67300 41.49100
C  0.84000 53.03000 42.90900
C  3.26100 50.67100 41.95500
O  2.49300 49.80000 42.29600
C  4.54400 50.37100 41.22400
C  4.20100 49.58300 40.00800
O  3.66900 49.96100 39.01000
O  4.67100 48.34100 40.16900
C  4.42000 47.35700 39.14200
H  9.64700 54.06500 38.89900
H  6.35000 59.50500 40.14300
H  1.53300 55.98400 42.35100
H  7.31700 50.08800 40.41900
H  9.23000 51.90200 38.94600
H  9.67600 52.60100 41.65800
H  10.56600 51.36500 40.62400
H  9.24300 50.95000 41.79900
H  6.58800 49.48700 38.42600
H  8.04100 50.32300 38.02000
H  5.95200 52.38400 37.96500
H  5.58700 50.80200 37.00600
H  11.25500 57.15500 37.98200
H  11.15400 55.50000 38.64800
H  11.61600 57.02700 39.47900
H  7.72800 60.76900 39.07200
H  9.20500 61.47400 39.95600
H  8.28200 60.35800 40.76600
H  3.77800 59.62600 40.21000
H  2.29800 58.41200 42.49600
H  5.20600 60.09600 42.60700
H  3.49100 60.23500 42.98800
H  4.15300 61.16100 41.66100
H  1.43100 57.26100 39.95100
H  1.80400 58.90600 39.65100
H  0.07700 58.50500 42.10100
H  -0.56800 57.91800 40.57200
H  -0.11700 59.62300 40.66400
H  0.25900 53.38600 42.05800
H  0.71600 53.61400 43.82100
H  0.61400 51.99000 43.14200
H  5.19500 49.76600 41.85600
H  4.45100 47.78400 38.14000
H  3.46200 46.89700 39.38400
H  5.16500 46.56200 39.11800

