158

Mg 34.62000 3.18100 30.52900
C  32.21500 3.73000 33.07200
C  37.07800 3.46600 32.90000
C  36.83700 2.58500 28.16400
C  32.10300 3.54500 28.15600
N  34.57300 3.52400 32.67800
C  33.47500 3.54000 33.56200
C  33.92500 3.78500 35.03300
C  35.53000 3.95100 34.88200
C  35.75500 3.73200 33.37200
C  36.13500 5.20500 35.62000
C  33.48300 2.52000 35.80400
C  32.91800 2.81900 37.28200
H  33.58100 3.86800 38.19100
N  36.66500 2.90600 30.52500
C  37.47100 3.15200 31.63800
C  38.84700 2.87100 31.23600
C  38.82300 2.42000 29.85100
C  37.41900 2.64400 29.46200
C  40.00000 2.99500 32.22000
C  39.97900 1.90100 28.98300
O  39.73400 1.58900 27.84100
C  41.41000 1.69400 29.49500
N  34.40200 3.00700 28.46600
C  35.49900 2.81600 27.70100
C  35.12000 2.94100 26.18500
C  33.60100 3.30700 26.18600
C  33.33500 3.19900 27.65200
C  36.08800 3.92400 25.51900
C  32.72800 2.26600 25.46400
C  32.34500 0.88200 26.14500
N  32.56300 3.32700 30.51900
C  31.67200 3.59000 29.49500
C  30.37800 3.91300 29.98700
C  30.54200 3.92800 31.36900
C  31.92000 3.69800 31.67300
C  29.12400 4.11000 29.22400
C  29.83000 4.18900 32.57200
O  28.67100 4.45200 32.78100
C  30.92600 4.21400 33.69200
C  30.93200 5.58500 34.24900
O  31.36100 6.59200 33.73100
O  30.33900 5.45600 35.47400
C  30.54300 6.58300 36.35100
H  37.76400 3.60200 33.73900
H  37.37800 2.33000 27.25100
H  31.36600 3.93000 27.44800
H  33.45800 4.70700 35.37800
H  36.20600 3.24500 35.36500
H  36.00900 5.03200 36.68800
H  35.73900 6.16300 35.28200
H  37.21200 5.17600 35.45700
H  34.34000 1.89300 36.05000
H  32.73500 2.01600 35.19200
H  33.13800 1.89100 37.81000
H  31.82800 2.84500 37.28000
H  40.96300 3.14200 31.72900
H  39.96500 2.05000 32.76100
H  39.81100 3.87500 32.83500
H  41.90600 2.65000 29.66100
H  41.81700 1.04200 28.72200
H  41.34700 1.22700 30.47800
H  35.45000 2.02000 25.70400
H  33.35700 4.28500 25.77200
H  36.54100 3.38700 24.68500
H  36.75900 4.49400 26.16100
H  35.59600 4.75300 25.01100
H  33.19600 1.93600 24.53700
H  31.74200 2.71100 25.33100
H  31.29400 0.93800 26.42800
H  33.07800 0.69100 26.92900
H  32.26000 0.14900 25.34300
H  28.87700 5.17000 29.29400
H  28.27400 3.73600 29.79600
H  29.14700 3.95000 28.14600
H  30.53000 3.45500 34.36700
H  30.99800 6.20500 37.26600
H  29.55400 7.01500 36.50700
H  31.15300 7.40500 35.97600
Mg 17.83100 52.82200 26.48200
C  19.53900 51.03200 28.85500
C  15.36000 53.47700 28.73700
C  16.06500 54.21400 23.93300
C  20.18300 51.71600 24.03400
N  17.47800 52.28400 28.57300
C  18.36500 51.62000 29.36100
C  17.94700 51.69900 30.79400
C  16.46800 52.15000 30.68400
C  16.36000 52.69800 29.25000
C  15.39900 51.05100 31.17200
C  18.92400 52.66500 31.57700
C  18.77200 52.70800 33.09200
H  17.58400 51.97800 33.81600
N  16.06100 53.86300 26.36600
C  15.18500 54.01400 27.43400
C  14.05500 54.74400 26.96300
C  14.30300 55.05800 25.61200
C  15.50000 54.37800 25.20500
C  12.84100 55.05400 27.86600
C  13.41700 56.01000 24.69200
O  13.66300 56.26400 23.51300
C  12.24100 56.67700 25.38900
N  18.14500 53.14900 24.41200
C  17.20500 53.67300 23.53200
C  17.60100 53.41400 22.09400
C  18.95800 52.65700 22.14600
C  19.13100 52.51000 23.60500
C  16.44500 52.77100 21.23700
C  20.03000 53.54600 21.43400
C  20.33400 54.83200 22.21600
N  19.54000 51.59200 26.34300
C  20.44900 51.26700 25.37300
C  21.60400 50.59400 25.95100
C  21.23900 50.46400 27.32800
C  19.98800 51.05800 27.49900
C  22.79600 50.00900 25.29300
C  21.60200 49.81400 28.52400
O  22.51700 49.00600 28.72100
C  20.57600 50.21400 29.62100
C  19.98300 48.99200 30.31600
O  19.24600 48.12000 29.82800
O  20.43600 49.04300 31.64300
C  19.77600 48.14900 32.56300
H  14.64700 53.89500 29.45100
H  15.40600 54.67400 23.19300
H  21.04800 51.51000 23.40000
H  18.03500 50.67100 31.14700
H  16.34300 52.99500 31.36100
H  15.87100 50.13000 31.51400
H  14.69700 50.62100 30.45700
H  14.80500 51.46400 31.98600
H  18.64800 53.66200 31.23600
H  19.98900 52.48500 31.43000
H  18.87200 53.73800 33.43400
H  19.69700 52.22000 33.39900
H  12.83100 56.11200 28.12500
H  12.84000 54.63500 28.87300
H  11.90000 54.78800 27.38400
H  12.64800 57.10300 26.30600
H  11.46300 55.94400 25.60100
H  11.84200 57.52700 24.83600
H  17.68900 54.38800 21.61300
H  18.85400 51.66800 21.69800
H  15.71800 52.52900 22.01300
H  16.80800 51.81300 20.86600
H  16.08800 53.42500 20.44200
H  19.69300 53.80700 20.43100
H  20.87800 52.92700 21.14300
H  19.61100 55.59700 21.93500
H  21.36800 55.12800 22.04200
H  20.21700 54.62600 23.28000
H  23.13000 50.68700 24.50700
H  22.48100 49.12000 24.74600
H  23.59000 49.76900 25.99900
H  20.99900 50.78500 30.44600
H  20.18600 47.14000 32.60000
H  18.70800 47.99900 32.40300
H  19.88700 48.58400 33.55600

