158

Mg 47.62500 25.98600 27.63200
C  48.55400 28.22900 30.18800
C  46.36300 23.91600 30.04800
C  47.19900 23.68000 25.27400
C  49.49600 28.05900 25.41600
N  47.59100 26.00400 29.81900
C  47.87000 27.11800 30.69200
C  47.36600 26.89200 32.10900
C  47.00200 25.33100 32.06700
C  46.86700 25.11400 30.54200
C  47.94600 24.33700 32.81800
C  46.17200 27.90900 32.54000
C  46.36700 28.65400 33.83300
H  45.36900 28.41500 34.97600
N  46.77200 24.04900 27.60700
C  46.26900 23.37500 28.71400
C  45.64700 22.11200 28.23600
C  45.86600 22.08600 26.83600
C  46.66300 23.29800 26.49100
C  44.87100 21.08100 29.10900
C  45.47500 21.02400 25.86400
O  45.83800 21.06800 24.67200
C  44.52400 19.90100 26.32500
N  48.58600 25.74400 25.70900
C  48.06800 24.70700 24.92600
C  48.47300 24.98400 23.43200
C  48.99800 26.48500 23.41500
C  49.02400 26.82100 24.96000
C  49.42800 23.96100 22.78100
C  48.07300 27.44900 22.54100
C  48.65400 27.82000 21.12300
N  48.72900 27.80400 27.70500
C  49.40000 28.51100 26.73300
C  49.98300 29.69800 27.28900
C  49.65400 29.67400 28.68400
C  48.90700 28.50600 28.88600
C  50.71200 30.78200 26.62400
C  49.74400 30.36700 30.00500
O  50.24400 31.46000 30.26400
C  48.96100 29.51500 30.97200
C  49.86700 29.15100 32.17700
O  50.89200 28.42600 32.09300
O  49.55700 29.86000 33.26900
C  50.32300 29.50100 34.47700
H  45.93800 23.28400 30.83000
H  47.03800 23.05000 24.39700
H  50.04600 28.73900 24.76200
H  48.16600 26.94900 32.84600
H  46.05100 25.06000 32.52600
H  47.54300 23.67900 33.58800
H  48.79400 24.78300 33.33800
H  48.33000 23.68200 32.03700
H  45.19300 27.43000 32.54700
H  46.03600 28.67200 31.77300
H  46.40600 29.71200 33.57200
H  47.40000 28.44200 34.10800
H  43.88000 20.95300 28.67300
H  44.75000 21.39100 30.14700
H  45.35300 20.10800 29.20100
H  45.01300 19.28500 27.08000
H  44.20500 19.23000 25.52800
H  43.67200 20.39200 26.79600
H  47.55100 25.03800 22.85400
H  50.02400 26.53000 23.05100
H  48.95100 23.32300 22.03700
H  49.75500 23.25300 23.54300
H  50.29200 24.41300 22.29600
H  48.00300 28.37300 23.11600
H  47.07500 27.02700 22.42200
H  49.39400 27.06300 20.86200
H  49.20300 28.76000 21.07500
H  47.85200 27.84100 20.38600
H  51.55900 31.15800 27.19800
H  50.17900 31.71100 26.42200
H  51.10700 30.37400 25.69300
H  48.08600 30.08400 31.28700
H  49.72900 28.83000 35.09800
H  50.57500 30.43100 34.98600
H  51.29700 29.01500 34.41500
Mg -5.98900 25.43700 26.55500
C  -4.52000 26.84300 29.48400
C  -7.76400 23.36700 28.68000
C  -7.09100 23.94000 23.85100
C  -3.59100 27.23300 24.73800
N  -6.02000 25.06000 28.83600
C  -5.50700 25.87500 29.81600
C  -5.96900 25.44800 31.16800
C  -6.68700 24.06600 30.93600
C  -6.79400 24.13100 29.43100
C  -5.82800 22.84400 31.22900
C  -6.91800 26.55400 31.83000
C  -7.38600 26.28800 33.25100
H  -6.75800 25.11100 34.10000
N  -7.33700 23.89200 26.25700
C  -7.93700 23.16900 27.26700
C  -8.89300 22.22900 26.63900
C  -8.81800 22.41800 25.19200
C  -7.74200 23.44900 25.02700
C  -9.81200 21.29100 27.48100
C  -9.58800 21.72900 24.04700
O  -9.27000 21.97400 22.90000
C  -10.62400 20.72000 24.40500
N  -5.29900 25.47800 24.61300
C  -5.98000 24.81500 23.66000
C  -5.26300 24.98800 22.29700
C  -4.34600 26.20200 22.53800
C  -4.40900 26.37200 24.04100
C  -4.39100 23.73500 21.75000
C  -4.70900 27.50900 21.84500
C  -3.55500 28.21300 21.02500
N  -4.41800 26.81100 26.95400
C  -3.52700 27.43000 26.11200
C  -2.54800 28.18500 26.85800
C  -2.96500 28.00800 28.20000
C  -4.06300 27.12000 28.18700
C  -1.29000 28.86600 26.22900
C  -2.55700 28.31900 29.56500
O  -1.56900 28.92000 30.00500
C  -3.63100 27.58600 30.52300
C  -2.77100 26.79300 31.38200
O  -2.20500 25.73100 31.06200
O  -2.87000 27.25700 32.68500
C  -2.24900 26.33800 33.71500
H  -8.41300 22.71200 29.26500
H  -7.46000 23.55700 22.89700
H  -2.82800 27.74600 24.14900
H  -5.08000 25.26100 31.77000
H  -7.63300 23.97900 31.46900
H  -5.00900 23.09100 31.90500
H  -5.43400 22.35900 30.33600
H  -6.34100 22.09000 31.82500
H  -7.78400 26.73300 31.19200
H  -6.32000 27.46500 31.80400
H  -8.44800 26.04800 33.20200
H  -7.33000 27.25300 33.75600
H  -10.58300 20.80700 26.88300
H  -10.19700 21.93700 28.27000
H  -9.33100 20.45800 27.99400
H  -10.94300 20.25800 23.47100
H  -11.50100 21.24000 24.79200
H  -10.27300 19.91500 25.05000
H  -5.99800 25.22800 21.52900
H  -3.31700 25.90300 22.33900
H  -4.73600 23.40500 20.76900
H  -4.52500 22.91600 22.45700
H  -3.34100 24.00900 21.65600
H  -4.99800 28.19700 22.64000
H  -5.59300 27.43000 21.21200
H  -2.67600 27.58200 20.88900
H  -3.28300 29.20600 21.38500
H  -3.74800 28.46200 19.98100
H  -1.54600 29.89100 25.96300
H  -0.96300 28.29900 25.35700
H  -0.38300 28.80400 26.83100
H  -4.20900 28.26600 31.15000
H  -2.59600 25.30400 33.73000
H  -2.24000 26.79800 34.70300
H  -1.17600 26.41700 33.53800

