158

Mg 17.27600 -0.88000 27.89000
C  16.35100 0.83300 30.68200
C  19.44600 -2.89000 29.81900
C  18.66500 -2.16200 25.11400
C  15.52800 1.41300 25.87200
N  17.84100 -1.03400 29.97400
C  17.24700 -0.18700 30.93800
C  17.64400 -0.62600 32.32600
C  18.98200 -1.52900 31.98900
C  18.82500 -1.86400 30.50200
C  20.33900 -1.03400 32.45600
C  16.54600 -1.49300 33.08500
C  16.42000 -1.19100 34.64500
H  17.56200 -0.42900 35.35900
N  18.72800 -2.49000 27.51800
C  19.38900 -3.20300 28.44200
C  20.10100 -4.22300 27.78400
C  19.92500 -4.05200 26.38000
C  19.12700 -2.87500 26.24100
C  20.84200 -5.24000 28.52500
C  20.52000 -4.80700 25.14700
O  20.25500 -4.63900 24.01000
C  21.41600 -6.10700 25.38400
N  17.27100 -0.32200 25.81900
C  17.79900 -1.09300 24.92900
C  17.37500 -0.69000 23.45300
C  16.20500 0.32900 23.67600
C  16.28000 0.46100 25.22200
C  18.70100 -0.10400 22.72500
C  14.72000 -0.22400 23.29000
C  13.92400 0.52500 22.20300
N  16.18300 0.74100 28.10500
C  15.44200 1.53800 27.26900
C  14.59200 2.38000 28.04100
C  14.90600 2.10800 29.39000
C  15.88700 1.13900 29.40100
C  13.76600 3.53100 27.55100
C  14.56600 2.43900 30.75300
O  13.66600 3.16300 31.24300
C  15.43900 1.57400 31.67700
C  16.21800 2.55300 32.59600
O  17.32200 2.96100 32.41200
O  15.42300 2.68900 33.72700
C  15.92400 3.62000 34.76900
H  20.07100 -3.55500 30.41700
H  18.99800 -2.62500 24.18200
H  14.92400 2.14000 25.32700
H  18.07000 0.23200 32.84500
H  18.88400 -2.51600 32.44200
H  21.06900 -1.29200 31.68800
H  20.65600 -1.58800 33.34000
H  20.32300 0.02400 32.71700
H  16.65800 -2.57300 32.98700
H  15.58200 -1.20800 32.66500
H  16.30900 -2.11300 35.21600
H  15.53800 -0.56400 34.77200
H  21.85700 -4.86600 28.66100
H  20.89800 -6.21400 28.04000
H  20.37700 -5.44400 29.49000
H  21.71100 -6.76900 24.56900
H  20.91000 -6.79200 26.06500
H  22.41200 -5.80900 25.71100
H  17.11000 -1.59900 22.91300
H  16.33500 1.27700 23.15200
H  18.55600 0.90100 22.32800
H  19.05000 -0.71100 21.89000
H  19.55600 -0.01800 23.39600
H  14.12200 -0.27000 24.20000
H  14.90200 -1.21200 22.86800
H  13.29300 -0.14000 21.61400
H  14.61400 0.93900 21.46700
H  13.33200 1.33100 22.63800
H  13.51600 4.34400 28.23300
H  12.86100 3.22000 27.02900
H  14.35900 3.96800 26.74700
H  14.93600 0.80300 32.26000
H  16.31800 4.51500 34.28800
H  16.74100 3.20700 35.36100
H  15.13800 3.91200 35.46500
Mg 26.30600 50.54900 25.88100
C  24.26700 51.67300 28.46200
C  28.65100 49.72600 28.16600
C  28.04200 49.16500 23.43300
C  23.75200 51.60900 23.62100
N  26.43000 50.62700 28.03200
C  25.49300 51.08900 28.92500
C  25.94000 50.97300 30.45600
C  27.48100 50.56200 30.27600
C  27.57500 50.29400 28.74900
C  28.43900 51.67100 30.71800
C  25.12500 49.90800 31.15900
C  24.37800 50.32400 32.47600
H  25.09800 50.77500 33.73600
N  28.13100 49.59800 25.81500
C  28.91600 49.33600 26.83000
C  30.15100 48.68400 26.38600
C  29.89700 48.27300 25.00300
C  28.59300 48.94400 24.67800
C  31.29300 48.44100 27.29400
C  30.73500 47.45000 24.12600
O  30.42900 47.28900 22.92300
C  31.84500 46.68900 24.59700
N  26.03500 50.60400 23.82300
C  26.88600 49.84200 23.04100
C  26.46200 49.85800 21.60000
C  24.95100 50.34600 21.75800
C  24.90900 50.89700 23.14400
C  27.34100 50.75100 20.64900
C  23.80800 49.32800 21.45800
C  24.15800 47.85900 21.66300
N  24.51700 51.62600 25.95500
C  23.62600 52.00400 24.95400
C  22.58300 52.78100 25.53200
C  22.70400 52.66200 26.91200
C  23.92900 51.91600 27.12100
C  21.58700 53.51800 24.74100
C  22.12700 53.00100 28.18300
O  21.07500 53.51000 28.54100
C  23.12000 52.32500 29.26600
C  23.52800 53.51700 30.04600
O  24.43900 54.32000 29.83500
O  22.73500 53.48300 31.16700
C  23.27900 54.31400 32.22000
H  29.32300 49.44900 28.98100
H  28.51500 48.74100 22.54500
H  22.91500 51.86100 22.96700
H  25.79500 52.00700 30.76600
H  27.84100 49.69200 30.82700
H  28.02400 52.64800 30.96400
H  29.09900 51.79500 29.85900
H  29.07200 51.25400 31.50200
H  25.74700 49.09800 31.54000
H  24.43600 49.51300 30.41300
H  23.79600 49.42800 32.69100
H  23.54700 50.99600 32.26000
H  31.17000 47.57500 27.94400
H  31.42900 49.37000 27.84800
H  32.22000 48.20900 26.76900
H  32.67400 47.38400 24.73100
H  31.99700 45.95500 23.80600
H  31.48800 46.22800 25.51800
H  26.38100 48.86800 21.15100
H  24.78200 51.12800 21.01800
H  27.55300 50.26500 19.69700
H  28.25600 51.03700 21.16700
H  26.83700 51.68700 20.40800
H  23.48100 49.61200 20.45800
H  23.02700 49.56200 22.18200
H  24.85700 47.78100 22.49600
H  24.55700 47.27800 20.83200
H  23.18200 47.44200 21.91100
H  20.80400 53.90900 25.39000
H  21.07900 52.84700 24.04800
H  22.02400 54.32800 24.15800
H  22.71200 51.60300 29.97400
H  23.69300 55.22600 31.79000
H  24.07300 53.86700 32.81700
H  22.44600 54.60900 32.85900

