158

Mg 26.37200 51.20300 25.42300
C  23.87700 52.02400 27.86800
C  28.56900 50.42700 27.80500
C  28.60900 50.79300 22.91100
C  24.21800 52.53700 23.06800
N  26.25100 51.41800 27.59500
C  25.09400 51.54800 28.38000
C  25.51400 51.38200 29.84600
C  27.03700 50.97500 29.80700
C  27.34900 50.95800 28.32300
C  27.99300 51.84100 30.73000
C  24.55600 50.45100 30.63400
C  24.12500 50.93400 32.04000
H  24.02200 49.99500 33.23000
N  28.21400 50.54100 25.33400
C  28.96500 50.27100 26.41100
C  30.25500 49.89500 26.01300
C  30.32300 49.87200 24.57800
C  29.00100 50.37200 24.17100
C  31.38800 49.59900 27.03200
C  31.52400 49.76900 23.68300
O  31.41000 49.85600 22.49800
C  32.84600 49.46200 24.43100
N  26.47500 51.83500 23.39000
C  27.43600 51.44900 22.54000
C  27.18600 51.73700 21.02700
C  25.72600 52.21100 21.08500
C  25.45200 52.19100 22.63000
C  28.16100 52.78400 20.41700
C  24.73500 51.14500 20.51300
C  23.81700 51.71300 19.45500
N  24.42800 52.05100 25.36100
C  23.67100 52.44700 24.36600
C  22.29000 52.75200 24.78000
C  22.40500 52.64700 26.17200
C  23.68600 52.22600 26.50900
C  21.20200 53.17600 23.89400
C  21.68200 52.87300 27.38700
O  20.53200 53.28200 27.55100
C  22.65600 52.53400 28.59300
C  22.94300 53.68500 29.51800
O  23.65000 54.63000 29.30300
O  22.31400 53.38300 30.74600
C  22.45000 54.46500 31.77700
H  29.15800 49.95900 28.59600
H  29.29200 50.62900 22.07400
H  23.61900 52.91300 22.23700
H  25.54700 52.36500 30.31600
H  27.10700 49.92400 30.08500
H  28.51200 52.66700 30.24300
H  28.69500 51.23700 31.30600
H  27.41100 52.21000 31.57500
H  25.06500 49.48800 30.67600
H  23.64400 50.25200 30.07100
H  23.11500 51.31100 31.88000
H  24.80800 51.76100 32.23500
H  32.30100 50.19500 27.02200
H  31.75900 48.57400 27.00600
H  31.08000 49.72100 28.07100
H  33.28500 50.31600 24.94700
H  33.40900 49.31100 23.51000
H  32.75100 48.49700 24.92900
H  27.39800 50.89200 20.37200
H  25.63800 53.14700 20.53300
H  28.52100 52.53400 19.41900
H  29.02100 52.85800 21.08300
H  27.66800 53.75600 20.42600
H  24.11300 50.60000 21.22200
H  25.42400 50.45000 20.03300
H  23.74900 50.94900 18.68100
H  24.15200 52.64900 19.00900
H  22.82300 51.87100 19.87300
H  21.64500 53.90700 23.22000
H  20.32400 53.50800 24.44800
H  20.86400 52.31800 23.31300
H  22.13800 51.78900 29.19700
H  22.75500 53.88500 32.64800
H  21.49100 54.96200 31.92200
H  23.32400 55.10500 31.65900
Mg 0.64500 43.32800 26.59500
C  2.85900 42.69400 29.21600
C  -1.99600 42.61900 28.66700
C  -1.45000 43.58900 23.98400
C  3.49500 43.83500 24.39800
N  0.48000 42.63700 28.64800
C  1.47400 42.60400 29.58200
C  0.86900 42.44200 30.99400
C  -0.60100 42.09600 30.72200
C  -0.74700 42.45500 29.23900
C  -1.13300 40.70700 31.14900
C  1.14900 43.63200 31.89100
C  1.69800 43.37100 33.25800
H  1.35400 42.06300 34.04300
N  -1.48300 43.05800 26.35000
C  -2.37800 42.86600 27.30700
C  -3.72000 42.82700 26.74400
C  -3.54100 43.02800 25.36200
C  -2.12300 43.17600 25.16800
C  -4.91800 42.62100 27.67000
C  -4.63300 43.02200 24.26800
O  -4.26000 43.24100 23.11700
C  -6.07200 42.70300 24.58900
N  1.03000 43.47100 24.40300
C  -0.07100 43.74300 23.63000
C  0.37200 44.30300 22.26900
C  1.91700 44.66100 22.56300
C  2.18000 43.97800 23.85600
C  -0.00100 43.30500 21.10200
C  2.21000 46.19900 22.68700
C  1.55000 47.07500 21.56500
N  2.69000 43.18800 26.71800
C  3.68600 43.42100 25.76600
C  4.92600 43.28500 26.47500
C  4.67500 43.04800 27.82000
C  3.31800 42.97800 27.91800
C  6.25500 43.34200 25.77200
C  5.25300 42.68500 29.05700
O  6.40500 42.46500 29.41300
C  4.03700 42.51800 30.11500
C  4.28400 41.14900 30.77100
O  3.89100 40.04000 30.39700
O  5.05100 41.38500 31.91300
C  5.27000 40.20300 32.74000
H  -2.86600 42.43200 29.29900
H  -2.05500 43.90200 23.13000
H  4.38200 44.02200 23.79000
H  1.47300 41.58400 31.28900
H  -1.19500 42.81600 31.28500
H  -0.24200 40.20500 31.52700
H  -1.60400 40.18400 30.31600
H  -1.85500 40.78200 31.96200
H  0.27100 44.24000 32.11000
H  1.94800 44.30400 31.57700
H  1.34600 44.22500 33.83600
H  2.78700 43.42900 33.25600
H  -5.55100 43.48700 27.47500
H  -4.65500 42.51100 28.72200
H  -5.43600 41.70700 27.37600
H  -6.55400 42.22300 23.73700
H  -6.49100 43.70800 24.54800
H  -6.23700 42.15000 25.51300
H  -0.15500 45.24400 22.11200
H  2.47000 44.21300 21.73700
H  0.70200 43.41600 20.27700
H  -0.94200 43.59900 20.63700
H  -0.08100 42.33900 21.60000
H  3.25900 46.46700 22.55700
H  2.12900 46.60900 23.69300
H  0.61600 47.54100 21.87900
H  1.41100 46.44100 20.69000
H  2.16000 47.83300 21.07200
H  6.41500 44.41800 25.70200
H  6.37900 42.90600 24.78000
H  6.88500 42.92000 26.55500
H  4.06200 43.37000 30.79500
H  6.29000 40.16000 33.12200
H  5.24500 39.21100 32.28800
H  4.73500 40.17400 33.68900

