158

Mg 54.35200 24.68900 44.50000
C  51.45800 26.55700 43.73700
C  52.81300 21.84500 43.50400
C  57.36800 23.15700 44.87900
C  55.84400 27.65300 45.49400
N  52.44700 24.32700 43.55300
C  51.39200 25.22900 43.30400
C  50.13500 24.42200 42.86900
C  50.64900 22.97400 42.97600
C  52.09200 23.05100 43.36400
C  49.81900 22.11200 43.98200
C  49.66200 24.82800 41.38700
C  48.34700 24.17100 40.94900
H  48.25300 23.39600 39.63200
N  55.08000 22.73700 44.10100
C  54.23700 21.67200 43.80000
C  55.07000 20.47600 43.89500
C  56.38400 20.79400 44.25600
C  56.35700 22.27200 44.37700
C  54.51500 19.13200 43.58000
C  57.45500 19.78400 44.50300
O  57.20700 18.61100 44.36200
C  58.80500 20.15100 44.99900
N  56.40200 25.35600 44.97600
C  57.43800 24.54200 45.09800
C  58.76500 25.25100 45.56500
C  58.21200 26.72800 45.54100
C  56.73600 26.60400 45.24800
C  59.28800 24.86300 47.00300
C  58.87000 27.68300 44.47600
C  59.37800 28.99500 45.06500
N  53.77600 26.68500 44.86100
C  54.44700 27.69900 45.34500
C  53.54500 28.87000 45.43100
C  52.36400 28.43400 44.78800
C  52.60000 27.15800 44.40600
C  53.82400 30.17700 46.11300
C  51.01100 28.86500 44.35100
O  50.41200 29.94300 44.37700
C  50.37900 27.66400 43.56900
C  50.07300 28.05200 42.12800
O  50.86500 28.35100 41.22800
O  48.71000 27.97800 42.03400
C  48.14400 28.43100 40.76100
H  52.34400 20.86900 43.35800
H  58.28200 22.68600 45.24600
H  56.40400 28.55500 45.75200
H  49.33100 24.79500 43.50300
H  50.62800 22.54200 41.97600
H  49.12000 22.78400 44.47800
H  50.54800 21.71100 44.68600
H  49.25000 21.31200 43.50900
H  50.40600 24.49800 40.66200
H  49.67600 25.91700 41.35700
H  47.70800 25.03500 40.76600
H  47.89300 23.64900 41.79100
H  55.10600 18.76400 42.74100
H  53.42500 19.13000 43.55200
H  54.76800 18.48300 44.41800
H  59.09200 21.09300 44.53200
H  59.39000 19.30300 44.64400
H  58.90900 20.09900 46.08300
H  59.56700 25.00700 44.86800
H  58.31800 27.27900 46.47600
H  59.54700 25.76800 47.55200
H  60.13100 24.19700 46.81900
H  58.54300 24.38500 47.63900
H  58.10900 27.81600 43.70700
H  59.63800 26.99400 44.12500
H  60.46800 28.98800 45.06100
H  59.06100 29.17400 46.09300
H  58.96400 29.84100 44.51700
H  54.21700 30.78900 45.30100
H  54.57500 30.04100 46.89100
H  52.95900 30.62000 46.60600
H  49.55000 27.31200 44.18300
H  47.84500 29.47800 40.81400
H  47.12500 28.06600 40.63900
H  48.85100 28.31800 39.94000
Mg 9.51500 48.38000 26.16300
C  7.28300 48.49800 28.80900
C  12.00900 49.23100 28.58000
C  11.81500 47.92800 23.75700
C  6.97600 47.69000 23.95300
N  9.58700 48.91100 28.40200
C  8.57100 48.82600 29.32100
C  9.06600 49.16900 30.78700
C  10.44100 49.84400 30.54500
C  10.71500 49.25300 29.14300
C  10.43700 51.40100 30.60200
C  9.13100 47.94300 31.73000
C  8.75400 48.14200 33.17900
H  9.14200 47.07900 34.17800
N  11.59700 48.56900 26.20500
C  12.46000 48.83200 27.27600
C  13.87600 48.81200 26.75300
C  13.85200 48.32500 25.39400
C  12.34300 48.28200 25.07300
C  15.08800 49.09800 27.57400
C  14.96400 47.94100 24.47600
O  14.79200 47.57400 23.28800
C  16.33200 47.89000 24.91400
N  9.44600 47.97600 24.08800
C  10.51200 47.84800 23.35500
C  10.09900 47.46700 21.90000
C  8.57200 47.59200 21.92300
C  8.24100 47.65400 23.42500
C  10.88500 48.17500 20.75400
C  7.80000 46.46300 21.20800
C  6.79100 47.02100 20.18000
N  7.51200 48.30600 26.30100
C  6.62000 47.96100 25.28800
C  5.31800 47.80400 25.88300
C  5.49400 48.05100 27.28900
C  6.88700 48.33400 27.47200
C  4.06600 47.34800 25.15600
C  4.75800 48.15500 28.55700
O  3.56900 48.02700 28.78800
C  5.95100 48.37400 29.57300
C  6.03900 47.12500 30.33100
O  6.67600 46.13500 30.01500
O  5.20800 47.17000 31.41200
C  5.29100 46.14900 32.46500
H  12.80800 49.59500 29.23000
H  12.61500 47.73800 23.04000
H  6.12000 47.55300 23.28800
H  8.41900 49.88900 31.28700
H  11.15200 49.40900 31.24800
H  11.28800 51.64900 31.23600
H  9.61300 51.71800 31.24200
H  10.42900 51.95400 29.66300
H  10.06100 47.37500 31.69800
H  8.47500 47.19300 31.28700
H  7.67100 48.27300 33.16700
H  9.11000 49.10200 33.55300
H  15.85200 49.68000 27.05900
H  15.57600 48.15200 27.81100
H  14.86000 49.60600 28.51100
H  16.45500 47.29100 25.81700
H  16.83700 48.83700 25.10300
H  16.94500 47.44900 24.12800
H  10.39900 46.41900 21.88400
H  8.17700 48.52500 21.52100
H  11.02600 49.21000 21.06500
H  10.16900 48.14700 19.93200
H  11.72900 47.61000 20.36000
H  7.18700 45.85500 21.87300
H  8.42500 45.87400 20.53700
H  6.15500 46.20300 19.84100
H  7.28300 47.36100 19.26900
H  6.20500 47.87400 20.52300
H  4.28700 46.56300 24.43300
H  3.70900 48.16800 24.53300
H  3.26900 47.02500 25.82500
H  5.70400 49.27400 30.13400
H  6.17000 45.51000 32.37700
H  4.33700 45.62400 32.51100
H  5.39700 46.45000 33.50700

