158

Mg 46.76300 34.53800 28.12600
C  45.28500 33.04300 30.89700
C  47.24600 37.44800 30.15900
C  47.88600 36.21900 25.45700
C  45.95000 31.91200 26.18300
N  46.25400 35.18500 30.25500
C  45.82600 34.28500 31.20400
C  46.16400 34.80700 32.58900
C  46.33900 36.33300 32.30600
C  46.53000 36.36000 30.78800
C  45.20500 37.38600 32.79600
C  47.39400 34.17600 33.31300
C  47.51100 34.31100 34.78600
H  46.64000 35.20000 35.67400
N  47.30200 36.63700 27.81100
C  47.58500 37.57300 28.77500
C  48.12000 38.75600 28.15300
C  48.27700 38.44100 26.77100
C  47.82000 37.04200 26.59600
C  48.36300 40.03400 28.89100
C  48.86900 39.32600 25.59000
O  48.87200 38.88500 24.43400
C  49.42400 40.72600 25.76100
N  47.01800 34.05900 26.17800
C  47.49300 34.92500 25.17100
C  47.67700 34.11000 23.85100
C  46.94100 32.77500 24.10300
C  46.71100 32.86700 25.59200
C  47.25000 34.90600 22.61200
C  47.84400 31.53400 23.69300
C  47.08500 30.31200 23.45400
N  45.77800 32.78500 28.42900
C  45.52600 31.76100 27.53000
C  44.89300 30.65200 28.15400
C  44.82000 31.09300 29.49600
C  45.34000 32.42100 29.60400
C  44.45400 29.31300 27.47400
C  44.23500 30.80500 30.77600
O  43.59500 29.87100 31.11300
C  44.46600 32.09700 31.59100
C  44.82200 31.79200 32.96700
O  45.82900 31.25600 33.40500
O  43.64100 31.97400 33.69200
C  43.60500 31.58400 35.13500
H  47.61000 38.24700 30.80800
H  48.23300 36.47300 24.45300
H  45.86500 31.04200 25.52900
H  45.23700 34.64800 33.14100
H  47.34500 36.60000 32.63000
H  44.39200 36.73100 33.10700
H  44.85500 37.92900 31.91700
H  45.39500 38.15500 33.54400
H  48.31600 34.63000 32.95000
H  47.44600 33.11800 33.05600
H  48.53500 34.66500 34.90700
H  47.32300 33.28700 35.10900
H  48.40000 40.89900 28.22900
H  49.39600 39.91800 29.21800
H  47.62100 40.33300 29.63100
H  49.76100 40.93300 26.77600
H  48.56800 41.39400 25.66600
H  50.22000 40.86000 25.02800
H  48.74500 33.90800 23.77700
H  45.93600 32.66400 23.69300
H  46.53700 35.69300 22.85400
H  46.80200 34.28200 21.83900
H  48.18000 35.30000 22.20100
H  48.65000 31.36100 24.40600
H  48.47400 31.71300 22.82100
H  47.13800 29.72000 24.36800
H  47.53300 29.75300 22.63200
H  46.03600 30.51700 23.24400
H  43.52000 29.45900 26.93100
H  44.33400 28.56500 28.25800
H  45.15200 28.93500 26.72700
H  43.47900 32.55500 31.64700
H  42.57700 31.53200 35.49400
H  44.17100 32.40700 35.57100
H  44.10500 30.64600 35.37800
Mg -9.56700 18.34700 42.11600
C  -6.20800 17.58900 42.27600
C  -8.73100 21.67100 41.45300
C  -12.80600 18.86100 41.21000
C  -10.16400 14.79500 42.39400
N  -7.72700 19.48000 41.74500
C  -6.49500 18.97000 42.01900
C  -5.44500 19.99100 41.73200
C  -6.20300 21.35500 41.81700
C  -7.70600 20.79300 41.77100
C  -6.00300 22.34900 42.96800
C  -4.60900 19.89500 40.30100
C  -5.34000 19.28200 39.18300
H  -5.07400 19.78700 37.69000
N  -10.68200 20.03700 41.49100
C  -10.12400 21.29800 41.29600
C  -11.21300 22.21700 40.94400
C  -12.46400 21.50200 40.85800
C  -12.03000 20.07900 41.19800
C  -10.98500 23.71200 40.80500
C  -13.80700 22.08000 40.51200
O  -13.90300 23.28900 40.42400
C  -15.00000 21.22300 40.29100
N  -11.14500 17.00400 41.66500
C  -12.41000 17.48600 41.50200
C  -13.48000 16.37800 41.44500
C  -12.56000 15.08400 41.63800
C  -11.16400 15.62900 41.93900
C  -14.59100 16.47600 42.50500
C  -12.65200 14.09100 40.43800
C  -12.57900 12.57900 40.72100
N  -8.47600 16.45000 42.49600
C  -8.77000 15.13500 42.56900
C  -7.53700 14.32200 42.90600
C  -6.57200 15.35800 42.74000
C  -7.15400 16.59700 42.52800
C  -7.39500 12.91400 43.12600
C  -5.13800 15.43000 42.75100
O  -4.26400 14.58500 42.86700
C  -4.83800 16.90100 42.47000
C  -3.99900 17.35400 43.62100
O  -2.95400 17.99400 43.53000
O  -4.51200 16.94700 44.82600
C  -3.76200 17.26800 46.04100
H  -8.43300 22.70300 41.25200
H  -13.83800 19.06800 40.91800
H  -10.34000 13.73400 42.58500
H  -4.76300 19.91100 42.57800
H  -6.13300 21.84200 40.84400
H  -6.87400 22.79100 43.45100
H  -5.41700 23.19800 42.61500
H  -5.55500 21.80000 43.79600
H  -3.72000 19.31600 40.54700
H  -4.27300 20.87200 39.95200
H  -6.37400 19.43500 39.49000
H  -5.03400 18.23600 39.16000
H  -11.51800 24.05600 39.91800
H  -9.94000 24.00900 40.72300
H  -11.35400 24.25700 41.67300
H  -15.28300 20.67400 41.18900
H  -14.84700 20.49600 39.49300
H  -15.86700 21.84100 40.05300
H  -14.04600 16.33100 40.51500
H  -12.77100 14.50100 42.53400
H  -14.72900 17.55600 42.55300
H  -14.18900 16.08800 43.44200
H  -15.55200 16.10500 42.14900
H  -11.74900 14.37600 39.89700
H  -13.52300 14.26100 39.80500
H  -13.27600 12.11300 40.02500
H  -12.91900 12.36100 41.73400
H  -11.62600 12.05400 40.64800
H  -6.56500 12.56900 42.50900
H  -8.32800 12.38700 42.92500
H  -7.11500 12.71200 44.15900
H  -4.33200 16.84700 41.50600
H  -3.66200 16.35400 46.62600
H  -4.35100 18.02900 46.55300
H  -2.77600 17.68700 45.84100

