158

Mg -0.46600 6.98600 24.44600
C  0.54600 9.03700 27.17500
C  0.19800 4.30200 26.31200
C  -1.29000 5.20500 21.75200
C  -0.43000 9.86400 22.45700
N  0.54700 6.77400 26.41400
C  0.54800 7.69900 27.42900
C  0.55800 6.99900 28.87900
C  0.43200 5.53600 28.51000
C  0.41200 5.54200 26.96100
C  1.46400 4.50700 28.99000
C  -0.63100 7.39500 29.76100
C  -0.25300 7.79800 31.23200
H  1.08400 7.32000 31.76100
N  -0.54800 4.92900 24.09400
C  -0.21800 4.03100 24.98200
C  -0.47500 2.71300 24.37300
C  -0.96100 2.91700 23.03900
C  -0.97500 4.41800 22.89100
C  -0.13900 1.44400 25.17400
C  -1.23200 1.89100 21.94700
O  -1.62800 2.18600 20.82500
C  -0.89000 0.40600 22.13000
N  -0.81800 7.44000 22.45700
C  -1.18600 6.57400 21.49600
C  -1.35900 7.11200 20.13400
C  -1.26900 8.63400 20.43400
C  -0.75900 8.70600 21.90400
C  -0.31000 6.61700 19.11400
C  -2.57400 9.29200 20.37000
C  -2.66900 10.34100 19.19900
N  -0.03500 8.99600 24.66700
C  -0.02700 10.05800 23.78000
C  0.33300 11.33600 24.38600
C  0.46100 10.96900 25.72500
C  0.32100 9.56700 25.89500
C  0.41800 12.73000 23.79500
C  0.69200 11.49600 27.06400
O  0.90100 12.65700 27.42300
C  0.70600 10.23500 28.09800
C  2.05500 10.36300 28.80500
O  3.17900 10.23400 28.35200
O  1.79000 10.92000 30.07800
C  2.82200 11.22300 31.03200
H  0.24100 3.43000 26.96700
H  -1.50400 4.53700 20.91500
H  -0.52100 10.82800 21.95200
H  1.49100 7.36200 29.30900
H  -0.48400 5.06800 28.87100
H  2.14700 4.98200 29.69400
H  2.11700 4.28600 28.14600
H  1.01000 3.61700 29.42600
H  -1.40200 6.62700 29.81700
H  -1.15900 8.20100 29.25100
H  -1.04400 7.34900 31.83200
H  -0.42400 8.86600 31.36700
H  -0.42000 1.48300 26.22700
H  0.92900 1.22500 25.20200
H  -0.66400 0.62400 24.68400
H  -1.69900 -0.03900 22.70900
H  0.12700 0.47300 22.51700
H  -0.84600 -0.13300 21.18400
H  -2.29900 6.68400 19.78700
H  -0.50200 9.17900 19.88300
H  0.66500 6.34100 19.51600
H  -0.15700 7.50600 18.50200
H  -0.69400 5.78500 18.52500
H  -2.82600 9.78100 21.31100
H  -3.34300 8.54600 20.16800
H  -3.44200 10.05000 18.48700
H  -1.73300 10.44400 18.65000
H  -2.94500 11.29900 19.63900
H  -0.23200 12.90000 22.93700
H  1.44300 12.89800 23.46500
H  0.08400 13.46400 24.52800
H  -0.03300 10.44500 28.87100
H  3.04000 12.28900 30.96300
H  3.72300 10.62500 30.89100
H  2.38300 11.04500 32.01300
Mg -1.93200 34.23400 26.49100
C  -3.36200 32.38400 29.24900
C  -0.04600 36.00700 28.94300
C  -0.43000 35.77200 24.05600
C  -3.82800 32.30700 24.39100
N  -1.76800 34.22400 28.86400
C  -2.38500 33.32200 29.72400
C  -2.06300 33.67300 31.21200
C  -1.07100 34.88700 31.10800
C  -0.92700 35.06600 29.54100
C  -1.58100 36.24900 31.72800
C  -1.49400 32.52100 32.00800
C  -0.88000 32.76000 33.47100
H  -1.31200 31.98700 34.76500
N  -0.51200 35.67900 26.48500
C  0.19300 36.29300 27.53400
C  1.13800 37.26800 26.99700
C  0.94300 37.28500 25.64800
C  -0.08200 36.22900 25.30600
C  2.09700 38.08000 27.86700
C  1.65400 38.13900 24.60900
O  1.29100 38.06300 23.40400
C  2.81900 38.91000 25.06200
N  -2.09300 34.10200 24.45900
C  -1.39700 34.86900 23.62200
C  -1.74900 34.53700 22.10300
C  -2.85900 33.46400 22.27700
C  -2.95100 33.23800 23.83000
C  -2.11400 35.76900 21.25600
C  -2.70300 32.18900 21.32000
C  -1.82100 31.08900 21.86700
N  -3.40300 32.76100 26.69200
C  -4.05400 32.03600 25.75200
C  -4.85000 31.06400 26.33900
C  -4.66400 31.14800 27.71300
C  -3.80700 32.26800 27.91500
C  -5.86400 30.12800 25.67300
C  -4.99600 30.63400 28.97000
O  -5.76100 29.80200 29.28700
C  -4.20300 31.41200 30.08900
C  -5.10200 32.08800 31.13300
O  -5.85100 33.07200 30.87200
O  -5.13400 31.44800 32.26300
C  -6.05800 32.06400 33.33200
H  0.32100 36.73900 29.66500
H  0.00000 36.30300 23.20400
H  -4.44600 31.69100 23.73400
H  -3.01000 33.88000 31.71000
H  -0.11100 34.80700 31.61900
H  -2.19200 36.78700 31.00300
H  -0.75400 36.83300 32.13300
H  -2.15000 35.96300 32.61200
H  -0.58200 32.23000 31.48900
H  -2.16300 31.66100 32.00200
H  -1.09900 33.80400 33.69500
H  0.19400 32.58800 33.54900
H  3.09600 38.33300 27.51200
H  2.23700 37.46100 28.75300
H  1.61200 39.03600 28.06500
H  2.46900 39.61900 25.81200
H  3.28700 39.41300 24.21600
H  3.66300 38.35700 25.47500
H  -0.89400 34.03900 21.64500
H  -3.77900 33.99300 22.02900
H  -1.23200 36.37200 21.04000
H  -2.79500 36.38600 21.84200
H  -2.55900 35.50700 20.29600
H  -2.57300 32.42400 20.26300
H  -3.71000 31.78400 21.41600
H  -2.38100 30.19000 22.12600
H  -1.32300 31.46300 22.76200
H  -1.11400 30.91900 21.05500
H  -5.20200 29.60100 24.98600
H  -6.60200 30.76200 25.18300
H  -6.31000 29.55400 26.48500
H  -3.56800 30.60200 30.44800
H  -6.86200 32.58100 32.80700
H  -5.49700 32.66000 34.05200
H  -6.56300 31.25100 33.85300

