158

Mg 47.11100 24.53400 28.73800
C  47.82200 26.73800 31.29900
C  45.84300 22.33300 31.28600
C  46.66000 22.22400 26.46500
C  48.30200 26.84100 26.42500
N  46.64100 24.64400 30.98400
C  47.08900 25.64700 31.79600
C  46.80200 25.37500 33.25500
C  46.32200 23.94800 33.27300
C  46.26600 23.57200 31.76300
C  47.14500 22.92000 34.16900
C  45.85300 26.49800 33.76400
C  45.93600 26.97300 35.20900
H  46.58800 26.14000 36.41000
N  46.34300 22.54100 28.83800
C  45.93600 21.81900 29.95600
C  45.59200 20.46200 29.55100
C  45.80300 20.38700 28.14200
C  46.25900 21.73700 27.76800
C  44.89100 19.40300 30.49200
C  45.51100 19.24300 27.19700
O  45.83700 19.22800 26.01100
C  44.72300 18.08300 27.58200
N  47.31100 24.60600 26.70800
C  47.08300 23.46200 25.97100
C  47.35400 23.75800 24.51000
C  47.63900 25.29900 24.46000
C  47.75300 25.66500 25.92800
C  48.52800 22.94000 23.80500
C  46.45000 26.04600 23.83700
C  45.05700 25.82200 24.38700
N  47.93800 26.32800 28.75500
C  48.42700 27.11000 27.75200
C  49.13800 28.25200 28.34100
C  48.91200 28.10400 29.67900
C  48.17400 26.93400 29.90800
C  49.90800 29.25700 27.63900
C  49.12500 28.79500 30.93300
O  49.65500 29.87200 31.23200
C  48.42900 27.92900 32.02400
C  49.32600 27.51400 33.13700
O  50.01900 26.49200 33.04100
O  49.32100 28.40600 34.17900
C  50.03500 28.08700 35.45200
H  45.60300 21.69200 32.13600
H  46.66100 21.49600 25.65100
H  48.64200 27.60400 25.72100
H  47.69300 25.54300 33.86100
H  45.29800 23.85500 33.63700
H  46.46100 22.55800 34.93700
H  48.06200 23.25500 34.65300
H  47.34500 21.99800 33.62400
H  44.83100 26.21100 33.51600
H  45.98800 27.36700 33.12000
H  44.89800 27.06300 35.52900
H  46.20100 28.02900 35.15400
H  43.99300 18.94100 30.08300
H  44.56900 19.77000 31.46700
H  45.59800 18.57300 30.50200
H  43.74900 18.41600 27.94200
H  45.30800 17.49900 28.29200
H  44.47500 17.42300 26.75000
H  46.45400 23.41000 24.00300
H  48.53500 25.71600 24.00000
H  49.18900 23.68000 23.35400
H  48.05800 22.20100 23.15700
H  49.04400 22.42200 24.61400
H  46.56000 25.73900 22.79700
H  46.58700 27.12600 23.88600
H  44.54100 26.76700 24.55500
H  45.14400 25.19000 25.27000
H  44.45900 25.26700 23.66500
H  49.42500 30.22400 27.49800
H  50.39500 28.93000 26.72000
H  50.72900 29.59800 28.27000
H  47.58800 28.52900 32.37000
H  49.28300 27.92900 36.22500
H  50.55200 28.99900 35.75000
H  50.72100 27.28300 35.18700
Mg -10.60600 16.59200 42.62300
C  -7.36500 17.61200 42.51600
C  -11.49400 19.91400 41.79700
C  -13.81300 15.64900 42.49900
C  -9.58400 13.23100 43.11800
N  -9.53400 18.51500 42.04500
C  -8.15600 18.68400 42.14700
C  -7.75900 20.04700 41.67500
C  -9.06100 20.85600 41.89200
C  -10.08800 19.74900 41.89500
C  -8.98600 21.75500 43.13100
C  -7.14200 19.94200 40.22200
C  -5.61400 20.31500 39.97400
H  -4.76700 19.36500 39.33000
N  -12.41600 17.65500 42.27000
C  -12.54700 18.95600 41.95900
C  -13.92200 19.20600 41.65400
C  -14.58000 17.96100 41.78100
C  -13.59500 17.00700 42.23000
C  -14.51100 20.54000 41.22200
C  -16.03600 17.72300 41.53400
O  -16.67500 18.74400 41.28800
C  -16.80000 16.43700 41.72200
N  -11.51300 14.70100 42.67000
C  -12.87400 14.62600 42.73200
C  -13.35500 13.21700 43.02500
C  -12.07300 12.38900 43.29400
C  -10.94800 13.46100 42.89000
C  -14.44300 13.07400 44.03700
C  -11.81800 11.08500 42.46700
C  -11.28600 9.98600 43.32300
N  -8.84900 15.60200 42.78500
C  -8.54600 14.26800 43.12200
C  -7.09100 14.17700 43.17800
C  -6.63000 15.48000 43.06200
C  -7.72700 16.28300 42.74300
C  -6.35300 12.90600 43.27000
C  -5.38500 16.28700 43.04500
O  -4.20000 15.95500 43.21500
C  -5.87100 17.78800 42.75700
C  -5.58000 18.47000 44.08100
O  -6.22500 18.20400 45.07300
O  -4.46000 19.25700 44.08600
C  -4.08900 19.98400 45.24400
H  -11.76700 20.92600 41.48900
H  -14.84100 15.28300 42.45400
H  -9.27500 12.23600 43.44500
H  -6.91200 20.27600 42.32200
H  -9.14500 21.57900 41.08100
H  -7.94200 21.85900 43.42600
H  -9.63300 21.25000 43.84900
H  -9.42800 22.67800 42.75600
H  -7.65900 20.62800 39.55100
H  -7.24100 18.92600 39.83800
H  -5.19100 20.50500 40.96100
H  -5.58500 21.22900 39.38100
H  -15.04100 20.51100 40.27000
H  -13.74600 21.31400 41.15700
H  -15.22800 20.83800 41.98700
H  -17.77200 16.60300 41.25900
H  -16.94300 16.04000 42.72700
H  -16.41500 15.64200 41.08300
H  -13.79300 12.86600 42.09000
H  -12.01300 12.24600 44.37300
H  -15.35400 12.72600 43.55000
H  -14.74300 13.94500 44.62000
H  -14.20100 12.20400 44.64700
H  -11.05100 11.21600 41.70400
H  -12.73500 10.79300 41.95300
H  -12.10000 9.28800 43.51800
H  -10.97700 10.46500 44.25200
H  -10.44900 9.43400 42.89500
H  -5.30300 13.00400 42.99500
H  -6.86400 12.21800 42.59600
H  -6.32800 12.51500 44.28700
H  -5.24500 18.33300 42.05000
H  -4.80400 20.20300 46.03700
H  -3.64400 20.91800 44.89900
H  -3.27600 19.39600 45.67000

