158

Mg 49.01500 35.07300 27.17300
C  46.82400 34.42000 29.84000
C  49.92000 38.00200 28.78100
C  50.86400 35.78300 24.59000
C  47.76900 32.18300 25.63300
N  48.52100 36.10100 29.14400
C  47.66200 35.58900 30.09600
C  47.55200 36.47700 31.32900
C  48.31300 37.79000 30.85200
C  49.00300 37.27900 29.50500
C  47.47600 39.08800 30.66300
C  48.23900 35.88500 32.63100
C  47.44500 35.77300 33.86600
H  47.60600 36.81900 34.99900
N  50.20400 36.69100 26.74800
C  50.50800 37.73000 27.55500
C  51.32300 38.70300 26.80000
C  51.67900 38.03600 25.62000
C  50.98400 36.77900 25.62000
C  51.77500 39.99000 27.33900
C  52.61100 38.54500 24.50900
O  52.85700 37.80300 23.54500
C  53.25700 39.93300 24.54800
N  49.28800 34.14200 25.25900
C  50.10900 34.63000 24.34600
C  50.18700 33.81400 23.10600
C  49.26600 32.56600 23.40900
C  48.79000 32.88800 24.85600
C  49.76800 34.59000 21.89600
C  49.93000 31.15400 23.42500
C  51.09900 30.77700 22.47300
N  47.43100 33.66700 27.50400
C  47.13900 32.51800 26.88400
C  46.07900 31.78000 27.63200
C  45.87100 32.59100 28.72900
C  46.74300 33.66400 28.64500
C  45.55800 30.38800 27.42500
C  45.16800 32.60200 29.98400
O  44.43100 31.74200 30.43000
C  45.70200 33.83500 30.71100
C  46.18800 33.27700 31.97300
O  47.29300 32.80000 32.13800
O  45.18100 33.30500 32.89500
C  45.46500 32.61700 34.18400
H  50.13600 38.93800 29.30000
H  51.43800 36.11500 23.72200
H  47.54000 31.24300 25.12700
H  46.53300 36.76500 31.58800
H  49.09400 38.07500 31.55700
H  46.46500 38.85900 31.00000
H  47.38400 39.45600 29.64100
H  47.91200 39.87300 31.28200
H  49.02500 36.57300 32.94200
H  48.79800 34.95500 32.52900
H  47.58100 34.83200 34.40000
H  46.39000 35.84400 33.60200
H  51.46700 40.76700 26.63900
H  52.85000 40.16500 27.34600
H  51.48600 40.20600 28.36800
H  52.42700 40.63800 24.51100
H  53.84000 39.97700 23.62900
H  53.90600 39.90500 25.42300
H  51.21200 33.44900 23.03000
H  48.39100 32.56100 22.76000
H  49.20000 35.47500 22.18200
H  49.07200 34.14100 21.18800
H  50.59300 35.01700 21.32500
H  49.05400 30.59300 23.09800
H  50.27100 30.94100 24.43800
H  51.18500 31.48000 21.64400
H  51.05500 29.75100 22.10900
H  51.93900 30.82200 23.16600
H  46.07200 30.02900 26.53400
H  44.55300 30.35300 27.00500
H  45.68500 29.70300 28.26300
H  44.88600 34.55100 30.81000
H  46.44800 32.16600 34.32400
H  44.60300 32.05400 34.54300
H  45.57600 33.47800 34.84300
Mg -12.35500 15.80100 41.34900
C  -9.45900 13.85100 41.09300
C  -10.36800 18.52800 39.93800
C  -15.16200 17.48700 40.74200
C  -14.10500 13.08300 42.45500
N  -10.13900 16.11700 40.49800
C  -9.15500 15.14200 40.59200
C  -7.86700 15.71100 39.97000
C  -8.19300 17.26100 39.74500
C  -9.62900 17.36100 40.08000
C  -7.37900 18.31800 40.56600
C  -7.24100 14.92200 38.75800
C  -5.75600 14.87800 38.88000
H  -4.96500 15.58800 37.78400
N  -12.72300 17.75200 40.54500
C  -11.79900 18.71300 40.08400
C  -12.59200 19.84800 39.64000
C  -13.97000 19.60200 39.81700
C  -14.04500 18.19000 40.33300
C  -11.92200 21.17400 39.08100
C  -15.09200 20.60100 39.45700
O  -14.82700 21.62400 38.79800
C  -16.60900 20.37900 39.72200
N  -14.47300 15.25300 41.36000
C  -15.40200 16.27600 41.33100
C  -16.82000 15.78500 41.86800
C  -16.44200 14.37100 42.41400
C  -14.94100 14.18900 42.13800
C  -17.41800 16.75300 42.92400
C  -17.33000 13.18900 41.91400
C  -17.83200 12.20400 42.96100
N  -11.89500 13.85700 41.73400
C  -12.68800 12.86200 42.28600
C  -11.84400 11.68200 42.52900
C  -10.55500 12.06500 42.11700
C  -10.67000 13.41600 41.66400
C  -12.25600 10.34700 43.10900
C  -9.10700 11.65700 42.06200
O  -8.55200 10.61400 42.40000
C  -8.34400 12.86800 41.36100
C  -7.32900 13.40600 42.33300
O  -7.59100 13.92000 43.42700
O  -6.07200 13.42800 41.83300
C  -4.98100 14.09300 42.57400
H  -9.76100 19.38400 39.63600
H  -16.00100 18.18100 40.65300
H  -14.62400 12.28600 42.99300
H  -7.24400 15.71000 40.86400
H  -8.07800 17.42100 38.67200
H  -7.97200 19.12300 41.00100
H  -6.69200 18.78500 39.86100
H  -6.61600 17.94500 41.24900
H  -7.32100 15.48200 37.82600
H  -7.64400 13.91100 38.69200
H  -5.41100 13.84400 38.87600
H  -5.31700 15.39600 39.73200
H  -10.83400 21.15400 39.15600
H  -12.12100 22.00500 39.75900
H  -12.19300 21.46800 38.06700
H  -16.95100 19.59000 39.05200
H  -17.14600 21.30100 39.49800
H  -16.86900 20.07200 40.73500
H  -17.49600 15.74400 41.01400
H  -16.50500 14.45500 43.49900
H  -16.57100 17.39400 43.16700
H  -17.77600 16.41200 43.89600
H  -18.26000 17.29600 42.49600
H  -16.75700 12.57700 41.21700
H  -18.06400 13.68400 41.27900
H  -18.91300 12.17800 42.82300
H  -17.66700 12.57100 43.97400
H  -17.52000 11.20200 42.66400
H  -12.08200 10.35200 44.18500
H  -11.67000 9.58100 42.60100
H  -13.30400 10.06900 43.00200
H  -7.88400 12.51700 40.43700
H  -4.33900 13.38900 43.10400
H  -5.29800 14.95000 43.16800
H  -4.37000 14.54900 41.79400

