158

Mg 17.16500 -0.78500 28.41000
C  16.25100 1.29900 31.12700
C  18.94700 -2.78700 30.51000
C  18.29200 -2.52200 25.69300
C  15.39800 1.36700 26.37900
N  17.69100 -0.55500 30.51600
C  17.17800 0.26200 31.44400
C  17.57100 -0.14900 32.85700
C  18.71500 -1.19000 32.55400
C  18.56300 -1.56400 31.07500
C  20.15500 -0.63500 32.73700
C  16.39100 -0.83300 33.72800
C  16.15000 -0.06100 35.04900
H  17.32900 0.19900 35.99600
N  18.38900 -2.47500 28.13300
C  18.93000 -3.20900 29.18800
C  19.60300 -4.37500 28.64000
C  19.33300 -4.38400 27.22100
C  18.62400 -3.13200 26.92800
C  20.48300 -5.35500 29.45900
C  19.79000 -5.47900 26.15800
O  19.68400 -5.29300 24.95300
C  20.43300 -6.76500 26.62500
N  16.92200 -0.61200 26.42600
C  17.50300 -1.41000 25.44600
C  17.16300 -0.94300 23.98900
C  16.13900 0.16400 24.31100
C  16.12700 0.33000 25.80200
C  18.47900 -0.44600 23.32100
C  14.65800 -0.09500 23.70300
C  13.62500 -0.89800 24.55900
N  16.12900 0.97800 28.62000
C  15.43800 1.76100 27.70100
C  14.84600 2.88800 28.36900
C  15.07500 2.73900 29.69200
C  15.85800 1.56800 29.79600
C  14.00400 3.99300 27.71500
C  14.83800 3.31900 31.02400
O  14.21700 4.27500 31.39900
C  15.57700 2.35100 32.03700
C  16.53800 3.23900 32.77200
O  17.68100 3.55600 32.45600
O  15.92200 3.65600 33.94000
C  16.58600 4.44100 34.93000
H  19.33700 -3.51900 31.22100
H  18.62200 -3.15100 24.86400
H  14.94000 2.12700 25.74200
H  17.96100 0.74300 33.34800
H  18.70700 -2.15400 33.06300
H  20.21000 0.29100 33.30900
H  20.68100 -0.42800 31.80500
H  20.70800 -1.39400 33.29000
H  16.61600 -1.89400 33.83100
H  15.50900 -0.70200 33.10200
H  15.43200 -0.62900 35.64100
H  15.75400 0.92200 34.79300
H  19.86500 -6.19700 29.77100
H  20.72900 -4.85600 30.39700
H  21.35600 -5.60200 28.85500
H  21.43000 -6.61300 27.03800
H  20.63100 -7.42100 25.77800
H  19.72600 -7.25300 27.29600
H  16.71900 -1.85600 23.59200
H  16.35000 1.13700 23.86700
H  19.31200 -0.59100 24.00900
H  18.43400 0.59600 23.00300
H  18.51600 -1.00700 22.38800
H  14.85700 -0.59100 22.75300
H  14.28800 0.89700 23.44600
H  13.88700 -1.13200 25.59100
H  13.38400 -1.82800 24.04500
H  12.72600 -0.28200 24.55100
H  13.16300 3.61200 27.13600
H  14.57900 4.59100 27.00700
H  13.71200 4.64900 28.53400
H  14.85200 1.86700 32.69300
H  16.03400 5.35500 35.14500
H  17.61100 4.64500 34.61800
H  16.61000 3.84200 35.84000
Mg 29.52700 57.90800 41.28300
C  26.76500 56.21800 40.01400
C  31.42300 55.37700 39.92800
C  32.14900 59.85800 41.73600
C  27.40600 60.46000 42.37800
N  29.13600 55.96000 40.06500
C  27.96500 55.62500 39.57900
C  28.04600 54.29200 38.83400
C  29.53300 53.81900 39.29000
C  30.07800 55.09400 39.76000
C  29.59100 52.67600 40.42000
C  27.93300 54.41400 37.24400
C  26.56600 53.99200 36.61600
H  26.00700 54.77300 35.40400
N  31.53500 57.61700 41.01400
C  32.10800 56.57800 40.36800
C  33.55100 56.75900 40.26700
C  33.79900 58.04200 40.91900
C  32.47500 58.59500 41.34800
C  34.43600 55.79400 39.65400
C  35.21100 58.67000 40.98900
O  36.19700 58.19200 40.42100
C  35.43400 59.89900 41.79000
N  29.78700 60.06300 41.82700
C  31.02100 60.57100 42.04300
C  30.97400 62.04900 42.59300
C  29.41700 62.14100 42.94100
C  28.78500 60.79800 42.39900
C  31.88600 62.36400 43.78600
C  28.71100 63.46800 42.49700
C  27.92200 64.28500 43.57900
N  27.47800 58.33900 41.27500
C  26.72100 59.36700 41.80600
C  25.33600 59.04500 41.67900
C  25.33400 57.88000 40.98300
C  26.63500 57.43100 40.74300
C  24.14300 59.74400 42.21200
C  24.43100 56.86900 40.38500
O  23.22300 56.80700 40.37200
C  25.27400 55.69000 39.82800
C  24.98500 54.45100 40.60500
O  25.12100 54.28500 41.81400
O  24.70300 53.43200 39.71200
C  24.61300 52.07700 40.23900
H  32.00300 54.57100 39.47400
H  33.09800 60.38400 41.85100
H  26.71500 61.18500 42.81400
H  27.35600 53.56400 39.26100
H  30.16200 53.51500 38.45300
H  29.86600 52.97300 41.43200
H  30.31000 51.95400 40.03400
H  28.60700 52.20900 40.46700
H  28.81400 53.99100 36.76300
H  27.97100 55.48200 37.03000
H  25.77400 53.91400 37.36100
H  26.69600 53.02000 36.14000
H  34.04100 55.18700 38.83900
H  34.79200 55.06800 40.38400
H  35.35400 56.31900 39.38800
H  35.10300 60.79400 41.26300
H  36.49900 60.03400 41.97900
H  34.99600 59.79400 42.78300
H  31.11200 62.73800 41.76100
H  29.34300 62.00800 44.02000
H  31.29400 62.70800 44.63300
H  32.67400 63.08600 43.57300
H  32.44100 61.45500 44.02000
H  27.97600 63.21200 41.73500
H  29.40900 64.16600 42.03600
H  28.04600 63.71400 44.50000
H  26.90500 64.40800 43.20700
H  28.40600 65.25700 43.67200
H  24.03300 60.77800 41.88400
H  24.28300 59.89600 43.28300
H  23.21200 59.22600 41.98200
H  25.05000 55.53100 38.77300
H  24.93700 51.92700 41.26900
H  25.11200 51.50600 39.45600
H  23.59100 51.72200 40.10800

