158

Mg 1.56700 8.68900 27.57300
C  2.17900 10.77300 30.25200
C  1.25000 6.07400 29.66500
C  1.40100 6.65700 24.76000
C  1.61900 11.58800 25.42000
N  1.74000 8.43800 29.70300
C  1.92800 9.43600 30.65100
C  1.58300 8.97400 32.05900
C  1.68000 7.39300 31.87700
C  1.47500 7.31800 30.31400
C  2.95300 6.66500 32.34800
C  0.09100 9.44000 32.54300
C  -0.17200 9.40000 34.05400
H  1.00300 8.84800 34.93400
N  1.31600 6.68400 27.26400
C  1.18200 5.73900 28.29500
C  0.83100 4.47300 27.65100
C  0.88800 4.58000 26.21800
C  1.27500 5.98800 26.01600
C  0.52100 3.24200 28.48300
C  0.63100 3.56700 25.18100
O  0.70200 3.82500 23.97700
C  0.26100 2.09800 25.54100
N  1.46800 9.05600 25.40200
C  1.42000 8.03200 24.48700
C  1.51300 8.56700 23.01900
C  1.33500 10.12400 23.25600
C  1.44200 10.31000 24.73800
C  2.93400 8.25500 22.38000
C  0.05000 10.83300 22.66700
C  0.25600 11.74900 21.50400
N  1.90400 10.68600 27.71600
C  1.94900 11.70000 26.83900
C  2.17200 12.90300 27.53700
C  2.32700 12.61600 28.87000
C  2.16400 11.24500 28.98500
C  2.26600 14.21700 26.84400
C  2.57400 13.19800 30.16700
O  2.94100 14.31300 30.51500
C  2.45200 12.01500 31.17300
C  3.57200 11.90100 32.18500
O  4.73300 11.79900 31.92800
O  3.03300 12.08000 33.44500
C  3.97800 12.08600 34.56200
H  0.91300 5.30800 30.36700
H  1.40200 6.11500 23.81200
H  1.68000 12.49000 24.80800
H  2.32400 9.34400 32.76800
H  0.89900 6.86100 32.42000
H  3.58800 7.22100 33.03900
H  3.60700 6.42500 31.51000
H  2.70800 5.76000 32.90400
H  -0.60300 8.72100 32.10800
H  -0.10800 10.42900 32.13300
H  -1.06300 8.78700 34.19100
H  -0.23000 10.41500 34.44700
H  1.26600 2.45600 28.36000
H  -0.40000 2.68200 28.31600
H  0.67500 3.39200 29.55100
H  1.02800 1.73500 26.22400
H  0.24800 1.57100 24.58700
H  -0.69200 2.17000 26.06600
H  0.70500 8.26800 22.35100
H  2.23200 10.71700 23.07800
H  3.50200 7.51000 22.93800
H  3.56700 9.12400 22.20400
H  2.69900 7.73100 21.45300
H  -0.48400 11.34000 23.47100
H  -0.64000 10.05500 22.34100
H  -0.44600 11.46800 20.71900
H  1.21600 11.76200 20.98800
H  0.04500 12.77200 21.81600
H  1.37600 14.25000 26.21600
H  3.16700 14.47800 26.29000
H  2.26900 14.94700 27.65300
H  1.60200 12.32700 31.78000
H  4.80600 12.77100 34.38600
H  4.30300 11.05400 34.69500
H  3.42900 12.33900 35.47000
Mg 35.96900 2.01900 29.30200
C  33.71300 3.13300 31.82400
C  38.44300 1.92200 31.56600
C  38.04500 1.27900 26.79800
C  33.48200 2.52500 26.99400
N  36.07600 2.62200 31.46000
C  35.03600 2.86600 32.30300
C  35.55000 2.92500 33.68500
C  37.06800 2.59000 33.62300
C  37.19100 2.26900 32.14600
C  38.04100 3.79700 34.01100
C  34.87000 1.75900 34.54100
C  34.71800 1.95600 36.01500
H  35.13400 3.32100 36.61100
N  37.98200 1.56200 29.24600
C  38.81400 1.53300 30.28300
C  40.07600 1.02300 29.77200
C  40.00000 0.84200 28.34100
C  38.64300 1.22000 28.06300
C  41.31200 0.74600 30.66400
C  41.09400 0.43200 27.30000
O  40.78000 0.27000 26.13100
C  42.50000 0.19800 27.71700
N  35.79700 2.17700 27.19100
C  36.83600 1.70500 26.42300
C  36.36300 1.59900 24.97300
C  34.78300 1.53100 25.10000
C  34.67200 2.11400 26.52100
C  36.96400 2.74100 24.10200
C  34.15300 0.07700 25.00900
C  33.43500 -0.25400 23.68300
N  34.01900 2.70700 29.34600
C  33.12000 2.85700 28.32500
C  31.81800 3.32700 28.86600
C  32.04300 3.51600 30.23500
C  33.31600 3.05300 30.49600
C  30.63700 3.70700 28.11700
C  31.42200 3.85700 31.38500
O  30.29900 4.33200 31.50900
C  32.52300 3.70700 32.53500
C  32.81500 5.05300 33.10700
O  33.76800 5.77400 32.80500
O  31.95400 5.30100 34.18100
C  32.14700 6.52600 34.91400
H  39.33900 1.85100 32.18600
H  38.64900 1.11700 25.90200
H  32.66600 2.65700 26.28100
H  35.37100 3.93000 34.06600
H  37.35600 1.74400 34.24600
H  38.23700 4.28100 33.05500
H  38.92600 3.36000 34.47400
H  37.57600 4.59200 34.59400
H  35.37400 0.80400 34.39100
H  33.85400 1.72800 34.14700
H  35.34000 1.14000 36.38400
H  33.70500 1.64800 36.27400
H  42.04900 1.54100 30.55200
H  41.83000 -0.19600 30.48000
H  40.99500 0.67300 31.70500
H  42.78000 0.97900 28.42400
H  43.20200 0.06800 26.89300
H  42.51700 -0.78800 28.18100
H  36.72300 0.69900 24.47400
H  34.38900 2.17500 24.31400
H  37.34700 3.58900 24.66900
H  36.38000 3.04300 23.23200
H  37.86400 2.28400 23.69100
H  33.33800 0.11400 25.73300
H  34.86200 -0.71900 25.23600
H  33.43300 0.65500 23.08000
H  32.43500 -0.68400 23.73500
H  34.08900 -0.95400 23.16400
H  30.99800 4.21500 27.22200
H  30.15800 4.51800 28.66600
H  29.89500 2.92900 27.93900
H  32.16600 2.97800 33.26200
H  33.10200 6.47900 35.43800
H  31.42300 6.63100 35.72200
H  31.98000 7.40700 34.29400

