158

Mg 9.08900 3.92200 27.59000
C  10.44600 2.42900 30.31600
C  7.36900 6.20600 29.68500
C  8.22400 5.72900 24.92500
C  10.51500 1.52400 25.54200
N  8.73600 4.08300 29.73800
C  9.56300 3.46900 30.71300
C  9.19700 3.96400 32.12400
C  8.13500 5.10800 31.88600
C  8.00500 5.14500 30.31900
C  6.77600 4.83400 32.59900
C  10.42100 4.45600 33.03500
C  10.05900 5.11500 34.31000
H  10.44500 4.46400 35.65200
N  7.93500 5.68700 27.31600
C  7.29600 6.41700 28.24200
C  6.61100 7.59200 27.61500
C  6.96500 7.52200 26.25300
C  7.75900 6.29400 26.13900
C  5.78600 8.66600 28.34900
C  6.73600 8.57000 25.10200
O  7.02000 8.31400 23.95500
C  6.02400 9.84900 25.35100
N  9.20700 3.60400 25.48400
C  8.83700 4.51200 24.57100
C  8.98100 3.98200 23.16700
C  9.69400 2.63000 23.37900
C  9.90800 2.60600 24.89100
C  7.66000 4.04200 22.39500
C  11.06300 2.36700 22.60600
C  11.09300 1.14400 21.69500
N  10.28200 2.23100 27.78000
C  10.82500 1.37500 26.91300
C  11.75800 0.49500 27.62600
C  11.64300 0.82300 28.93000
C  10.75500 1.97700 28.98300
C  12.58000 -0.60900 26.92800
C  12.02900 0.49600 30.24400
O  12.75100 -0.38800 30.60600
C  11.32200 1.50000 31.18300
C  10.55000 0.93700 32.23800
O  9.34400 0.65800 32.18400
O  11.40800 0.66000 33.27500
C  10.75900 0.43700 34.51100
H  6.92200 7.10400 30.11600
H  7.76300 6.21500 24.06200
H  11.06700 0.85700 24.87600
H  8.82800 3.07700 32.63800
H  8.54400 5.98600 32.38700
H  5.96600 4.79800 31.86900
H  6.70500 5.69900 33.25700
H  6.86500 3.90300 33.15900
H  10.98400 5.05300 32.31700
H  11.18500 3.71000 33.25300
H  8.97700 5.21500 34.39600
H  10.59200 6.05200 34.14600
H  6.09700 9.68600 28.12100
H  5.90100 8.60000 29.43100
H  4.70600 8.53900 28.27700
H  5.90800 10.27100 24.35300
H  6.67500 10.51200 25.92200
H  5.06100 9.76400 25.85600
H  9.61600 4.64700 22.58200
H  8.91600 1.92800 23.07800
H  7.62800 4.79500 21.60800
H  6.77400 4.21500 23.00500
H  7.55100 3.11200 21.83700
H  11.93100 2.21400 23.24700
H  11.21000 3.27600 22.02200
H  11.94400 1.23900 21.02100
H  10.21500 0.97300 21.07200
H  11.23100 0.25300 22.30700
H  11.87800 -1.30600 26.47000
H  13.21100 -1.19100 27.60000
H  13.07500 -0.05900 26.12800
H  12.11800 2.13900 31.56400
H  11.27300 1.07000 35.23500
H  10.96600 -0.60900 34.73700
H  9.71500 0.72700 34.62800
Mg 0.49600 43.66500 26.08200
C  2.69800 43.98000 28.80200
C  -2.09300 43.26300 28.36300
C  -1.45500 42.84800 23.49700
C  3.23000 44.20300 23.89300
N  0.36600 43.51400 28.39600
C  1.37400 43.73900 29.28200
C  0.83000 43.53400 30.68100
C  -0.58900 42.94200 30.52300
C  -0.82900 43.34900 29.02200
C  -0.77100 41.40900 30.80500
C  0.88900 44.88600 31.48400
C  1.32700 44.81100 32.92500
H  0.86200 43.65000 33.75400
N  -1.49900 43.16000 25.97200
C  -2.40400 43.11900 27.00600
C  -3.69100 42.75200 26.48000
C  -3.53600 42.54700 25.05200
C  -2.11500 42.80500 24.76800
C  -4.88700 42.51700 27.47300
C  -4.57300 42.24800 24.04800
O  -4.34400 41.96300 22.83300
C  -6.06200 42.21000 24.52500
N  0.91200 43.37400 23.97600
C  -0.13500 43.15500 23.11600
C  0.36200 43.14200 21.66600
C  1.75100 43.82100 21.75600
C  1.99900 43.80800 23.29300
C  0.13400 41.73200 20.92300
C  1.82000 45.29100 21.18000
C  0.82000 46.20800 21.73600
N  2.54600 43.97600 26.24700
C  3.49100 44.21500 25.25300
C  4.75300 44.47300 25.96100
C  4.47500 44.38500 27.29000
C  3.12800 44.02200 27.46300
C  6.13700 44.86800 25.40700
C  5.03900 44.32000 28.59100
O  6.23600 44.49300 28.86700
C  3.88600 44.15600 29.67100
C  4.31200 43.06800 30.44200
O  4.51300 41.98800 29.99400
O  4.68200 43.43300 31.72000
C  5.16800 42.41500 32.59600
H  -2.93800 43.06400 29.02500
H  -1.95300 42.48900 22.59300
H  4.06700 44.49000 23.25300
H  1.48900 42.79000 31.12700
H  -1.24600 43.50700 31.18400
H  -0.90100 40.87900 29.86200
H  -1.62300 41.21200 31.45700
H  0.15200 40.99700 31.21200
H  -0.14900 45.21400 31.53300
H  1.44900 45.70300 31.02800
H  0.88500 45.73800 33.29000
H  2.40100 44.99500 32.95800
H  -4.58400 42.19300 28.46900
H  -5.59600 41.76400 27.12900
H  -5.45000 43.44300 27.59000
H  -6.38000 41.38400 25.16200
H  -6.70900 42.19000 23.64800
H  -6.23100 43.21900 24.90300
H  -0.25500 43.70900 20.96900
H  2.37700 43.10900 21.21900
H  0.31700 41.80000 19.85100
H  -0.92300 41.48300 21.01100
H  0.82600 40.99300 21.32700
H  1.75600 45.24400 20.09300
H  2.82400 45.60300 21.46700
H  1.33500 46.94500 22.35200
H  -0.01800 45.70600 22.21700
H  0.36900 46.71000 20.88000
H  6.70600 45.33100 26.21400
H  6.23800 45.59500 24.60100
H  6.64100 43.93900 25.14100
H  3.72700 45.00600 30.33500
H  5.79500 41.67000 32.10600
H  4.33600 41.93900 33.11500
H  5.82100 42.81300 33.37200

