158

Mg 41.46900 9.32600 29.83500
C  43.39200 10.55300 32.47500
C  39.34600 7.94600 32.18600
C  39.58100 8.24700 27.25200
C  43.90700 10.28100 27.59700
N  41.48400 9.09200 32.14100
C  42.27200 9.86500 32.94100
C  41.82400 9.81900 34.36200
C  40.65000 8.77400 34.28000
C  40.43200 8.57900 32.81300
C  41.04600 7.40100 34.86500
C  41.50500 11.21200 34.92400
C  40.39100 11.36800 36.03000
H  40.92000 11.89000 37.34300
N  39.73800 8.18100 29.74600
C  39.00700 7.74600 30.85100
C  37.83000 6.98100 30.34700
C  37.90100 7.11800 28.91900
C  39.11600 7.82100 28.60200
C  36.84600 6.27400 31.29500
C  36.83200 6.72500 27.89800
O  36.90100 6.90200 26.65000
C  35.66000 6.08900 28.49100
N  41.65000 9.25600 27.75900
C  40.66500 9.04000 26.92600
C  41.15300 9.11700 25.44900
C  42.40600 10.01400 25.52500
C  42.71700 9.78800 27.02900
C  41.50300 7.77200 24.85200
C  42.14100 11.45800 25.10900
C  41.19600 12.34400 25.89200
N  43.34000 10.10600 29.93800
C  44.21600 10.52400 28.96200
C  45.40200 11.04900 29.51600
C  45.09200 11.12300 30.89400
C  43.80100 10.58000 31.08800
C  46.51800 11.73400 28.83400
C  45.53000 11.59100 32.15200
O  46.55200 12.15100 32.54600
C  44.46900 11.21900 33.21200
C  45.16700 10.31200 34.19100
O  45.40000 9.10800 34.05700
O  45.58500 11.11600 35.26600
C  46.32300 10.41100 36.27300
H  38.62900 7.62300 32.94500
H  39.05600 7.79900 26.40600
H  44.71600 10.65900 26.96900
H  42.63600 9.47700 35.00300
H  39.64000 9.10500 34.52100
H  40.20300 6.80000 35.20600
H  41.77900 7.52500 35.66200
H  41.45900 6.79500 34.05800
H  41.16000 11.85900 34.11800
H  42.45200 11.63200 35.26600
H  39.91000 10.42200 36.27800
H  39.63200 12.07800 35.70300
H  35.83800 6.68900 31.26000
H  37.18800 6.37900 32.32400
H  36.86500 5.24400 30.94100
H  35.97500 5.17800 29.00100
H  34.91600 5.85800 27.72800
H  35.11600 6.76700 29.14900
H  40.43200 9.62300 24.80700
H  43.26800 9.60800 24.99600
H  42.47600 7.81100 24.36100
H  40.77700 7.52700 24.07700
H  41.54700 6.96100 25.57900
H  41.74500 11.31800 24.10300
H  43.08200 11.99500 24.99200
H  40.75100 11.85700 26.75900
H  40.38900 12.64500 25.22400
H  41.59500 13.31000 26.20100
H  46.89800 12.50300 29.50700
H  46.52600 12.04900 27.79100
H  47.21800 10.89900 28.82400
H  44.13700 12.11300 33.74000
H  47.31600 10.11200 35.93600
H  45.79800 9.54100 36.66900
H  46.52200 11.06600 37.12100
Mg 6.83000 54.26000 41.32600
C  6.54500 50.82900 40.74700
C  10.07000 54.01600 39.78600
C  6.95100 57.55700 41.19700
C  3.37200 54.38300 42.28400
N  8.15900 52.61000 40.42300
C  7.80100 51.30500 40.30600
C  8.89900 50.44300 39.57000
C  10.07100 51.42700 39.62000
C  9.42900 52.80600 39.93900
C  11.16900 51.17400 40.59000
C  8.65700 49.94400 38.08400
C  8.07000 51.01900 37.06600
H  7.49000 50.55500 35.72500
N  8.35400 55.60300 40.62000
C  9.59000 55.30000 40.02200
C  10.26300 56.56400 39.77500
C  9.39600 57.63700 40.21500
C  8.19200 56.96200 40.77500
C  11.49600 56.58000 38.94200
C  9.70700 59.11700 40.32800
O  10.69700 59.60000 39.69500
C  8.91400 60.02100 41.15100
N  5.36500 55.79200 41.72700
C  5.64600 57.07000 41.58600
C  4.49800 58.02200 41.86100
C  3.35100 56.95100 42.16400
C  4.05100 55.60600 42.06600
C  4.77600 58.97400 43.07900
C  2.08100 57.01900 41.29200
C  0.65000 57.12100 41.75400
N  5.23300 52.87800 41.63300
C  3.89100 53.09300 41.99800
C  3.34900 51.77600 42.13900
C  4.36700 50.83300 41.60700
C  5.44400 51.58800 41.27800
C  1.97600 51.39400 42.70500
C  4.47400 49.42000 41.33900
O  3.74800 48.44000 41.48500
C  6.01000 49.39500 40.76700
C  5.92200 48.88800 39.37500
O  5.29300 49.36100 38.43900
O  6.51100 47.64500 39.37200
C  5.93300 46.64400 38.49400
H  11.09200 53.82200 39.45200
H  6.89700 58.64500 41.13200
H  2.31500 54.25000 42.52400
H  9.11200 49.53000 40.12700
H  10.64300 51.57900 38.70400
H  12.06100 51.64600 40.17700
H  11.36300 50.13700 40.86200
H  10.95600 51.71800 41.51000
H  8.04400 49.04700 38.00300
H  9.57200 49.55600 37.63900
H  8.82900 51.77700 36.87500
H  7.18700 51.49400 37.49500
H  11.93700 55.61100 38.70800
H  12.18600 57.08100 39.62100
H  11.41300 57.28200 38.11300
H  8.19400 60.49300 40.48200
H  9.58300 60.79000 41.53900
H  8.38300 59.59100 41.99900
H  4.36100 58.64300 40.97600
H  3.01000 57.09100 43.18900
H  3.89900 58.97800 43.72600
H  4.77800 60.03300 42.82000
H  5.70700 58.76500 43.60500
H  2.00500 56.10800 40.69800
H  2.22300 57.88500 40.64500
H  0.06300 57.47600 40.90700
H  0.47200 57.77700 42.60600
H  0.28100 56.16000 42.11300
H  1.32900 52.26800 42.77900
H  2.17300 51.05400 43.72100
H  1.64900 50.54100 42.10900
H  6.66400 48.71100 41.30800
H  4.84500 46.71400 38.50900
H  6.18100 45.72000 39.01500
H  6.37300 46.66000 37.49700

