158

Mg 40.62900 9.20000 30.00400
C  42.49900 10.56700 32.68100
C  38.17200 8.35300 32.10800
C  39.09800 7.73400 27.39900
C  43.30700 9.99700 27.94400
N  40.42400 9.38900 32.23000
C  41.26800 9.99000 33.10200
C  40.81700 9.71800 34.54800
C  39.37000 8.99600 34.32700
C  39.29200 8.86600 32.77800
C  39.26200 7.57100 34.98600
C  40.66700 11.03000 35.42700
C  40.80600 10.94200 36.98300
H  40.67000 12.21800 37.85300
N  38.80100 8.27400 29.73400
C  37.86600 8.16100 30.69000
C  36.70100 7.63600 30.08100
C  36.89500 7.55000 28.68200
C  38.30900 7.89100 28.48800
C  35.45600 7.34100 30.89000
C  35.91400 7.07300 27.55700
O  36.35500 6.88400 26.45700
C  34.46800 6.67700 27.89400
N  41.19400 8.82300 27.92900
C  40.34200 8.21800 27.12300
C  40.92800 8.09100 25.65400
C  42.24400 8.86600 25.90900
C  42.24000 9.32000 27.36400
C  40.87000 6.63100 24.91700
C  42.42200 9.98900 24.83200
C  41.68700 11.30500 24.96300
N  42.52500 10.07700 30.18800
C  43.49300 10.36300 29.26300
C  44.62700 10.97700 29.91200
C  44.26500 11.17900 31.25000
C  42.97500 10.55800 31.37700
C  45.84400 11.48900 29.29500
C  44.63400 11.70700 32.54900
O  45.55400 12.35900 32.88000
C  43.49100 11.34000 33.54200
C  44.09900 10.37300 34.57500
O  44.43800 9.20800 34.37100
O  44.35300 10.97000 35.77800
C  44.92500 10.12400 36.87300
H  37.35500 8.19000 32.81300
H  38.75900 7.28400 26.46300
H  44.13900 10.19500 27.26500
H  41.51100 9.00000 34.98400
H  38.53500 9.60900 34.66700
H  40.20900 7.33900 35.47400
H  39.21400 6.76000 34.26000
H  38.48900 7.55200 35.75400
H  39.61500 11.28700 35.30000
H  41.22500 11.93800 35.19700
H  41.81200 10.53800 37.10400
H  40.18600 10.18500 37.46300
H  35.64000 7.49100 31.95400
H  35.16900 6.29400 30.80000
H  34.58500 7.86600 30.49700
H  33.90600 7.46700 28.39300
H  34.35700 5.70100 28.36600
H  34.06200 6.72600 26.88300
H  40.32300 8.76200 25.04300
H  42.97600 8.06800 25.78300
H  40.57800 5.87900 25.65000
H  41.83400 6.41100 24.45900
H  40.15100 6.64500 24.09800
H  42.16800 9.54200 23.87100
H  43.45500 10.31400 24.95400
H  42.32900 11.92100 25.59200
H  40.77300 11.26300 25.55600
H  41.41300 11.75100 24.00700
H  46.71200 11.54700 29.95200
H  45.61200 12.54300 29.13700
H  46.01800 10.92900 28.37700
H  43.17200 12.21500 34.10900
H  44.33700 9.21000 36.95900
H  44.71100 10.72900 37.75400
H  45.99900 10.01100 36.72800
Mg 26.99300 50.10500 25.47400
C  25.12200 51.38600 28.07300
C  29.45100 49.16900 27.71400
C  28.94600 49.29200 22.87400
C  24.71300 51.64400 23.22600
N  27.28000 50.36900 27.70000
C  26.31100 50.84400 28.54900
C  26.78900 50.54600 30.06900
C  28.21600 49.96300 29.82400
C  28.31100 49.75700 28.32200
C  29.37800 50.86100 30.38600
C  25.82900 49.53500 30.82600
C  25.23500 49.87500 32.17400
H  25.96000 50.74600 33.28100
N  28.88700 49.29200 25.28000
C  29.73600 48.91900 26.33100
C  30.93800 48.42100 25.79100
C  30.87800 48.62600 24.37300
C  29.47900 49.16200 24.12600
C  32.10800 47.87800 26.72900
C  31.95300 48.46500 23.31900
O  31.75600 48.68400 22.11600
C  33.26300 47.88700 23.76000
N  26.79900 50.41000 23.42900
C  27.73200 49.92500 22.60800
C  27.21700 50.01300 21.12600
C  25.87900 50.68700 21.15100
C  25.76200 50.94500 22.65600
C  28.27800 50.68000 20.14200
C  24.59000 49.82100 20.71200
C  23.95100 50.29800 19.39800
N  25.21700 51.28600 25.57400
C  24.37000 51.79500 24.61000
C  23.32600 52.43600 25.22500
C  23.54900 52.26600 26.58200
C  24.74200 51.55500 26.76400
C  22.04700 52.89200 24.48400
C  22.98500 52.57200 27.93200
O  22.00100 53.19800 28.28700
C  23.93200 51.93700 28.87700
C  24.17400 52.96600 29.91100
O  25.06600 53.82600 29.94800
O  23.21900 52.82800 30.91100
C  23.29500 53.75000 32.01100
H  30.10900 48.77200 28.49000
H  29.39400 48.92500 21.94800
H  24.08100 52.19000 22.52300
H  26.77500 51.47500 30.63900
H  28.35100 48.96600 30.24500
H  29.82400 50.25700 31.17600
H  29.01300 51.81300 30.76900
H  30.19100 51.14800 29.71900
H  26.28000 48.56000 30.64400
H  25.00700 49.66600 30.12200
H  25.03800 48.91700 32.65500
H  24.35700 50.51300 32.07100
H  32.86200 48.66200 26.65500
H  32.47600 46.94200 26.30800
H  31.81700 47.89100 27.77900
H  33.68200 48.71500 24.33100
H  33.85900 47.66800 22.87400
H  33.10900 46.94900 24.29400
H  27.15700 48.95800 20.86200
H  25.92000 51.71300 20.78500
H  27.88100 51.57900 19.67000
H  28.47000 50.01100 19.30300
H  29.24600 50.84700 20.61500
H  23.89700 49.65200 21.53600
H  24.98300 48.83900 20.44800
H  24.45400 51.21300 19.08600
H  22.86700 50.30000 19.51000
H  24.21800 49.65100 18.56200
H  21.36900 53.04900 25.32400
H  21.53400 52.24300 23.77500
H  22.43000 53.79600 24.01000
H  23.34300 51.17400 29.38600
H  24.15400 53.36000 32.55700
H  22.44300 53.66000 32.68500
H  23.49900 54.75600 31.64400

