158

Mg 47.83500 16.22800 27.72900
C  46.09100 16.35200 30.74900
C  50.37100 17.96300 29.21900
C  49.31900 16.60700 24.80200
C  45.01300 14.95200 26.19400
N  48.12000 17.04600 29.68500
C  47.28900 16.93600 30.78400
C  47.92300 17.63100 32.01700
C  49.20200 18.26600 31.46900
C  49.24200 17.69300 30.03500
C  49.14500 19.80300 31.57100
C  48.18600 16.56900 33.13900
C  47.61500 16.88900 34.51600
H  47.46000 18.37900 34.82700
N  49.65600 17.08600 27.12600
C  50.55200 17.70900 27.88900
C  51.74900 17.94100 27.13000
C  51.52900 17.59300 25.81000
C  50.10300 17.06600 25.85000
C  52.94600 18.74500 27.78900
C  52.36600 17.67900 24.55800
O  51.96200 17.24500 23.49600
C  53.79800 18.18600 24.64600
N  47.14200 15.99600 25.69200
C  48.02400 16.07300 24.70200
C  47.33100 15.75400 23.35400
C  46.02800 15.08200 23.89800
C  45.99400 15.39500 25.34900
C  47.14200 17.03200 22.46200
C  45.83000 13.57600 23.65800
C  44.73700 13.25100 22.72600
N  45.89700 15.75000 28.28100
C  44.92700 15.13500 27.61200
C  43.77700 14.84900 28.49400
C  44.16600 15.33700 29.72900
C  45.47200 15.78400 29.60100
C  42.51000 14.16300 28.08900
C  43.75700 15.49300 31.11100
O  42.76700 15.21300 31.75200
C  45.02600 16.16100 31.81200
C  44.54000 17.43500 32.45600
O  44.48200 18.54700 31.94300
O  44.07700 17.16900 33.72900
C  43.44800 18.20500 34.51800
H  51.24900 18.27300 29.78900
H  49.78000 16.71300 23.81700
H  44.17100 14.36600 25.81900
H  47.17600 18.35300 32.34900
H  50.08500 17.93500 32.01600
H  50.11700 20.25600 31.77100
H  48.52800 19.88000 32.46600
H  48.58600 20.14300 30.69900
H  49.24300 16.39300 33.33600
H  47.67600 15.67800 32.77300
H  48.29000 16.34500 35.17700
H  46.67600 16.33800 34.58400
H  53.83200 18.48800 27.20700
H  53.16800 18.28500 28.75100
H  52.77500 19.82000 27.85500
H  54.34800 17.40300 25.16600
H  53.82500 19.15100 25.15300
H  54.16400 18.23700 23.62000
H  47.94400 15.02400 22.82500
H  45.23600 15.63900 23.39600
H  46.19800 16.79900 21.96900
H  47.81700 17.26500 21.63900
H  46.92400 17.88600 23.10300
H  45.59000 13.09000 24.60300
H  46.75600 13.17900 23.24100
H  44.17100 12.33900 22.91400
H  45.22700 12.92700 21.80700
H  44.13500 14.09400 22.38800
H  42.58100 13.11900 27.78600
H  41.88800 14.71400 27.38300
H  41.91600 14.13100 29.00200
H  45.37900 15.42200 32.53100
H  43.49800 17.91100 35.56700
H  42.40500 18.05700 34.23800
H  43.70800 19.21300 34.19500
Mg 6.78100 55.10300 41.83400
C  4.05700 52.78200 41.67200
C  8.65400 52.64900 40.40000
C  9.08400 57.42000 41.24800
C  4.43100 57.54600 42.82000
N  6.31000 52.93300 40.88300
C  5.14900 52.30400 40.87900
C  5.25200 51.01600 40.01000
C  6.78000 50.85600 39.88500
C  7.33900 52.17200 40.44100
C  7.43500 49.54300 40.58500
C  4.58600 51.12400 38.64500
C  4.00000 49.72100 38.12800
H  4.60100 49.20500 36.78400
N  8.72800 55.02900 41.04900
C  9.34400 53.91500 40.59400
C  10.67100 54.27000 40.14700
C  10.81300 55.64900 40.45300
C  9.51600 56.10200 40.93200
C  11.59500 53.38400 39.45900
C  12.02200 56.43800 40.12700
O  13.11300 55.93800 39.77300
C  12.09600 57.91700 40.36800
N  6.69300 57.27300 41.79900
C  7.81500 57.92900 41.61800
C  7.69200 59.38700 42.15800
C  6.20900 59.55300 42.47500
C  5.75200 58.05300 42.42200
C  8.71000 59.78200 43.25600
C  5.47400 60.48000 41.51800
C  5.87600 61.92100 41.63300
N  4.70100 55.16600 42.21400
C  3.95300 56.24700 42.68200
C  2.69600 55.78100 43.17500
C  2.69200 54.44100 42.78800
C  3.93300 54.09600 42.18300
C  1.58200 56.54700 43.78700
C  1.91300 53.20100 42.89500
O  0.83000 52.99200 43.48300
C  2.68500 52.10300 42.04800
C  1.78700 51.65400 40.87700
O  1.30200 52.37500 40.02600
O  1.65600 50.25600 40.90300
C  0.69800 49.70100 39.96000
H  9.16400 51.85400 39.85300
H  9.73900 58.28900 41.16100
H  3.80300 58.25500 43.36200
H  4.86200 50.22500 40.64900
H  7.05200 50.79500 38.83100
H  6.67200 48.86100 40.95900
H  8.08000 49.97800 41.34900
H  8.13200 49.02000 39.92900
H  5.30700 51.59700 37.97800
H  3.84100 51.91900 38.61100
H  2.92800 49.68900 37.93600
H  4.17400 48.87200 38.79000
H  11.09600 52.64600 38.83100
H  12.08900 52.86800 40.28200
H  12.27300 53.87500 38.76200
H  13.02200 58.37400 40.01900
H  11.89500 58.05100 41.43100
H  11.35900 58.57900 39.91400
H  7.90400 60.13900 41.39800
H  6.00300 59.87600 43.49600
H  8.25300 60.28100 44.11000
H  9.48800 60.41700 42.83400
H  9.23000 58.93400 43.70100
H  4.39400 60.45300 41.66600
H  5.49500 60.20300 40.46400
H  6.63900 62.01000 42.40700
H  5.04200 62.54400 41.95500
H  6.14100 62.22400 40.62000
H  1.90100 57.17700 44.61800
H  0.93800 55.82000 44.28200
H  0.90400 57.09200 43.13100
H  2.95600 51.31600 42.75200
H  -0.30300 49.88000 40.35100
H  0.80000 48.61700 39.90200
H  0.81600 50.18400 38.99000

