158

Mg 55.28900 23.21500 45.10000
C  53.11600 25.90400 44.16400
C  53.12800 21.08400 43.68500
C  57.77100 21.10500 44.92900
C  57.62800 25.92800 46.03100
N  53.42400 23.59400 43.91400
C  52.69300 24.68700 43.68500
C  51.32900 24.37300 42.99000
C  51.23000 22.82600 43.26300
C  52.69400 22.42800 43.65800
C  50.08700 22.41400 44.26600
C  51.25900 24.65900 41.49600
C  49.85800 25.17600 41.03200
H  49.32200 24.47300 39.86900
N  55.44700 21.22900 44.46000
C  54.40200 20.54300 43.95400
C  54.84000 19.21400 43.65200
C  56.23900 19.11000 44.17100
C  56.55000 20.51300 44.54200
C  54.07700 18.05800 43.16500
C  57.10200 17.86900 44.02700
O  56.69400 16.83000 43.44200
C  58.35400 17.86800 44.72100
N  57.37300 23.52400 45.25200
C  58.17300 22.37100 45.26100
C  59.64000 22.73300 45.37700
C  59.58200 24.16700 45.98200
C  58.09900 24.61900 45.66600
C  60.61000 21.75900 46.24600
C  60.72400 25.12100 45.62100
C  61.40600 25.71000 46.92600
N  55.34500 25.44800 45.31300
C  56.31300 26.35800 45.70700
C  55.69600 27.64600 45.75200
C  54.43900 27.56200 45.21600
C  54.31000 26.21800 44.85800
C  56.36400 28.86200 46.22300
C  53.28300 28.29900 44.75000
O  53.00900 29.46700 44.77700
C  52.34000 27.19500 44.10400
C  52.02600 27.74500 42.78300
O  52.76800 27.87500 41.81900
O  50.81300 28.33300 42.87600
C  50.46300 29.15100 41.73700
H  52.45400 20.35400 43.23200
H  58.63400 20.44200 45.01000
H  58.43700 26.63700 46.21700
H  50.52700 24.86700 43.53900
H  51.01800 22.21100 42.38800
H  49.68200 21.42200 44.06500
H  49.30000 23.16900 44.23700
H  50.49600 22.35300 45.27500
H  51.56100 23.83700 40.84700
H  52.01900 25.40200 41.25400
H  50.12500 26.18500 40.71800
H  49.12600 25.19200 41.84000
H  54.37800 17.64000 42.20500
H  53.07300 18.36300 42.86700
H  53.99100 17.23400 43.87300
H  59.17500 18.19600 44.08400
H  58.56900 16.83000 44.97800
H  58.34800 18.34100 45.70300
H  59.88100 22.75200 44.31500
H  59.51300 24.07300 47.06600
H  61.07000 22.36100 47.02900
H  61.35000 21.22300 45.65200
H  59.88400 21.16700 46.80300
H  60.36300 25.92700 44.98200
H  61.58700 24.72700 45.08400
H  61.85400 24.94600 47.56100
H  60.64700 26.27000 47.47200
H  62.19700 26.41900 46.68400
H  56.08100 29.00900 47.26500
H  56.08700 29.70500 45.59000
H  57.45300 28.84600 46.16100
H  51.49300 27.15600 44.78900
H  50.29800 28.53100 40.85700
H  51.16400 29.98000 41.63900
H  49.53200 29.67200 41.96400
Mg 9.74000 47.87400 25.65400
C  7.30200 48.34600 28.29900
C  12.13400 48.88200 27.94500
C  11.86100 47.79800 23.09400
C  7.03600 47.17800 23.47400
N  9.68700 48.43600 27.95000
C  8.66300 48.37800 28.76900
C  9.19900 48.50100 30.26000
C  10.56400 49.18000 29.95600
C  10.85500 48.72700 28.55300
C  10.62700 50.74100 29.99000
C  9.30100 47.15700 30.96300
C  8.69300 47.07300 32.31200
H  9.44000 46.22700 33.42900
N  11.71300 48.41200 25.49800
C  12.53500 48.70600 26.57300
C  13.96700 48.82100 26.06200
C  13.85300 48.50900 24.69100
C  12.41700 48.20200 24.43000
C  15.18800 49.23300 26.96000
C  14.97500 48.21800 23.72000
O  14.89200 48.10400 22.51500
C  16.37900 48.00800 24.30700
N  9.49000 47.63500 23.52600
C  10.56000 47.58000 22.67100
C  10.14500 47.17900 21.27600
C  8.64100 46.79700 21.42600
C  8.32400 47.23200 22.88000
C  10.39500 48.24900 20.21700
C  8.22000 45.41000 21.15800
C  8.56800 44.24600 22.20200
N  7.59200 47.67600 25.79300
C  6.65300 47.39600 24.81500
C  5.37700 47.46500 25.44000
C  5.57400 47.86100 26.77600
C  6.97900 47.98000 26.97200
C  4.06500 47.07900 24.83400
C  4.87200 48.19700 28.04000
O  3.70100 48.07400 28.27400
C  6.00300 48.52200 29.07600
C  5.74400 47.70800 30.30900
O  5.57100 46.49300 30.28100
O  5.50500 48.51500 31.38600
C  4.72300 47.94200 32.39800
H  12.96600 49.15100 28.60000
H  12.53600 47.76800 22.23600
H  6.13600 46.84800 22.95000
H  8.49300 49.22500 30.66700
H  11.29800 48.82600 30.67900
H  11.37700 51.07100 30.70800
H  9.69200 51.18400 30.33200
H  10.80800 51.19200 29.01400
H  10.30500 46.73500 30.92400
H  8.67500 46.50100 30.36000
H  7.69900 46.65500 32.15700
H  8.39100 48.02700 32.74400
H  14.91800 49.62300 27.94100
H  15.47200 50.18100 26.50300
H  15.98900 48.49800 27.04000
H  16.51500 47.22300 25.05000
H  16.73800 48.94600 24.73200
H  17.13200 47.86300 23.53200
H  10.72700 46.29300 21.02000
H  8.00300 47.52200 20.92100
H  10.99700 49.07200 20.60100
H  9.49900 48.71000 19.80100
H  11.04000 47.82600 19.44600
H  8.67600 45.07100 20.22800
H  7.15200 45.42200 20.93800
H  9.38100 43.60100 21.86900
H  7.63200 43.70200 22.32900
H  8.71800 44.60200 23.22100
H  3.36100 47.83600 25.18000
H  3.91500 46.02800 25.08000
H  4.13400 47.27600 23.76400
H  6.11900 49.55600 29.40100
H  5.41000 47.45000 33.08600
H  3.94800 47.29000 31.99400
H  4.23800 48.76500 32.92200

