158

Mg 8.54700 4.24600 27.79600
C  10.06100 2.96200 30.78200
C  6.55300 6.13900 29.86500
C  7.30000 5.54800 25.10200
C  10.11300 1.82900 25.97200
N  8.27800 4.36300 30.09500
C  9.07000 3.87000 31.09000
C  8.66200 4.36700 32.45300
C  7.37900 5.15300 32.13400
C  7.43000 5.28100 30.59600
C  6.00800 4.51800 32.51800
C  9.83900 5.11800 33.20400
C  10.49000 4.55700 34.49300
H  10.64800 5.39000 35.84400
N  7.28900 5.75000 27.53100
C  6.49600 6.37300 28.46000
C  5.75000 7.42100 27.74200
C  6.10800 7.37800 26.38000
C  6.93000 6.18500 26.32300
C  4.72300 8.30900 28.35600
C  5.63600 8.21600 25.21700
O  5.76600 7.94600 24.09100
C  4.97200 9.54600 25.49600
N  8.46200 3.60000 25.84000
C  8.03200 4.38200 24.91400
C  8.42200 3.95500 23.46100
C  9.32400 2.66200 23.75400
C  9.34000 2.75600 25.29900
C  7.13600 3.71600 22.58400
C  10.74200 2.71100 23.12400
C  11.10300 1.55400 22.16800
N  9.87800 2.71400 28.22700
C  10.41400 1.79600 27.39300
C  11.20400 0.84100 28.14000
C  11.15600 1.32200 29.51400
C  10.35400 2.42700 29.47600
C  12.01300 -0.19400 27.47400
C  11.55100 1.09500 30.84400
O  12.19500 0.12300 31.28200
C  10.96400 2.18400 31.75200
C  10.17700 1.36800 32.67600
O  9.20300 0.70900 32.42600
O  10.82000 1.38400 33.90300
C  10.07800 0.81900 35.09300
H  5.97000 6.77700 30.53300
H  7.20300 6.09900 24.16500
H  10.52700 1.10200 25.27000
H  8.41400 3.50800 33.07700
H  7.39500 6.08900 32.69300
H  5.61000 5.12900 33.32700
H  6.13400 3.50100 32.89000
H  5.25000 4.51400 31.73500
H  9.64400 6.14900 33.49800
H  10.66700 5.21100 32.50100
H  11.51100 4.31000 34.20300
H  9.83000 3.77500 34.87000
H  4.57200 8.13400 29.42100
H  3.74100 8.30200 27.88100
H  5.15900 9.30800 28.35600
H  4.02200 9.42500 26.01600
H  4.68500 9.92300 24.51500
H  5.72300 10.14200 26.01500
H  8.91200 4.75400 22.90300
H  8.62100 1.85400 23.54900
H  6.25000 3.78500 23.21500
H  7.28100 2.68100 22.27400
H  7.02000 4.24200 21.63700
H  11.49400 2.88000 23.89500
H  10.85600 3.58400 22.48200
H  11.57600 2.05300 21.32300
H  10.26400 0.91900 21.88300
H  11.81300 0.89100 22.66100
H  12.39100 0.13800 26.50800
H  11.37600 -1.06200 27.30400
H  12.84200 -0.50500 28.11000
H  11.63100 2.90100 32.23200
H  9.47300 1.61300 35.53100
H  10.88500 0.56200 35.77800
H  9.62000 -0.11600 34.77000
Mg -1.44600 35.19400 26.83800
C  -3.52500 33.62900 29.10500
C  -0.45800 37.38100 29.40800
C  0.08300 37.19100 24.60700
C  -2.74900 33.33800 24.32600
N  -2.06000 35.55400 28.98700
C  -2.77100 34.67400 29.71600
C  -2.82800 35.20400 31.17100
C  -1.95700 36.50800 31.21500
C  -1.44700 36.50700 29.79200
C  -2.71200 37.78100 31.56200
C  -2.42800 34.16700 32.21300
C  -3.43900 33.56500 33.19000
H  -2.85200 33.06500 34.55100
N  -0.30300 36.94300 27.01200
C  0.03700 37.62300 28.13500
C  1.07700 38.62700 27.85900
C  1.25900 38.61000 26.41900
C  0.28700 37.55100 25.96800
C  1.79000 39.50300 28.83400
C  2.16700 39.47200 25.49800
O  2.32600 39.18700 24.31400
C  3.04200 40.50700 26.08900
N  -1.16600 35.14800 24.79300
C  -0.53800 36.10700 24.04800
C  -0.53200 35.76400 22.54800
C  -1.38400 34.42600 22.54300
C  -1.73700 34.26000 23.97800
C  -1.10900 36.94100 21.61200
C  -0.73700 33.10400 22.06200
C  -1.55500 32.16800 21.13500
N  -2.87500 33.73600 26.70700
C  -3.31300 33.05800 25.59300
C  -4.30800 32.10700 26.00800
C  -4.34800 32.22100 27.41800
C  -3.53400 33.27400 27.76700
C  -5.04800 31.14100 25.12500
C  -4.99100 31.66800 28.60400
O  -5.72600 30.73500 28.72300
C  -4.55700 32.66800 29.72700
C  -5.80800 33.36900 30.08600
O  -6.15700 34.47800 29.70900
O  -6.50700 32.68800 31.05300
C  -7.51400 33.49400 31.74800
H  -0.04900 37.73500 30.35600
H  0.62800 37.70900 23.81400
H  -3.20500 32.66400 23.59800
H  -3.88000 35.35800 31.41300
H  -1.09200 36.43300 31.87400
H  -3.31900 37.56200 32.44000
H  -3.33200 38.19400 30.76700
H  -1.95600 38.44600 31.97900
H  -1.55600 34.58400 32.71800
H  -2.21700 33.26900 31.63200
H  -3.93500 32.66500 32.82500
H  -4.24900 34.23700 33.47500
H  2.86700 39.58600 28.68900
H  1.77800 39.15000 29.86600
H  1.33400 40.49200 28.80100
H  3.73800 40.14000 26.84400
H  2.41700 41.17100 26.68800
H  3.55100 41.14000 25.36200
H  0.42100 35.46800 22.11000
H  -2.28500 34.53400 21.93800
H  -2.18700 36.91500 21.45300
H  -0.58400 37.09700 20.67000
H  -0.94000 37.90900 22.08300
H  -0.38500 32.57800 22.95000
H  0.24100 33.29500 21.62000
H  -2.60600 32.43600 21.02700
H  -1.55200 31.18800 21.61200
H  -1.11200 32.14100 20.14000
H  -4.44100 30.50800 24.47900
H  -5.61700 31.74700 24.41900
H  -5.78600 30.58700 25.70500
H  -4.18500 32.17700 30.62500
H  -8.21000 33.95100 31.04500
H  -6.99500 34.25700 32.32900
H  -7.99700 32.75000 32.38100

