158

Mg 50.31900 46.46900 42.46800
C  47.40800 48.00300 41.17100
C  49.47500 43.63000 40.64700
C  53.50200 45.27900 42.80400
C  51.45300 49.63900 43.39000
N  48.77200 45.92200 40.84100
C  47.60900 46.66500 40.68700
C  46.57800 45.83500 39.86700
C  47.22700 44.43100 39.75800
C  48.59900 44.63900 40.43400
C  46.25100 43.30000 40.26700
C  46.38100 46.50400 38.46500
C  44.91100 46.60400 37.92900
H  44.49200 45.58700 36.92800
N  51.23800 44.58900 42.13500
C  50.70000 43.55300 41.38400
C  51.54900 42.43100 41.44700
C  52.72400 42.84400 42.10500
C  52.53600 44.28700 42.41700
C  51.12400 40.93800 41.01300
C  53.88300 41.84900 42.40800
O  53.84100 40.68000 42.00700
C  55.21300 42.25500 43.23800
N  52.27000 47.40200 42.72000
C  53.39600 46.67500 42.98400
C  54.60000 47.57900 43.45200
C  53.86300 48.93200 43.65800
C  52.43200 48.69100 43.19600
C  55.57300 47.15400 44.54200
C  54.57300 50.14500 42.94900
C  54.11600 50.64300 41.51600
N  49.56200 48.38600 42.46500
C  50.10100 49.50700 43.01500
C  49.13100 50.57300 42.93500
C  48.06400 50.01100 42.31200
C  48.41700 48.68700 41.89600
C  49.21200 52.03500 43.33000
C  46.70400 50.29000 41.83900
O  46.02800 51.27200 41.98100
C  46.25900 48.99200 41.02500
C  44.97200 48.52200 41.57200
O  44.69900 48.22600 42.74900
O  44.09300 48.34300 40.47400
C  42.86600 47.57400 40.82700
H  49.19700 42.69700 40.15300
H  54.47700 44.79400 42.88100
H  51.85500 50.51700 43.89900
H  45.69200 45.96000 40.48900
H  47.37800 44.06100 38.74500
H  45.30000 43.66900 40.65100
H  46.70800 42.65300 41.01600
H  45.99900 42.60000 39.47000
H  46.92400 45.97000 37.68500
H  46.85600 47.48400 38.44100
H  44.64100 47.65500 37.82500
H  44.30300 46.37000 38.80300
H  51.81100 40.69600 40.20200
H  50.09700 40.90300 40.65000
H  51.18200 40.30700 41.90000
H  54.97200 42.73600 44.18600
H  55.85900 42.89800 42.64000
H  55.88200 41.42800 43.47700
H  55.18000 47.68700 42.53500
H  53.89800 49.14500 44.72600
H  56.56400 47.06600 44.09700
H  55.33600 46.15400 44.90600
H  55.61100 47.96200 45.27300
H  55.64900 49.98300 43.01500
H  54.39100 50.97900 43.62700
H  54.89000 51.23400 41.02600
H  53.25700 51.31000 41.58900
H  53.86000 49.85000 40.81400
H  49.34700 52.56400 42.38700
H  50.11100 52.23000 43.91400
H  48.30400 52.17300 43.91800
H  46.01700 49.21300 39.98600
H  42.05700 47.60000 40.09700
H  42.34000 47.97600 41.69300
H  43.10600 46.53600 41.05900
Mg -2.15000 34.14800 26.35900
C  -3.68900 32.42000 28.95500
C  -0.85300 36.41300 28.64400
C  -1.16700 36.09000 23.78700
C  -4.02300 32.20300 24.09000
N  -2.17100 34.29900 28.48500
C  -2.85800 33.47300 29.36500
C  -2.53200 33.80900 30.84300
C  -1.84900 35.26400 30.66700
C  -1.62900 35.36500 29.16500
C  -2.68400 36.51200 31.19100
C  -1.52300 32.79800 31.52500
C  -1.13000 33.08400 32.97400
H  -1.64900 32.25600 34.20300
N  -0.94500 35.95400 26.21800
C  -0.45100 36.70600 27.23900
C  0.38700 37.75700 26.63700
C  0.31600 37.65300 25.23500
C  -0.61200 36.47200 24.98900
C  1.22300 38.71100 27.43300
C  1.04700 38.54300 24.15700
O  0.72700 38.38300 22.97200
C  1.94500 39.70100 24.48600
N  -2.71200 34.30000 24.30700
C  -2.09200 35.09800 23.46100
C  -2.53900 34.83600 22.02300
C  -3.10900 33.40600 22.08800
C  -3.32900 33.30100 23.60100
C  -3.63300 35.85400 21.52700
C  -2.10600 32.20500 21.52900
C  -1.03700 31.69200 22.44800
N  -3.54400 32.55100 26.42100
C  -4.19300 31.89100 25.46000
C  -4.98600 30.89700 26.06800
C  -4.86200 31.04100 27.42300
C  -3.94700 32.08900 27.59800
C  -5.82700 29.89000 25.29100
C  -5.28200 30.53800 28.70000
O  -6.04300 29.59700 28.97300
C  -4.49000 31.44100 29.74200
C  -5.28100 32.03500 30.75500
O  -6.15200 32.93500 30.59300
O  -4.90400 31.54100 31.91200
C  -5.53700 32.11600 33.13100
H  -0.47300 37.13300 29.37200
H  -0.80500 36.70100 22.95700
H  -4.53700 31.51600 23.41500
H  -3.43600 33.89400 31.44600
H  -0.87900 35.31600 31.16100
H  -3.37500 36.09500 31.92300
H  -3.32300 37.01700 30.46700
H  -2.09200 37.22600 31.76400
H  -0.60200 32.61400 30.97300
H  -2.05500 31.85400 31.64500
H  -1.42300 34.12800 33.08900
H  -0.04500 33.10600 33.07600
H  2.28100 38.59000 27.20400
H  1.10600 38.65300 28.51500
H  0.78900 39.63800 27.05600
H  2.36900 40.02800 23.53600
H  2.75400 39.26900 25.07600
H  1.44200 40.53600 24.97300
H  -1.71000 34.94100 21.32400
H  -4.04800 33.37600 21.53600
H  -3.90800 36.52400 22.34200
H  -4.57200 35.46100 21.13700
H  -3.20600 36.34500 20.65300
H  -1.59600 32.63800 20.66800
H  -2.87200 31.48000 21.25700
H  -1.30100 30.78100 22.98400
H  -0.97800 32.51400 23.16200
H  -0.09900 31.53500 21.91600
H  -6.65200 30.40500 24.79900
H  -6.12400 29.13500 26.01800
H  -5.06500 29.49200 24.62100
H  -3.73800 30.83900 30.25300
H  -4.73400 32.34400 33.83200
H  -6.10200 31.24800 33.47200
H  -6.11500 33.03900 33.08900

