158

Mg 8.84400 3.00600 27.86500
C  9.63500 1.28300 30.75000
C  7.50700 5.52500 29.67400
C  7.15000 4.17000 25.02500
C  9.75700 0.16300 25.89400
N  8.37100 3.23200 30.10800
C  8.99100 2.45900 31.08300
C  8.83100 3.17200 32.42200
C  8.15700 4.52100 32.02700
C  7.92600 4.41400 30.48100
C  6.90900 4.99700 32.80200
C  10.17100 3.39200 33.08000
C  10.41300 4.57800 34.04900
H  10.97400 4.33900 35.41900
N  7.73500 4.71500 27.37900
C  7.39200 5.70800 28.23200
C  6.72600 6.75800 27.53400
C  6.50000 6.35100 26.22400
C  7.18300 5.01000 26.13000
C  6.34600 8.10900 28.26500
C  5.67400 7.11600 25.14200
O  5.45800 6.63200 24.05300
C  5.23200 8.50200 25.46600
N  8.47000 2.29200 25.84700
C  7.71000 2.94300 24.88600
C  7.78300 2.12600 23.52100
C  8.83300 0.98900 23.75600
C  8.99300 1.12700 25.27800
C  6.38800 1.47400 23.10200
C  10.20700 1.40300 23.11700
C  10.64000 0.38100 22.02300
N  9.56600 1.11400 28.24800
C  9.99000 0.13100 27.34600
C  10.84500 -0.83100 28.14800
C  10.69600 -0.44100 29.43600
C  9.85400 0.72700 29.43900
C  11.58700 -1.99000 27.65000
C  11.11200 -0.70500 30.76700
O  11.85600 -1.59400 31.13700
C  10.45400 0.43000 31.73100
C  9.49000 -0.26100 32.68200
O  8.31100 -0.54600 32.45900
O  10.05400 -0.46600 33.87900
C  9.27200 -1.08900 34.95400
H  7.17800 6.38100 30.26700
H  6.78000 4.52500 24.06100
H  10.15800 -0.73500 25.42000
H  8.33800 2.61400 33.21800
H  8.87800 5.32700 32.16100
H  7.13800 6.00800 33.14000
H  6.82300 4.29200 33.62900
H  5.92500 5.01400 32.33300
H  10.92500 3.37700 32.29300
H  10.27900 2.51900 33.72400
H  9.45700 5.04900 34.28200
H  10.87100 5.40400 33.50400
H  7.17100 8.81800 28.19600
H  6.27700 7.90900 29.33400
H  5.46700 8.64500 27.90700
H  4.38900 8.37200 26.14400
H  4.85500 9.07200 24.61800
H  6.06300 9.13400 25.78200
H  8.05300 2.87000 22.77200
H  8.54100 -0.04300 23.55800
H  5.74700 1.77900 23.92900
H  6.49600 0.39000 23.12600
H  6.04100 1.71800 22.09800
H  10.95200 1.40300 23.91200
H  10.18300 2.45300 22.82600
H  9.94000 -0.42700 21.80900
H  11.42800 -0.14200 22.56500
H  11.13300 0.82500 21.15900
H  12.13600 -1.62900 26.78000
H  10.92400 -2.72900 27.20000
H  12.27700 -2.37700 28.40000
H  11.23200 0.96100 32.28000
H  9.93000 -1.68900 35.58100
H  8.54200 -1.72200 34.44800
H  8.71100 -0.38100 35.56400
Mg 24.68900 -7.87000 45.87700
C  27.12600 -5.52000 45.00700
C  22.39600 -6.38600 43.96100
C  22.61400 -10.45000 46.64800
C  27.30500 -9.59300 47.73500
N  24.76900 -6.18100 44.62900
C  25.92000 -5.35800 44.40000
C  25.52900 -4.21400 43.32400
C  23.93500 -4.35000 43.20800
C  23.68900 -5.72200 43.92600
C  23.20200 -3.16300 43.84200
C  26.29600 -4.45500 42.00200
C  25.68600 -3.61000 40.85000
H  24.90200 -4.22700 39.69600
N  22.81300 -8.37900 45.33900
C  21.97300 -7.55500 44.65400
C  20.65300 -8.19700 44.55000
C  20.68100 -9.34600 45.33600
C  22.11300 -9.46500 45.81300
C  19.47100 -7.61500 43.67300
C  19.39600 -10.22600 45.68500
O  18.30400 -9.97500 45.16200
C  19.48400 -11.50000 46.41200
N  24.94300 -9.72800 46.92700
C  23.92600 -10.52500 47.14000
C  24.25100 -11.75600 48.05100
C  25.83900 -11.66800 48.19200
C  26.07500 -10.25600 47.53200
C  23.58800 -11.70200 49.45000
C  26.72900 -12.72800 47.45500
C  28.00000 -13.25900 48.25400
N  26.82800 -7.57900 46.36600
C  27.66900 -8.30800 47.14200
C  28.91400 -7.61600 47.24700
C  28.74500 -6.50300 46.42100
C  27.47300 -6.52100 45.86600
C  30.13600 -8.10000 48.05100
C  29.38100 -5.37500 45.85300
O  30.54200 -4.97400 46.06600
C  28.42300 -4.67100 44.81500
C  28.30200 -3.25200 45.09600
O  28.82800 -2.44900 44.32000
O  27.44800 -2.92600 46.13600
C  27.00500 -1.50400 46.17100
H  21.64600 -5.86900 43.35900
H  21.88900 -11.23300 46.88000
H  28.05600 -10.18500 48.26200
H  25.94900 -3.33900 43.82100
H  23.64300 -4.49900 42.16800
H  22.74200 -2.66000 42.99200
H  23.66600 -2.47900 44.55100
H  22.36300 -3.51900 44.44000
H  26.11400 -5.51100 41.80300
H  27.28900 -4.04100 42.17500
H  26.54500 -3.00200 40.56600
H  24.92500 -2.93000 41.23400
H  19.56400 -6.53700 43.53800
H  18.50000 -7.75400 44.14800
H  19.51700 -8.22300 42.76900
H  19.95100 -11.23700 47.36100
H  20.15600 -12.14800 45.84900
H  18.52300 -11.99900 46.53300
H  24.06400 -12.64400 47.44800
H  26.16800 -11.71500 49.23100
H  23.14900 -12.69800 49.52100
H  22.80700 -10.95100 49.57300
H  24.19600 -11.75600 50.35300
H  26.94800 -12.31600 46.47000
H  26.10500 -13.59500 47.23400
H  28.23900 -12.71500 49.16800
H  28.86600 -13.18400 47.59600
H  27.80400 -14.32600 48.36600
H  30.50700 -9.00900 47.57700
H  29.88500 -8.20000 49.10700
H  30.85500 -7.28700 47.94800
H  28.90100 -4.74500 43.83900
H  26.45000 -1.28500 45.25900
H  27.81200 -0.79400 45.99100
H  26.36200 -1.29800 47.02700

