158

Mg 16.87400 -1.33700 28.12600
C  15.62700 0.38700 30.83400
C  18.61100 -3.34000 30.25900
C  18.53100 -2.59100 25.63100
C  15.41800 1.01500 25.99300
N  17.19400 -1.31400 30.39200
C  16.45500 -0.61100 31.27900
C  16.85300 -0.99900 32.73100
C  18.02900 -2.03400 32.52200
C  17.96500 -2.29700 30.95500
C  19.42100 -1.46500 32.95500
C  15.59000 -1.44400 33.53400
C  15.26300 -0.58300 34.80400
H  16.44000 -0.63400 35.84200
N  18.05700 -2.96300 27.96100
C  18.68000 -3.69300 28.91900
C  19.39000 -4.82800 28.35200
C  19.38400 -4.66700 26.95100
C  18.57400 -3.40200 26.75100
C  20.11800 -5.87100 29.08700
C  19.98400 -5.55500 25.94700
O  19.80400 -5.28200 24.79700
C  20.90400 -6.74900 26.32800
N  16.94900 -0.84400 26.13000
C  17.87300 -1.44200 25.35000
C  17.99800 -0.77300 23.92500
C  16.79800 0.28500 23.99300
C  16.37400 0.18100 25.44400
C  19.39700 -0.30300 23.42200
C  15.67600 0.07900 23.06300
C  15.35000 1.20200 22.00800
N  15.75800 0.39200 28.35700
C  15.19400 1.22900 27.38000
C  14.43100 2.23500 28.06000
C  14.57300 1.93800 29.42800
C  15.36400 0.84000 29.56100
C  13.56500 3.19600 27.44800
C  14.21100 2.40500 30.72800
O  13.45900 3.33300 31.06900
C  14.99500 1.48500 31.68000
C  16.06500 2.26000 32.41100
O  17.10300 2.71100 31.93200
O  15.57100 2.69300 33.62400
C  16.11500 3.88200 34.28000
H  19.16000 -4.05800 30.87000
H  19.12700 -2.91000 24.77300
H  14.94700 1.66300 25.25000
H  17.26900 -0.08800 33.16100
H  17.81800 -2.98000 33.02000
H  19.32200 -0.52400 33.49500
H  20.17100 -1.38400 32.16800
H  19.79300 -2.17800 33.69100
H  15.68500 -2.50800 33.75100
H  14.70000 -1.29100 32.92400
H  14.29700 -0.87800 35.21500
H  15.18900 0.47600 34.56000
H  19.70700 -6.86100 28.89000
H  20.06300 -5.67000 30.15600
H  21.16600 -5.67600 28.85700
H  20.46600 -7.56300 26.90700
H  21.86400 -6.46600 26.76100
H  21.07500 -7.21000 25.35600
H  17.59100 -1.47800 23.19900
H  17.14500 1.31600 23.91500
H  19.47600 0.77900 23.31500
H  19.49000 -0.62300 22.38400
H  20.10800 -0.76500 24.10700
H  14.70800 -0.10000 23.53200
H  15.80800 -0.81000 22.44800
H  15.64200 2.22000 22.26700
H  14.27900 1.18100 21.80800
H  15.73800 0.91600 21.03000
H  14.05800 3.84300 26.72200
H  13.11900 3.94200 28.10600
H  12.73100 2.61000 27.06200
H  14.34500 1.06000 32.44500
H  15.94900 3.78300 35.35200
H  15.60500 4.73000 33.82300
H  17.19000 3.96000 34.11800
Mg 4.46400 53.87800 40.46100
C  4.69900 50.44200 40.87500
C  7.58700 53.80900 38.86000
C  4.11500 57.08000 39.73400
C  1.28600 53.81500 42.07500
N  5.83600 52.26500 39.74300
C  5.75200 50.93300 40.13600
C  6.99200 50.17100 39.69600
C  8.06500 51.33700 39.40500
C  7.10100 52.54600 39.30500
C  9.22800 51.50400 40.33000
C  6.83200 49.23000 38.47200
C  5.74100 49.45000 37.44500
H  6.11700 49.60400 36.01400
N  5.64300 55.24900 39.31700
C  6.90500 55.04800 38.82300
C  7.44100 56.32000 38.42000
C  6.43500 57.32800 38.69000
C  5.30300 56.58000 39.20900
C  8.87600 56.52200 38.02600
C  6.60300 58.87300 38.56900
O  7.73300 59.28300 38.27400
C  5.56400 59.92900 38.93800
N  2.79500 55.21500 40.65500
C  3.01100 56.52600 40.38500
C  1.90000 57.41500 40.99400
C  0.89200 56.31500 41.58800
C  1.68100 55.04000 41.44500
C  2.41100 58.32500 42.16400
C  -0.45300 56.19700 40.82900
C  -1.39000 57.29300 40.57500
N  3.15300 52.49300 41.37200
C  1.97100 52.59400 42.00000
C  1.68300 51.38100 42.72900
C  2.73900 50.48000 42.33000
C  3.60500 51.18400 41.46700
C  0.56700 51.07700 43.60700
C  3.19300 49.16500 42.42200
O  2.71700 48.13700 42.95000
C  4.35900 49.02400 41.38800
C  3.88700 48.14400 40.22000
O  3.24000 48.60600 39.26600
O  4.31300 46.81000 40.27800
C  3.93700 45.94700 39.13600
H  8.64900 53.79800 38.60500
H  4.02400 58.16800 39.73500
H  0.33800 53.85400 42.61600
H  7.43300 49.65300 40.54700
H  8.38200 51.18500 38.37300
H  9.08500 52.38800 40.95100
H  10.18500 51.68200 39.84000
H  9.37400 50.59600 40.91500
H  6.72400 48.23700 38.90800
H  7.74100 49.19500 37.87200
H  5.08800 50.25700 37.77700
H  5.17900 48.51900 37.51900
H  8.89700 56.76300 36.96300
H  9.37800 55.56400 37.88600
H  9.47900 57.31200 38.47500
H  5.92500 60.82700 38.43700
H  5.57300 60.06000 40.02000
H  4.59300 59.63700 38.53900
H  1.39100 58.03200 40.25200
H  0.78200 56.47000 42.66200
H  3.43600 58.12400 42.47500
H  1.65900 58.31000 42.95300
H  2.30500 59.37400 41.88800
H  -0.98300 55.38100 41.32000
H  -0.26100 55.79900 39.83300
H  -2.38600 56.89300 40.76200
H  -1.34700 57.61200 39.53300
H  -1.12600 58.14000 41.20900
H  -0.36600 51.50500 43.24100
H  0.83300 51.47600 44.58600
H  0.48600 50.00300 43.77100
H  5.22500 48.54200 41.84200
H  2.85400 45.89800 39.01900
H  4.32900 44.96400 39.39700
H  4.39200 46.40300 38.25600

