158

Mg 25.41900 1.83700 30.00700
C  27.65100 2.00600 32.73000
C  22.87800 2.05600 32.31400
C  23.23600 1.77700 27.49200
C  27.98900 1.00500 27.95700
N  25.31200 2.17300 32.33300
C  26.35400 2.28600 33.21300
C  25.88000 2.52100 34.64000
C  24.34500 2.42100 34.46100
C  24.14300 2.11000 32.94500
C  23.51400 1.50500 35.45500
C  26.39300 3.78600 35.36200
C  26.85500 3.51700 36.81500
H  26.36400 4.51800 37.95600
N  23.39100 1.86200 29.90900
C  22.52100 2.01500 30.94100
C  21.10400 1.98400 30.45200
C  21.19100 1.95000 29.03500
C  22.65000 1.89100 28.77900
C  19.84800 2.25600 31.29600
C  20.08900 2.05300 27.93700
O  20.25300 1.86100 26.72200
C  18.68800 2.14400 28.39000
N  25.54200 1.30300 27.97800
C  24.53000 1.44100 27.16300
C  25.02800 1.32300 25.68100
C  26.54500 0.91000 25.82000
C  26.69900 1.11000 27.35800
C  24.20300 0.30000 24.81100
C  27.53700 1.80100 24.93700
C  27.75300 3.30000 25.25100
N  27.43600 1.49400 30.27000
C  28.36500 1.24300 29.31200
C  29.63400 0.99500 29.93900
C  29.40700 1.29900 31.26000
C  28.02000 1.61000 31.39700
C  30.89200 0.49900 29.19700
C  30.00400 1.39500 32.62700
O  31.12900 1.08100 32.90700
C  28.89400 1.88500 33.61000
C  28.79500 0.85800 34.68500
O  28.08100 -0.09300 34.77400
O  29.79800 1.09100 35.59700
C  29.67400 0.26100 36.83600
H  22.06000 2.24900 33.01100
H  22.55700 1.83800 26.63800
H  28.76500 0.72900 27.24100
H  26.19300 1.67000 35.24500
H  23.84900 3.38600 34.55500
H  22.49400 1.28900 35.13900
H  23.46600 2.00300 36.42400
H  23.96000 0.52700 35.63300
H  25.67300 4.59400 35.49100
H  27.19800 4.19700 34.75400
H  27.91800 3.75900 36.80700
H  26.75500 2.48000 37.13600
H  20.15900 2.33600 32.33700
H  19.15700 1.42500 31.44000
H  19.33600 3.16300 30.97400
H  17.87000 1.83100 27.74000
H  18.67200 3.19600 28.67500
H  18.54600 1.46900 29.23300
H  24.90300 2.25200 25.12500
H  26.71300 -0.15300 25.65000
H  23.91900 0.86100 23.92000
H  23.26400 0.16200 25.34700
H  24.44500 -0.73800 24.58300
H  27.14700 1.85000 23.92100
H  28.46500 1.23600 24.85800
H  27.58500 3.97200 24.40900
H  28.80200 3.49500 25.47600
H  27.06100 3.54300 26.05700
H  30.92100 0.89300 28.18100
H  30.76200 -0.56300 29.40600
H  31.72900 0.80000 29.82700
H  28.99500 2.89200 34.01500
H  29.95800 -0.79000 36.88700
H  28.62700 0.30600 37.13600
H  30.22100 0.88300 37.54400
Mg 34.92300 3.32600 29.89800
C  32.76600 4.34500 32.45200
C  37.66700 3.51800 32.36100
C  37.24800 2.64400 27.53000
C  32.55400 3.72500 27.57600
N  35.20300 3.82700 32.18200
C  34.08800 4.06700 32.99900
C  34.51800 3.99600 34.44700
C  36.10700 4.08600 34.42400
C  36.43200 3.81800 32.89700
C  36.63000 5.50500 34.83800
C  34.01500 2.72600 35.21500
C  33.87900 2.87800 36.71100
H  34.76900 3.98300 37.55000
N  37.09900 2.90900 29.99300
C  38.00100 2.99200 31.06300
C  39.29100 2.56900 30.61700
C  39.23200 2.22400 29.25900
C  37.83400 2.53500 28.86000
C  40.49900 2.47400 31.60600
C  40.29300 1.56100 28.36000
O  40.03600 1.24400 27.24200
C  41.70700 1.46900 28.81700
N  35.01300 3.39700 27.87500
C  36.03600 3.05900 27.06500
C  35.60200 2.98900 25.57100
C  34.05600 3.07800 25.60600
C  33.87100 3.39700 27.14100
C  36.33300 4.08300 24.69200
C  33.33800 1.74000 25.30000
C  32.21700 1.68500 24.33700
N  33.05500 3.91900 29.92200
C  32.19600 4.05500 28.89100
C  30.91700 4.42100 29.35300
C  31.06800 4.55100 30.76000
C  32.44000 4.21800 31.06500
C  29.71000 4.68200 28.48900
C  30.42500 4.91900 31.99700
O  29.25900 5.42800 32.09400
C  31.46600 4.66100 33.19300
C  31.56200 5.81500 34.11700
O  32.39400 6.68900 33.96300
O  30.70800 5.61800 35.20600
C  30.71900 6.71400 36.24000
H  38.51600 3.60100 33.04200
H  37.86000 2.45400 26.64600
H  31.83600 3.85200 26.76300
H  34.15600 4.80200 35.08400
H  36.55400 3.42400 35.16600
H  36.06800 6.10900 35.55000
H  36.84200 6.04900 33.91800
H  37.59600 5.39900 35.33100
H  34.68000 1.90100 34.96200
H  32.97000 2.54800 34.96200
H  34.03400 1.92000 37.20800
H  32.86200 3.16400 36.97900
H  41.31800 3.05400 31.17900
H  40.70600 1.40400 31.64800
H  40.25000 2.73800 32.63300
H  41.74700 0.75200 29.63700
H  41.96900 2.43200 29.25500
H  42.44600 1.30700 28.03200
H  35.91600 2.00300 25.22800
H  33.62300 3.85700 24.97900
H  36.97300 4.75500 25.26400
H  35.70800 4.73900 24.08700
H  36.92300 3.49600 23.98900
H  32.84700 1.33600 26.18500
H  34.04400 0.92600 25.13200
H  32.08000 2.65600 23.86000
H  31.29000 1.44700 24.85800
H  32.50300 0.84900 23.69900
H  29.41600 3.78800 27.94000
H  29.89600 5.45400 27.74100
H  28.88100 5.05300 29.09200
H  31.10300 3.77300 33.71100
H  31.63500 6.79200 36.82600
H  29.83400 6.65400 36.87400
H  30.50700 7.59300 35.63100

