158

Mg 25.43900 1.99300 29.99800
C  27.41500 1.55700 32.82500
C  22.55100 1.78800 32.03200
C  23.52200 1.92500 27.22100
C  28.29500 1.30300 27.90900
N  25.02500 1.78800 32.21200
C  26.05500 1.67400 33.11100
C  25.43400 1.68200 34.52900
C  23.86000 1.53000 34.31300
C  23.77700 1.70500 32.75500
C  23.23400 0.18100 34.80200
C  25.71500 2.99100 35.24700
C  26.37900 2.96300 36.65200
H  25.76700 3.79300 37.75600
N  23.33300 1.93500 29.67300
C  22.33600 1.91700 30.64700
C  21.07200 1.87600 29.93100
C  21.34400 1.76300 28.55100
C  22.76700 1.85300 28.43200
C  19.77500 1.68100 30.67400
C  20.37300 1.38500 27.41900
O  20.73900 1.21600 26.26300
C  18.94700 1.17400 27.66100
N  25.81700 1.74700 27.92000
C  24.87300 1.87800 26.99400
C  25.45600 2.10000 25.56900
C  26.92400 1.73700 25.75600
C  27.06100 1.62900 27.25900
C  24.75800 1.46100 24.31200
C  28.03700 2.68500 25.10700
C  27.88500 4.16100 25.51600
N  27.54200 1.68600 30.26200
C  28.49700 1.31600 29.36700
C  29.57200 0.86100 30.11100
C  29.26800 0.98500 31.43100
C  27.98300 1.53100 31.51700
C  30.87400 0.49000 29.59200
C  29.78800 0.80000 32.78700
O  30.89500 0.36800 33.21100
C  28.61500 1.29900 33.78600
C  28.34100 0.18400 34.78700
O  27.74600 -0.79600 34.43900
O  28.80000 0.63900 35.98800
C  28.78700 -0.40000 37.03100
H  21.64300 1.78300 32.63800
H  22.83900 2.10400 26.38900
H  29.06000 1.10100 27.15600
H  25.79100 0.78800 35.04000
H  23.24900 2.35800 34.67200
H  23.64500 -0.67000 34.26100
H  22.18600 0.17900 34.50300
H  23.26400 -0.08900 35.85800
H  24.76900 3.52600 35.33300
H  26.35800 3.67600 34.69500
H  27.39100 3.36900 36.66100
H  26.48800 1.95800 37.06000
H  19.22400 0.76500 30.46300
H  19.16200 2.52900 30.36900
H  19.90300 1.91400 31.73200
H  18.42900 1.98800 28.16900
H  18.91400 0.29200 28.30100
H  18.39200 0.92000 26.75800
H  25.39800 3.16800 25.35900
H  27.14100 0.82600 25.19900
H  23.70400 1.30600 24.54200
H  25.18800 0.48400 24.08900
H  24.74700 2.15600 23.47200
H  27.82700 2.62500 24.03900
H  29.06300 2.34500 25.25200
H  28.77500 4.67900 25.87300
H  27.05700 4.26800 26.21700
H  27.59300 4.64600 24.58400
H  31.22700 1.34700 29.01900
H  30.69200 -0.41000 29.00300
H  31.52500 0.25900 30.43500
H  28.84700 2.13600 34.44400
H  27.76500 -0.44700 37.40900
H  29.47900 -0.13100 37.82900
H  29.15400 -1.35100 36.64500
Mg 48.60500 44.93600 42.96200
C  45.16300 45.04400 42.10600
C  48.61100 41.59800 42.12700
C  51.98900 45.01400 43.36800
C  48.45400 48.40900 43.51200
N  47.10700 43.52100 41.95100
C  45.74600 43.81000 41.89900
C  44.94600 42.54500 41.58700
C  46.02400 41.47000 41.50300
C  47.34200 42.15700 42.00700
C  45.68800 40.20200 42.33200
C  44.11900 42.71300 40.22800
C  44.92700 43.42900 39.16700
H  44.87500 42.72400 37.72800
N  50.10300 43.53700 42.55000
C  49.86700 42.27200 42.30700
C  51.10100 41.52500 42.39400
C  52.15100 42.42200 42.67600
C  51.43700 43.73400 42.87500
C  51.23300 40.03000 42.11900
C  53.66800 42.17500 42.73700
O  53.96800 40.99300 42.54300
C  54.65100 43.20600 42.99800
N  50.12500 46.62100 42.96800
C  51.38400 46.31200 43.37200
C  52.08400 47.62100 43.82400
C  51.03200 48.65900 43.86800
C  49.77200 47.87100 43.45800
C  52.87400 47.44500 45.19200
C  51.18100 49.89500 42.84000
C  52.00600 51.09800 43.24200
N  47.18300 46.47600 42.89700
C  47.24500 47.78600 43.25900
C  45.95400 48.45400 43.15300
C  45.12700 47.42000 42.71400
C  45.85900 46.20800 42.63800
C  45.79200 49.94100 43.30100
C  43.77100 47.13400 42.22800
O  42.77500 47.85300 42.14700
C  43.70700 45.55500 41.85800
C  42.60600 44.87400 42.65600
O  41.71100 44.17700 42.27200
O  42.78500 45.24900 43.98500
C  41.80000 44.74100 44.91200
H  48.56900 40.51300 42.00900
H  53.02000 44.97900 43.72600
H  48.28400 49.48600 43.57000
H  44.21400 42.37100 42.37600
H  46.16800 41.09600 40.48900
H  44.61600 40.26500 42.51700
H  46.32000 40.19400 43.22000
H  45.92600 39.30600 41.75800
H  43.20000 43.24500 40.47200
H  43.83500 41.72200 39.87300
H  45.92800 43.67300 39.52400
H  44.47500 44.41600 39.06900
H  51.96300 39.79100 41.34600
H  50.32100 39.53600 41.78300
H  51.53200 39.56100 43.05600
H  54.59200 44.13100 42.42500
H  55.59900 42.71400 42.78300
H  54.82200 43.31300 44.06900
H  52.80300 47.79700 43.02400
H  50.96000 48.95700 44.91400
H  53.89600 47.66000 44.87800
H  52.65900 46.40100 45.41600
H  52.67200 48.21000 45.94200
H  50.17600 50.16300 42.51500
H  51.72000 49.45500 42.00000
H  52.89700 51.19500 42.62100
H  52.19300 51.01100 44.31200
H  51.31800 51.92500 43.06700
H  46.30400 50.43400 42.47400
H  46.16900 50.27300 44.26800
H  44.71300 50.06600 43.21100
H  43.40500 45.56000 40.81100
H  41.66100 43.66900 44.77600
H  40.83400 45.24700 44.89900
H  42.13300 44.93700 45.93100

