158

Mg 35.37900 1.85600 30.06400
C  33.36100 2.99700 32.51900
C  38.05000 1.80500 32.30400
C  37.38500 1.21800 27.48800
C  32.62200 2.24300 27.78500
N  35.64100 2.34500 32.07500
C  34.67300 2.65500 32.94200
C  35.10400 2.47700 34.42100
C  36.65300 2.39000 34.26800
C  36.80600 2.24300 32.77900
C  37.55200 3.57300 34.90200
C  34.44100 1.30800 35.06700
C  34.19000 1.48800 36.59900
H  34.75900 2.72500 37.34500
N  37.48100 1.60200 29.88300
C  38.36300 1.53900 30.94700
C  39.68300 1.34900 30.37000
C  39.47000 1.10500 28.94800
C  38.07800 1.28000 28.63100
C  40.94000 1.62300 31.05900
C  40.50600 0.88300 27.90800
O  40.23500 0.69400 26.74400
C  41.98200 0.71200 28.13300
N  35.01000 1.74300 27.95900
C  36.04100 1.46000 27.17600
C  35.62100 1.41800 25.64800
C  34.09400 1.40600 25.79100
C  33.87800 1.86100 27.24400
C  36.18200 2.58900 24.76200
C  33.36700 0.05400 25.29700
C  32.95100 -0.01500 23.79500
N  33.34800 2.47600 30.05100
C  32.38000 2.61500 29.12000
C  31.22100 3.25200 29.72400
C  31.56900 3.43300 31.07800
C  32.87900 2.92700 31.20800
C  30.07500 3.67200 28.91300
C  31.14500 3.96200 32.29400
O  30.07400 4.49400 32.60900
C  32.26100 3.59700 33.35000
C  32.68500 4.75700 34.18500
O  33.33300 5.70600 33.79400
O  32.03200 4.62900 35.37600
C  32.09600 5.84300 36.21000
H  38.81600 1.69100 33.07300
H  38.06400 1.08200 26.64400
H  31.86300 2.35700 27.00800
H  34.87800 3.38100 34.98700
H  37.01200 1.48200 34.75200
H  36.95700 4.42900 35.22000
H  38.26200 3.94000 34.16000
H  38.23100 3.26300 35.69600
H  35.05600 0.40900 35.03300
H  33.46700 1.18500 34.59500
H  34.58900 0.56200 37.01400
H  33.13600 1.48400 36.87800
H  41.39600 0.66400 31.30500
H  40.72400 2.04000 32.04300
H  41.73300 2.27600 30.69500
H  42.20200 -0.18900 28.70600
H  42.27900 1.59800 28.69500
H  42.52800 0.63000 27.19300
H  35.89500 0.47800 25.16900
H  33.70000 2.10500 25.05400
H  36.68100 3.31000 25.41000
H  35.34500 3.11600 24.30300
H  36.85700 2.23400 23.98300
H  32.49700 -0.06200 25.94500
H  34.03300 -0.80900 25.30500
H  33.21400 0.92600 23.31100
H  31.89200 -0.24500 23.67800
H  33.56900 -0.76100 23.29600
H  29.32400 2.95000 28.59200
H  30.36300 4.16100 27.98200
H  29.65400 4.43100 29.57100
H  31.66400 2.98700 34.02900
H  32.60400 6.67300 35.72000
H  32.59200 5.50700 37.12100
H  31.06100 6.15300 36.35400
Mg 47.49700 34.34400 27.63700
C  45.52100 32.76300 30.12100
C  47.75900 37.04500 29.81700
C  48.98400 35.91400 25.07000
C  46.56600 31.81700 25.45700
N  46.86900 34.72000 29.76600
C  46.18800 33.86700 30.60700
C  46.23400 34.41700 32.09800
C  46.39600 35.93800 31.80400
C  47.10700 35.92000 30.40500
C  45.07800 36.73000 31.72400
C  47.51400 33.88400 32.80700
C  47.38900 33.73400 34.30200
H  46.26000 34.56000 34.98500
N  48.28300 36.22100 27.42400
C  48.39800 37.13700 28.50100
C  49.26700 38.26100 28.03700
C  49.47600 38.00000 26.64000
C  48.98000 36.66800 26.29900
C  49.70100 39.35100 29.02400
C  50.20400 38.89700 25.66200
O  50.46300 38.44000 24.50800
C  50.70800 40.28500 26.04200
N  47.89300 33.83700 25.53000
C  48.50100 34.66700 24.71500
C  48.27700 34.27200 23.22300
C  47.78200 32.77600 23.39000
C  47.36300 32.78300 24.84300
C  47.14000 35.22700 22.54400
C  48.88100 31.70700 23.06000
C  50.07700 31.56200 24.00400
N  46.31000 32.63200 27.69600
C  46.04800 31.69200 26.69400
C  45.34000 30.57400 27.32500
C  45.10200 31.03200 28.65300
C  45.67100 32.23100 28.83700
C  44.96900 29.28300 26.73800
C  44.34200 30.62700 29.84500
O  43.72800 29.58700 30.01800
C  44.40700 31.85000 30.82100
C  44.52600 31.47200 32.23900
O  45.56300 31.28500 32.77600
O  43.28400 31.63900 32.84100
C  43.25600 31.51300 34.32400
H  47.69900 37.90700 30.48500
H  49.42600 36.33200 24.16300
H  46.25700 30.92500 24.90800
H  45.27400 34.22900 32.58000
H  46.94500 36.50400 32.55600
H  44.58000 36.59900 30.76300
H  45.16500 37.74000 32.12400
H  44.42600 36.20800 32.42400
H  48.38800 34.49900 32.59300
H  47.57300 32.92700 32.28800
H  48.32100 33.88200 34.84800
H  47.16400 32.67300 34.40700
H  50.75500 39.62900 29.02600
H  49.47000 38.97100 30.01900
H  49.06000 40.22900 28.94800
H  49.90300 40.80600 26.56100
H  50.95700 40.75100 25.08900
H  51.49000 40.10900 26.78100
H  49.24100 34.39500 22.72800
H  46.94500 32.53200 22.73600
H  46.82300 36.02400 23.21700
H  46.28200 34.62400 22.24900
H  47.56600 35.61100 21.61700
H  49.14500 31.91500 22.02300
H  48.40600 30.72800 23.00300
H  50.87800 31.93700 23.36600
H  50.06400 30.48900 24.19600
H  50.13300 32.12100 24.93800
H  45.76200 28.94300 26.07100
H  44.01600 29.34300 26.21200
H  45.00600 28.51400 27.50900
H  43.50600 32.44400 30.66900
H  43.83100 30.61900 34.56500
H  42.24300 31.34100 34.68700
H  43.57400 32.43200 34.81600

