158

Mg 44.09600 5.27200 47.05300
C  42.07500 8.17200 46.73900
C  41.33600 3.31400 46.45600
C  45.99400 2.57300 46.54000
C  46.83600 7.34400 46.95100
N  41.91600 5.73400 46.75600
C  41.34700 6.91400 46.51300
C  39.90900 6.74700 45.98500
C  39.62200 5.19300 46.34200
C  41.00900 4.67900 46.49900
C  38.60100 4.86900 47.56100
C  39.71200 7.04500 44.41200
C  39.08500 8.40300 44.00300
H  39.70500 9.19800 42.87300
N  43.69200 3.19300 46.60400
C  42.50000 2.57000 46.43700
C  42.63400 1.19800 46.16900
C  44.02200 0.91100 46.20000
C  44.67400 2.23100 46.45400
C  41.48300 0.29400 45.87000
C  44.65800 -0.53400 46.01300
O  43.93000 -1.53000 45.77400
C  46.10500 -0.71800 45.77400
N  46.09400 4.98200 46.95500
C  46.65800 3.79400 46.79000
C  48.17500 3.84200 46.71100
C  48.53100 5.34200 46.66000
C  47.09200 5.95400 46.92200
C  48.80400 2.96300 47.84200
C  49.03200 5.92100 45.28100
C  50.29400 5.31900 44.66100
N  44.45800 7.35000 46.99000
C  45.63800 8.01300 46.97500
C  45.36100 9.42400 46.95300
C  43.96200 9.54900 46.91000
C  43.45100 8.24400 46.92800
C  46.36400 10.57600 46.88800
C  42.84200 10.49000 46.84300
O  42.80700 11.71100 46.81000
C  41.58800 9.60900 46.66400
C  40.61500 9.94400 47.72800
O  40.65500 9.46600 48.86000
O  39.67000 10.86300 47.30700
C  38.58600 11.17500 48.13900
H  40.44400 2.69000 46.37500
H  46.68200 1.82200 46.14600
H  47.66400 8.05600 46.97600
H  39.24600 7.45200 46.48600
H  39.20100 4.74300 45.44300
H  38.16900 3.91800 47.25200
H  37.76800 5.51400 47.84200
H  39.21800 4.86700 48.46000
H  39.15500 6.18700 44.03600
H  40.67900 6.95500 43.91700
H  39.04900 8.99200 44.92000
H  38.01600 8.22400 43.89200
H  40.48300 0.70200 46.01900
H  41.63800 -0.56500 46.52200
H  41.73200 -0.13900 44.90100
H  46.38000 0.08100 45.08600
H  46.30000 -1.73500 45.43400
H  46.65600 -0.69700 46.71400
H  48.49600 3.36500 45.78600
H  49.11400 5.56200 47.55400
H  49.54300 3.53700 48.40200
H  49.23600 2.00100 47.56600
H  48.10200 2.78500 48.65600
H  49.37300 6.93700 45.48100
H  48.16700 5.86600 44.62000
H  50.28400 4.91700 43.64800
H  50.64600 4.57400 45.37500
H  51.16100 5.98000 44.66200
H  46.38800 11.05800 45.91000
H  47.33600 10.22800 47.23800
H  45.90700 11.24200 47.61900
H  41.20000 9.72000 45.65200
H  37.67100 10.91700 47.60600
H  38.46500 12.23400 48.36900
H  38.43100 10.47800 48.96200
Mg 43.13900 41.75700 26.89600
C  42.24900 44.11500 29.35700
C  44.14100 39.60600 29.15200
C  44.19000 39.85300 24.28100
C  42.56000 44.42600 24.48600
N  43.41500 41.94900 29.05200
C  42.74400 42.85600 29.89600
C  42.73800 42.36900 31.35300
C  43.45000 40.95600 31.26300
C  43.66200 40.80900 29.75900
C  44.73100 40.81800 32.00500
C  41.25400 42.39100 31.90000
C  40.95100 43.35800 33.11500
H  40.17500 42.69600 34.28600
N  44.06500 39.99200 26.69900
C  44.35400 39.19700 27.80300
C  44.94800 37.97500 27.27900
C  44.94300 37.98800 25.83300
C  44.44200 39.36100 25.55300
C  45.45600 36.89900 28.11800
C  45.34000 36.90500 24.76400
O  45.48800 37.18500 23.62400
C  45.57400 35.53500 25.25300
N  43.51900 42.22200 24.62400
C  43.73200 41.09200 23.83300
C  43.53800 41.49000 22.38000
C  43.02800 43.02000 22.44700
C  42.99800 43.23100 23.93200
C  44.68800 41.24500 21.44700
C  41.72100 43.36800 21.63700
C  40.38000 42.72100 22.04800
N  42.67800 43.81800 26.93800
C  42.43400 44.69600 25.88100
C  41.92900 45.94600 26.40400
C  41.88100 45.78200 27.77000
C  42.30700 44.51200 28.04300
C  41.58700 47.19800 25.52100
C  41.60200 46.47000 29.02800
O  41.27100 47.62200 29.18900
C  41.77900 45.34300 30.19700
C  42.86600 45.84500 31.09100
O  43.99700 46.09800 30.69800
O  42.41400 46.08600 32.33300
C  43.19500 46.67100 33.37400
H  44.29600 38.78600 29.85600
H  44.37900 39.21500 23.41500
H  42.31300 45.22400 23.78300
H  43.34400 43.03300 31.96900
H  42.80100 40.15100 31.60700
H  45.61000 40.81000 31.36000
H  44.72400 39.87200 32.54700
H  44.95500 41.61800 32.71200
H  41.01600 41.36700 32.18600
H  40.65100 42.67200 31.03600
H  40.26500 44.12600 32.75800
H  41.80200 43.96900 33.41600
H  45.90100 37.36900 28.99500
H  46.31000 36.46600 27.59700
H  44.62000 36.27700 28.43800
H  45.72200 34.87800 24.39600
H  44.75200 35.10500 25.82400
H  46.46700 35.43200 25.87000
H  42.70000 40.84900 22.10600
H  43.76400 43.66800 21.97000
H  45.63500 41.09600 21.96500
H  44.82800 42.10400 20.79100
H  44.42000 40.35100 20.88300
H  41.73600 42.91900 20.64400
H  41.56000 44.42900 21.45200
H  40.24700 41.72700 21.62200
H  39.59100 43.43900 21.82300
H  40.35600 42.53600 23.12200
H  40.63600 46.98000 25.03500
H  42.23100 47.43000 24.67200
H  41.44400 48.06300 26.16800
H  40.83900 45.07400 30.68000
H  43.64400 45.79300 33.83800
H  42.67200 47.14200 34.20600
H  43.88000 47.41200 32.96200

