158

Mg -0.62800 6.76000 25.10600
C  0.09400 7.89600 28.27000
C  -0.97600 3.48700 26.37900
C  -0.83700 5.49600 21.95400
C  0.20800 9.92100 23.79900
N  -0.38900 5.75900 27.06400
C  -0.26000 6.55100 28.24400
C  -0.62100 5.63000 29.46500
C  -0.75200 4.20600 28.88300
C  -0.77400 4.45800 27.36900
C  0.43200 3.19000 29.18900
C  -1.83800 6.20500 30.27300
C  -1.80200 6.07700 31.81800
H  -1.08200 4.83100 32.48600
N  -0.99000 4.85100 24.28700
C  -1.14600 3.65100 24.98500
C  -1.59400 2.61000 24.09100
C  -1.45300 3.15600 22.78100
C  -1.09200 4.57200 22.92700
C  -1.95400 1.19100 24.52400
C  -1.43700 2.40600 21.40900
O  -1.25700 2.85400 20.29900
C  -1.84800 0.94500 21.37800
N  -0.19800 7.60900 23.07300
C  -0.49400 6.88600 21.97900
C  -0.41200 7.74200 20.74800
C  -0.41400 9.20700 21.36100
C  -0.18300 8.95000 22.88500
C  0.83100 7.38200 19.89900
C  -1.77000 9.99200 21.17000
C  -1.82000 10.99200 19.99400
N  0.16700 8.52300 25.87700
C  0.36100 9.80600 25.21400
C  0.72600 10.80100 26.21400
C  0.56600 10.11600 27.47900
C  0.23800 8.80100 27.18800
C  0.92200 12.26600 26.03300
C  0.56200 10.34700 28.89400
O  0.87700 11.27000 29.65300
C  0.28200 8.88100 29.42800
C  1.45000 8.43000 30.27300
O  2.52700 8.12300 29.79800
O  1.07700 8.45300 31.59400
C  2.18100 8.22500 32.61500
H  -1.07200 2.47900 26.78700
H  -0.93900 5.03300 20.97000
H  0.49300 10.84100 23.28400
H  0.25600 5.72200 30.10600
H  -1.67100 3.71000 29.19800
H  -0.03700 2.22300 29.37200
H  0.94800 3.41000 30.12400
H  1.15600 3.12500 28.37700
H  -2.72300 5.68600 29.90400
H  -2.05300 7.25900 30.09700
H  -2.79400 6.13900 32.26500
H  -1.27200 6.98400 32.11100
H  -1.06800 0.58100 24.34800
H  -2.75200 0.74700 23.92800
H  -2.21000 1.11000 25.58000
H  -1.93200 0.55100 20.36500
H  -2.87700 0.99100 21.73400
H  -1.15400 0.31900 21.93800
H  -1.27200 7.50800 20.12100
H  0.39500 9.75700 20.87900
H  0.77100 8.03600 19.02900
H  0.68600 6.33700 19.62300
H  1.78500 7.49200 20.41500
H  -1.83600 10.49400 22.13500
H  -2.68200 9.39500 21.16900
H  -1.78700 11.98400 20.44500
H  -2.71300 10.85800 19.38300
H  -0.96800 10.88500 19.32200
H  0.13400 12.72300 25.43400
H  1.89900 12.39700 25.56800
H  0.76500 12.74900 26.99800
H  -0.54100 8.99200 30.13400
H  3.12200 7.89600 32.17400
H  1.82500 7.58400 33.42200
H  2.43400 9.16400 33.10700
Mg 30.61100 58.15400 40.10000
C  28.07900 56.17400 38.70000
C  32.76300 55.84300 39.01100
C  33.07300 60.47200 40.61800
C  28.21400 60.73500 40.43700
N  30.40100 56.30500 38.82800
C  29.27200 55.56600 38.62400
C  29.60700 54.16800 38.12800
C  31.05700 53.97100 38.73300
C  31.44900 55.45300 38.86100
C  31.10700 53.19700 40.14100
C  29.63700 54.11100 36.51200
C  28.44800 53.37600 35.83900
H  27.59600 54.18700 34.83700
N  32.62000 58.16200 39.86200
C  33.30600 57.07700 39.28900
C  34.70700 57.38300 39.38800
C  34.88400 58.70000 39.88900
C  33.51000 59.22200 40.11400
C  35.77500 56.42800 38.87200
C  36.21200 59.42700 40.19100
O  37.25800 58.83800 39.96300
C  36.31100 60.80400 40.73800
N  30.64800 60.32400 40.61200
C  31.78400 60.93800 40.92600
C  31.50800 62.41100 41.32600
C  29.96800 62.40000 41.45700
C  29.58100 61.12000 40.69900
C  32.20300 62.89900 42.56000
C  29.17200 63.64100 40.92800
C  28.67700 64.59300 41.90100
N  28.52400 58.41300 39.83000
C  27.72400 59.56300 39.97100
C  26.38200 59.17900 39.53900
C  26.49600 57.87500 39.00000
C  27.82400 57.48200 39.16200
C  25.11800 59.96400 39.57800
C  25.71300 56.75500 38.42500
O  24.51700 56.62800 38.23000
C  26.69000 55.65500 38.21600
C  26.24900 54.45600 38.88000
O  26.81600 53.93400 39.82200
O  25.11900 53.90900 38.32900
C  24.40300 52.78200 38.90900
H  33.45000 55.02100 38.80000
H  33.82900 61.25000 40.74300
H  27.49600 61.52000 40.68300
H  28.98500 53.36300 38.52000
H  31.75100 53.56100 38.00000
H  31.59500 52.22600 40.05300
H  30.09200 52.82500 40.28500
H  31.43300 53.76400 41.01300
H  30.50100 53.50800 36.23300
H  29.69600 55.14700 36.17800
H  27.84000 52.96800 36.64700
H  28.80200 52.44000 35.40600
H  35.39200 55.62300 38.24500
H  36.20200 55.89400 39.72100
H  36.57900 56.93700 38.34100
H  37.33300 61.04300 41.03100
H  35.71300 60.92900 41.64100
H  36.05200 61.59100 40.03000
H  31.82000 62.95300 40.43400
H  29.55900 62.08800 42.41800
H  32.74500 63.79500 42.25600
H  32.82600 62.12900 43.01500
H  31.47900 63.19600 43.31800
H  28.24000 63.41200 40.41100
H  29.77600 64.22500 40.23300
H  28.68500 65.59700 41.47400
H  29.18600 64.55600 42.86400
H  27.62000 64.44800 42.12400
H  25.45000 60.92900 39.19600
H  24.77200 60.10800 40.60100
H  24.38900 59.55800 38.87700
H  26.72200 55.40300 37.15600
H  23.40500 53.12400 39.18100
H  24.88800 52.52000 39.84900
H  24.53000 51.91200 38.26500

