158

Mg 1.38100 8.37500 25.02900
C  1.88100 10.36100 27.80200
C  1.50500 5.60400 26.81400
C  0.89700 6.53400 22.20500
C  1.17700 11.34400 23.07600
N  1.76200 8.04500 27.08600
C  1.90300 9.00100 28.07200
C  2.03800 8.32500 29.49600
C  2.01200 6.79200 29.06200
C  1.70300 6.80100 27.55900
C  3.38100 6.05900 29.32700
C  0.81100 8.65200 30.45900
C  1.10300 8.72900 31.96700
H  2.33300 7.94400 32.58500
N  1.35000 6.34100 24.52600
C  1.47000 5.37300 25.51100
C  1.26500 4.13000 24.86500
C  0.97500 4.31600 23.49900
C  1.07500 5.77700 23.35000
C  1.26900 2.81800 25.53800
C  0.63400 3.38500 22.35300
O  0.19300 3.71300 21.25400
C  0.65500 1.99400 22.64200
N  1.20100 8.90200 22.92200
C  0.99700 7.91000 21.96700
C  0.78500 8.56800 20.57800
C  0.55600 10.13700 20.92500
C  0.94600 10.17900 22.40000
C  2.10200 8.36600 19.75900
C  -0.84600 10.68400 20.60200
C  -0.85100 11.39800 19.24600
N  1.47100 10.41500 25.33700
C  1.37400 11.52100 24.40900
C  1.50200 12.83700 25.15500
C  1.66500 12.41500 26.50000
C  1.71000 10.93800 26.51300
C  1.66200 14.22700 24.52500
C  1.87300 12.89000 27.81200
O  1.93700 14.01400 28.23900
C  1.93400 11.62300 28.70800
C  3.06100 11.81400 29.64500
O  4.19400 12.01300 29.27400
O  2.59800 11.88000 30.92700
C  3.45600 12.38400 32.00300
H  1.58600 4.76000 27.50200
H  0.88600 5.99600 21.25400
H  1.21900 12.20900 22.41100
H  2.99500 8.64200 29.90900
H  1.23600 6.19900 29.54700
H  3.19500 5.25700 30.04100
H  4.20400 6.64500 29.73300
H  3.72700 5.54300 28.43100
H  0.00900 7.94200 30.26000
H  0.50700 9.66600 30.20100
H  0.23000 8.26500 32.42500
H  1.08900 9.78400 32.23900
H  2.04400 2.17400 25.12200
H  0.31500 2.32300 25.71800
H  1.74400 3.04600 26.49300
H  0.50200 1.45700 21.70700
H  -0.22900 2.06100 23.27700
H  1.57300 1.66000 23.12500
H  -0.02500 8.03500 20.07800
H  1.28000 10.79600 20.44600
H  2.05600 7.31400 19.47500
H  2.96800 8.48600 20.40800
H  2.13000 8.97400 18.85500
H  -1.17200 11.33600 21.41200
H  -1.44000 9.78200 20.45900
H  -1.69200 11.12200 18.61100
H  0.05200 11.41000 18.63600
H  -1.15600 12.39400 19.56800
H  0.99400 14.93900 25.00900
H  1.45800 14.23700 23.45400
H  2.68500 14.60100 24.56800
H  1.04700 11.76600 29.32500
H  3.95700 11.46500 32.31000
H  2.88000 12.77900 32.84000
H  4.15300 13.14100 31.64400
Mg -2.43800 35.42800 26.25200
C  -3.69600 33.51500 28.91400
C  -1.18100 37.72700 28.54900
C  -1.22100 37.21600 23.75000
C  -3.86100 33.16300 24.09100
N  -2.47500 35.58700 28.46400
C  -3.01900 34.67700 29.32600
C  -2.83200 35.08600 30.82000
C  -1.92500 36.42100 30.62400
C  -1.85800 36.61400 29.12100
C  -2.31600 37.67200 31.39300
C  -2.28100 34.02500 31.79500
C  -1.25500 34.43300 32.82700
H  -1.21500 33.59700 34.10900
N  -1.28400 37.21400 26.13000
C  -0.83300 37.92900 27.20200
C  -0.02900 39.04300 26.72600
C  -0.01000 38.95000 25.26300
C  -0.79300 37.69400 25.00300
C  0.69700 40.01800 27.68200
C  0.69800 39.80900 24.15000
O  0.58800 39.58000 22.97400
C  1.49600 40.93800 24.61700
N  -2.83300 35.44700 24.23700
C  -2.13000 36.28400 23.44800
C  -2.45000 35.99000 22.02800
C  -3.01700 34.57200 22.05100
C  -3.25000 34.27800 23.53400
C  -3.36200 37.11500 21.55100
C  -2.09800 33.47800 21.32300
C  -0.64700 33.32700 21.81800
N  -3.60600 33.71800 26.41600
C  -4.10300 32.86000 25.42100
C  -4.79100 31.75400 25.99300
C  -4.64700 31.97500 27.37600
C  -3.88700 33.16100 27.58300
C  -5.31400 30.55700 25.25100
C  -4.95900 31.44700 28.62000
O  -5.68000 30.49100 28.89300
C  -4.30900 32.42200 29.66800
C  -5.43800 32.87900 30.59600
O  -6.39700 33.56500 30.25300
O  -5.24400 32.28700 31.84000
C  -6.31800 32.57600 32.82600
H  -0.76600 38.31700 29.36900
H  -0.83600 37.70800 22.85400
H  -4.23600 32.44000 23.36400
H  -3.76000 35.45600 31.25400
H  -0.96200 36.11100 31.03100
H  -3.10200 37.53000 32.13500
H  -2.50100 38.52600 30.74100
H  -1.54700 37.93300 32.11900
H  -1.75400 33.20300 31.31100
H  -3.17000 33.60300 32.26400
H  -1.46900 35.46900 33.08800
H  -0.30800 34.16600 32.35600
H  -0.08200 40.78000 27.67100
H  1.70800 40.28700 27.37500
H  0.81300 39.49500 28.63200
H  0.84900 41.57300 25.22200
H  1.87700 41.54800 23.79800
H  2.38200 40.55300 25.12300
H  -1.54900 36.07600 21.42200
H  -3.99600 34.46400 21.58400
H  -4.42500 36.89100 21.46000
H  -3.07500 37.44100 20.55100
H  -3.22500 38.03300 22.12300
H  -1.93600 33.72400 20.27300
H  -2.54000 32.49100 21.45200
H  -0.39200 34.15400 22.48000
H  0.09300 33.36800 21.01900
H  -0.47600 32.38300 22.33400
H  -5.41200 29.70000 25.91700
H  -4.57500 30.22800 24.52100
H  -6.17900 30.77300 24.62300
H  -3.61600 31.75800 30.18400
H  -5.87500 33.25500 33.55400
H  -6.61100 31.56700 33.11800
H  -7.18700 33.17200 32.54700

