158

Mg 47.49700 17.34500 29.01800
C  45.56300 16.73700 31.82600
C  50.09500 18.42600 31.13200
C  49.56700 17.64800 26.33100
C  45.07600 15.82000 27.02900
N  47.65400 17.78600 31.15500
C  46.78100 17.37100 32.13900
C  47.38800 17.56200 33.55700
C  48.68100 18.35000 33.38200
C  48.85800 18.18500 31.80600
C  48.78200 19.81300 33.89000
C  47.44500 16.19800 34.38500
C  47.19900 16.25600 35.93100
H  47.11000 17.66900 36.63000
N  49.54800 17.94700 28.76900
C  50.43200 18.39100 29.72600
C  51.67900 18.84900 29.16900
C  51.63200 18.53400 27.77300
C  50.18900 18.01100 27.50100
C  52.83100 19.47600 29.97800
C  52.68300 18.67000 26.66100
O  52.40500 18.46000 25.50700
C  54.15400 19.07200 27.01900
N  47.30700 16.83100 26.98300
C  48.28700 17.17200 26.03500
C  47.90500 16.66200 24.63200
C  46.51900 15.86500 24.94300
C  46.23800 16.19700 26.37400
C  47.75100 17.72200 23.56600
C  46.65700 14.32200 24.76100
C  46.22400 13.84600 23.38900
N  45.63900 16.56400 29.21000
C  44.71600 16.04900 28.34900
C  43.49900 15.66100 29.00600
C  43.83800 15.92500 30.36500
C  45.13700 16.52300 30.44200
C  42.18600 15.09500 28.42500
C  43.27400 15.85900 31.76500
O  42.12500 15.38700 32.00700
C  44.35200 16.29300 32.71300
C  43.91200 17.42600 33.48500
O  43.91900 18.55900 33.05300
O  43.51300 17.14200 34.71700
C  43.16100 18.14300 35.75300
H  50.92700 18.63500 31.80600
H  50.25000 17.56300 25.48300
H  44.33400 15.24200 26.47400
H  46.79700 18.24400 34.16800
H  49.47200 17.83200 33.92500
H  49.08500 20.41500 33.03400
H  49.55100 19.88700 34.65900
H  47.85800 20.16700 34.34800
H  48.45700 15.82200 34.23500
H  46.83700 15.47700 33.83800
H  47.93800 15.60900 36.40300
H  46.24800 15.75300 36.11200
H  53.58000 18.73500 30.25600
H  52.43900 19.91400 30.89600
H  53.30800 20.25000 29.37600
H  54.12100 20.14100 27.23100
H  54.69500 18.76600 26.12400
H  54.51900 18.37400 27.77300
H  48.65900 15.93100 24.34200
H  45.71800 16.30300 24.34900
H  48.44900 17.52700 22.75200
H  47.96400 18.68700 24.02500
H  46.77800 17.68900 23.07600
H  46.14300 13.74600 25.53000
H  47.71200 14.06100 24.85500
H  46.91500 13.14400 22.92200
H  46.04800 14.69500 22.72900
H  45.22700 13.41100 23.44300
H  42.25100 14.06000 28.76000
H  42.15500 15.25700 27.34800
H  41.37900 15.67700 28.87200
H  44.60100 15.45300 33.36100
H  42.20500 18.66100 35.67000
H  43.91800 18.92600 35.79200
H  43.13200 17.63300 36.71600
Mg -11.75200 38.54800 41.97900
C  -10.09000 35.72000 40.74800
C  -9.37000 40.55400 40.67500
C  -13.75100 41.07600 42.60900
C  -14.27800 36.35100 43.29300
N  -9.99800 38.17600 40.72000
C  -9.43500 36.95500 40.42500
C  -8.13400 37.19900 39.59700
C  -7.83500 38.69900 39.88000
C  -9.12500 39.18700 40.47400
C  -6.52400 39.10300 40.71200
C  -8.27200 36.70600 38.08800
C  -7.37600 35.60600 37.56000
H  -6.18600 36.04700 36.65400
N  -11.59300 40.58800 41.64000
C  -10.53800 41.17900 41.10100
C  -10.87900 42.61200 40.90300
C  -12.18100 42.74400 41.29800
C  -12.60500 41.40000 41.78500
C  -9.99400 43.65300 40.32300
C  -12.89800 44.05500 41.23900
O  -12.35900 45.12000 40.94600
C  -14.39900 44.01900 41.61500
N  -13.77500 38.70600 42.84900
C  -14.38700 39.90600 42.92900
C  -15.69500 39.80700 43.78600
C  -15.89400 38.26000 43.92800
C  -14.56900 37.71400 43.33600
C  -15.59500 40.56500 45.09800
C  -17.16000 37.64900 43.28100
C  -17.81400 36.53100 44.24100
N  -12.11600 36.45900 42.05200
C  -13.17800 35.69200 42.65700
C  -12.88500 34.30700 42.55300
C  -11.71800 34.24000 41.82700
C  -11.28900 35.56800 41.49900
C  -13.64200 33.06900 43.03400
C  -10.74200 33.36200 41.21500
O  -10.66400 32.16200 41.36000
C  -9.64800 34.30200 40.43500
C  -8.32500 33.99000 40.95900
O  -7.42700 33.45400 40.29400
O  -8.12600 34.46000 42.20400
C  -6.75300 34.39800 42.71800
H  -8.57500 41.21600 40.32500
H  -14.47500 41.84600 42.88300
H  -15.06400 35.82200 43.83500
H  -7.32100 36.62700 40.04400
H  -7.67200 39.16400 38.90800
H  -5.74400 38.39600 40.42900
H  -6.70100 39.05100 41.78600
H  -6.17600 40.08900 40.40500
H  -8.23400 37.60400 37.47200
H  -9.28700 36.33000 37.95800
H  -7.93700 34.77300 37.13600
H  -6.87900 35.22500 38.45200
H  -9.80900 44.42600 41.06900
H  -10.32700 44.22800 39.45800
H  -9.01500 43.27100 40.03400
H  -14.87600 43.28100 40.97000
H  -14.89900 44.93400 41.29700
H  -14.63200 43.79600 42.65600
H  -16.51600 40.21500 43.19600
H  -15.82900 37.89300 44.95200
H  -14.65200 41.09600 45.22500
H  -15.64600 40.02200 46.04200
H  -16.35800 41.34300 45.12700
H  -17.04500 37.19400 42.29800
H  -17.96300 38.38600 43.28100
H  -17.64100 35.55200 43.79400
H  -18.89100 36.64300 44.36400
H  -17.29100 36.46600 45.19500
H  -14.63600 33.12900 42.59000
H  -13.77100 33.10600 44.11600
H  -13.12100 32.12800 42.85800
H  -9.63900 34.02600 39.38100
H  -6.15200 33.56500 42.35200
H  -6.74100 34.24400 43.79700
H  -6.21900 35.30700 42.44000

