158

Mg 26.09500 1.24100 29.22300
C  28.01300 0.86900 32.13100
C  23.35500 1.75600 31.30900
C  24.11700 1.62400 26.47000
C  28.66800 0.19800 27.31500
N  25.72000 1.23100 31.55000
C  26.74500 1.25000 32.52800
C  26.16500 1.47100 33.89100
C  24.58700 1.62400 33.58500
C  24.53100 1.53000 32.05000
C  23.51400 0.72300 34.29100
C  26.83600 2.66700 34.71800
C  27.23300 2.28000 36.12100
H  27.20300 3.27800 37.30700
N  24.05400 1.61500 28.96800
C  23.12300 1.88500 29.93500
C  21.84900 2.16600 29.33900
C  22.08900 2.18500 27.95100
C  23.48600 1.79200 27.73300
C  20.57600 2.39800 30.11700
C  21.10500 2.66000 26.89200
O  21.42700 2.93300 25.76100
C  19.61300 3.08400 27.24900
N  26.30900 1.03700 27.04900
C  25.43800 1.23700 26.10700
C  26.01800 1.15300 24.71300
C  27.59000 0.74500 24.97800
C  27.52800 0.63900 26.52000
C  25.31000 0.17100 23.68000
C  28.61800 1.80800 24.39400
C  29.72300 1.22400 23.48900
N  27.94300 0.71700 29.55900
C  28.97000 0.43800 28.69100
C  30.23000 0.25800 29.37900
C  29.92100 0.41000 30.74900
C  28.46700 0.66700 30.80300
C  31.54900 -0.01100 28.69000
C  30.44800 0.50600 32.08800
O  31.62100 0.40700 32.47700
C  29.21300 0.78600 32.99400
C  29.11800 -0.36200 33.92700
O  28.66600 -1.49000 33.65100
O  29.66800 0.07300 35.11900
C  29.61600 -0.95300 36.19100
H  22.55400 2.08400 31.97400
H  23.47400 1.79800 25.60500
H  29.47900 -0.20800 26.70700
H  26.18900 0.59900 34.54400
H  24.34600 2.66100 33.82200
H  22.96900 0.19400 33.50800
H  22.96300 1.41300 34.92900
H  24.00100 -0.03800 34.90100
H  26.15100 3.49000 34.92300
H  27.66200 3.03900 34.11100
H  28.30100 2.07300 36.05900
H  26.63200 1.44900 36.49100
H  20.28500 3.44800 30.14100
H  20.60400 2.12500 31.17200
H  19.67600 2.03200 29.62300
H  19.10200 2.13000 27.37500
H  19.15900 3.67200 26.45200
H  19.53600 3.67800 28.16000
H  25.98000 2.18300 24.35900
H  27.75900 -0.29500 24.69800
H  25.51200 -0.87500 23.91100
H  25.63100 0.35800 22.65500
H  24.22000 0.20400 23.66800
H  29.17200 2.21300 25.24100
H  28.20000 2.72100 23.97100
H  29.45400 0.19300 23.25700
H  30.73600 1.16300 23.88600
H  29.68200 1.82700 22.58200
H  31.52500 0.52200 27.74000
H  31.57800 -1.08700 28.52300
H  32.46200 0.32800 29.18000
H  29.43600 1.70500 33.53700
H  28.62700 -0.90700 36.64800
H  30.37900 -0.75900 36.94500
H  29.72500 -1.98200 35.84900
Mg 16.96300 52.62200 26.84200
C  19.04100 51.17500 29.10600
C  14.62900 53.26900 29.44800
C  14.69300 53.97800 24.57500
C  19.03900 51.73000 24.33900
N  16.82100 52.15000 28.91400
C  17.91500 51.82000 29.65300
C  17.69900 52.10200 31.16300
C  16.18700 52.40200 31.32000
C  15.78400 52.56000 29.78700
C  15.33900 51.32800 32.14900
C  18.60600 53.14500 31.71700
C  18.90400 53.10300 33.21200
H  17.99700 52.39100 34.27500
N  15.02100 53.60200 27.02600
C  14.23300 53.74200 28.14800
C  13.02500 54.47800 27.84100
C  13.16000 54.87900 26.46300
C  14.34200 54.12500 25.98200
C  11.95000 54.82700 28.85400
C  12.32600 55.84700 25.66400
O  12.43600 55.96500 24.47800
C  11.16000 56.45100 26.36800
N  16.80000 52.73500 24.77100
C  15.81700 53.38900 24.03800
C  16.04100 53.16800 22.55400
C  17.55800 52.91200 22.45300
C  17.86900 52.48100 23.95500
C  15.04800 52.09200 22.00200
C  18.43400 54.11100 22.06400
C  18.60200 54.31100 20.59100
N  18.56600 51.52900 26.65400
C  19.37600 51.24300 25.59900
C  20.53900 50.42500 25.98300
C  20.46700 50.41400 27.34400
C  19.25900 51.12300 27.70700
C  21.56200 49.69500 24.99800
C  21.06200 49.94100 28.60900
O  22.06800 49.22900 28.67700
C  20.22900 50.51100 29.88700
C  19.83200 49.52500 30.91000
O  19.10000 48.57700 30.77900
O  20.32900 49.97100 32.15400
C  19.99300 49.04200 33.27200
H  14.12800 53.61100 30.35600
H  14.01400 54.41600 23.84000
H  19.80200 51.60100 23.56800
H  17.93400 51.19000 31.71200
H  16.06400 53.40500 31.73000
H  14.67700 50.85400 31.42400
H  14.71000 51.87700 32.85000
H  15.99500 50.63300 32.67200
H  18.24700 54.13700 31.44400
H  19.62200 53.21800 31.33100
H  18.69500 54.13400 33.49500
H  19.93800 52.77300 33.31600
H  11.88100 54.11900 29.67900
H  10.92400 54.80300 28.48600
H  12.14000 55.81400 29.27700
H  10.74900 57.22300 25.71800
H  11.37600 56.87100 27.35100
H  10.48000 55.61200 26.51300
H  15.79400 54.13300 22.11100
H  17.65500 52.04400 21.80100
H  15.65000 51.31700 21.52700
H  14.47300 52.67500 21.28200
H  14.35700 51.62900 22.70500
H  19.40900 53.98100 22.53500
H  18.02600 55.05800 22.41700
H  18.73300 55.34300 20.26500
H  17.72200 53.78100 20.22800
H  19.50500 53.78400 20.28200
H  21.11100 49.57700 24.01300
H  21.73600 48.72200 25.45700
H  22.52200 50.21200 24.96600
H  20.61800 51.36200 30.44400
H  20.58800 48.13500 33.15600
H  18.93700 48.77600 33.24600
H  20.24300 49.51700 34.22000

