158

Mg 35.62800 1.87100 30.45500
C  33.33600 3.10200 32.79900
C  38.06100 2.21000 32.80700
C  38.03300 1.03900 28.12300
C  33.26100 2.16800 28.01800
N  35.69200 2.47200 32.54200
C  34.60600 2.91900 33.34000
C  34.95600 3.06700 34.85200
C  36.46300 3.06600 34.71800
C  36.77500 2.52900 33.27500
C  37.17400 4.48200 35.03800
C  34.24400 2.01900 35.76000
C  33.78600 2.41100 37.16100
H  34.47900 3.56800 37.88400
N  37.75200 1.57700 30.47900
C  38.51100 1.69000 31.58000
C  39.84500 1.20000 31.27600
C  39.88300 0.88300 29.88900
C  38.56800 1.16400 29.40200
C  40.96000 1.08800 32.27900
C  41.00300 0.18200 29.09600
O  41.01000 -0.02700 27.83500
C  42.14300 -0.38500 29.85800
N  35.63500 1.61200 28.40300
C  36.75300 1.31200 27.66500
C  36.36500 1.02000 26.17800
C  34.76700 1.16600 26.15800
C  34.52900 1.66100 27.60600
C  37.07300 1.90000 25.18800
C  34.06000 -0.18100 25.78400
C  32.76800 0.00200 25.04700
N  33.66400 2.44400 30.35500
C  32.83500 2.51700 29.31600
C  31.53000 3.00100 29.77500
C  31.66500 3.24900 31.14900
C  33.02500 2.92000 31.44300
C  30.36200 3.18300 28.92200
C  31.01700 3.74700 32.28200
O  29.89900 4.15300 32.61000
C  32.08100 3.67000 33.42500
C  32.26000 5.09700 33.80900
O  33.17800 5.86700 33.47700
O  31.23900 5.39000 34.67200
C  31.18600 6.67800 35.33700
H  38.80800 2.29500 33.59800
H  38.67200 0.63500 27.33500
H  32.54300 2.23500 27.19800
H  34.53500 4.00500 35.21400
H  36.77700 2.30900 35.43700
H  37.73400 4.74300 34.14000
H  37.90200 4.32800 35.83400
H  36.56300 5.37100 35.19800
H  34.83300 1.10200 35.74500
H  33.34100 1.64100 35.28100
H  33.67400 1.52700 37.78900
H  32.76900 2.75800 36.97800
H  41.79200 1.67100 31.88500
H  41.19100 0.05400 32.53500
H  40.62100 1.49000 33.23400
H  42.80900 0.32100 30.35300
H  42.74500 -0.88400 29.09800
H  41.80500 -1.21000 30.48500
H  36.68600 -0.00100 25.97500
H  34.55000 1.93900 25.42000
H  38.05900 1.43500 25.16000
H  37.27200 2.84800 25.68900
H  36.57700 2.13200 24.24600
H  33.79700 -0.80100 26.64100
H  34.75700 -0.87700 25.31700
H  32.96600 -0.56500 24.13700
H  32.49600 1.04000 24.85900
H  31.94700 -0.35800 25.66700
H  30.60500 3.37700 27.87700
H  29.75800 3.94800 29.40900
H  29.73400 2.29900 29.04000
H  31.65800 3.18600 34.30500
H  32.20000 6.84100 35.70200
H  30.42500 6.72600 36.11600
H  30.91100 7.46900 34.64000
Mg 46.45700 24.82900 28.42900
C  47.51700 27.23400 30.93000
C  45.17900 22.94600 30.92800
C  45.76600 22.45600 26.04400
C  48.33200 26.73100 26.13800
N  46.21200 25.19000 30.64600
C  46.76000 26.18000 31.47600
C  46.11900 26.03900 32.84100
C  45.58100 24.53500 32.92100
C  45.66900 24.17600 31.42200
C  46.28900 23.54500 34.01700
C  44.96200 27.07100 33.13800
C  44.99700 27.80800 34.56200
H  45.74800 27.11300 35.68000
N  45.59600 22.97800 28.48700
C  45.11200 22.39000 29.64100
C  44.57400 21.13900 29.35800
C  44.57800 20.98400 27.92400
C  45.28700 22.15600 27.40300
C  43.83400 20.23300 30.39900
C  44.04400 19.93600 26.96800
O  44.00800 20.09800 25.76200
C  43.42400 18.64300 27.43400
N  47.05000 24.58700 26.45700
C  46.48100 23.61200 25.69900
C  46.94000 23.84300 24.24500
C  47.66800 25.25800 24.16900
C  47.66600 25.54900 25.68800
C  47.71400 22.65000 23.60500
C  46.77800 26.36000 23.45000
C  47.49300 26.92500 22.22000
N  47.61200 26.68900 28.46400
C  48.33700 27.29500 27.40900
C  48.87600 28.54400 27.88400
C  48.58800 28.57100 29.26300
C  47.85700 27.37300 29.59600
C  49.64700 29.48900 26.95400
C  48.87500 29.25900 30.50700
O  49.66200 30.19600 30.72800
C  48.17100 28.40200 31.58900
C  49.21900 28.12600 32.61100
O  50.05300 27.22500 32.54400
O  48.99900 28.85100 33.76500
C  49.83600 28.57500 34.97500
H  44.81000 22.27200 31.70400
H  45.51500 21.82500 25.18900
H  48.78600 27.24800 25.29000
H  46.96900 26.12300 33.51800
H  44.51800 24.50500 33.15800
H  45.56100 23.23100 34.76500
H  47.17800 24.09500 34.32600
H  46.68400 22.71500 33.43200
H  43.97100 26.65900 32.94800
H  45.14200 27.83800 32.38500
H  43.98700 27.81800 34.97200
H  45.25600 28.85200 34.38700
H  42.79800 20.06100 30.10700
H  44.01400 20.55700 31.42500
H  44.17500 19.21700 30.20500
H  44.11600 18.08100 28.06200
H  43.18400 18.08000 26.53200
H  42.50800 18.85800 27.98400
H  45.99500 23.86000 23.70300
H  48.69600 25.23800 23.80700
H  48.29400 22.19300 24.40700
H  48.33500 23.07700 22.81700
H  47.00600 21.96300 23.14300
H  46.55900 27.20400 24.10400
H  45.80500 25.95300 23.17700
H  47.31000 26.30200 21.34500
H  48.56200 26.87500 22.42600
H  47.25700 27.98200 22.10600
H  48.95800 29.86700 26.19900
H  50.33200 28.78800 26.47600
H  50.13000 30.31400 27.47600
H  47.36300 28.97100 32.04900
H  50.24300 29.53500 35.29100
H  50.63600 27.83700 34.90600
H  49.17800 28.31300 35.80400

