158

Mg -2.88100 16.54200 27.75000
C  -3.49700 14.35300 30.43100
C  -3.57700 19.12400 29.98100
C  -2.95700 18.66400 25.25600
C  -3.23600 13.82600 25.61700
N  -3.43800 16.68300 29.94800
C  -3.52800 15.66600 30.83400
C  -3.78900 16.15100 32.22800
C  -4.02000 17.69200 32.03300
C  -3.72200 17.82300 30.55300
C  -5.34600 18.30000 32.50200
C  -2.69700 15.97300 33.25200
C  -3.23500 15.78200 34.76000
H  -2.18700 16.04600 35.81600
N  -2.96100 18.64900 27.63500
C  -3.20300 19.52700 28.66300
C  -3.15200 20.83000 28.08900
C  -2.95600 20.74900 26.75200
C  -2.88900 19.30500 26.46700
C  -3.36600 22.12700 28.85400
C  -2.75900 21.89000 25.67000
O  -2.73100 21.72400 24.43100
C  -2.66000 23.33600 26.16600
N  -3.14600 16.32300 25.81100
C  -3.20300 17.33300 24.88000
C  -3.24700 16.96100 23.39600
C  -3.29500 15.37700 23.60500
C  -3.17600 15.10900 25.14000
C  -4.43800 17.44800 22.56300
C  -2.13600 14.75400 22.77600
C  -0.76000 14.59600 23.44800
N  -3.24400 14.49000 27.86900
C  -3.29000 13.48500 26.98600
C  -3.58200 12.22300 27.60400
C  -3.61800 12.45200 28.98100
C  -3.49400 13.86800 29.13400
C  -3.74100 10.93500 26.90600
C  -3.77100 11.84800 30.28300
O  -3.89800 10.69500 30.69900
C  -3.64100 13.12000 31.20800
C  -2.52500 12.75100 32.05200
O  -1.33000 12.89800 31.76200
O  -2.95800 12.24700 33.24800
C  -1.97200 11.87000 34.23100
H  -3.60000 20.00400 30.62700
H  -3.08600 19.32800 24.39800
H  -3.29000 12.98700 24.92100
H  -4.76500 15.75200 32.50400
H  -3.27400 18.32000 32.52000
H  -6.22400 17.65800 32.58600
H  -5.50600 19.16000 31.85200
H  -5.14200 18.74400 33.47700
H  -1.93300 16.74900 33.18700
H  -2.10800 15.07800 33.05300
H  -3.66700 14.78200 34.81700
H  -4.06900 16.45800 34.94800
H  -4.15300 22.75300 28.43500
H  -2.44600 22.71200 28.87000
H  -3.60900 21.83400 29.87600
H  -3.55400 23.66400 26.69500
H  -2.52800 23.93000 25.26100
H  -1.76800 23.38300 26.79000
H  -2.26100 17.21200 23.00500
H  -4.26100 15.00100 23.26900
H  -5.21900 16.70600 22.39800
H  -4.21800 17.86200 21.57900
H  -4.97200 18.18500 23.16300
H  -1.96200 15.39200 21.91000
H  -2.47700 13.77100 22.45000
H  -0.79000 14.55600 24.53700
H  -0.26900 15.51200 23.12300
H  -0.26800 13.77000 22.93400
H  -2.76400 10.50500 26.68400
H  -4.30000 11.04800 25.97700
H  -4.32600 10.25300 27.52300
H  -4.57900 13.23400 31.75100
H  -1.14600 11.28200 33.83100
H  -2.51100 11.28200 34.97400
H  -1.62700 12.79800 34.68800
Mg 17.59200 51.36300 25.99200
C  19.40200 49.97900 28.58400
C  15.13500 52.22100 28.22800
C  15.54200 52.22400 23.32900
C  19.66500 49.59800 23.72000
N  17.31500 51.02400 28.22000
C  18.23300 50.52600 29.05500
C  17.62600 50.66100 30.50300
C  16.17400 51.09900 30.33100
C  16.21900 51.46700 28.86500
C  15.15400 49.93000 30.67200
C  18.34900 51.71200 31.42500
C  18.47600 51.45500 32.98100
H  17.30600 52.10500 33.81600
N  15.81800 52.40700 25.80900
C  14.97700 52.69500 26.90300
C  13.95700 53.54900 26.37700
C  14.09200 53.57600 24.94600
C  15.18800 52.72600 24.62900
C  13.01900 54.19900 27.32000
C  13.21600 54.37200 23.87400
O  13.54200 54.48700 22.71200
C  11.98100 55.10900 24.35800
N  17.50300 50.80500 23.82000
C  16.61700 51.39300 22.98300
C  16.93100 50.99500 21.50900
C  18.33900 50.33700 21.62700
C  18.57800 50.28900 23.14900
C  15.87200 50.21300 20.83300
C  19.49300 50.99500 20.80900
C  20.38800 52.17400 21.33900
N  19.19000 50.06500 26.09900
C  19.93500 49.48200 25.09300
C  20.99500 48.73000 25.72000
C  20.83900 48.89900 27.08600
C  19.66600 49.73400 27.28200
C  22.09700 47.93200 24.97100
C  21.37500 48.51400 28.31700
O  22.37500 47.87200 28.50900
C  20.41600 49.22500 29.34600
C  19.82400 48.12800 30.16700
O  18.73300 47.58200 29.94100
O  20.44200 48.11500 31.32700
C  19.88000 47.33000 32.43600
H  14.36800 52.36500 28.99200
H  14.88800 52.52500 22.50800
H  20.40100 49.16300 23.04100
H  17.69600 49.72300 31.05400
H  15.89800 51.99700 30.88300
H  14.92000 49.25400 29.85000
H  14.16600 50.27800 30.97300
H  15.60100 49.30900 31.44900
H  17.88400 52.67900 31.23700
H  19.34600 51.85400 31.00900
H  19.37800 51.91700 33.38300
H  18.41100 50.37000 33.06500
H  13.50900 54.40900 28.27100
H  12.09600 53.62000 27.31700
H  12.70300 55.17100 26.94200
H  11.29600 55.40600 23.56500
H  12.29700 56.03000 24.84700
H  11.49000 54.36800 24.98900
H  17.05100 51.88600 20.89300
H  18.22600 49.30100 21.30800
H  15.18500 50.93800 20.39600
H  15.40600 49.50000 21.51300
H  16.27500 49.64000 19.99700
H  18.99000 51.41400 19.93700
H  20.12200 50.19400 20.41900
H  21.46600 52.05600 21.22900
H  20.11700 52.35900 22.37800
H  20.13300 53.09000 20.80600
H  22.99300 48.55200 24.93200
H  21.84000 47.66900 23.94500
H  22.34400 47.01700 25.50900
H  20.92900 49.87300 30.05600
H  20.11100 46.30400 32.14800
H  18.82700 47.56300 32.59300
H  20.33000 47.54100 33.40500

