158

Mg 47.84100 16.49900 28.87100
C  45.73200 16.18200 31.58300
C  49.99500 18.29800 30.76200
C  49.80500 16.64100 26.14900
C  45.33200 14.86900 26.96400
N  47.82600 17.22600 30.91800
C  46.94700 16.89700 31.89400
C  47.27800 17.35700 33.26800
C  48.61100 18.17000 32.97100
C  48.90400 17.85200 31.47700
C  48.47700 19.66800 33.25000
C  47.45500 16.21100 34.36100
C  47.65200 16.78400 35.87000
H  47.29500 18.25900 36.21100
N  49.64500 17.39400 28.50700
C  50.35700 18.12900 29.46000
C  51.62500 18.50600 28.85200
C  51.56400 18.06100 27.48800
C  50.29400 17.36200 27.33100
C  52.69200 19.32100 29.55200
C  52.66000 18.12900 26.41100
O  52.49000 17.58400 25.37000
C  53.94600 18.90100 26.47700
N  47.61400 15.84600 26.85600
C  48.47900 16.16100 25.89000
C  47.99500 15.79800 24.40300
C  46.63800 15.07900 24.76100
C  46.49300 15.25600 26.28200
C  47.80300 17.09300 23.59500
C  46.41200 13.69500 24.25500
C  45.86500 13.66400 22.84500
N  45.97800 15.73100 29.10500
C  45.07800 15.13100 28.30200
C  43.86500 14.78000 29.07000
C  44.06200 15.14500 30.36300
C  45.32200 15.76200 30.32800
C  42.71600 13.98600 28.51500
C  43.51100 15.15400 31.67900
O  42.48500 14.70300 32.14800
C  44.64600 15.83100 32.55700
C  43.95800 16.97500 33.25800
O  43.29700 17.82700 32.69100
O  43.91400 16.81600 34.66700
C  42.91700 17.59400 35.38500
H  50.64600 18.89100 31.40800
H  50.29100 16.76100 25.17800
H  44.48000 14.41900 26.45100
H  46.46400 18.00600 33.59300
H  49.55900 17.82000 33.38100
H  47.57200 19.99000 33.76500
H  48.71000 20.33800 32.42200
H  49.27200 19.94100 33.94300
H  48.36400 15.69500 34.05300
H  46.56900 15.57700 34.40000
H  48.72900 16.66000 35.97900
H  47.10000 16.13500 36.55000
H  52.35900 19.67100 30.52900
H  53.08100 20.20800 29.05200
H  53.50700 18.60800 29.67900
H  53.79000 19.83800 27.01100
H  54.11800 19.15200 25.43000
H  54.76400 18.23900 26.76300
H  48.64000 15.02500 23.98600
H  45.76800 15.67100 24.47600
H  47.92900 16.98300 22.51800
H  48.56600 17.76800 23.98100
H  46.78300 17.43500 23.77400
H  45.74600 13.11200 24.89200
H  47.35900 13.15800 24.32500
H  46.57700 14.03100 22.10600
H  44.91900 14.20400 22.80300
H  45.49700 12.67000 22.59200
H  42.87300 12.91800 28.36400
H  42.39200 14.39900 27.56000
H  41.87900 14.10100 29.20300
H  44.88700 15.05300 33.28200
H  42.72200 18.58900 34.98500
H  43.12000 17.75900 36.44300
H  41.98400 17.03100 35.34500
Mg 49.78200 46.10100 42.18000
C  46.58500 46.74600 41.08600
C  49.55600 42.84000 41.03500
C  53.20500 45.75000 42.27000
C  50.14400 49.71300 42.61100
N  48.25800 45.00000 41.21600
C  47.02200 45.47400 40.92500
C  46.34900 44.43700 40.06700
C  47.10400 43.16000 40.37700
C  48.39400 43.66100 40.92300
C  46.36600 42.06100 41.26600
C  46.44700 44.89500 38.58100
C  45.16300 44.61000 37.77500
H  45.26400 43.78800 36.50900
N  51.15500 44.47400 41.79300
C  50.85900 43.29400 41.32900
C  51.97800 42.44300 41.31400
C  53.03100 43.23400 41.68100
C  52.46300 44.55400 42.04300
C  51.96800 40.99700 40.77000
C  54.50300 42.72600 41.78700
O  54.71100 41.58800 41.35800
C  55.64700 43.59100 42.15800
N  51.44800 47.54200 42.45900
C  52.76800 47.08600 42.51700
C  53.70300 48.28100 42.63600
C  52.77800 49.55400 42.74500
C  51.34900 48.93100 42.54800
C  54.86300 48.19300 43.59300
C  53.10000 50.77300 41.74800
C  53.56600 52.08800 42.46200
N  48.66100 47.95000 41.92400
C  48.89400 49.24200 42.27100
C  47.62700 50.01300 42.16700
C  46.66400 49.04600 41.77700
C  47.36900 47.82500 41.55200
C  47.32400 51.46500 42.37600
C  45.20200 48.80300 41.43700
O  44.21900 49.49400 41.46100
C  45.22500 47.43300 40.82100
C  44.25000 46.56200 41.53800
O  44.45800 45.96600 42.60500
O  43.12500 46.36200 40.83400
C  42.14100 45.50900 41.54500
H  49.42900 41.79400 40.74700
H  54.28000 45.56000 42.23900
H  50.31300 50.76500 42.85000
H  45.30700 44.41700 40.38700
H  47.31100 42.60200 39.46400
H  45.93200 41.30900 40.60800
H  45.64000 42.47900 41.96400
H  47.19300 41.61500 41.82000
H  47.21900 44.23900 38.17700
H  46.77900 45.92300 38.43900
H  44.73700 45.56700 37.47300
H  44.48300 44.01400 38.38300
H  51.82800 40.81800 39.70400
H  51.17800 40.38800 41.20800
H  52.76900 40.39000 41.19100
H  55.82900 44.38700 41.43600
H  56.58800 43.04100 42.18400
H  55.32200 43.82500 43.17100
H  54.08800 48.28200 41.61600
H  52.78100 49.84800 43.79500
H  55.80800 47.93100 43.11700
H  54.64100 47.49400 44.40000
H  54.98800 49.16200 44.07700
H  52.35200 51.04300 41.00200
H  53.95100 50.39300 41.18200
H  54.64400 52.24900 42.48700
H  53.24800 52.15700 43.50300
H  52.99800 52.87200 41.96000
H  47.86300 51.73600 43.28300
H  46.25400 51.61300 42.51500
H  47.65300 52.10300 41.55500
H  44.91600 47.31700 39.78300
H  41.75000 45.99100 42.44100
H  42.57000 44.58700 41.93800
H  41.19800 45.43900 41.00300

