158

Mg 26.15500 0.57100 29.10700
C  27.84900 -0.04100 32.07100
C  23.25800 0.93300 30.92100
C  24.50600 0.83900 26.13300
C  29.07700 -0.32700 27.26900
N  25.64900 0.57300 31.33300
C  26.49100 0.34800 32.32200
C  25.80400 0.80900 33.72800
C  24.34900 0.92900 33.30100
C  24.36500 0.78700 31.75200
C  23.30700 0.04600 34.02300
C  26.41500 2.03700 34.44800
C  26.22900 2.19000 35.99200
H  27.37000 2.49400 36.91700
N  24.19800 0.89800 28.63700
C  23.12500 0.91000 29.50100
C  21.86700 1.15000 28.72000
C  22.18800 1.14600 27.36400
C  23.67300 0.96800 27.36200
C  20.50700 1.15400 29.44400
C  21.33200 1.20000 26.12200
O  21.75500 1.05600 24.97000
C  19.84700 1.33800 26.22100
N  26.78900 0.42700 26.97100
C  25.90000 0.54000 25.96600
C  26.46900 0.11400 24.54800
C  27.99000 -0.01000 24.95700
C  27.98100 -0.02200 26.46900
C  25.80500 -1.11200 23.97600
C  28.83500 1.20300 24.36000
C  30.28200 0.85200 24.08500
N  27.99600 -0.23000 29.53900
C  29.08800 -0.47600 28.69600
C  30.24500 -0.83600 29.44900
C  29.84200 -0.60200 30.80200
C  28.47500 -0.34000 30.79000
C  31.67700 -1.15500 28.91800
C  30.19600 -0.56800 32.21500
O  31.26800 -0.73700 32.75900
C  28.94600 -0.18900 33.04000
C  28.61600 -1.27500 33.98700
O  28.00300 -2.28300 33.68000
O  29.05400 -0.99400 35.26300
C  28.91300 -2.09000 36.23500
H  22.38000 1.25200 31.48600
H  24.12900 1.01800 25.12400
H  30.00000 -0.67200 26.79900
H  25.84000 -0.08100 34.35700
H  24.00200 1.93700 33.53000
H  22.79700 0.78300 34.64200
H  23.70600 -0.78400 34.60700
H  22.71600 -0.45200 33.25500
H  25.87500 2.84300 33.95200
H  27.47500 2.07500 34.19500
H  25.82600 1.21200 36.25600
H  25.45800 2.93300 36.19400
H  19.78400 1.82600 28.98100
H  20.65600 1.52400 30.45900
H  20.17800 0.11900 29.53200
H  19.61500 2.34000 26.58100
H  19.40500 0.45700 26.68600
H  19.35400 1.28600 25.25000
H  26.32800 0.97200 23.89100
H  28.44300 -0.92300 24.57100
H  24.97500 -1.44600 24.59800
H  26.53000 -1.90400 23.78700
H  25.46600 -0.87100 22.96800
H  28.89100 1.96100 25.14100
H  28.41500 1.55500 23.41800
H  31.00000 1.66300 24.20800
H  30.42700 0.34800 23.13000
H  30.58800 0.02900 24.73200
H  31.56200 -1.82300 28.06500
H  32.28700 -1.56900 29.72200
H  32.09800 -0.21500 28.55900
H  29.10800 0.73200 33.59900
H  28.06300 -2.74600 36.04500
H  28.79800 -1.63700 37.21900
H  29.79800 -2.72600 36.22000
Mg 41.17000 8.65800 29.56800
C  43.14000 10.15600 32.05300
C  39.04100 7.50300 31.71800
C  39.75600 6.96800 26.93100
C  43.66600 9.62800 27.26200
N  41.16700 8.81000 31.59100
C  41.95100 9.50200 32.49200
C  41.39700 9.56300 33.97100
C  40.10500 8.69500 33.80900
C  40.09400 8.27100 32.29000
C  40.06900 7.35200 34.67400
C  41.23800 10.91300 34.59700
C  40.47100 11.09000 35.95100
H  41.32300 11.33100 37.17800
N  39.54400 7.42400 29.38300
C  38.71900 7.11200 30.44100
C  37.55000 6.40000 29.94700
C  37.72900 6.28600 28.50700
C  39.04900 6.93800 28.20500
C  36.38800 5.91100 30.88900
C  36.77200 5.73100 27.48700
O  36.97500 5.75000 26.31400
C  35.53300 5.06500 27.98800
N  41.76500 8.26200 27.41600
C  40.91900 7.67000 26.56000
C  41.46600 7.60800 25.10800
C  42.46300 8.77800 25.19200
C  42.65400 8.89100 26.69000
C  41.87600 6.22500 24.57600
C  42.02200 10.09700 24.36700
C  40.97400 10.99700 25.01100
N  42.98500 9.71200 29.61000
C  43.92200 10.05500 28.59800
C  45.02900 10.73400 29.20800
C  44.74300 10.89400 30.55600
C  43.51300 10.18700 30.76000
C  46.06700 11.40700 28.40500
C  45.23000 11.39800 31.79800
O  46.19100 12.11400 32.09600
C  44.16100 10.95800 32.85800
C  44.79200 10.09200 33.91300
O  45.20100 8.93200 33.72400
O  44.59300 10.64100 35.18200
C  45.13900 9.87900 36.30600
H  38.24200 7.19900 32.39800
H  39.25900 6.47600 26.09200
H  44.40300 9.93900 26.51800
H  42.00700 9.03600 34.70400
H  39.29000 9.36700 34.07900
H  39.15300 7.34100 35.26600
H  40.87100 7.23000 35.40200
H  40.12500 6.55300 33.93500
H  40.70600 11.52800 33.87100
H  42.20700 11.37800 34.78000
H  39.81800 10.24600 36.17300
H  39.92800 12.03300 35.87300
H  35.42700 6.28200 30.53100
H  36.50500 6.20500 31.93300
H  36.25300 4.83100 30.93300
H  35.77400 4.30500 28.73100
H  35.10400 4.52300 27.14400
H  34.80900 5.80400 28.33100
H  40.59100 7.90400 24.53000
H  43.44000 8.51600 24.78400
H  42.89400 6.18700 24.18700
H  41.16500 5.98700 23.78500
H  41.68600 5.50300 25.37000
H  41.64400 9.63500 23.45400
H  42.86500 10.72600 24.08000
H  40.72800 10.66600 26.02000
H  40.08400 11.10000 24.38900
H  41.48300 11.95700 25.09800
H  45.62300 11.64400 27.43800
H  47.00300 10.86100 28.28900
H  46.33500 12.26700 29.01800
H  43.67300 11.80900 33.33300
H  44.39100 9.86400 37.09900
H  45.96500 10.42200 36.76600
H  45.53300 8.89800 36.04100

