158

Mg 34.91400 2.95600 29.50700
C  33.02800 4.23900 32.18300
C  37.52500 2.59200 31.55400
C  36.79900 2.14900 26.75600
C  32.12700 3.60600 27.42800
N  35.32400 3.51200 31.60000
C  34.40600 3.94300 32.50000
C  34.99700 3.95600 33.90700
C  36.50900 3.75000 33.64100
C  36.51400 3.28900 32.16500
C  37.37000 4.96600 34.02000
C  34.34600 2.92100 34.82400
C  34.11000 3.28100 36.34300
H  34.69500 4.62700 36.98400
N  36.86300 2.37100 29.21800
C  37.70500 2.16800 30.25800
C  38.79000 1.34900 29.72100
C  38.58800 1.15200 28.31300
C  37.36800 1.94100 28.04600
C  39.89700 0.73700 30.67700
C  39.39000 0.42200 27.30000
O  38.99800 0.32100 26.19500
C  40.58900 -0.27500 27.58700
N  34.56700 2.89400 27.45900
C  35.46100 2.57100 26.50700
C  34.89900 2.83200 25.11000
C  33.44100 3.01000 25.33200
C  33.36200 3.12500 26.86800
C  35.70200 3.98600 24.30700
C  32.54200 1.88600 24.74400
C  32.53000 0.56100 25.56700
N  32.90900 3.65700 29.69700
C  31.92500 3.85700 28.81500
C  30.68600 4.28500 29.54300
C  31.13300 4.46200 30.87100
C  32.42900 4.05200 30.86500
C  29.29600 4.51400 28.93300
C  30.72500 4.84400 32.22300
O  29.59500 5.01400 32.66700
C  31.93700 4.70600 33.12800
C  32.20500 6.00800 33.82200
O  33.05100 6.81600 33.36100
O  31.39500 6.22700 34.92800
C  31.47300 7.62800 35.46000
H  38.43800 2.47100 32.14100
H  37.35100 1.84700 25.86300
H  31.32400 3.92500 26.76000
H  34.86300 4.99800 34.20000
H  36.92300 2.90600 34.19300
H  37.72000 5.44900 33.10800
H  38.22100 4.70700 34.65000
H  36.66500 5.69600 34.41800
H  34.96000 2.02300 34.89400
H  33.43900 2.50500 34.38500
H  34.54300 2.47100 36.92900
H  33.03400 3.24000 36.51700
H  39.78500 -0.34600 30.71800
H  39.89600 1.19100 31.66800
H  40.82000 0.98100 30.15100
H  41.12500 -0.32900 26.64000
H  40.36200 -1.27900 27.94600
H  41.11800 0.36700 28.29200
H  35.08600 1.92100 24.54200
H  33.09700 3.96900 24.94500
H  36.65700 4.23500 24.76900
H  35.16600 4.93000 24.20800
H  35.81500 3.53700 23.32000
H  32.80300 1.84300 23.68600
H  31.51400 2.24600 24.72100
H  33.36200 0.58300 26.27000
H  32.65900 -0.23900 24.83800
H  31.55400 0.54400 26.05300
H  28.56000 4.60600 29.73100
H  29.21600 3.54900 28.43300
H  29.34600 5.23900 28.12100
H  31.77400 4.02600 33.96400
H  32.37000 7.75600 36.06700
H  30.58400 7.90500 36.02500
H  31.45600 8.30800 34.60800
Mg 5.99300 54.81500 40.53300
C  3.32800 52.49000 40.40800
C  8.05800 52.37900 39.38100
C  8.34600 57.10300 40.21300
C  3.56500 57.33900 41.21800
N  5.64300 52.73700 39.79400
C  4.55000 51.97700 39.80600
C  4.69300 50.58400 39.15500
C  6.27400 50.52900 39.09200
C  6.68800 51.96300 39.46700
C  7.09400 49.49000 39.85600
C  4.02200 50.53700 37.72200
C  3.32200 49.12500 37.43500
H  3.90400 48.25100 36.39200
N  8.09200 54.71700 40.09400
C  8.69900 53.63300 39.58500
C  10.05700 54.03200 39.41900
C  10.06400 55.44000 39.34100
C  8.80900 55.82600 39.88500
C  11.17800 53.04800 39.12800
C  11.23500 56.32100 38.84200
O  12.27700 55.75700 38.49200
C  11.19500 57.77000 38.86700
N  5.85700 56.92900 40.42600
C  7.07400 57.59300 40.56300
C  6.92400 59.08500 40.96100
C  5.36300 59.17600 41.05300
C  4.89600 57.70600 40.89300
C  7.60500 59.23000 42.30700
C  4.80500 60.27600 40.05900
C  4.00900 59.79500 38.82400
N  3.87600 54.96600 40.87500
C  3.10300 56.02000 41.25200
C  1.82600 55.51400 41.68000
C  1.88900 54.20500 41.35900
C  3.15400 53.85800 40.89600
C  0.71600 56.24200 42.21200
C  1.14800 52.93900 41.30100
O  -0.00100 52.64700 41.59500
C  2.06200 51.85700 40.68100
C  1.32800 51.15200 39.64300
O  0.98200 51.59800 38.58000
O  1.03200 49.89500 40.13100
C  0.03400 49.20800 39.28900
H  8.77500 51.64800 39.00100
H  9.17900 57.80700 40.26000
H  3.01100 58.22900 41.52300
H  4.29600 49.90500 39.91000
H  6.53700 50.38300 38.04500
H  7.58500 48.96900 39.03400
H  6.50800 48.81000 40.47400
H  7.74800 49.93100 40.61000
H  4.84900 50.73500 37.04000
H  3.28600 51.31700 37.52900
H  2.28700 49.31100 37.14500
H  3.34100 48.52400 38.34400
H  10.84400 52.01400 39.21900
H  11.94600 53.16900 39.89100
H  11.66500 53.27200 38.17900
H  10.32400 58.14900 38.33300
H  11.94200 58.17500 38.18400
H  11.22200 58.18100 39.87600
H  7.46100 59.64600 40.19800
H  4.93700 59.45900 42.01600
H  6.89900 59.81300 42.89800
H  8.51800 59.81700 42.20700
H  7.87600 58.29500 42.79800
H  5.55800 60.96900 39.68400
H  4.06100 60.90100 40.55500
H  2.94400 59.95300 38.99300
H  4.22200 58.75500 38.57900
H  4.27600 60.37000 37.93700
H  1.02700 56.77600 43.11000
H  -0.11000 55.53900 42.32100
H  0.44200 57.02200 41.50200
H  2.27500 51.20900 41.53100
H  -0.56000 48.45700 39.81000
H  0.53600 48.79400 38.41400
H  -0.82800 49.82200 39.02800

