158

Mg 35.84900 49.22000 25.47800
C  35.87400 47.56900 28.54800
C  34.73000 52.14200 27.20000
C  35.34700 50.75000 22.54200
C  36.28800 46.14300 23.84100
N  35.35400 49.74200 27.61200
C  35.53400 48.94700 28.64800
C  35.47800 49.74200 30.02200
C  35.07900 51.21100 29.52400
C  35.00700 51.00700 27.96400
C  33.73600 51.75000 30.11100
C  36.84200 49.86400 30.79200
C  36.84400 49.59100 32.27800
H  35.45400 49.57200 33.04200
N  35.23100 51.19300 24.89200
C  34.87600 52.24100 25.74900
C  34.46100 53.38800 24.95900
C  34.68000 53.01700 23.60100
C  35.09900 51.61100 23.61200
C  33.92600 54.68600 25.55500
C  34.48100 53.88100 22.35700
O  34.56600 53.43900 21.20700
C  34.18100 55.41100 22.48200
N  35.85700 48.58000 23.54200
C  35.64800 49.36800 22.45800
C  35.79600 48.70800 21.10800
C  36.43400 47.37300 21.60000
C  36.19700 47.33800 23.11100
C  34.44800 48.65700 20.25500
C  37.93600 47.33600 21.25600
C  38.44600 46.36300 20.21000
N  36.07000 47.24700 26.03500
C  36.23700 46.04600 25.29200
C  36.47200 44.96900 26.16100
C  36.36900 45.53800 27.49200
C  36.14100 46.87200 27.36600
C  36.94200 43.58500 25.77300
C  36.44400 45.19700 28.87900
O  36.63400 44.10300 29.42400
C  36.18500 46.58700 29.62800
C  35.05100 46.21300 30.59300
O  33.87400 46.30800 30.43000
O  35.60200 45.82400 31.77100
C  34.64000 45.34900 32.81500
H  34.46000 53.05100 27.74000
H  35.38300 51.20800 21.55100
H  36.57700 45.22500 23.32400
H  34.67700 49.32400 30.63200
H  35.88000 51.93900 29.65700
H  32.89300 51.33900 29.55400
H  33.76200 52.83100 29.97300
H  33.51700 51.32800 31.09200
H  37.30400 50.84700 30.69000
H  37.55300 49.15900 30.36100
H  37.54000 50.24500 32.80300
H  37.28000 48.59900 32.39300
H  34.07900 54.70900 26.63400
H  32.84300 54.75400 25.45800
H  34.37700 55.54600 25.05900
H  33.21700 55.43500 22.99000
H  34.10500 55.83600 21.48100
H  35.05000 55.80200 23.01100
H  36.49300 49.29900 20.51400
H  35.78100 46.62400 21.15200
H  34.11600 47.62200 20.18600
H  34.72800 49.09000 19.29400
H  33.75600 49.31600 20.77900
H  38.39000 47.22800 22.24200
H  38.16800 48.32800 20.87000
H  37.60000 46.02700 19.60900
H  38.97200 45.55700 20.72200
H  39.15600 46.96800 19.64700
H  37.72100 43.23300 26.45000
H  37.28400 43.47900 24.74300
H  36.11200 42.89200 25.91600
H  37.11000 46.90200 30.11100
H  33.80100 46.03900 32.90600
H  35.15200 45.33600 33.77700
H  34.20300 44.38100 32.57200
Mg -11.03800 40.47800 42.77900
C  -10.20900 37.24100 41.98100
C  -7.98300 41.50900 41.58100
C  -12.31900 43.56500 42.86800
C  -14.48400 39.25900 43.29500
N  -9.42800 39.53300 41.64000
C  -9.23600 38.16900 41.58700
C  -7.88400 37.82900 40.92000
C  -7.09200 39.27100 40.90300
C  -8.18900 40.16900 41.34300
C  -5.68800 39.22700 41.65600
C  -8.07100 37.20100 39.45500
C  -7.04100 36.21100 39.09500
H  -5.96800 36.68200 38.09800
N  -10.15500 42.22300 42.53000
C  -8.86800 42.49600 42.06100
C  -8.69100 43.95600 42.00200
C  -9.83200 44.54800 42.59000
C  -10.86200 43.41800 42.65200
C  -7.36800 44.55200 41.51700
C  -10.09400 46.05000 42.92600
O  -9.27700 46.88800 42.51500
C  -11.17300 46.41800 43.78400
N  -13.15000 41.27400 43.02600
C  -13.32800 42.62600 43.03200
C  -14.82500 43.01500 42.93800
C  -15.54200 41.61000 43.06900
C  -14.31700 40.62700 43.08800
C  -15.28300 44.06300 43.97400
C  -16.64900 41.39500 41.99700
C  -18.15100 41.25100 42.38300
N  -12.17300 38.57900 42.81100
C  -13.46500 38.30500 43.06900
C  -13.64800 36.88000 43.11100
C  -12.38000 36.37600 42.71100
C  -11.53100 37.47600 42.46500
C  -14.92800 36.17800 43.34500
C  -11.64400 35.24800 42.33400
O  -11.90500 34.06900 42.40300
C  -10.21900 35.75800 41.79400
C  -9.23200 35.00300 42.55000
O  -9.03900 35.05000 43.80200
O  -8.45600 34.26900 41.72800
C  -7.48700 33.48000 42.32900
H  -7.02700 41.76100 41.11900
H  -12.58200 44.62200 42.79500
H  -15.52200 38.95800 43.45300
H  -7.25400 37.20700 41.55500
H  -6.87900 39.61200 39.89000
H  -4.94200 39.67100 40.99600
H  -5.53800 38.20600 42.00700
H  -5.76900 39.91900 42.49400
H  -8.19900 38.04900 38.78300
H  -8.92200 36.52300 39.38600
H  -7.57700 35.37600 38.64300
H  -6.59000 35.77600 39.98700
H  -6.70200 43.80800 41.08100
H  -6.88200 45.04500 42.35900
H  -7.54300 45.32300 40.76600
H  -12.04600 46.73500 43.21300
H  -10.80500 47.20800 44.43700
H  -11.43000 45.55400 44.39700
H  -15.07000 43.45900 41.97300
H  -16.00000 41.47800 44.05000
H  -14.41000 44.46600 44.48900
H  -16.12200 43.71900 44.57700
H  -15.61500 44.99100 43.50700
H  -16.42500 40.47700 41.45200
H  -16.63200 42.20400 41.26700
H  -18.62100 41.94000 41.68200
H  -18.27400 41.65500 43.38800
H  -18.65800 40.29700 42.23900
H  -15.26300 36.42400 44.35200
H  -14.76800 35.10100 43.40000
H  -15.73200 36.44400 42.65900
H  -10.28300 35.52600 40.73100
H  -8.02700 32.88200 43.06300
H  -6.75300 34.20500 42.68200
H  -7.12800 32.82200 41.53700

