158

Mg 17.64300 -2.82600 27.60600
C  16.31700 -0.99000 30.28900
C  19.83700 -4.34000 29.87400
C  19.42500 -3.97300 25.07100
C  15.64100 -0.85200 25.41300
N  18.07500 -2.58600 29.76900
C  17.33700 -1.85700 30.67900
C  17.74800 -2.12800 32.09100
C  19.08500 -2.97100 31.88700
C  18.99000 -3.37700 30.37100
C  20.39000 -2.20500 32.27600
C  16.65900 -2.85700 32.94100
C  16.74300 -2.53400 34.48100
H  18.02100 -2.03800 35.22100
N  19.23500 -4.17900 27.53500
C  19.96700 -4.77200 28.51700
C  20.73900 -5.82100 27.89500
C  20.76600 -5.65200 26.48300
C  19.74600 -4.56200 26.32200
C  21.51500 -6.84900 28.76100
C  21.53500 -6.41900 25.32700
O  21.39700 -6.13800 24.15300
C  22.30000 -7.67000 25.67400
N  17.62700 -2.34200 25.61800
C  18.44500 -2.98900 24.68500
C  18.37200 -2.31100 23.27700
C  16.85400 -1.77000 23.43000
C  16.69300 -1.66000 24.88300
C  19.42100 -1.14700 22.97600
C  15.72500 -2.73100 22.89100
C  14.60600 -2.09300 22.02100
N  16.20600 -1.23000 27.75700
C  15.42700 -0.57300 26.80100
C  14.47600 0.23200 27.45300
C  14.80200 0.10200 28.85300
C  15.91200 -0.74600 28.98700
C  13.62400 1.23500 26.82900
C  14.66800 0.72800 30.15600
O  14.13100 1.79000 30.44000
C  15.43500 -0.09800 31.18800
C  16.14000 0.85600 32.07600
O  17.06000 1.57900 31.76100
O  15.44700 1.02400 33.32000
C  15.80600 2.20600 34.08300
H  20.33400 -4.84200 30.70700
H  19.99600 -4.33100 24.21200
H  14.80100 -0.49600 24.81200
H  17.94200 -1.14500 32.51900
H  18.98400 -3.81100 32.57500
H  21.01700 -2.77900 32.95800
H  20.05300 -1.40900 32.94000
H  20.89500 -1.75100 31.42300
H  16.74700 -3.94300 32.91300
H  15.70800 -2.49700 32.54700
H  16.32900 -3.34800 35.07400
H  16.13300 -1.63400 34.55300
H  22.50700 -7.01300 28.34000
H  20.87700 -7.71400 28.94200
H  21.81200 -6.55000 29.76600
H  22.46700 -8.06500 24.67200
H  21.68900 -8.42300 26.17100
H  23.24200 -7.37900 26.13900
H  18.37800 -3.06800 22.49300
H  16.89700 -0.77600 22.98500
H  19.04700 -0.51300 22.17200
H  20.46500 -1.43500 22.84800
H  19.50500 -0.57500 23.90000
H  15.24600 -3.30800 23.68200
H  16.28700 -3.40400 22.24300
H  14.75700 -1.03500 21.80300
H  13.65900 -2.24000 22.54100
H  14.68200 -2.75000 21.15500
H  13.39100 1.91800 27.64500
H  12.65900 0.87900 26.46600
H  14.12700 1.70000 25.98000
H  14.75400 -0.52700 31.92300
H  15.09900 2.34700 34.90100
H  15.78100 3.15900 33.55400
H  16.79500 2.22300 34.54200
Mg 53.27000 24.40400 44.66100
C  50.45900 26.35300 44.42100
C  51.36500 21.54700 44.36400
C  56.16200 22.57000 44.24200
C  55.09800 27.37700 44.74100
N  51.15200 23.98700 44.30500
C  50.16800 25.00300 44.39000
C  48.78200 24.35200 44.24000
C  49.07300 22.88100 44.65000
C  50.59500 22.74100 44.40900
C  48.80900 22.47800 46.14500
C  48.02700 24.59500 42.92700
C  48.84000 24.50500 41.61400
H  48.46700 23.30300 40.62900
N  53.73400 22.36800 44.29300
C  52.79400 21.33600 44.27600
C  53.45700 20.09200 44.15400
C  54.86600 20.34100 44.05700
C  54.95500 21.79000 44.21700
C  52.82400 18.71500 44.03000
C  55.96600 19.28600 43.80200
O  55.65100 18.15500 43.41700
C  57.39400 19.59900 43.88600
N  55.28900 24.95100 44.36200
C  56.26400 23.99200 44.24200
C  57.61400 24.70200 43.95700
C  57.31800 26.18400 44.43300
C  55.78300 26.18300 44.53200
C  58.79700 24.09300 44.80600
C  58.03600 27.31800 43.56300
C  58.76200 28.30000 44.42600
N  52.94100 26.50200 44.71800
C  53.74500 27.57400 44.82600
C  52.98500 28.76400 45.07000
C  51.65400 28.34000 44.84500
C  51.75700 26.90100 44.61500
C  53.53400 30.11300 45.33300
C  50.35900 28.79200 44.69700
O  49.94200 29.91500 44.76100
C  49.52800 27.56900 44.42900
C  48.80300 27.78600 43.18300
O  49.31900 27.80700 42.10400
O  47.45900 28.04200 43.44600
C  46.71000 28.20500 42.17500
H  50.70300 20.69400 44.52600
H  57.15800 22.12700 44.18200
H  55.78000 28.22900 44.78600
H  48.20600 24.80800 45.04400
H  48.59000 22.09000 44.07600
H  48.13000 23.01900 46.80300
H  49.77200 22.45300 46.65500
H  48.64100 21.40100 46.14700
H  47.45100 25.52100 42.94400
H  47.30900 23.77500 42.91800
H  49.84300 24.25600 41.96000
H  48.80900 25.41200 41.01000
H  53.08800 18.25400 43.07800
H  51.74400 18.80600 44.14400
H  53.10400 18.03800 44.83700
H  57.99000 18.70300 43.71600
H  57.63000 20.00700 44.86800
H  57.60500 20.38400 43.15900
H  57.88100 24.78100 42.90400
H  57.63600 26.32400 45.46600
H  58.73800 23.01400 44.94800
H  58.97700 24.54500 45.78100
H  59.68100 24.28900 44.19900
H  57.30900 27.80600 42.91400
H  58.70800 26.87100 42.83000
H  58.70800 28.05700 45.48700
H  58.35400 29.30900 44.37500
H  59.75700 28.41300 43.99500
H  52.64600 30.73600 45.44400
H  54.20800 30.48400 44.56100
H  53.98300 30.03100 46.32200
H  48.80200 27.54100 45.24200
H  45.65100 28.45800 42.22500
H  46.88000 27.38000 41.48300
H  47.19200 29.04000 41.66600

