158

Mg 35.31000 48.51200 25.77800
C  35.76600 46.53700 28.70600
C  34.43200 51.12600 27.63700
C  34.69400 50.09700 22.87800
C  36.22800 45.64700 23.98500
N  35.15800 48.76300 27.92000
C  35.50200 47.88200 28.97900
C  35.48600 48.60300 30.31400
C  34.71600 50.01100 29.91500
C  34.79500 50.00300 28.39500
C  33.29200 50.04400 30.44900
C  36.90600 48.78600 31.06100
C  36.88200 48.57500 32.65600
H  35.54900 48.77400 33.38300
N  34.66100 50.35600 25.32400
C  34.40800 51.37100 26.25200
C  34.14000 52.64300 25.58200
C  34.23800 52.32500 24.17800
C  34.58900 50.88600 24.09000
C  33.86800 53.99900 26.42100
C  34.05300 53.25900 22.95800
O  34.20600 52.92600 21.78800
C  33.74400 54.64900 23.26600
N  35.09300 47.87800 23.76500
C  34.87500 48.69600 22.69200
C  34.95800 48.00300 21.31800
C  35.45600 46.55800 21.71700
C  35.60000 46.66600 23.22700
C  33.61600 48.02400 20.57100
C  36.82600 46.12500 21.15000
C  38.05200 46.97900 21.60000
N  35.85700 46.49500 26.17000
C  36.27000 45.44200 25.34000
C  36.69900 44.29100 26.11500
C  36.38400 44.64900 27.42200
C  35.93600 46.00200 27.40400
C  37.38100 43.02200 25.54000
C  36.42900 44.12600 28.77300
O  36.73700 43.04600 29.23600
C  36.04000 45.33200 29.62400
C  34.88600 44.97100 30.57000
O  33.74200 44.71700 30.25800
O  35.37800 44.91100 31.82900
C  34.34300 44.52300 32.83900
H  34.35400 51.99600 28.29300
H  34.61300 50.56200 21.89300
H  36.74600 44.85800 23.43600
H  34.79200 48.10700 30.99300
H  35.38900 50.81000 30.22600
H  32.92500 51.06800 30.37000
H  33.35900 49.85300 31.52000
H  32.76500 49.25300 29.91500
H  37.36000 49.74000 30.79100
H  37.56900 48.05900 30.59300
H  37.34300 49.31700 33.30900
H  37.24000 47.59800 32.97700
H  32.91000 54.50900 26.31700
H  34.70000 54.60700 26.06700
H  34.22400 53.86900 27.44300
H  34.55700 55.11600 23.82200
H  32.83900 54.57600 23.86900
H  33.53000 55.33100 22.44300
H  35.73100 48.51900 20.74800
H  34.74300 45.76200 21.50000
H  32.86700 48.48500 21.21400
H  33.28700 47.02800 20.27200
H  33.75600 48.63600 19.68000
H  36.74400 46.15800 20.06400
H  37.06500 45.09800 21.42400
H  38.45000 46.52100 22.50600
H  37.71600 47.98700 21.84500
H  38.76600 47.02700 20.77800
H  37.70700 43.06700 24.50100
H  36.82700 42.12000 25.80000
H  38.28800 42.89900 26.13200
H  36.95500 45.58200 30.16100
H  34.01800 43.49200 32.69700
H  33.45800 45.14000 32.68200
H  34.70000 44.59800 33.86700
Mg -6.46500 25.56600 27.37300
C  -5.14100 27.35500 29.98400
C  -8.07800 23.55200 29.57600
C  -7.66900 24.13900 24.71300
C  -4.23700 27.40500 25.22800
N  -6.38300 25.40500 29.46200
C  -5.93000 26.29500 30.37900
C  -6.39800 25.96500 31.83200
C  -6.85700 24.48000 31.69000
C  -7.14200 24.43000 30.12000
C  -5.82000 23.40000 32.07900
C  -7.33500 26.96900 32.48100
C  -7.23200 27.05600 34.04400
H  -6.75600 25.81300 34.85900
N  -7.81400 24.06100 27.17200
C  -8.43200 23.40900 28.22000
C  -9.32800 22.36300 27.64300
C  -9.24000 22.47000 26.18500
C  -8.28700 23.64900 25.91100
C  -10.24200 21.49700 28.53300
C  -9.93500 21.68400 25.09300
O  -9.60500 21.76600 23.98400
C  -10.90800 20.50900 25.44900
N  -5.89200 25.67000 25.27500
C  -6.68200 25.04100 24.40500
C  -6.21700 25.22100 22.94600
C  -5.18900 26.39400 23.13200
C  -5.10300 26.51000 24.60300
C  -5.54200 23.97700 22.29800
C  -5.65400 27.68100 22.38500
C  -5.29600 27.79900 20.90500
N  -4.92900 27.05600 27.47300
C  -4.11900 27.68300 26.57800
C  -3.34500 28.73000 27.22700
C  -3.69300 28.61800 28.58800
C  -4.66400 27.64200 28.68400
C  -2.42300 29.70200 26.47800
C  -3.55300 29.18100 29.85600
O  -2.83900 30.09700 30.23900
C  -4.42800 28.37600 30.83800
C  -3.49000 27.60700 31.73200
O  -2.72000 26.70100 31.45100
O  -3.66300 28.21600 33.00300
C  -2.83300 27.63300 34.01600
H  -8.49000 22.82600 30.27900
H  -7.95400 23.65900 23.77400
H  -3.49500 27.77900 24.51900
H  -5.55500 25.92900 32.52300
H  -7.73600 24.27800 32.30300
H  -6.36400 22.70300 32.71600
H  -5.03800 23.90100 32.65100
H  -5.43000 22.91500 31.18500
H  -8.37200 26.69600 32.28100
H  -6.98700 27.96300 32.20000
H  -8.22200 27.44600 34.27800
H  -6.56400 27.89900 34.22300
H  -11.30600 21.73400 28.53300
H  -10.01700 21.57300 29.59700
H  -10.14000 20.43400 28.31800
H  -10.21700 19.73900 25.79200
H  -11.41800 20.05600 24.59900
H  -11.58000 20.81100 26.25300
H  -7.08200 25.54300 22.36700
H  -4.20500 26.12000 22.75200
H  -4.45700 24.01400 22.39400
H  -5.80500 23.86900 21.24600
H  -5.84000 23.00500 22.69100
H  -5.37400 28.58200 22.93100
H  -6.73800 27.58900 22.32300
H  -4.88600 26.85400 20.55000
H  -4.64900 28.66600 20.77400
H  -6.19100 28.12200 20.37400
H  -2.52500 30.64500 27.01500
H  -2.82000 29.89800 25.48200
H  -1.40500 29.32400 26.38500
H  -4.95600 29.09900 31.46000
H  -2.78200 28.32500 34.85700
H  -1.77300 27.56200 33.77100
H  -3.27700 26.65200 34.18200

