158

Mg 40.71800 7.36100 29.80600
C  42.66600 8.81900 32.70000
C  38.50600 6.38200 32.11400
C  39.37600 5.70100 27.33900
C  43.42800 8.12900 27.76900
N  40.69700 7.55200 32.22900
C  41.41000 8.29300 33.10500
C  40.80900 8.33600 34.42500
C  39.52100 7.46400 34.21000
C  39.57800 7.05800 32.75100
C  39.29800 6.25700 35.09400
C  40.54300 9.85000 34.75400
C  39.66300 10.14700 36.05300
H  40.17900 11.12500 37.06900
N  39.11400 6.21400 29.75500
C  38.29800 5.93300 30.82000
C  37.09600 5.25000 30.20000
C  37.22300 5.33800 28.77700
C  38.62500 5.78100 28.56300
C  35.90100 4.85700 31.01100
C  36.34000 5.01700 27.71700
O  36.56400 5.12100 26.52900
C  34.92600 4.48300 28.08200
N  41.47100 6.82100 27.84700
C  40.63000 6.20700 26.96400
C  41.07400 6.29300 25.53000
C  42.21700 7.39700 25.69000
C  42.44400 7.36800 27.17100
C  41.46900 4.89200 25.06900
C  41.86300 8.80100 25.02600
C  42.88500 9.31500 24.09400
N  42.66700 8.24800 30.15000
C  43.55500 8.55500 29.18900
C  44.59100 9.27300 29.67600
C  44.35500 9.32800 31.09500
C  43.13800 8.72300 31.29800
C  45.68900 9.92300 28.83600
C  44.89600 9.89000 32.34500
O  45.94800 10.51700 32.48900
C  43.84800 9.56500 33.44800
C  44.31800 8.73100 34.53300
O  45.03100 7.78400 34.47100
O  43.88200 9.27500 35.71200
C  44.03600 8.49000 36.97300
H  37.61000 6.33700 32.73700
H  38.91200 5.19200 26.49100
H  44.18900 8.61200 27.15300
H  41.57600 7.98100 35.11400
H  38.70100 8.14300 34.44100
H  39.17200 5.26900 34.65100
H  38.35800 6.46900 35.60300
H  39.98900 6.20200 35.93600
H  40.11500 10.40100 33.91700
H  41.46800 10.42400 34.80100
H  39.32100 9.20700 36.48600
H  38.83800 10.73700 35.65300
H  35.63900 3.80900 30.86700
H  34.99900 5.39200 30.71500
H  36.04100 5.24600 32.02000
H  34.99000 3.58700 28.69900
H  34.36800 4.20500 27.18800
H  34.47800 5.36000 28.55100
H  40.28500 6.69400 24.89300
H  43.12300 7.00600 25.22900
H  40.82600 4.21300 25.62900
H  42.49800 4.70500 25.37500
H  41.25300 4.72200 24.01400
H  41.79400 9.55600 25.81000
H  40.93800 8.75900 24.45100
H  43.62700 8.52700 23.96600
H  43.34100 10.19200 24.55400
H  42.65700 9.52200 23.04900
H  45.31000 10.35900 27.91100
H  46.37000 9.08600 28.68500
H  46.07800 10.77900 29.38800
H  43.50000 10.51100 33.86200
H  43.66400 9.09800 37.79700
H  45.11900 8.38300 37.04100
H  43.57500 7.50200 36.96300
Mg 0.07000 43.29600 26.67000
C  2.21700 42.69800 29.39100
C  -2.62700 41.96100 28.48200
C  -1.80400 43.64400 23.91800
C  2.93800 44.14800 24.85800
N  -0.15800 42.41800 28.71000
C  0.84500 42.53000 29.66700
C  0.22000 42.23000 31.02600
C  -1.21200 41.75800 30.59500
C  -1.35000 42.04100 29.15800
C  -1.61800 40.29900 30.74600
C  0.26100 43.24400 32.15500
C  0.61600 42.76600 33.58200
H  0.00800 41.50300 34.12200
N  -1.96800 42.88200 26.29400
C  -2.88100 42.30300 27.11500
C  -4.18400 42.21300 26.47200
C  -3.98300 42.76300 25.14500
C  -2.51800 43.09000 25.08100
C  -5.44100 41.73400 27.09000
C  -4.94200 42.99500 24.01800
O  -4.56500 43.44500 22.93100
C  -6.52600 42.79700 24.23400
N  0.48600 43.84700 24.73900
C  -0.47700 43.99300 23.79900
C  0.01900 44.85000 22.58500
C  1.46100 45.13400 23.03700
C  1.70800 44.24300 24.28300
C  -0.10500 44.19800 21.23200
C  1.69600 46.63700 23.42900
C  1.45400 47.67500 22.39400
N  2.17300 43.41800 27.01400
C  3.18800 43.67800 26.17500
C  4.44300 43.50000 26.83900
C  4.10100 43.11600 28.17200
C  2.75800 43.01100 28.14400
C  5.79400 43.76000 26.32500
C  4.68400 42.77000 29.45700
O  5.88000 42.66100 29.77000
C  3.47100 42.70500 30.36200
C  3.51300 41.49200 31.28400
O  3.18400 40.32600 31.06000
O  3.96300 41.87200 32.52700
C  4.19200 40.84700 33.56000
H  -3.52500 41.63900 29.01400
H  -2.34000 43.85000 22.99000
H  3.85900 44.48100 24.37500
H  0.67700 41.33400 31.44600
H  -1.95500 42.44900 30.99300
H  -0.89100 39.78500 31.37500
H  -1.72100 39.73300 29.82000
H  -2.58500 40.24700 31.24700
H  -0.72800 43.66800 32.32900
H  0.92900 44.06900 31.90700
H  0.55500 43.55700 34.33000
H  1.67100 42.57600 33.38400
H  -6.01000 41.07200 26.43800
H  -6.08700 42.54900 27.41600
H  -5.24000 41.09500 27.95000
H  -6.96100 43.20000 25.14800
H  -6.70200 41.73300 24.07600
H  -7.05500 43.36500 23.46800
H  -0.52500 45.79300 22.54700
H  2.16800 44.92700 22.23400
H  0.90500 44.13800 20.82500
H  -0.64500 44.75500 20.46600
H  -0.50200 43.18500 21.17300
H  2.73200 46.67000 23.76700
H  1.16100 46.98300 24.31400
H  1.05300 47.13100 21.53900
H  2.40300 48.13300 22.11700
H  0.66100 48.37200 22.66800
H  5.77900 43.95100 25.25200
H  6.53000 42.96800 26.46500
H  6.13800 44.63600 26.87400
H  3.32700 43.60800 30.95700
H  5.18600 41.03200 33.96600
H  4.21700 39.78500 33.31400
H  3.51800 41.02500 34.39800

