158

Mg -1.26500 18.12400 27.08000
C  -1.85900 16.00100 29.80600
C  -1.60500 20.87700 29.26900
C  -1.28800 20.33100 24.43100
C  -1.36300 15.40800 24.89200
N  -1.86600 18.34900 29.30300
C  -1.82200 17.37500 30.21500
C  -1.97400 17.91900 31.65200
C  -1.98300 19.50200 31.41200
C  -1.76100 19.63200 29.93200
C  -3.38900 20.01300 32.00600
C  -0.90600 17.59000 32.71400
C  -1.38500 17.23200 34.13900
H  -0.37800 17.35700 35.33100
N  -1.23800 20.32500 26.87000
C  -1.42100 21.23500 27.89100
C  -1.23900 22.52000 27.31100
C  -1.25300 22.42100 25.88700
C  -1.23500 20.98100 25.64300
C  -1.32200 23.74100 28.26000
C  -1.39700 23.55400 24.83700
O  -1.55500 23.31400 23.60800
C  -1.42800 25.03400 25.27900
N  -1.15900 17.88700 24.97100
C  -1.31400 18.93300 24.09800
C  -1.09800 18.44200 22.66500
C  -0.85600 16.91700 22.84600
C  -1.10500 16.72400 24.29600
C  -2.16300 18.87400 21.62800
C  0.45600 16.37700 22.21800
C  1.78600 16.58700 23.01200
N  -1.53400 16.11500 27.19300
C  -1.52800 15.07600 26.22000
C  -1.70000 13.77800 26.91000
C  -1.79300 14.11000 28.29700
C  -1.72700 15.50700 28.41000
C  -1.67200 12.49600 26.22600
C  -1.91300 13.49600 29.59000
O  -1.92700 12.30900 29.92000
C  -1.81000 14.65300 30.61800
C  -0.53300 14.46900 31.33400
O  0.58000 14.68900 30.87100
O  -0.86600 13.99100 32.57600
C  0.35000 13.81100 33.42400
H  -1.55300 21.69300 29.99200
H  -1.40400 20.92700 23.52300
H  -1.42900 14.57300 24.19100
H  -2.96600 17.54100 31.89700
H  -1.17300 19.99400 31.95000
H  -3.80000 19.51400 32.88400
H  -4.19000 19.89800 31.27500
H  -3.35600 21.07300 32.25500
H  -0.06600 18.28400 32.75600
H  -0.55100 16.62300 32.35600
H  -1.65000 16.18100 34.01700
H  -2.25300 17.86100 34.33800
H  -2.35000 24.02600 28.03700
H  -0.60200 24.54900 28.13200
H  -1.37700 23.66800 29.34600
H  -2.36200 25.19600 25.81600
H  -1.40300 25.53900 24.31300
H  -0.54800 25.21500 25.89600
H  -0.07200 18.78700 22.53300
H  -1.73900 16.40200 22.46900
H  -2.62400 18.00300 21.16400
H  -1.68100 19.60400 20.97800
H  -3.02100 19.42700 22.01200
H  0.53800 16.78800 21.21100
H  0.33700 15.29500 22.27000
H  2.54300 16.88800 22.28800
H  2.02800 15.67800 23.56200
H  1.70100 17.38000 23.75500
H  -0.81700 11.86100 26.45900
H  -1.65000 12.70900 25.15700
H  -2.60400 11.95300 26.38300
H  -2.65500 14.74300 31.30000
H  0.76000 14.80400 33.60900
H  1.14900 13.29900 32.88700
H  -0.00000 13.27100 34.30300
Mg 30.53300 58.82100 38.88300
C  27.92300 56.72100 37.60700
C  32.63300 56.26900 38.01400
C  33.01000 61.02000 39.10800
C  28.13100 61.42000 38.96400
N  30.28200 56.74500 37.70700
C  29.15600 56.13500 37.40400
C  29.41100 54.74900 36.81700
C  31.02700 54.60400 37.04900
C  31.32100 55.89300 37.77200
C  31.42500 53.35000 37.83100
C  29.00300 54.54600 35.36200
C  29.31700 55.66800 34.32200
H  28.31600 56.18300 33.26500
N  32.60900 58.59000 38.74500
C  33.24400 57.42500 38.36000
C  34.67900 57.64000 38.51100
C  34.79800 59.07900 38.88800
C  33.43000 59.65000 38.87600
C  35.76000 56.62200 38.27700
C  36.00800 59.79800 39.29500
O  37.03900 59.23500 39.12900
C  36.06400 61.12800 39.80100
N  30.52300 60.92400 39.12500
C  31.69300 61.54100 39.22800
C  31.48800 63.03600 39.56900
C  29.92000 63.20600 39.23400
C  29.45900 61.77500 39.17000
C  31.89700 63.47600 41.03200
C  29.68800 64.07700 37.92600
C  29.82600 65.62900 37.81500
N  28.42300 59.04700 38.54100
C  27.63200 60.13700 38.68300
C  26.25400 59.81300 38.39400
C  26.30900 58.48000 37.97000
C  27.67300 58.08400 38.01100
C  25.04400 60.75600 38.40000
C  25.58600 57.34500 37.48000
O  24.39400 57.17000 37.30700
C  26.55400 56.16100 37.31500
C  26.07400 54.91400 38.07700
O  26.24300 54.69400 39.28000
O  25.25000 54.14400 37.24100
C  24.49100 53.07700 37.96100
H  33.35800 55.48300 37.79600
H  33.73600 61.83200 39.18700
H  27.43500 62.26100 38.99500
H  28.79300 54.05100 37.38200
H  31.64500 54.55700 36.15200
H  31.70400 53.63700 38.84500
H  32.18700 52.72900 37.36100
H  30.65400 52.58000 37.87000
H  27.92700 54.37400 35.32200
H  29.56400 53.66800 35.04100
H  30.23200 55.36600 33.81300
H  29.61200 56.59900 34.80700
H  36.41600 56.63500 39.14700
H  36.20800 56.66400 37.28500
H  35.29100 55.63900 38.32500
H  37.08600 61.25700 40.15700
H  35.42000 61.24600 40.67200
H  35.80200 61.79500 38.97900
H  32.07600 63.69800 38.93300
H  29.42300 63.68100 40.08000
H  32.76800 64.12400 40.94100
H  32.25500 62.59300 41.56100
H  31.20500 63.95100 41.72700
H  28.60900 63.97500 37.81100
H  30.20000 63.63900 37.06900
H  30.26300 66.02400 38.73200
H  28.87500 66.09500 37.55800
H  30.53200 65.86300 37.01800
H  24.16900 60.10600 38.41900
H  24.91900 61.42100 37.54500
H  25.10500 61.38100 39.29100
H  26.61400 56.02700 36.23400
H  24.03000 53.32200 38.91700
H  25.13500 52.21900 38.15300
H  23.69000 52.83600 37.26200

