158

Mg 1.53500 -1.59600 43.86100
C  4.87100 -0.44300 43.61000
C  0.51700 1.04600 42.11900
C  -1.61400 -2.92100 44.05500
C  2.84300 -4.68000 44.86800
N  2.61900 0.04900 42.81700
C  3.95000 0.46200 43.05400
C  4.22000 1.93100 42.62000
C  2.81100 2.39200 42.03200
C  1.92700 1.07600 42.27600
C  2.26100 3.68900 42.54500
C  5.42200 2.34800 41.68700
C  5.78700 1.33500 40.58800
H  5.74700 1.90800 39.16900
N  -0.30800 -0.98800 43.18600
C  -0.48000 0.15900 42.50100
C  -1.94100 0.38100 42.30400
C  -2.55600 -0.77000 42.97400
C  -1.47600 -1.61000 43.43200
C  -2.61900 1.62800 41.74600
C  -4.06000 -0.93300 43.17700
O  -4.89900 -0.27000 42.48200
C  -4.61200 -1.91200 44.20900
N  0.72900 -3.52400 44.40000
C  -0.58000 -3.77900 44.53200
C  -0.86100 -5.17500 45.00000
C  0.58500 -5.83000 45.00200
C  1.48800 -4.59800 44.70200
C  -1.54900 -5.20900 46.36100
C  0.80900 -6.93400 43.88400
C  1.28300 -8.28500 44.50400
N  3.43600 -2.46900 44.25100
C  3.80900 -3.66500 44.75900
C  5.24700 -3.67500 45.00700
C  5.68000 -2.44800 44.56800
C  4.55400 -1.71600 44.07900
C  5.98100 -4.75900 45.55400
C  6.85700 -1.56200 44.46700
O  8.04600 -1.74200 44.74800
C  6.33500 -0.18800 43.92700
C  6.51400 0.84900 44.89600
O  5.76600 1.03000 45.88200
O  7.51000 1.65400 44.45300
C  7.63200 2.90500 45.29100
H  0.05100 1.93200 41.68400
H  -2.60800 -3.35500 44.17700
H  3.24200 -5.56700 45.36400
H  4.42300 2.49600 43.52900
H  2.91900 2.52000 40.95500
H  3.15300 4.24500 42.83400
H  1.64300 3.57000 43.43400
H  1.61000 4.19900 41.83500
H  6.29700 2.55900 42.30100
H  5.03100 3.26200 41.24000
H  5.17200 0.43800 40.65300
H  6.78000 0.95700 40.83200
H  -2.59300 1.47900 40.66600
H  -2.09800 2.53600 42.05000
H  -3.62200 1.83700 42.11800
H  -5.62100 -1.60200 44.48200
H  -4.01800 -1.98100 45.12000
H  -4.65500 -2.91700 43.78900
H  -1.45600 -5.69600 44.25100
H  0.82600 -6.24100 45.98200
H  -2.18300 -4.32800 46.46600
H  -0.88800 -5.33200 47.21900
H  -2.27000 -6.02300 46.28400
H  1.53200 -6.52400 43.17900
H  -0.08100 -7.22600 43.32600
H  0.57900 -9.06800 44.22200
H  1.47200 -8.34000 45.57600
H  2.22700 -8.54100 44.02300
H  6.70700 -4.44100 46.30200
H  6.53500 -5.27000 44.76600
H  5.28100 -5.47800 45.98100
H  6.90300 -0.09400 43.00100
H  6.63700 3.26700 45.54700
H  8.14600 3.61900 44.64800
H  8.27800 2.75000 46.15600
Mg 42.84600 41.37800 25.68700
C  42.22400 43.42200 28.51400
C  44.42300 39.15300 27.91300
C  43.74600 39.61300 23.05600
C  41.64900 43.90700 23.63700
N  43.46800 41.37700 27.89300
C  42.91700 42.24000 28.80100
C  43.25500 41.69700 30.21100
C  44.34400 40.60800 29.97300
C  44.00100 40.30300 28.52300
C  45.76800 41.17200 30.10300
C  41.98100 41.35300 31.05300
C  42.16000 41.52000 32.53300
H  41.17700 42.42000 33.28300
N  43.91000 39.56900 25.46800
C  44.41700 38.79800 26.53100
C  44.96600 37.57300 25.95400
C  44.77600 37.66900 24.50100
C  44.10300 38.93100 24.26300
C  45.52200 36.43800 26.82700
C  45.14800 36.65600 23.42100
O  44.88900 36.77700 22.21600
C  45.90800 35.38500 23.76800
N  42.82100 41.77200 23.59400
C  43.16100 40.83600 22.75600
C  43.04100 41.37200 21.29900
C  42.15900 42.61600 21.43800
C  42.18300 42.79900 22.94900
C  44.46900 41.63800 20.64600
C  40.69800 42.44500 20.93300
C  39.88400 41.37000 21.67100
N  42.03400 43.27200 25.94700
C  41.69700 44.23000 25.01400
C  41.29500 45.39000 25.73100
C  41.39200 45.09300 27.09500
C  41.89600 43.79100 27.17000
C  40.85800 46.68400 25.11800
C  41.30500 45.61200 28.46000
O  40.92100 46.71800 28.84400
C  41.74600 44.52800 29.51900
C  42.85000 45.12000 30.30000
O  43.98700 45.22800 29.88700
O  42.31200 45.67900 31.43200
C  43.34900 46.22300 32.35900
H  44.93800 38.44500 28.56500
H  43.88800 39.01200 22.15600
H  41.24500 44.58600 22.88300
H  43.63400 42.60900 30.67200
H  44.29700 39.73800 30.62900
H  46.17900 41.31300 29.10400
H  46.37200 40.57800 30.78900
H  45.73900 42.14600 30.59000
H  41.65500 40.32500 30.89600
H  41.15700 41.99800 30.74800
H  43.14600 41.97500 32.62800
H  42.33100 40.61000 33.10900
H  45.17500 35.45800 26.50000
H  45.44900 36.52500 27.91100
H  46.57400 36.25400 26.60600
H  46.49000 35.00900 22.92700
H  45.15200 34.64000 24.01400
H  46.57800 35.52500 24.61600
H  42.47500 40.61100 20.76100
H  42.66700 43.41000 20.89200
H  44.81700 42.65100 20.44800
H  44.51000 41.13800 19.67800
H  45.11300 41.09200 21.33500
H  40.76900 42.10900 19.89900
H  40.28200 43.45000 21.01200
H  40.34900 40.94100 22.55800
H  39.48800 40.59100 21.02100
H  39.14000 42.02000 22.13100
H  40.74700 46.57200 24.04000
H  41.60400 47.43900 25.36900
H  39.91900 47.02800 25.55100
H  40.91400 44.11100 30.08800
H  43.65500 47.22400 32.05800
H  44.23700 45.60500 32.22900
H  42.97800 46.24700 33.38400

