158

Mg 47.96300 16.06600 28.19100
C  45.75400 15.85500 31.07700
C  49.91500 18.24100 30.19400
C  49.90500 16.70600 25.55200
C  45.67100 14.27400 26.37900
N  47.79600 16.99400 30.35700
C  46.89500 16.57300 31.38600
C  47.38000 17.16300 32.78900
C  48.54100 18.15700 32.32700
C  48.74900 17.75200 30.90300
C  48.28500 19.69100 32.39800
C  47.93300 16.10800 33.81300
C  47.69800 16.48600 35.27500
H  47.28000 17.90000 35.62500
N  49.67300 17.28800 27.91600
C  50.31900 18.04400 28.88800
C  51.50300 18.57800 28.38100
C  51.45100 18.30800 26.90300
C  50.30300 17.35800 26.72200
C  52.44000 19.45100 29.16900
C  52.34000 18.92000 25.76400
O  52.16400 18.69600 24.56400
C  53.52700 19.77800 26.12800
N  47.76300 15.61000 26.25700
C  48.74500 15.91800 25.35000
C  48.38800 15.35100 24.00200
C  47.21600 14.44000 24.28600
C  46.86700 14.74300 25.75000
C  48.16600 16.45000 22.99400
C  47.58900 12.92500 24.05100
C  46.96400 12.28700 22.79100
N  46.00100 15.27300 28.50500
C  45.20700 14.54300 27.64900
C  43.99200 14.16300 28.34800
C  44.13700 14.66000 29.70800
C  45.42700 15.32900 29.75800
C  42.87000 13.38700 27.75500
C  43.51900 14.70600 31.05200
O  42.46700 14.30900 31.48600
C  44.58500 15.38800 31.98500
C  44.00100 16.64100 32.62600
O  43.95900 17.69500 32.09900
O  43.53600 16.37500 33.87100
C  43.07300 17.55700 34.64000
H  50.59300 18.88900 30.75300
H  50.45000 16.97100 24.64400
H  45.12500 13.54500 25.77700
H  46.55100 17.80500 33.08300
H  49.46100 18.02000 32.89600
H  48.17100 20.12600 31.40500
H  49.16000 20.13200 32.87600
H  47.42600 19.94300 33.02100
H  49.00700 15.94100 33.72500
H  47.50500 15.12100 33.64000
H  48.63800 16.37100 35.81400
H  46.94200 15.81500 35.68400
H  52.94900 18.93000 29.98000
H  51.92400 20.22600 29.73500
H  53.29500 19.87700 28.64500
H  53.26600 20.75100 26.54500
H  53.98600 19.92400 25.15000
H  54.06800 19.16600 26.85000
H  49.25000 14.76100 23.69100
H  46.42200 14.73700 23.60000
H  48.94700 16.24300 22.26200
H  48.29500 17.46000 23.38500
H  47.30100 16.26900 22.35600
H  47.28100 12.31500 24.90000
H  48.67400 12.83100 24.01400
H  46.50000 11.34300 23.07600
H  47.75700 12.16900 22.05200
H  46.22100 12.89600 22.27500
H  43.11500 13.03800 26.75200
H  42.01900 14.05200 27.61000
H  42.62400 12.51400 28.35900
H  44.83400 14.66600 32.76300
H  42.01600 17.82500 34.63900
H  43.59100 18.49400 34.43700
H  43.49100 17.38600 35.63200
Mg 47.50200 35.53300 27.63200
C  45.79000 33.79800 30.11900
C  47.52900 38.38900 29.57100
C  48.72500 37.38100 24.88400
C  46.87700 32.96500 25.40600
N  46.67500 36.00600 29.49700
C  46.23500 35.06500 30.45000
C  46.57500 35.54700 31.84400
C  46.47600 37.12600 31.57100
C  46.99800 37.23100 30.12800
C  45.06300 37.73600 31.72800
C  47.95700 34.99700 32.36300
C  48.15900 34.91900 33.87600
H  47.06800 35.54800 34.70500
N  48.11900 37.53400 27.33100
C  48.07200 38.55000 28.33800
C  48.84200 39.70500 27.76900
C  49.09200 39.49000 26.40200
C  48.61000 38.09300 26.14000
C  49.19100 40.91600 28.65100
C  49.81400 40.33100 25.37900
O  50.10700 39.89300 24.30100
C  50.31500 41.72200 25.71100
N  47.75200 35.22800 25.44100
C  48.30600 36.07300 24.54900
C  48.45200 35.47000 23.19200
C  48.05800 33.94700 23.53200
C  47.58400 33.99300 24.90600
C  47.59500 36.15800 22.09900
C  49.25300 32.89800 23.31200
C  49.10200 31.82500 22.20900
N  46.59000 33.78200 27.69200
C  46.39600 32.81000 26.73700
C  45.60600 31.69700 27.25000
C  45.33100 32.01300 28.62600
C  45.97600 33.28000 28.82600
C  45.10300 30.51900 26.47000
C  44.73400 31.60100 29.80500
O  44.03800 30.65200 30.02900
C  44.92600 32.79200 30.83200
C  45.40200 32.27800 32.14900
O  46.55400 32.14600 32.52200
O  44.32500 32.12300 32.97600
C  44.59500 31.74200 34.36300
H  47.59000 39.17000 30.33100
H  49.11200 37.94400 24.03200
H  46.75400 32.07000 24.79300
H  45.79800 35.14500 32.49400
H  47.22000 37.65000 32.17300
H  45.03900 38.49300 32.51300
H  44.42900 36.96900 32.17200
H  44.71200 38.10800 30.76600
H  48.71100 35.68800 31.98700
H  48.10100 33.97400 32.01300
H  49.10100 35.37500 34.18000
H  48.31400 33.87000 34.13100
H  49.39700 40.59300 29.67200
H  48.43300 41.70000 28.64800
H  50.06100 41.49200 28.33600
H  50.31900 42.31000 24.79300
H  51.28900 41.57400 26.17900
H  49.72400 42.26800 26.44600
H  49.48600 35.56100 22.85800
H  47.14800 33.65400 23.00900
H  47.13900 35.38500 21.48100
H  48.13500 36.74700 21.35700
H  46.76700 36.69600 22.56100
H  49.49400 32.31700 24.20200
H  50.09700 33.48500 22.95100
H  48.05900 31.64300 21.95200
H  49.46500 30.91000 22.67600
H  49.69100 32.01500 21.31100
H  44.37500 30.70200 25.67900
H  44.72400 29.71700 27.10300
H  45.99600 30.10400 26.00300
H  43.90600 33.14500 30.98300
H  43.67700 31.22800 34.64600
H  44.74700 32.63600 34.96800
H  45.48700 31.11600 34.40200

