158

Mg 30.20500 59.39600 39.73800
C  27.40900 57.64900 38.78800
C  32.19300 56.67300 38.68700
C  32.93700 61.34500 39.73900
C  28.26800 62.33500 39.81100
N  29.83400 57.36800 38.76200
C  28.60100 56.87500 38.56300
C  28.74300 55.54700 37.86000
C  30.21200 55.07300 38.07600
C  30.80100 56.46700 38.60400
C  30.35100 53.90800 39.09200
C  28.37400 55.67700 36.29600
C  27.45000 54.63600 35.76200
H  26.55600 55.07800 34.54300
N  32.29700 58.98800 39.56400
C  32.83600 57.80600 39.10900
C  34.27500 57.98400 39.19400
C  34.55900 59.27300 39.60800
C  33.20000 59.90700 39.69400
C  35.30200 56.98900 38.68100
C  35.91800 59.82300 39.83800
O  36.92100 59.17200 39.62200
C  36.13400 61.12100 40.59100
N  30.48900 61.53400 39.65600
C  31.74100 62.06200 39.74700
C  31.74700 63.55600 39.97700
C  30.20300 63.92500 40.01800
C  29.65400 62.48600 39.88400
C  32.54900 64.07900 41.18200
C  29.76800 64.76300 38.82100
C  28.81400 65.90400 39.09600
N  28.19000 59.86900 39.56400
C  27.50500 61.05600 39.61300
C  26.07200 60.87800 39.36900
C  26.02600 59.51600 39.07500
C  27.31900 58.97100 39.16600
C  24.92100 61.88700 39.20600
C  25.17700 58.49000 38.48100
O  24.00500 58.55100 38.14100
C  26.02200 57.18900 38.25500
C  25.45900 56.12200 39.06500
O  25.41100 56.09000 40.28800
O  24.89000 55.18100 38.19300
C  24.33900 54.02100 38.85000
H  32.90400 55.85400 38.56200
H  33.76900 62.05000 39.78500
H  27.63600 63.22400 39.86700
H  28.12700 54.81400 38.38100
H  30.71700 54.70300 37.18400
H  31.37400 53.64300 39.36000
H  29.93000 53.06200 38.54900
H  29.72200 54.17600 39.94100
H  29.28000 55.55300 35.70300
H  27.99500 56.69300 36.18600
H  26.76500 54.29000 36.53700
H  28.07200 53.79000 35.47100
H  35.78200 57.42000 37.80200
H  34.93900 55.98600 38.45800
H  36.06400 56.90400 39.45600
H  37.18200 61.17600 40.88500
H  35.37100 60.99500 41.36000
H  35.85700 61.93300 39.91900
H  32.12000 64.01400 39.06100
H  29.95900 64.40600 40.96500
H  33.55600 64.38900 40.90200
H  32.59300 63.26800 41.91000
H  31.96600 64.82500 41.72200
H  29.39100 64.10600 38.03800
H  30.57100 65.19100 38.22200
H  29.27200 66.87100 38.88800
H  28.40000 65.85600 40.10300
H  27.94400 65.81800 38.44500
H  24.20800 61.75600 40.01900
H  24.45800 61.67800 38.24200
H  25.13800 62.95500 39.21300
H  26.09300 56.74700 37.26100
H  23.78100 54.30500 39.74200
H  25.10900 53.32100 39.17300
H  23.68700 53.54900 38.11400
Mg 25.82200 51.00000 26.57500
C  23.82700 52.33800 29.00500
C  28.15100 50.11000 29.12400
C  28.16500 50.37600 24.17700
C  23.74700 52.44300 24.21000
N  25.87900 51.23700 28.74500
C  24.94000 51.76000 29.53900
C  25.27800 51.45700 30.99400
C  26.78700 51.09900 31.02400
C  26.97500 50.77100 29.51500
C  27.86700 52.17500 31.36600
C  24.30600 50.48000 31.83100
C  23.93800 51.01100 33.16500
H  25.17300 51.02500 34.11200
N  27.78800 50.23200 26.66400
C  28.61100 49.89900 27.79000
C  29.84500 49.29000 27.35000
C  29.80500 49.37500 25.92200
C  28.53200 49.99800 25.54000
C  30.99300 48.85600 28.34700
C  30.86500 48.92200 24.91600
O  30.71300 49.13700 23.68200
C  31.95000 47.93800 25.32100
N  25.95700 51.42600 24.52700
C  26.94500 51.03500 23.71200
C  26.65200 51.50100 22.26900
C  25.21500 51.98500 22.29300
C  24.92200 51.99600 23.76700
C  27.88400 52.38600 21.73200
C  24.14900 51.09200 21.51400
C  23.94100 51.47900 20.10800
N  24.06700 52.09700 26.54800
C  23.32400 52.59100 25.54400
C  22.09100 53.35500 26.06100
C  22.24400 53.20900 27.45700
C  23.43400 52.48100 27.65200
C  21.02900 54.09600 25.21700
C  21.67300 53.49800 28.78300
O  20.60000 53.97100 29.07500
C  22.76900 53.00700 29.78700
C  23.24700 54.06900 30.67400
O  24.04300 54.89500 30.37700
O  22.49600 54.14700 31.80100
C  22.58100 55.35500 32.58900
H  28.80900 49.83500 29.95100
H  28.81000 50.19400 23.31500
H  23.10100 52.92200 23.47200
H  25.24200 52.42300 31.49900
H  26.96500 50.19600 31.60800
H  28.37500 52.51700 30.46500
H  28.59900 51.68000 32.00400
H  27.41200 53.04600 31.83900
H  24.75000 49.48700 31.89700
H  23.34800 50.42700 31.31400
H  23.15400 50.37500 33.57500
H  23.67100 52.06100 33.04500
H  31.94200 49.27300 28.00900
H  31.05600 47.76700 28.34800
H  30.86200 49.07000 29.40700
H  32.83400 48.34800 25.81000
H  32.26200 47.48500 24.38000
H  31.50000 47.24900 26.03500
H  26.70300 50.58500 21.68100
H  25.01400 53.01200 21.98600
H  28.05900 51.88100 20.78100
H  28.79700 52.53900 22.30700
H  27.50700 53.36100 21.42300
H  23.14700 51.00600 21.93400
H  24.53800 50.08200 21.63800
H  24.68600 50.94100 19.52200
H  24.00300 52.53300 19.83900
H  22.99900 51.03300 19.78600
H  20.61500 53.37200 24.51500
H  21.44800 54.89200 24.60200
H  20.28100 54.48300 25.91000
H  22.18600 52.32400 30.40400
H  22.51600 55.14100 33.65600
H  21.70800 55.94400 32.30700
H  23.40500 56.02900 32.35900

