158

Mg 41.68900 41.50500 26.98500
C  41.12200 43.80600 29.65800
C  42.37500 39.19500 29.52200
C  42.31700 39.29600 24.59700
C  40.87000 43.97500 24.73500
N  41.73200 41.56500 29.37700
C  41.34700 42.58000 30.17500
C  41.34700 42.19000 31.63100
C  41.98100 40.70500 31.58800
C  42.02500 40.45900 30.00900
C  43.45500 40.54300 32.17900
C  39.91500 42.23200 32.27000
C  39.69300 43.02800 33.57900
H  39.03200 42.41100 34.79800
N  42.41300 39.56400 27.09300
C  42.63000 38.77000 28.13700
C  43.22900 37.59000 27.71000
C  43.15500 37.53200 26.28100
C  42.58900 38.82600 25.92800
C  43.63500 36.48300 28.63400
C  43.53600 36.37400 25.33600
O  43.43500 36.41200 24.12200
C  44.36700 35.20900 25.84800
N  41.59000 41.58200 24.98000
C  41.89800 40.52900 24.18800
C  41.78900 40.96200 22.66900
C  41.12500 42.36000 22.71000
C  41.14000 42.69100 24.20300
C  43.20300 40.94100 22.00900
C  39.68300 42.38100 22.08700
C  38.54000 41.49700 22.81300
N  41.27300 43.43500 27.06200
C  41.01100 44.38400 26.06200
C  40.83200 45.68800 26.60700
C  40.82100 45.47600 28.00800
C  41.15000 44.14000 28.23800
C  40.66600 46.91000 25.86300
C  40.57600 46.18000 29.24400
O  40.20200 47.31900 29.41000
C  40.73500 45.09400 30.37400
C  41.69500 45.61300 31.47500
O  42.93100 45.63200 31.33400
O  41.01800 46.15600 32.55100
C  41.84800 46.62100 33.60600
H  42.60300 38.41900 30.25600
H  42.51400 38.47200 23.90900
H  40.70500 44.82400 24.06900
H  41.90900 43.01800 32.06500
H  41.36200 39.96400 32.09500
H  43.59300 41.33000 32.92000
H  44.25700 40.64800 31.44800
H  43.53000 39.56200 32.64900
H  39.70000 41.21700 32.60600
H  39.21500 42.44400 31.46200
H  39.07700 43.86200 33.24100
H  40.67500 43.39300 33.88100
H  44.54800 35.94900 28.36900
H  42.92000 35.66900 28.75800
H  43.92100 36.88900 29.60400
H  45.30500 35.61800 26.22100
H  44.54000 34.45900 25.07500
H  43.80800 34.81700 26.69800
H  41.10800 40.23100 22.23400
H  41.78700 42.98600 22.11200
H  43.65300 41.91700 21.82500
H  43.06800 40.49900 21.02200
H  43.95900 40.36000 22.53700
H  39.72300 42.07500 21.04200
H  39.37900 43.42800 22.07100
H  38.03700 40.88800 22.06200
H  37.79100 42.20100 23.17500
H  38.90600 40.80900 23.57500
H  41.31100 46.76000 24.99700
H  40.82400 47.83800 26.41200
H  39.60200 46.82400 25.64300
H  39.78100 45.10100 30.90200
H  42.86800 46.85800 33.30100
H  41.85200 46.06800 34.54500
H  41.38100 47.59600 33.74200
Mg 36.54700 49.85600 26.26900
C  36.67300 47.93200 29.36000
C  35.54900 52.50100 28.20700
C  35.96600 51.54900 23.37800
C  37.03100 46.98800 24.46500
N  36.25700 50.19800 28.53600
C  36.43100 49.28400 29.60800
C  36.16500 49.94500 30.99800
C  35.67300 51.33800 30.48600
C  35.85900 51.39100 28.98400
C  34.24800 51.79800 31.07900
C  37.55600 49.97000 31.75500
C  37.71200 49.71200 33.28200
H  36.44100 49.79300 34.00600
N  35.99400 51.75000 25.87700
C  35.68400 52.72500 26.84100
C  35.40900 53.95000 26.16200
C  35.49700 53.69700 24.74400
C  35.82300 52.26500 24.60000
C  34.64000 55.08000 26.77700
C  35.37600 54.66200 23.57800
O  35.37800 54.29500 22.38300
C  35.21200 56.12900 24.00700
N  36.59200 49.32200 24.23000
C  36.40800 50.25300 23.20900
C  36.53100 49.60800 21.80700
C  37.15000 48.17600 22.21100
C  36.91900 48.14400 23.71800
C  35.17700 49.49600 20.98900
C  38.65800 48.02700 21.95500
C  39.17200 46.66200 21.30000
N  36.78700 47.83200 26.68900
C  37.04200 46.78500 25.86100
C  37.17800 45.55000 26.62500
C  36.98300 45.96800 27.95200
C  36.78200 47.38300 27.95600
C  37.64200 44.23200 26.14000
C  37.04300 45.51200 29.32400
O  37.27700 44.42100 29.77400
C  36.85700 46.79300 30.30100
C  35.56500 46.49200 31.15500
O  34.42600 46.89600 30.98200
O  35.96700 45.77900 32.24100
C  34.86400 45.41400 33.18300
H  35.04400 53.26200 28.80600
H  35.78000 52.03900 22.42000
H  37.27800 46.05100 23.96000
H  35.39400 49.41800 31.56000
H  36.29100 52.12500 30.91700
H  33.85200 50.92200 31.59100
H  33.54600 51.98400 30.26600
H  34.32400 52.56700 31.84800
H  37.97600 50.96100 31.58300
H  38.14800 49.14600 31.35800
H  38.46600 50.41500 33.63800
H  38.17300 48.73200 33.40600
H  33.77900 55.38700 26.18200
H  35.28900 55.92100 27.01900
H  34.25800 54.92600 27.78600
H  34.24300 56.28500 24.48000
H  35.11200 56.63000 23.04500
H  35.99000 56.48700 24.68200
H  37.26600 50.16200 21.22400
H  36.51900 47.34500 21.89800
H  34.74500 48.52800 21.24200
H  35.57500 49.48700 19.97400
H  34.49400 50.32800 21.16200
H  39.09800 48.01100 22.95200
H  39.08800 48.81200 21.33200
H  39.95200 47.02900 20.63200
H  38.34100 46.30800 20.68900
H  39.65300 45.97000 21.99100
H  38.14200 44.30000 25.17400
H  36.79200 43.55000 26.14500
H  38.32500 43.84200 26.89500
H  37.82700 46.87100 30.79300
H  35.30900 44.56100 33.69600
H  33.92500 45.21600 32.66700
H  34.75300 46.21100 33.91800

