158

Mg -1.73900 17.50100 27.94200
C  -1.77300 14.94200 30.36700
C  -2.21100 19.85200 30.34500
C  -2.06800 19.65200 25.49100
C  -1.75200 14.79700 25.57100
N  -2.08500 17.33600 30.11400
C  -1.85900 16.22900 30.92300
C  -1.92600 16.60700 32.38000
C  -2.54300 18.11700 32.22500
C  -2.30600 18.48900 30.82000
C  -4.00700 18.13300 32.80800
C  -0.51700 16.68300 33.00100
C  -0.34700 17.33700 34.40500
H  0.44000 16.57100 35.44200
N  -1.91800 19.50800 27.95100
C  -2.12000 20.30600 29.01700
C  -2.27400 21.68400 28.55700
C  -2.24600 21.60200 27.13000
C  -2.07100 20.23100 26.78200
C  -2.40400 22.91500 29.49700
C  -2.32400 22.78500 26.19500
O  -2.25600 22.64400 25.00200
C  -2.51400 24.19500 26.62200
N  -1.67900 17.21500 25.95400
C  -1.86900 18.31400 25.09900
C  -1.92500 17.91200 23.59400
C  -1.41800 16.41200 23.67200
C  -1.64900 16.09800 25.14100
C  -3.32500 18.10400 22.99900
C  0.05700 16.15000 23.15100
C  1.28600 16.45900 24.12400
N  -1.80900 15.30000 27.89700
C  -1.70600 14.41700 26.87600
C  -1.70300 13.01700 27.37900
C  -1.67800 13.14700 28.78400
C  -1.79700 14.58400 29.00600
C  -1.79200 11.74400 26.51000
C  -1.71500 12.52700 30.04100
O  -1.89900 11.34900 30.38500
C  -1.72800 13.66800 31.10800
C  -0.41100 13.54400 31.80600
O  0.72100 13.65600 31.22500
O  -0.62300 13.16100 33.10200
C  0.58800 12.97000 33.82500
H  -2.40500 20.61000 31.10700
H  -2.27600 20.26600 24.61200
H  -1.73000 14.00700 24.81800
H  -2.49400 15.83700 32.90200
H  -2.05100 18.77900 32.93600
H  -4.04200 18.84100 33.63600
H  -4.33200 17.10600 32.97700
H  -4.59600 18.52200 31.97700
H  0.16600 17.19500 32.32300
H  -0.09100 15.68500 33.10300
H  -1.35900 17.55500 34.74600
H  0.11400 18.31900 34.29800
H  -3.37200 23.38300 29.31900
H  -1.54900 23.58500 29.40800
H  -2.58000 22.55400 30.51100
H  -3.53500 24.39300 26.94700
H  -2.13300 24.78000 25.78400
H  -1.96000 24.48900 27.51300
H  -1.23000 18.59300 23.10200
H  -2.10300 15.81800 23.06600
H  -3.83700 18.92100 23.50800
H  -3.94700 17.22100 23.15100
H  -3.21300 18.30400 21.93400
H  0.19200 16.71100 22.22600
H  0.17200 15.10700 22.85700
H  1.90400 15.57300 24.26900
H  0.83900 16.99600 24.96100
H  1.84800 17.15800 23.50400
H  -1.45700 11.97200 25.49800
H  -2.84600 11.46500 26.52400
H  -1.11800 10.95400 26.84200
H  -2.61400 13.57900 31.73700
H  0.81800 11.90400 33.85000
H  0.47900 13.29400 34.86000
H  1.48500 13.47500 33.46800
Mg 0.05100 6.89300 26.79700
C  1.22200 9.35500 29.14800
C  0.05000 4.58100 29.31200
C  -0.60800 4.65400 24.49400
C  0.44300 9.35400 24.25400
N  0.65000 6.97500 28.95000
C  0.89400 8.09000 29.68000
C  0.88800 7.73100 31.15200
C  0.84100 6.15800 31.19300
C  0.49300 5.86100 29.72200
C  2.08200 5.45200 31.67800
C  -0.42300 8.38600 31.78500
C  -0.42800 8.29800 33.34000
H  0.81300 7.91000 34.16400
N  -0.36600 4.83600 26.89700
C  -0.27100 4.12300 28.01100
C  -0.63800 2.78300 27.73200
C  -0.86800 2.71700 26.28500
C  -0.53700 4.11000 25.81900
C  -0.70500 1.73400 28.78400
C  -1.21800 1.58000 25.44500
O  -1.21300 1.63700 24.17200
C  -1.52600 0.20600 26.03300
N  -0.02900 7.02600 24.65600
C  -0.44300 5.95800 23.98400
C  -0.58900 6.30200 22.52800
C  -0.35900 7.80600 22.36100
C  0.04600 8.13500 23.82200
C  0.26100 5.36200 21.63100
C  -1.64400 8.66100 21.94600
C  -1.33400 10.00400 21.28100
N  0.79300 8.83500 26.64300
C  0.88400 9.73500 25.54100
C  1.33400 11.05000 26.02000
C  1.41900 10.93600 27.39700
C  1.11000 9.58700 27.74200
C  1.49900 12.37300 25.20600
C  1.80800 11.64000 28.62400
O  2.27400 12.76900 28.79400
C  1.69200 10.59200 29.76000
C  2.92400 10.65600 30.56100
O  3.94800 10.03600 30.32900
O  2.74300 11.35300 31.79000
C  3.80300 11.36800 32.79700
H  0.06600 3.93300 30.19000
H  -0.90800 3.99200 23.67900
H  0.47400 10.10400 23.46100
H  1.81200 8.10700 31.59300
H  0.01500 5.80600 31.81000
H  1.89000 5.07200 32.68100
H  2.95000 6.11100 31.68600
H  2.20700 4.52400 31.12000
H  -1.26100 7.78000 31.43900
H  -0.65100 9.43200 31.58100
H  -1.20400 7.59900 33.65200
H  -0.76900 9.28300 33.65700
H  -1.68200 1.85800 29.25100
H  -0.01600 2.00100 29.58600
H  -0.45000 0.84200 28.21300
H  -1.85800 -0.44800 25.22700
H  -2.28100 0.22000 26.82000
H  -0.56400 -0.17000 26.38200
H  -1.61500 6.16500 22.18600
H  0.43700 7.99000 21.63900
H  0.80300 4.61300 22.20800
H  0.90600 6.03000 21.06000
H  -0.43300 4.86900 20.95000
H  -2.17900 8.89700 22.86600
H  -2.18700 7.99800 21.27300
H  -1.50100 10.84700 21.95200
H  -1.85800 10.07700 20.32800
H  -0.26600 9.99400 21.06200
H  1.45900 12.25700 24.12300
H  2.46900 12.77700 25.49600
H  0.77000 13.14500 25.45200
H  0.82900 10.97300 30.30700
H  4.48500 12.13900 32.43800
H  4.41300 10.49100 33.01400
H  3.38300 11.71800 33.74000

