158

Mg 34.39000 2.91900 29.85500
C  32.33300 4.15800 32.39900
C  36.84500 2.70500 32.12600
C  36.56100 2.36400 27.31000
C  31.81300 3.03300 27.66100
N  34.50300 3.36200 32.05300
C  33.55900 3.79000 32.92000
C  34.04900 3.93300 34.39900
C  35.56800 3.77400 34.15000
C  35.62600 3.21700 32.70900
C  36.32900 5.14000 34.25300
C  33.48300 2.75000 35.35300
C  33.08200 3.22000 36.75500
H  33.98500 4.24300 37.44800
N  36.39200 2.48000 29.73600
C  37.22300 2.41200 30.80700
C  38.49600 2.04900 30.36600
C  38.50500 1.87400 28.93200
C  37.12000 2.25200 28.63500
C  39.73700 1.81000 31.22200
C  39.60400 1.41600 27.98600
O  39.41400 1.44200 26.77500
C  40.92800 0.95300 28.45000
N  34.26000 2.84700 27.70900
C  35.27700 2.61900 26.83600
C  34.69600 2.31500 25.44700
C  33.09800 2.25700 25.65700
C  33.03800 2.74400 27.09300
C  35.15000 3.10700 24.22200
C  32.41000 0.88300 25.48800
C  31.31200 0.75800 24.40000
N  32.52100 3.63100 29.92300
C  31.53100 3.52700 28.89900
C  30.33600 3.98900 29.45900
C  30.58600 4.27900 30.75000
C  31.93500 4.02900 31.06300
C  28.99400 4.22300 28.79900
C  29.96600 4.73000 32.06700
O  28.83100 4.99000 32.38200
C  31.08400 4.70600 33.18600
C  31.41500 6.07400 33.63200
O  32.23700 6.77100 33.09600
O  30.84800 6.30300 34.88000
C  31.59800 7.26300 35.73900
H  37.60200 2.58200 32.90300
H  37.30200 2.23800 26.51800
H  30.96200 2.96500 26.98000
H  33.83700 4.93100 34.78400
H  36.03700 3.10600 34.87200
H  36.62300 5.31600 35.28800
H  35.83100 6.02000 33.84700
H  37.21000 4.99900 33.62700
H  34.21600 1.94400 35.32400
H  32.58300 2.50000 34.78900
H  33.07200 2.31900 37.36800
H  32.10500 3.70300 36.72300
H  40.28400 0.91200 30.93200
H  39.62200 1.90200 32.30200
H  40.31600 2.73200 31.17600
H  41.57400 0.80100 27.58500
H  40.80700 0.04400 29.04000
H  41.41000 1.77700 28.97600
H  34.96200 1.27900 25.24000
H  32.71100 3.09200 25.07300
H  35.88300 2.49900 23.69100
H  35.63500 4.02500 24.55300
H  34.22700 3.20000 23.64900
H  31.98300 0.49100 26.41000
H  33.10900 0.10800 25.17400
H  30.34100 0.64100 24.88100
H  31.49500 -0.09400 23.74500
H  31.32500 1.64900 23.77200
H  28.56600 5.19800 29.02900
H  28.28200 3.47300 29.14400
H  29.05400 4.23300 27.71100
H  30.77100 4.06800 34.01200
H  31.29700 8.25700 35.40800
H  32.64400 7.14400 35.45400
H  31.34100 7.17800 36.79500
Mg 42.29600 41.45200 26.08800
C  41.65600 43.52400 28.81600
C  44.03400 39.35000 28.37200
C  43.07500 39.45600 23.58400
C  41.33800 43.90800 23.99800
N  42.91500 41.51700 28.35100
C  42.34200 42.36900 29.27200
C  42.71800 41.96400 30.77300
C  43.47200 40.60400 30.59200
C  43.49800 40.48900 28.99700
C  44.95900 40.66700 31.12300
C  41.46600 41.90700 31.76500
C  41.77600 42.42800 33.21100
H  40.82500 42.02500 34.43000
N  43.41000 39.64300 25.98100
C  44.03100 38.90900 27.02000
C  44.41800 37.57600 26.43100
C  44.02400 37.58900 25.08000
C  43.44000 38.94000 24.82100
C  45.02300 36.50500 27.29000
C  44.08300 36.47700 23.96900
O  43.79100 36.57000 22.84400
C  44.56900 35.14900 24.52200
N  42.24100 41.67400 24.06700
C  42.62500 40.72500 23.15600
C  42.19400 41.08600 21.73800
C  41.70400 42.50800 21.89200
C  41.81900 42.76900 23.37300
C  43.38500 40.97100 20.64700
C  40.35800 42.89300 21.19100
C  40.52400 44.18200 20.32700
N  41.68900 43.33700 26.30900
C  41.23500 44.21400 25.33900
C  40.68800 45.36700 25.97300
C  40.93200 45.18400 27.37900
C  41.40500 43.89300 27.50200
C  40.22500 46.60000 25.16200
C  40.73900 45.72500 28.60500
O  40.19900 46.78300 28.94400
C  41.18800 44.66800 29.67500
C  42.24700 45.24300 30.49800
O  43.44500 45.18500 30.35400
O  41.67000 45.78000 31.67300
C  42.65100 46.43000 32.62100
H  44.37200 38.72200 29.19900
H  43.23400 38.82400 22.70700
H  40.98900 44.67500 23.30300
H  43.45600 42.67200 31.14900
H  42.94200 39.74900 31.01200
H  44.83200 40.87300 32.18600
H  45.52500 41.43100 30.58900
H  45.31300 39.64300 31.01100
H  41.19500 40.86300 31.91700
H  40.61700 42.43400 31.32900
H  41.78900 43.48800 32.95600
H  42.81700 42.16300 33.39300
H  45.01700 36.86000 28.32100
H  46.06800 36.37300 27.01000
H  44.50900 35.54700 27.22200
H  44.59900 34.40900 23.72200
H  43.78000 34.94600 25.24600
H  45.57900 35.34600 24.88300
H  41.45900 40.29300 21.60700
H  42.51600 43.13600 21.52500
H  44.32600 40.50600 20.94300
H  43.61300 41.93900 20.19900
H  42.90900 40.34500 19.89200
H  39.55400 42.97200 21.92300
H  40.04500 42.08900 20.52500
H  39.76600 44.94400 20.50400
H  40.79700 43.97500 19.29200
H  41.41500 44.74700 20.60200
H  40.81700 46.70600 24.25300
H  40.28300 47.46100 25.82800
H  39.16900 46.48600 24.91500
H  40.33800 44.47300 30.32800
H  43.10600 47.21600 32.01800
H  43.45400 45.80800 33.01600
H  42.23800 46.92300 33.50100

