158

Mg -2.20900 18.09300 26.90200
C  -2.47200 16.02100 29.68200
C  -2.90300 20.90300 28.91800
C  -1.84200 19.97600 24.28000
C  -1.68700 15.15100 24.91600
N  -2.55400 18.39400 29.06900
C  -2.61100 17.35000 29.99700
C  -2.88200 17.91800 31.44400
C  -3.08900 19.49100 31.13400
C  -2.83500 19.62900 29.58400
C  -4.56000 20.03600 31.58900
C  -1.79200 17.82100 32.52100
C  -2.07400 17.08000 33.83000
H  -1.10200 17.29700 34.97300
N  -2.36800 20.15700 26.57400
C  -2.64200 21.16300 27.52600
C  -2.59900 22.42600 26.90500
C  -2.30100 22.16100 25.56000
C  -2.19400 20.73300 25.42700
C  -2.71600 23.80000 27.53900
C  -2.13700 23.11700 24.38600
O  -2.14700 22.81100 23.22300
C  -2.10200 24.64100 24.68800
N  -1.63800 17.57500 24.93900
C  -1.64600 18.62800 24.06700
C  -1.40300 17.97500 22.61700
C  -0.86500 16.53600 22.90400
C  -1.42500 16.39800 24.32800
C  -2.68200 18.05100 21.66800
C  0.65400 16.29000 22.71900
C  1.73800 16.79300 23.73900
N  -2.28900 15.97900 27.18100
C  -2.04700 14.92600 26.25600
C  -2.23800 13.63700 26.94200
C  -2.45700 14.01500 28.27900
C  -2.41000 15.47000 28.36700
C  -2.27200 12.24100 26.32800
C  -2.79900 13.52400 29.58000
O  -2.98000 12.38300 29.98100
C  -2.77300 14.77800 30.57200
C  -1.68100 14.46400 31.59300
O  -0.50300 14.74300 31.55700
O  -2.24000 13.73900 32.60600
C  -1.40700 13.19200 33.75200
H  -2.96600 21.79400 29.54600
H  -1.85200 20.47800 23.31000
H  -1.53600 14.23800 24.33600
H  -3.81200 17.40600 31.69100
H  -2.32200 20.15500 31.53300
H  -4.50300 20.75900 32.40300
H  -5.05800 19.12500 31.92000
H  -5.11200 20.48100 30.76100
H  -1.42700 18.80000 32.83100
H  -1.02100 17.19700 32.06900
H  -2.15900 15.99700 33.74000
H  -3.08800 17.39900 34.07400
H  -3.49100 24.38500 27.04500
H  -1.75900 24.32000 27.48300
H  -2.84100 23.68600 28.61600
H  -3.08100 24.96900 25.03800
H  -1.90200 25.10000 23.72100
H  -1.23000 24.89100 25.29300
H  -0.53800 18.50500 22.21900
H  -1.24200 15.81000 22.18400
H  -3.60300 18.12000 22.24600
H  -2.63300 17.17500 21.02100
H  -2.53900 18.91800 21.02300
H  1.04800 16.90600 21.91000
H  1.00100 15.31200 22.38500
H  2.14700 15.85800 24.12100
H  1.30200 17.31600 24.59000
H  2.55000 17.32700 23.24500
H  -1.84000 11.53400 27.03700
H  -1.63000 12.11000 25.45600
H  -3.27600 11.85300 26.15700
H  -3.73600 14.73700 31.08100
H  -0.41800 12.88100 33.41600
H  -1.82800 12.26200 34.13400
H  -1.26300 13.95100 34.52000
Mg 49.15100 34.46800 27.09700
C  47.14700 33.44800 29.60900
C  49.99200 37.34200 28.99800
C  51.03000 35.59600 24.50400
C  48.06800 31.87400 25.00100
N  48.64400 35.29400 29.05000
C  47.90300 34.59100 30.01100
C  48.06500 35.22500 31.37200
C  48.51000 36.61600 30.97400
C  49.13700 36.46300 29.59400
C  47.25600 37.66800 30.98400
C  49.06000 34.42100 32.20800
C  48.61500 33.90300 33.57700
H  47.40200 34.65700 34.15700
N  50.44000 36.18200 26.82800
C  50.60900 37.22100 27.70500
C  51.54600 38.18500 27.14400
C  51.80600 37.76100 25.81100
C  51.04600 36.44700 25.65500
C  51.89900 39.46200 27.92900
C  52.63300 38.48700 24.77500
O  52.97500 37.96100 23.71300
C  53.37400 39.84700 25.03200
N  49.39400 33.94200 25.04100
C  50.35000 34.39900 24.29000
C  50.56300 33.70800 22.97700
C  49.83000 32.34600 23.26800
C  49.04200 32.73500 24.46900
C  50.05800 34.44700 21.71100
C  50.67000 31.08000 23.39300
C  50.51500 30.06000 22.26200
N  47.74300 32.96700 27.15000
C  47.50500 31.90100 26.30000
C  46.62400 30.99700 27.00400
C  46.32400 31.63100 28.20000
C  47.08200 32.81600 28.34000
C  46.12500 29.60900 26.55000
C  45.62600 31.53000 29.43700
O  44.93500 30.63100 29.77200
C  46.13600 32.63100 30.41200
C  46.82500 31.79000 31.49400
O  47.95300 31.36100 31.55900
O  45.90300 31.61400 32.49200
C  46.29200 30.84100 33.76500
H  50.20100 38.23400 29.59100
H  51.65900 35.88500 23.65900
H  47.79100 31.02000 24.38000
H  47.04600 35.18900 31.75800
H  49.18000 37.15000 31.64700
H  47.58300 38.57500 31.49100
H  46.45500 37.27700 31.61200
H  46.82300 37.97600 30.03300
H  49.94200 35.04400 32.35300
H  49.29700 33.55500 31.59100
H  49.45600 33.89900 34.27000
H  48.45800 32.82700 33.50000
H  51.47600 39.52300 28.93200
H  51.75700 40.38700 27.36900
H  52.97800 39.39800 28.06200
H  53.98500 40.13900 24.17800
H  53.98600 39.66500 25.91600
H  52.56900 40.53800 25.28100
H  51.64900 33.77000 22.92200
H  49.13300 32.27700 22.43300
H  49.34500 33.91400 21.08200
H  50.87400 34.65800 21.02100
H  49.65800 35.39000 22.08600
H  50.39700 30.61200 24.33900
H  51.73500 31.27400 23.26800
H  49.82200 30.31200 21.45900
H  50.11300 29.14200 22.68900
H  51.46800 29.81600 21.79300
H  46.95000 28.90000 26.49400
H  45.77200 29.80900 25.53900
H  45.36900 29.14100 27.18000
H  45.19000 33.10700 30.66800
H  45.68700 29.93600 33.83700
H  46.09100 31.38000 34.69100
H  47.33300 30.54800 33.89700

