158

Mg 47.43800 34.02200 26.57300
C  45.91600 32.81200 29.40000
C  47.88200 37.01200 28.28900
C  48.55000 35.49500 23.59000
C  46.62200 31.19000 24.69200
N  47.02100 34.80000 28.59500
C  46.44400 34.07900 29.60200
C  46.70100 34.73000 30.93100
C  46.97600 36.22600 30.52300
C  47.35500 35.99700 29.05800
C  45.73100 37.22600 30.66100
C  47.86800 34.07100 31.65500
C  47.85000 34.32200 33.16400
H  46.67500 35.09900 33.68800
N  48.17400 35.99700 26.05600
C  48.33700 36.99400 26.93900
C  49.11500 38.07600 26.31300
C  49.22200 37.69200 24.92100
C  48.67400 36.33400 24.79200
C  49.42700 39.41200 26.96800
C  49.95300 38.45000 23.78000
O  50.15300 37.98700 22.68000
C  50.32600 39.95100 24.06400
N  47.24500 33.50100 24.38300
C  48.03500 34.16500 23.45800
C  48.24300 33.41400 22.10400
C  47.66900 32.03600 22.53500
C  47.16700 32.23900 23.95000
C  47.59100 34.12900 20.89600
C  48.66100 30.80400 22.44200
C  49.76700 30.62900 23.50700
N  46.42900 32.37600 26.89200
C  46.23800 31.26200 26.10000
C  45.62400 30.20100 26.92100
C  45.43900 30.83200 28.19500
C  45.94700 32.12100 28.16500
C  45.27700 28.86900 26.48000
C  44.84800 30.63800 29.42700
O  44.06300 29.73400 29.73100
C  45.01400 31.86500 30.31300
C  45.41600 31.39700 31.61300
O  46.52100 31.13700 31.99000
O  44.29400 31.32500 32.40500
C  44.37600 31.41200 33.90200
H  48.32700 37.75800 28.95100
H  49.10700 35.80700 22.70400
H  46.54500 30.28200 24.09100
H  45.74900 34.66700 31.45900
H  47.88100 36.51500 31.05800
H  44.86500 36.77600 31.14700
H  45.50300 37.61500 29.66900
H  45.96300 38.09000 31.28300
H  48.82700 34.34100 31.21400
H  47.86200 32.98300 31.57900
H  48.69100 34.93200 33.49500
H  47.93500 33.30900 33.55700
H  50.50800 39.47700 27.08700
H  48.98500 39.53800 27.95700
H  49.16100 40.28700 26.37400
H  50.72900 40.28800 23.10900
H  51.14100 39.87600 24.78400
H  49.48300 40.55000 24.40700
H  49.31300 33.48700 21.91100
H  46.85500 31.86800 21.82900
H  46.87400 33.44000 20.45000
H  48.40900 34.32600 20.20300
H  47.11400 35.06900 21.17400
H  49.13500 30.98000 21.47600
H  48.09500 29.87600 22.36700
H  50.70200 30.94900 23.04500
H  49.86100 29.62100 23.91200
H  49.55100 31.35200 24.29400
H  46.19200 28.55300 25.97800
H  44.52600 28.90800 25.69100
H  44.88300 28.21800 27.26000
H  44.00000 32.25400 30.41300
H  44.80900 30.49600 34.30400
H  43.38700 31.61400 34.31400
H  45.00500 32.26200 34.16800
Mg -5.28400 25.41700 25.83300
C  -3.80800 26.93300 28.62000
C  -6.88600 23.22700 28.12500
C  -6.60600 23.74800 23.25900
C  -3.49700 27.44100 23.78100
N  -5.50100 25.22400 28.08400
C  -4.70900 25.92700 28.97900
C  -5.01000 25.45100 30.42000
C  -5.84000 24.16300 30.23800
C  -6.16100 24.25400 28.73000
C  -5.10600 22.88400 30.60100
C  -5.71100 26.59800 31.22300
C  -6.50100 26.36000 32.53100
H  -6.19200 25.09600 33.34100
N  -6.59700 23.70700 25.70600
C  -7.14300 22.93400 26.76600
C  -7.99900 21.95000 26.19500
C  -8.01400 22.12500 24.76900
C  -7.11100 23.23900 24.49500
C  -8.61300 20.88600 27.06600
C  -8.82700 21.34000 23.75600
O  -8.84800 21.68600 22.59000
C  -9.52100 20.02700 24.17200
N  -5.04100 25.61900 23.75900
C  -5.68600 24.80100 22.88900
C  -5.41900 25.21800 21.47300
C  -4.42300 26.36600 21.63600
C  -4.31100 26.52500 23.14100
C  -4.77900 24.03500 20.66000
C  -4.92200 27.63500 20.96500
C  -4.32900 27.83900 19.58900
N  -3.86700 26.85400 26.06200
C  -3.24500 27.60700 25.14100
C  -2.36400 28.64500 25.76800
C  -2.50200 28.37300 27.09500
C  -3.43300 27.33100 27.25600
C  -1.59400 29.70000 24.98900
C  -2.09500 28.74700 28.42100
O  -1.33000 29.64000 28.74700
C  -2.77000 27.79500 29.43700
C  -1.82000 27.01800 30.33000
O  -1.12200 26.08400 29.91100
O  -1.94400 27.48000 31.59100
C  -1.23800 26.72000 32.60200
H  -7.37600 22.61600 28.88600
H  -7.12700 23.23700 22.44600
H  -2.84100 28.05900 23.16400
H  -4.05200 25.19600 30.87200
H  -6.77800 24.34900 30.76100
H  -5.86600 22.21200 30.99900
H  -4.28000 22.95200 31.30900
H  -4.62700 22.46100 29.71700
H  -6.37300 27.15400 30.55900
H  -4.91600 27.29500 31.48900
H  -7.56900 26.38400 32.31700
H  -6.46100 27.18500 33.24200
H  -8.53300 19.88900 26.63200
H  -9.67800 21.09500 27.17100
H  -8.18200 20.75400 28.05800
H  -8.89900 19.35700 24.76500
H  -9.76000 19.50900 23.24400
H  -10.47000 20.24500 24.66200
H  -6.35700 25.54500 21.02400
H  -3.44700 26.12900 21.21200
H  -5.53900 23.46000 20.13100
H  -4.11900 23.45700 21.30700
H  -4.11000 24.42200 19.89100
H  -4.77600 28.38000 21.74700
H  -5.98500 27.46700 20.78900
H  -3.63900 27.04600 19.30400
H  -3.64300 28.68500 19.56000
H  -5.03400 28.03200 18.77900
H  -2.05300 29.92100 24.02500
H  -0.53000 29.46300 25.00600
H  -1.66700 30.58800 25.61700
H  -3.30800 28.45900 30.11300
H  -0.18700 26.74500 32.31400
H  -1.53200 25.67100 32.63100
H  -1.15800 27.30000 33.52100

