158

Mg 10.11900 48.30300 25.77100
C  7.80200 48.32300 28.52900
C  12.38500 49.75900 27.91200
C  12.21500 48.27300 23.19200
C  7.49200 47.37900 23.76900
N  9.96800 49.15300 27.98000
C  9.07400 48.83200 28.95700
C  9.56100 49.16900 30.35100
C  10.97900 49.85600 30.04900
C  11.12300 49.61000 28.54100
C  11.07100 51.35700 30.49000
C  9.55100 48.03900 31.41400
C  10.62300 48.07900 32.51000
H  10.41800 47.23000 33.75600
N  12.05500 48.83100 25.63900
C  12.83900 49.41100 26.62300
C  14.12900 49.50300 26.05700
C  14.16800 48.94300 24.75700
C  12.75600 48.61200 24.44900
C  15.27600 50.01700 26.83500
C  15.36000 48.67800 23.77900
O  15.27500 48.37300 22.61700
C  16.72800 48.90800 24.36600
N  9.88500 47.88100 23.65400
C  10.93100 47.91200 22.74400
C  10.49100 47.48000 21.32900
C  8.99900 47.14800 21.54300
C  8.76000 47.46200 23.11700
C  10.86000 48.67600 20.34100
C  8.49700 45.74300 21.08500
C  8.75400 44.55400 22.11400
N  7.97700 48.03400 26.00900
C  7.08000 47.60000 25.07800
C  5.83000 47.39000 25.70300
C  6.08200 47.54700 27.08300
C  7.37900 48.03500 27.19000
C  4.51000 46.98300 25.06500
C  5.52100 47.44000 28.37700
O  4.45600 46.99600 28.74800
C  6.60200 47.92000 29.38300
C  6.70300 46.78500 30.32100
O  7.16500 45.68900 30.04200
O  6.14100 47.10000 31.55300
C  6.63700 46.14200 32.53600
H  13.09900 50.15400 28.63800
H  12.95500 48.30000 22.39000
H  6.70300 47.03300 23.09800
H  8.88700 49.97300 30.64600
H  11.86600 49.40700 30.49500
H  11.76700 51.21900 31.31800
H  10.16500 51.81700 30.88300
H  11.44100 52.02600 29.71300
H  9.55200 47.10800 30.84800
H  8.61400 48.22800 31.93800
H  10.66800 49.12100 32.82700
H  11.52900 47.77600 31.98500
H  15.14500 50.51400 27.79600
H  15.73400 50.80100 26.23200
H  16.01900 49.23100 26.96800
H  16.93200 48.23800 25.20100
H  16.96000 49.96100 24.52900
H  17.45100 48.62100 23.60200
H  11.13800 46.61400 21.18800
H  8.40400 47.85000 20.95900
H  10.96100 49.64300 20.83300
H  10.11700 48.70700 19.54400
H  11.77800 48.57700 19.76200
H  9.06900 45.60800 20.16700
H  7.44500 45.88400 20.83700
H  9.33100 44.82100 22.99900
H  9.07900 43.65000 21.60000
H  7.76600 44.28000 22.48500
H  4.38600 45.90000 25.06900
H  4.44500 47.21800 24.00300
H  3.78100 47.49600 25.69300
H  6.17100 48.71100 29.99800
H  6.33800 45.11500 32.33000
H  6.13400 46.37800 33.47400
H  7.72400 46.21500 32.57300
Mg -10.07700 40.00000 39.48800
C  -8.83100 36.92000 38.38400
C  -7.09500 41.39400 38.82400
C  -11.63800 42.91700 39.52700
C  -13.26800 38.29700 40.02900
N  -8.15000 39.24000 38.67900
C  -7.92600 37.99900 38.22500
C  -6.52200 38.02700 37.62800
C  -5.78500 39.23100 38.34700
C  -7.07800 40.00700 38.67300
C  -4.94500 38.94000 39.56600
C  -6.59800 38.11700 36.07900
C  -5.97900 36.97600 35.22300
H  -6.93200 36.33000 34.21700
N  -9.39700 41.96600 39.27500
C  -8.15600 42.30800 38.99100
C  -8.09400 43.78200 38.88900
C  -9.40400 44.27700 39.15500
C  -10.22600 43.04200 39.39700
C  -6.75800 44.54400 38.84700
C  -9.75400 45.72800 39.28000
O  -8.95500 46.60100 39.03500
C  -11.12400 46.18000 39.67300
N  -12.16900 40.54100 39.93500
C  -12.46200 41.84800 39.75400
C  -13.99600 41.97700 39.80200
C  -14.52400 40.56700 40.19400
C  -13.26900 39.74100 40.07700
C  -14.44100 43.15200 40.65300
C  -15.66700 40.07100 39.26900
C  -17.03100 40.74500 39.34400
N  -10.89800 37.93500 39.43100
C  -12.15800 37.41100 39.64700
C  -12.12000 36.04600 39.45700
C  -10.81200 35.73200 38.98700
C  -10.12700 36.95300 39.02400
C  -13.31300 35.09900 39.69300
C  -9.92900 34.73800 38.39600
O  -10.05200 33.53000 38.13100
C  -8.60800 35.48000 37.97700
C  -7.47100 34.88700 38.60900
O  -7.29900 34.76400 39.83300
O  -6.55100 34.47300 37.66700
C  -5.41700 33.75400 38.25000
H  -6.12700 41.87700 38.67600
H  -12.22400 43.83800 39.50500
H  -14.22400 37.82400 40.26200
H  -6.06500 37.07100 37.88400
H  -5.09400 39.70400 37.64900
H  -4.94000 37.85300 39.63900
H  -5.31600 39.43800 40.46200
H  -3.91300 39.26800 39.44500
H  -6.15900 39.04400 35.71100
H  -7.65200 38.05300 35.81000
H  -5.51400 36.24400 35.88200
H  -5.09900 37.28800 34.66000
H  -6.81500 45.20400 37.98100
H  -5.95800 43.82700 38.66300
H  -6.56800 45.14800 39.73400
H  -11.15700 47.21700 40.00600
H  -11.40700 45.56900 40.53000
H  -11.77000 45.90900 38.83800
H  -14.31800 42.23600 38.79400
H  -14.88300 40.60700 41.22200
H  -15.12100 42.80700 41.43200
H  -14.94500 43.82600 39.96100
H  -13.67600 43.72800 41.17500
H  -15.83100 39.01100 39.46000
H  -15.30800 40.27400 38.26000
H  -17.15300 41.47600 38.54500
H  -17.04900 41.31400 40.27300
H  -17.80000 39.99000 39.17600
H  -14.19400 35.59700 39.28900
H  -13.40100 35.01700 40.77600
H  -13.20100 34.13600 39.19300
H  -8.42300 35.42500 36.90500
H  -4.76700 34.46800 38.75600
H  -4.87100 33.20400 37.48300
H  -5.63800 33.11700 39.10700

