158

Mg 45.05200 4.48900 48.04200
C  43.02000 7.11700 47.05200
C  42.44900 2.16100 47.09200
C  47.18200 1.90500 48.15200
C  47.72200 6.75000 47.73000
N  42.91800 4.62700 47.30600
C  42.31200 5.82200 46.98700
C  40.93400 5.57200 46.35600
C  40.72900 4.00800 46.64600
C  42.17300 3.58000 47.03200
C  39.50600 3.64900 47.60800
C  40.87500 5.94400 44.77900
C  39.63900 6.79300 44.35500
H  39.94900 7.66800 43.12100
N  44.80600 2.33200 47.93600
C  43.64900 1.60500 47.56300
C  43.97300 0.17100 47.74200
C  45.32000 0.10300 48.14900
C  45.84700 1.47700 48.10600
C  42.94900 -0.93000 47.55700
C  46.09500 -1.16400 48.52600
O  45.56600 -2.25900 48.36200
C  47.48300 -1.07600 49.10900
N  47.12300 4.29200 47.87900
C  47.78900 3.16100 48.11900
C  49.31600 3.33100 48.22600
C  49.46300 4.89900 48.03500
C  48.03200 5.36500 47.86700
C  50.08600 2.73100 49.34900
C  50.33900 5.30100 46.82500
C  51.68800 5.94400 46.99700
N  45.36500 6.56100 47.71500
C  46.47700 7.33600 47.67800
C  46.07300 8.74700 47.73300
C  44.71100 8.75200 47.51200
C  44.32400 7.37700 47.43100
C  46.97200 9.90100 47.76800
C  43.53100 9.55800 47.33700
O  43.41300 10.76100 47.26900
C  42.42100 8.53900 46.97700
C  41.32500 8.72000 47.92500
O  41.37300 8.54400 49.13200
O  40.22600 9.17200 47.21100
C  38.95500 9.44200 47.95300
H  41.59600 1.50500 46.90900
H  47.99900 1.18200 48.09200
H  48.58400 7.42100 47.74900
H  40.24100 6.24600 46.86000
H  40.28100 3.62600 45.72900
H  39.96500 3.13900 48.45500
H  38.78800 2.96600 47.15300
H  38.90900 4.52200 47.87100
H  40.79000 5.02900 44.19200
H  41.76300 6.51800 44.51500
H  39.32100 7.46100 45.15500
H  38.68900 6.26400 44.28800
H  43.25200 -1.68800 46.83500
H  41.98100 -0.60900 47.17300
H  42.74700 -1.36100 48.53800
H  47.86600 -1.96300 49.61300
H  47.57300 -0.25000 49.81300
H  48.08200 -0.97800 48.20300
H  49.74200 2.83100 47.35600
H  49.87000 5.36600 48.93200
H  49.48400 2.37700 50.18600
H  50.67900 3.53500 49.78500
H  50.71200 1.90300 49.01900
H  49.66500 5.83500 46.15500
H  50.67600 4.40300 46.30700
H  52.57900 5.32700 46.88100
H  51.66700 6.29400 48.02900
H  51.77900 6.83000 46.36900
H  47.75200 9.80100 48.52300
H  46.35200 10.77100 47.98100
H  47.45500 10.00500 46.79600
H  42.20200 8.75200 45.93100
H  39.07500 9.87800 48.94500
H  38.40900 8.50600 48.06700
H  38.44900 10.21400 47.37400
Mg 35.59200 2.20900 29.75100
C  33.64200 3.45800 32.35400
C  38.39900 2.31900 31.78300
C  37.36400 1.18400 27.13500
C  32.91500 2.81700 27.55000
N  35.98800 3.05200 31.74000
C  34.99300 3.22300 32.72200
C  35.65600 3.37100 34.13600
C  37.17900 3.14100 33.87700
C  37.22000 2.89200 32.37100
C  38.18100 4.17800 34.33300
C  34.92400 2.33900 35.06900
C  34.69800 2.73300 36.56200
H  35.49800 4.02000 37.04600
N  37.59900 1.71400 29.50100
C  38.60900 1.81300 30.46600
C  39.89400 1.17500 30.02900
C  39.56300 0.99500 28.61000
C  38.14100 1.34500 28.35900
C  41.07200 0.91500 30.98800
C  40.50000 0.42200 27.60400
O  40.15200 0.24300 26.43000
C  41.89900 -0.00600 27.93000
N  35.25300 2.12600 27.62000
C  36.10000 1.63100 26.78100
C  35.56100 1.54900 25.30900
C  34.07400 1.91900 25.58900
C  34.05200 2.31600 27.00000
C  36.24400 2.53400 24.39300
C  33.19000 0.62500 25.38200
C  32.29200 0.66300 24.22600
N  33.69900 2.94100 29.86700
C  32.72000 3.12300 28.91100
C  31.52700 3.58300 29.56400
C  31.81500 3.69000 30.88200
C  33.16500 3.33800 31.01600
C  30.16900 3.94300 28.99800
C  31.26000 4.04900 32.13900
O  30.09600 4.40000 32.39000
C  32.48000 3.87900 33.15200
C  32.66100 5.16400 33.85800
O  32.94900 6.22100 33.32400
O  32.41800 4.97800 35.21400
C  32.42000 6.14200 36.07200
H  39.27800 2.26200 32.42900
H  37.98100 0.80200 26.31900
H  31.97500 2.90500 27.00200
H  35.52900 4.39900 34.47500
H  37.42100 2.19300 34.35800
H  37.62000 4.98600 34.80300
H  38.66200 4.54700 33.42700
H  38.88600 3.78700 35.06600
H  35.46900 1.39500 35.05200
H  34.00000 1.94900 34.64400
H  35.15500 1.89900 37.09500
H  33.65000 2.82400 36.85000
H  41.70800 0.11900 30.59900
H  40.51600 0.63500 31.88200
H  41.61000 1.85500 31.11400
H  42.50800 0.87300 28.13900
H  42.32900 -0.42200 27.01900
H  41.76300 -0.77600 28.68900
H  35.70600 0.51400 24.99900
H  33.62400 2.73500 25.02300
H  36.65400 3.38200 24.94200
H  35.72900 2.84000 23.48200
H  37.17800 2.02500 24.15600
H  32.65300 0.40000 26.30300
H  33.80300 -0.27100 25.28000
H  32.47100 -0.19500 23.57800
H  32.06300 1.63700 23.79200
H  31.39400 0.26900 24.70000
H  29.60400 3.07700 28.65100
H  30.22400 4.64100 28.16300
H  29.52400 4.37900 29.76100
H  32.18500 3.11900 33.87600
H  32.62700 5.85300 37.10200
H  31.36200 6.40700 36.08900
H  33.16600 6.86500 35.74400

