158

Mg -2.28800 17.39500 24.90800
C  -2.60800 15.07800 27.64900
C  -3.22400 19.82900 27.08600
C  -1.87700 19.38800 22.49400
C  -2.14900 14.53600 22.77700
N  -2.69100 17.44700 27.19300
C  -2.76200 16.43600 28.04800
C  -3.32200 16.93200 29.39700
C  -4.04200 18.35200 29.01200
C  -3.31400 18.57300 27.63300
C  -5.57200 18.32500 28.77800
C  -2.31900 16.99400 30.55600
C  -2.62100 16.17600 31.92100
H  -1.44900 15.88800 32.82800
N  -2.32700 19.31500 24.85300
C  -2.77100 20.21800 25.77000
C  -2.56800 21.59700 25.32000
C  -2.15200 21.45300 24.00500
C  -2.06700 20.04900 23.73000
C  -2.85500 22.78500 26.19900
C  -1.90400 22.53000 22.90800
O  -1.74800 22.17800 21.72200
C  -1.88400 23.95000 23.44400
N  -2.13500 16.97600 22.83500
C  -1.89300 18.08500 22.04400
C  -1.85700 17.68400 20.58100
C  -1.99600 16.11600 20.66400
C  -2.06400 15.84600 22.17100
C  -2.82200 18.30200 19.61500
C  -0.71300 15.42800 20.03500
C  0.49400 15.26800 20.95100
N  -2.29600 15.26600 25.12100
C  -2.21400 14.27400 24.14600
C  -2.25800 12.91600 24.83400
C  -2.35800 13.19600 26.18500
C  -2.33000 14.61300 26.32600
C  -2.25000 11.70800 24.16300
C  -2.49700 12.56600 27.44800
O  -2.53800 11.38300 27.66000
C  -2.67100 13.75300 28.47500
C  -1.65500 13.69200 29.49300
O  -0.50100 14.17600 29.48400
O  -2.22700 12.92400 30.47900
C  -1.35900 12.45700 31.56800
H  -3.67600 20.58200 27.73600
H  -1.82500 20.05300 21.62900
H  -1.98800 13.72500 22.06400
H  -4.07700 16.22800 29.74700
H  -3.87700 19.18100 29.70000
H  -6.08600 19.12000 29.31900
H  -5.97400 17.46000 29.30600
H  -5.84000 18.11700 27.74200
H  -1.99800 17.96100 30.94200
H  -1.43400 16.51900 30.13300
H  -3.11200 15.25900 31.59500
H  -3.34700 16.81700 32.42200
H  -2.12300 23.58500 26.08100
H  -2.93400 22.55000 27.26000
H  -3.82400 23.23700 25.99000
H  -1.52000 24.66200 22.70200
H  -1.14200 24.06200 24.23400
H  -2.86400 24.21300 23.84200
H  -0.87300 17.99300 20.22700
H  -2.97100 15.75400 20.33900
H  -3.38700 19.10600 20.08700
H  -3.52200 17.55200 19.24600
H  -2.34900 18.67700 18.70700
H  -0.45700 16.05300 19.17900
H  -1.13000 14.47000 19.72400
H  0.34500 15.80500 21.88800
H  1.32300 15.70000 20.39100
H  0.57200 14.20200 21.16200
H  -2.33400 11.94800 23.10300
H  -3.13400 11.17200 24.50900
H  -1.32400 11.18600 24.40100
H  -3.61800 13.62400 28.99900
H  -1.36900 11.36900 31.50200
H  -1.79400 12.87000 32.47800
H  -0.30900 12.73100 31.46300
Mg 47.00800 35.00500 28.30800
C  45.49700 32.87000 30.73400
C  47.54000 37.27100 30.86000
C  48.14800 36.97900 26.04200
C  46.25000 32.41300 25.86000
N  46.66000 35.03500 30.56200
C  46.08600 34.05100 31.32400
C  46.12900 34.33500 32.78700
C  46.38000 35.88200 32.78200
C  46.88000 36.10200 31.33100
C  45.22100 36.79400 33.22700
C  47.24100 33.31300 33.38400
C  47.68300 33.57700 34.86600
H  46.90500 34.63200 35.75100
N  47.94900 36.86600 28.45200
C  48.04000 37.63500 29.56700
C  48.84100 38.78000 29.26600
C  49.00500 38.79800 27.79100
C  48.34500 37.52700 27.32000
C  49.24600 39.88700 30.28500
C  49.73100 39.72800 26.87800
O  49.81100 39.59100 25.66800
C  50.18500 41.10500 27.31400
N  47.12900 34.74100 26.26700
C  47.52400 35.80800 25.55600
C  47.16700 35.61000 24.10000
C  46.81700 34.11500 23.99000
C  46.73300 33.68400 25.42300
C  46.11100 36.69200 23.58000
C  47.90900 33.17400 23.30200
C  47.43700 32.01800 22.47700
N  46.06700 33.08500 28.26400
C  45.89300 32.15200 27.23200
C  45.26000 30.97800 27.69400
C  45.05100 31.23700 29.04000
C  45.55500 32.54200 29.34100
C  44.67800 29.90000 27.00500
C  44.55900 30.59100 30.25200
O  44.14400 29.47300 30.51100
C  44.48300 31.77100 31.28000
C  44.55800 31.24800 32.65200
O  45.16000 30.23700 32.91700
O  43.78500 31.99300 33.51100
C  43.82700 31.50500 34.90300
H  47.60900 38.05900 31.61300
H  48.49600 37.61100 25.22200
H  46.01100 31.74200 25.03300
H  45.21300 34.07900 33.32000
H  47.21400 36.05800 33.46100
H  44.41900 36.35100 33.81800
H  44.75100 37.33400 32.40600
H  45.76900 37.43600 33.91700
H  48.12200 33.28600 32.74200
H  46.84900 32.30000 33.47300
H  48.73400 33.86200 34.90900
H  47.54900 32.72700 35.53600
H  48.78400 40.81300 29.94300
H  50.32300 40.02400 30.38300
H  48.81800 39.74300 31.27600
H  51.00100 41.03400 28.03300
H  49.29300 41.61100 27.68200
H  50.69900 41.61200 26.49800
H  47.96100 35.93100 23.42600
H  45.85600 34.07400 23.47700
H  45.23100 36.09400 23.34600
H  46.47600 37.18900 22.68100
H  45.79000 37.29200 24.43200
H  48.44600 32.61800 24.07000
H  48.59400 33.90300 22.86900
H  46.38300 32.08500 22.20900
H  47.73100 31.06000 22.90700
H  48.01900 31.96500 21.55700
H  45.16900 29.73300 26.04700
H  43.60900 29.96700 26.79900
H  44.82100 28.97800 27.56900
H  43.47300 32.17200 31.19300
H  44.36500 32.30800 35.40800
H  44.23900 30.50300 35.01700
H  42.88900 31.70200 35.42200

