158

Mg 0.97600 8.47500 26.94500
C  1.54400 10.96700 29.43400
C  1.35500 6.10100 29.25400
C  0.68500 6.25500 24.49200
C  1.28400 11.06100 24.57900
N  1.32600 8.55600 29.13100
C  1.34800 9.67900 29.94900
C  1.19500 9.30000 31.42200
C  1.46800 7.73500 31.34000
C  1.36500 7.44600 29.83000
C  2.76200 7.15900 31.95600
C  -0.20600 9.66400 31.89600
C  -0.59000 9.25600 33.34100
H  0.53600 8.82900 34.36100
N  0.87900 6.52500 26.92500
C  0.94600 5.69100 27.96700
C  0.69000 4.30000 27.56600
C  0.69500 4.30600 26.18100
C  0.77700 5.77600 25.77200
C  0.57700 3.24900 28.61100
C  0.63500 3.07900 25.28100
O  0.59700 3.20900 24.03000
C  0.62500 1.66200 25.95000
N  1.09400 8.63800 24.85400
C  0.80800 7.58900 24.04000
C  0.79600 7.98500 22.56900
C  0.61700 9.50300 22.61100
C  1.13400 9.74700 24.08700
C  2.03800 7.39900 21.84400
C  -0.75700 10.05900 22.32200
C  -0.86200 11.32300 21.41900
N  1.36100 10.59200 26.94400
C  1.48100 11.47700 25.89200
C  1.78300 12.79400 26.37700
C  1.75600 12.68900 27.75000
C  1.51900 11.32000 28.03300
C  1.96300 14.01300 25.60800
C  1.84400 13.43000 29.07300
O  1.99000 14.61800 29.24700
C  1.61800 12.26600 30.25200
C  2.79400 12.22200 31.15400
O  3.89100 11.70100 30.98500
O  2.43200 12.79600 32.38000
C  3.35100 12.69100 33.50300
H  1.46600 5.40400 30.08700
H  0.58600 5.52300 23.68900
H  1.26300 11.84500 23.81900
H  2.04400 9.72600 31.95700
H  0.58700 7.24900 31.76100
H  3.15000 6.35400 31.33200
H  2.50600 6.72700 32.92400
H  3.50500 7.92100 32.18900
H  -0.88000 9.08700 31.26300
H  -0.41700 10.72500 31.76200
H  -1.23600 8.37800 33.34000
H  -1.07600 10.13900 33.75500
H  1.23000 2.39100 28.45600
H  -0.42700 2.87900 28.81800
H  1.05800 3.50500 29.55500
H  1.55000 1.49000 26.50000
H  0.46400 0.98400 25.11200
H  -0.29300 1.61400 26.53500
H  -0.02600 7.50300 22.04000
H  1.32200 10.12300 22.05700
H  2.55100 6.68600 22.49000
H  2.78600 8.14400 21.57200
H  1.73400 6.93900 20.90400
H  -1.17400 10.42600 23.26000
H  -1.43700 9.30500 21.92500
H  0.12800 11.50200 20.99800
H  -1.18700 12.20800 21.96500
H  -1.58700 11.22300 20.61200
H  2.81300 13.80000 24.96000
H  2.30500 14.82100 26.25600
H  1.05800 14.28700 25.06500
H  0.77300 12.56200 30.87300
H  4.09000 11.90300 33.36000
H  2.76400 12.35200 34.35700
H  3.85200 13.64000 33.69100
Mg 8.55800 4.35600 27.52900
C  9.79300 2.52700 30.37800
C  6.64900 6.22700 29.43700
C  7.38700 5.92400 24.72100
C  10.45000 2.09100 25.47900
N  8.23900 4.27400 29.70500
C  9.03400 3.62500 30.68000
C  8.64400 4.14500 32.05900
C  7.57500 5.22100 31.73400
C  7.48500 5.29600 30.19500
C  6.14500 4.98600 32.44700
C  9.78500 4.51600 33.06200
C  9.35300 4.70500 34.48700
H  10.16600 3.94100 35.55300
N  7.09700 5.81000 27.15100
C  6.55500 6.56600 28.06100
C  5.69400 7.64000 27.53200
C  5.85200 7.50600 26.11300
C  6.82500 6.41500 25.89200
C  4.80300 8.55300 28.38200
C  5.24900 8.28700 24.93700
O  5.42900 8.08600 23.72500
C  4.46900 9.49200 25.26900
N  8.82500 3.98800 25.43700
C  8.31600 4.80700 24.46500
C  8.91300 4.56100 23.03400
C  9.83700 3.34000 23.31500
C  9.76700 3.13000 24.84600
C  7.80000 4.30400 22.00700
C  11.30300 3.65900 22.95400
C  12.09500 2.47500 22.44700
N  9.91200 2.71900 27.77800
C  10.50800 1.85300 26.83900
C  11.25400 0.79300 27.51100
C  10.96000 1.02200 28.89200
C  10.12500 2.15800 29.04100
C  12.05600 -0.23800 26.87900
C  11.24300 0.53100 30.23700
O  11.84100 -0.45900 30.65700
C  10.54900 1.54800 31.20400
C  9.67900 0.94100 32.26800
O  8.75100 0.17400 32.04400
O  10.24500 1.27900 33.48800
C  9.54400 0.63300 34.61300
H  6.18900 6.86900 30.19100
H  7.21500 6.45900 23.78500
H  11.08000 1.45800 24.85100
H  8.13600 3.30000 32.52200
H  7.80800 6.21200 32.12500
H  5.60900 4.20900 31.90200
H  5.62100 5.94100 32.40500
H  6.29800 4.65800 33.47500
H  10.19400 5.45500 32.68900
H  10.65900 3.86600 33.05900
H  8.32400 4.35200 34.55800
H  9.42800 5.76500 34.72800
H  4.72300 8.36200 29.45200
H  3.78400 8.27000 28.11500
H  4.82400 9.62400 28.17900
H  4.13200 10.09700 24.42700
H  5.07700 10.19000 25.84500
H  3.58500 9.23900 25.85400
H  9.49400 5.47000 22.87300
H  9.45100 2.48500 22.76100
H  6.79300 4.52500 22.36000
H  7.70300 3.23400 21.82100
H  8.02900 4.89600 21.12200
H  11.84500 3.95800 23.85100
H  11.29100 4.47100 22.22700
H  11.59300 1.50800 22.44900
H  12.91900 2.30400 23.14000
H  12.41400 2.53600 21.40700
H  13.05500 0.18200 26.76400
H  11.75200 -0.50300 25.86700
H  12.10600 -1.09900 27.54600
H  11.39500 2.04400 31.67900
H  8.67400 1.14600 35.02500
H  10.38600 0.74300 35.29600
H  9.31600 -0.40200 34.35700

