158

Mg 41.98900 42.62900 27.44500
C  40.64100 44.82400 29.78900
C  42.34500 40.32100 29.74600
C  43.49600 40.76600 25.06700
C  41.72900 45.24900 24.97700
N  41.56400 42.64800 29.55700
C  40.94400 43.53400 30.30700
C  40.69000 43.00500 31.72600
C  41.39000 41.59800 31.79500
C  41.81200 41.51500 30.24900
C  42.55300 41.48000 32.79700
C  39.27500 43.19300 32.32300
C  39.16200 43.88700 33.70400
H  38.69700 43.02000 34.90100
N  42.82000 40.69100 27.46800
C  42.80300 39.90200 28.50200
C  43.48900 38.63300 28.22400
C  43.92200 38.84800 26.83000
C  43.43700 40.17000 26.37000
C  43.65700 37.57900 29.20600
C  44.70600 37.89500 25.97800
O  45.11500 38.16700 24.83900
C  44.97900 36.57000 26.47200
N  42.74100 43.03400 25.44400
C  43.23100 42.06100 24.64700
C  43.53600 42.58000 23.25300
C  42.69400 43.84100 23.18400
C  42.32100 44.03800 24.60400
C  45.04700 42.74100 22.87200
C  41.51900 43.90300 22.15200
C  40.06900 43.86000 22.74000
N  41.36200 44.59600 27.31200
C  41.39600 45.57400 26.31600
C  40.75700 46.78000 26.76100
C  40.50500 46.60100 28.15900
C  40.82900 45.21300 28.42900
C  40.65600 48.04000 25.91500
C  39.98400 47.15500 29.34700
O  39.47800 48.25900 29.52200
C  40.11800 46.02300 30.47400
C  41.06500 46.63700 31.47600
O  42.28000 46.76700 31.33000
O  40.43500 46.88600 32.66100
C  41.25500 47.56200 33.69200
H  42.32400 39.61500 30.57900
H  43.86700 40.11400 24.27300
H  41.53500 46.10700 24.33000
H  41.29000 43.66800 32.35000
H  40.64100 40.82500 31.97100
H  42.75400 40.42000 32.95400
H  42.15100 41.99500 33.67000
H  43.45400 41.94000 32.39200
H  38.91200 42.19400 32.56600
H  38.58900 43.49200 31.53000
H  38.30600 44.54400 33.55000
H  40.06300 44.48400 33.84400
H  43.13000 37.78200 30.13900
H  44.72600 37.59000 29.42000
H  43.42100 36.55100 28.92900
H  45.29400 36.37100 27.49600
H  45.66200 36.16400 25.72600
H  44.07900 35.95700 26.44700
H  43.17700 41.77700 22.60900
H  43.43600 44.59200 22.91600
H  45.17900 42.45900 21.82800
H  45.64400 42.02600 23.43700
H  45.28700 43.79400 23.02200
H  41.56100 43.03500 21.49300
H  41.72000 44.80800 21.57700
H  39.43400 43.30100 22.05400
H  39.62500 44.85100 22.83500
H  39.98200 43.35100 23.70000
H  40.07500 47.81300 25.02200
H  41.68300 48.29200 25.65200
H  40.12500 48.76400 26.53300
H  39.25800 45.81200 31.10900
H  42.11800 48.11000 33.31600
H  41.60400 46.80100 34.39000
H  40.60300 48.22500 34.26200
Mg -1.85000 33.67900 27.57700
C  -3.86800 32.04100 30.08100
C  -0.70000 35.76400 30.05400
C  -0.39800 35.42500 25.22700
C  -3.70000 31.92100 25.12900
N  -2.22900 33.81700 29.80300
C  -3.01300 33.01800 30.66600
C  -2.76800 33.33600 32.12700
C  -1.95100 34.66300 32.02800
C  -1.69600 34.85600 30.44400
C  -2.57300 35.89300 32.65600
C  -2.10900 32.14900 32.97100
C  -3.09100 31.61600 34.08200
H  -2.53300 31.55500 35.45500
N  -0.54000 35.30700 27.64700
C  -0.16500 36.05700 28.76700
C  0.76900 37.03200 28.30400
C  0.88800 36.96200 26.84000
C  -0.14200 35.88300 26.49300
C  1.37000 38.03900 29.22300
C  1.65200 37.89200 25.85900
O  1.56000 37.94300 24.65800
C  2.48000 38.99000 26.47600
N  -2.04100 33.65200 25.45000
C  -1.25400 34.50300 24.65600
C  -1.34000 34.21200 23.16200
C  -2.21600 32.87600 23.22600
C  -2.70000 32.80900 24.67300
C  -2.01800 35.46200 22.40900
C  -1.29800 31.59400 22.98300
C  -1.93000 30.43200 22.09700
N  -3.44600 32.18600 27.54300
C  -4.07200 31.55600 26.48100
C  -5.06600 30.68000 27.00300
C  -4.91800 30.72400 28.37900
C  -3.94400 31.71900 28.69700
C  -5.84600 29.74200 26.21500
C  -5.33800 30.10700 29.66700
O  -6.23100 29.27800 29.83400
C  -4.68400 30.94800 30.79800
C  -5.74900 31.48100 31.65200
O  -6.38100 32.48800 31.36800
O  -5.96200 30.75100 32.78300
C  -6.77800 31.39800 33.86000
H  -0.26400 36.23200 30.93900
H  0.15700 35.98800 24.47400
H  -4.29500 31.31800 24.44000
H  -3.71000 33.65100 32.57700
H  -1.00400 34.43700 32.51900
H  -2.33500 36.79700 32.09600
H  -2.37000 36.10900 33.70500
H  -3.66000 35.80800 32.63900
H  -1.17400 32.42600 33.45700
H  -1.95300 31.24400 32.38400
H  -3.41200 30.58000 33.97900
H  -3.92300 32.31300 34.17500
H  1.23100 37.91800 30.29700
H  1.06400 39.05900 28.98800
H  2.42600 37.85300 29.02900
H  1.93500 39.54800 27.23800
H  2.89600 39.63900 25.70600
H  3.35800 38.58800 26.98100
H  -0.30200 34.04100 22.87400
H  -3.07500 32.81000 22.55900
H  -2.45500 36.19300 23.08900
H  -2.72000 35.06600 21.67500
H  -1.20700 35.98800 21.90600
H  -0.89500 31.26700 23.94200
H  -0.36500 31.97200 22.56700
H  -2.91800 30.76000 21.77300
H  -1.98900 29.58200 22.77700
H  -1.35500 30.18700 21.20500
H  -5.79300 28.69200 26.50200
H  -5.56500 29.78100 25.16200
H  -6.86900 30.11700 26.24600
H  -4.10700 30.26700 31.42400
H  -6.14700 31.76500 34.67000
H  -7.54100 30.75600 34.30000
H  -7.34700 32.30100 33.63600

