158

Mg 25.57200 0.16000 28.59700
C  27.36600 -0.03100 31.59300
C  22.68100 0.04200 30.44900
C  23.65700 0.03700 25.71100
C  28.43500 -0.32100 26.81300
N  25.12800 -0.16400 30.85200
C  26.01100 0.03800 31.87000
C  25.35800 0.14900 33.23900
C  23.89400 0.03200 32.86600
C  23.88500 -0.04700 31.28700
C  23.19700 -1.14600 33.72700
C  25.69400 1.44300 34.11200
C  25.96200 1.03700 35.63500
H  26.40100 2.13800 36.58600
N  23.49600 0.13900 28.14000
C  22.48600 0.13400 29.07800
C  21.16500 0.26800 28.44700
C  21.50100 0.15200 27.01000
C  22.92600 0.05900 26.89000
C  19.90000 0.33900 29.22200
C  20.56400 0.14700 25.79400
O  20.96900 -0.18700 24.65500
C  19.12900 0.31900 26.02800
N  25.97500 -0.06200 26.55300
C  25.04500 -0.06500 25.51600
C  25.79300 -0.01700 24.16700
C  27.23700 0.16600 24.48800
C  27.29000 -0.05400 26.02300
C  25.45300 -1.28300 23.32000
C  27.99800 1.46900 24.07400
C  27.59200 2.80200 24.76100
N  27.55300 -0.15700 29.06300
C  28.62700 -0.37400 28.20400
C  29.84000 -0.57800 28.99800
C  29.41300 -0.41700 30.34100
C  28.01200 -0.13900 30.33800
C  31.16800 -0.85000 28.44100
C  29.87000 -0.36800 31.71000
O  30.96700 -0.60300 32.20800
C  28.50500 -0.05200 32.60400
C  28.30400 -1.04100 33.65500
O  27.68100 -2.10700 33.56200
O  29.02000 -0.66600 34.79200
C  29.18900 -1.70600 35.77200
H  21.75600 0.01700 31.02800
H  23.25200 0.10700 24.69900
H  29.22200 -0.30200 26.05500
H  25.62800 -0.74300 33.80500
H  23.37400 0.94300 33.16500
H  22.32900 -0.92100 34.34600
H  23.96100 -1.62000 34.34400
H  22.76400 -1.86200 33.02900
H  24.88300 2.17100 34.12400
H  26.59100 1.89700 33.69000
H  26.65500 0.19800 35.69600
H  25.01900 0.66900 36.03900
H  20.04400 0.89200 30.15000
H  19.56400 -0.66700 29.47300
H  19.12800 0.81400 28.61700
H  18.75200 -0.32000 26.82600
H  18.54800 0.17400 25.11700
H  18.89200 1.35500 26.27300
H  25.47400 0.86000 23.60400
H  27.68000 -0.67400 23.95300
H  24.73400 -1.11700 22.51700
H  25.00200 -2.14800 23.80600
H  26.31500 -1.65000 22.76200
H  27.84700 1.66500 23.01200
H  29.04900 1.23100 24.23900
H  28.36100 2.95100 25.52000
H  26.58800 2.69800 25.17200
H  27.58900 3.65300 24.08000
H  32.03000 -0.47600 28.99300
H  31.18100 -0.40000 27.44800
H  31.13100 -1.93900 28.41800
H  28.67600 0.94200 33.01800
H  28.43900 -1.53600 36.54500
H  30.09500 -1.65000 36.37400
H  29.07000 -2.73100 35.42000
Mg 9.21600 47.21900 27.55500
C  7.41800 46.80200 30.57200
C  12.13200 47.70400 29.42600
C  10.91800 48.53300 24.89600
C  6.26900 47.51100 25.79100
N  9.67200 47.24700 29.75200
C  8.77400 46.97300 30.80400
C  9.49300 47.07700 32.12400
C  10.95100 47.51200 31.71600
C  10.96900 47.48700 30.15700
C  11.45500 48.87100 32.27500
C  9.47900 45.76200 32.90900
C  10.42500 45.44700 34.00300
H  9.83900 45.21800 35.42700
N  11.28000 47.78000 27.11500
C  12.33300 47.82900 28.04700
C  13.61900 48.09500 27.36200
C  13.22700 48.41800 25.98500
C  11.72800 48.28100 25.97200
C  15.04700 48.17100 28.04000
C  14.08600 48.80400 24.83200
O  13.65400 49.18300 23.77000
C  15.57000 48.83200 24.95300
N  8.68000 48.11900 25.67700
C  9.53000 48.42300 24.65800
C  8.88300 48.74500 23.36900
C  7.39200 48.37900 23.68500
C  7.41100 47.84300 25.09900
C  9.02100 50.26100 22.86500
C  6.95600 47.35200 22.56200
C  7.08500 47.85800 21.04100
N  7.29400 47.05400 27.97100
C  6.24100 47.15600 27.11900
C  5.02000 46.86400 27.90200
C  5.42800 46.73000 29.25900
C  6.86000 46.73900 29.24000
C  3.60200 47.06700 27.40300
C  4.96600 46.57800 30.65000
O  3.81000 46.48200 31.08800
C  6.26000 46.58800 31.55200
C  6.37800 45.15900 32.12200
O  6.97100 44.22500 31.64600
O  5.75700 45.20200 33.33300
C  5.83000 43.88700 33.98000
H  13.00800 47.72500 30.07700
H  11.39700 48.93900 24.00200
H  5.43200 47.60200 25.09500
H  8.99700 47.83800 32.72500
H  11.61400 46.68000 31.95200
H  10.71400 49.18200 33.01000
H  11.41200 49.64800 31.51200
H  12.44800 48.66600 32.67600
H  9.78800 45.06100 32.13400
H  8.45700 45.51100 33.19600
H  11.03300 46.34700 34.09800
H  11.09200 44.61300 33.78600
H  15.67600 47.40000 27.59500
H  15.00900 47.76000 29.04900
H  15.52200 49.14700 28.13800
H  16.10400 49.03000 24.02400
H  15.79900 47.79100 25.18200
H  15.89100 49.33700 25.86400
H  9.23400 48.16400 22.51600
H  6.81000 49.29100 23.55000
H  8.08000 50.80600 22.79400
H  9.46700 50.25800 21.87000
H  9.61800 50.79900 23.60100
H  5.88900 47.14300 22.63700
H  7.53800 46.44800 22.74400
H  6.42900 47.26600 20.40300
H  8.10500 47.87500 20.65800
H  6.56000 48.80700 21.15300
H  3.00700 47.52300 28.19400
H  3.30100 46.04100 27.18900
H  3.54500 47.82100 26.61800
H  6.26500 47.28900 32.38700
H  5.32900 43.16900 33.33000
H  5.40300 44.01200 34.97400
H  6.88900 43.63800 34.04700

