158

Mg 8.56200 48.48900 25.25000
C  6.33100 48.55600 28.11900
C  11.00000 49.40100 27.43400
C  10.44000 48.40500 22.68000
C  5.60200 48.15200 23.24200
N  8.59100 48.92600 27.59100
C  7.64800 48.73100 28.52700
C  8.14100 49.28100 29.90000
C  9.55600 49.96500 29.53900
C  9.76500 49.31400 28.10200
C  9.68800 51.53100 29.62800
C  8.22300 48.18200 30.93400
C  7.58100 48.62100 32.22900
H  7.55400 47.61200 33.42400
N  10.51900 48.60600 25.07900
C  11.36700 49.04600 26.07600
C  12.73400 49.18400 25.49600
C  12.61500 48.82900 24.14500
C  11.18100 48.55500 23.91300
C  13.93800 49.74400 26.30100
C  13.67800 48.72000 23.13500
O  13.36700 48.43000 21.98900
C  15.07400 49.03900 23.37300
N  8.04300 48.24000 23.21000
C  9.06100 48.17000 22.36600
C  8.51900 47.91900 20.87900
C  7.02200 47.47800 21.22800
C  6.82500 47.91000 22.63700
C  8.70400 49.10500 19.90200
C  6.83600 45.91800 21.06900
C  5.69900 45.52200 20.09600
N  6.48200 48.50400 25.51100
C  5.46100 48.29500 24.64400
C  4.18500 48.30800 25.34800
C  4.52200 48.34900 26.65100
C  5.91300 48.48900 26.76000
C  2.86500 48.13100 24.75900
C  3.85800 48.43100 27.94000
O  2.68400 48.33000 28.25800
C  5.07300 48.54900 29.00700
C  4.86100 47.36200 29.94100
O  5.48800 46.30400 29.82000
O  3.97000 47.62600 30.95100
C  3.84300 46.60700 32.00100
H  11.77200 49.70100 28.14600
H  11.03800 48.51700 21.77300
H  4.70800 48.18100 22.61600
H  7.39400 50.03900 30.13400
H  10.38700 49.60600 30.14500
H  8.76600 52.10800 29.69500
H  10.27800 51.93600 28.80500
H  10.25900 51.75000 30.53000
H  9.26300 48.05200 31.23400
H  7.72800 47.34900 30.43600
H  6.54700 48.82000 31.94500
H  7.95800 49.61400 32.47200
H  13.68400 49.97100 27.33600
H  14.20800 50.65100 25.76000
H  14.72600 48.99200 26.25200
H  15.24200 50.08800 23.61800
H  15.63400 48.71800 22.49500
H  15.44800 48.42400 24.19100
H  9.15600 47.10900 20.52500
H  6.35900 48.10000 20.62600
H  8.97900 50.07000 20.33000
H  7.79600 49.18300 19.30400
H  9.52700 48.77500 19.26800
H  6.63100 45.51700 22.06200
H  7.72700 45.46500 20.63500
H  5.63600 46.35600 19.39700
H  4.76000 45.41500 20.64000
H  5.81900 44.52400 19.67500
H  2.45700 47.18700 25.11900
H  2.77600 48.14800 23.67200
H  2.29400 48.96100 25.17400
H  4.97900 49.48300 29.56100
H  4.41100 45.68100 31.91100
H  2.77000 46.42400 32.05900
H  4.11000 47.08400 32.94400
Mg -11.11400 40.40700 42.43700
C  -9.51400 37.65400 41.09600
C  -8.75900 42.43500 40.85100
C  -12.89100 43.11000 43.32200
C  -13.81500 38.37900 43.24400
N  -9.38600 40.06700 40.97200
C  -8.89100 38.81700 40.62100
C  -7.70400 38.91700 39.59200
C  -7.40800 40.43000 39.71600
C  -8.56300 41.06900 40.59600
C  -5.98100 40.79100 40.30800
C  -7.84000 38.20600 38.23600
C  -7.09400 36.84000 38.05400
H  -5.94200 36.75800 37.05900
N  -10.73700 42.56900 42.34800
C  -9.72000 43.10900 41.65500
C  -9.82700 44.51800 41.81300
C  -11.04600 44.77700 42.58800
C  -11.62400 43.50500 42.75300
C  -8.85200 45.45700 41.25500
C  -11.57300 46.18200 43.02600
O  -10.88300 47.17500 42.84900
C  -12.87400 46.26500 43.91300
N  -13.10300 40.69400 43.19500
C  -13.57700 41.89700 43.49400
C  -14.88700 41.77600 44.16800
C  -15.27000 40.27500 44.01600
C  -13.98600 39.73300 43.49800
C  -14.91400 42.20700 45.64100
C  -16.48700 40.04400 43.04500
C  -17.39000 38.80700 43.37200
N  -11.61000 38.46100 42.33900
C  -12.68100 37.73000 42.82600
C  -12.41500 36.33600 42.71600
C  -11.18900 36.28300 42.06100
C  -10.73100 37.61100 41.84100
C  -13.38000 35.21800 43.06500
C  -10.18100 35.36500 41.53900
O  -10.17700 34.12900 41.67800
C  -9.00600 36.23700 40.91300
C  -7.80100 35.89100 41.70200
O  -7.37300 36.49000 42.68800
O  -7.12300 34.92600 41.03600
C  -5.71200 34.83100 41.25500
H  -7.97000 43.04000 40.39900
H  -13.68400 43.82700 43.54200
H  -14.64800 37.69900 43.43100
H  -6.98300 38.38300 40.21100
H  -7.42700 40.89700 38.73100
H  -5.46100 39.88400 40.61600
H  -6.13700 41.52900 41.09400
H  -5.32800 41.27800 39.58400
H  -7.33400 38.78300 37.46200
H  -8.91300 38.10700 38.07100
H  -7.86600 36.11900 37.78800
H  -6.60100 36.55000 38.98200
H  -9.38800 45.95900 40.44900
H  -7.90800 44.96000 41.03200
H  -8.52200 46.21300 41.96700
H  -12.96100 45.48000 44.66400
H  -13.68200 46.11300 43.19800
H  -12.92600 47.26000 44.35600
H  -15.54200 42.42500 43.58700
H  -15.61400 39.71700 44.88800
H  -15.61800 43.02400 45.79900
H  -13.92900 42.55800 45.94800
H  -15.21200 41.37200 46.27500
H  -15.90800 39.83200 42.14600
H  -16.96200 41.02500 43.01300
H  -18.45300 39.04700 43.38200
H  -17.23300 38.40100 44.37100
H  -17.13200 38.01100 42.67300
H  -13.61500 35.15200 44.12700
H  -13.19900 34.22400 42.65600
H  -14.30800 35.55100 42.60000
H  -8.85500 35.91900 39.88200
H  -5.77400 34.31500 42.21300
H  -5.24300 35.81000 41.35400
H  -5.24700 34.14700 40.54500

