158

Mg 46.57300 44.65900 43.13200
C  43.10500 43.84300 43.22600
C  47.27100 41.32700 42.77300
C  49.72800 45.52300 42.63700
C  45.57000 48.00600 43.64500
N  45.26300 42.82900 42.91600
C  43.92200 42.72600 43.09200
C  43.47300 41.28800 42.85500
C  44.80200 40.50200 43.03000
C  45.89500 41.58100 42.97100
C  44.93600 39.65200 44.24900
C  42.72600 40.96500 41.50600
C  43.01500 41.89000 40.22500
H  42.99700 41.23300 38.89600
N  48.22500 43.60800 42.73000
C  48.35000 42.20900 42.67100
C  49.69100 41.80400 42.60900
C  50.48400 43.01000 42.48400
C  49.47800 44.14700 42.61200
C  50.18400 40.42100 42.40300
C  52.04700 43.04000 42.33500
O  52.65300 42.00000 42.31400
C  52.79100 44.35100 42.25900
N  47.51400 46.51600 43.12200
C  48.81900 46.64000 42.85500
C  49.23200 48.06300 42.88600
C  47.87800 48.90600 42.97400
C  46.94100 47.76400 43.27800
C  50.34500 48.44900 43.90500
C  47.53300 49.92400 41.83400
C  47.65400 51.37300 42.28400
N  44.76200 45.77100 43.45200
C  44.49200 47.10100 43.57400
C  43.10600 47.33000 43.53800
C  42.48900 46.09000 43.42300
C  43.53300 45.16800 43.40800
C  42.50700 48.70300 43.70800
C  41.26500 45.40500 43.27700
O  40.11900 45.84400 43.27500
C  41.65600 43.88100 43.21700
C  40.93400 42.97900 44.23000
O  40.43800 41.91100 44.01400
O  40.82200 43.62200 45.43500
C  39.85300 42.98700 46.37200
H  47.56400 40.27700 42.83900
H  50.74900 45.77500 42.34200
H  45.29300 49.06200 43.68000
H  42.82500 41.14400 43.71900
H  45.04500 39.90900 42.14800
H  45.24800 38.64100 43.98600
H  43.98400 39.57100 44.77300
H  45.57000 40.12300 45.00000
H  41.69800 41.17100 41.80500
H  43.01300 39.93600 41.28800
H  43.93400 42.45800 40.36200
H  42.17600 42.57700 40.10900
H  50.56500 40.12500 41.42600
H  49.29800 39.79000 42.47800
H  50.91000 40.06800 43.13500
H  52.70700 44.80300 43.24700
H  52.33300 45.04700 41.55600
H  53.85000 44.14600 42.10200
H  49.60800 48.22000 41.87500
H  47.87100 49.40600 43.94200
H  50.47900 47.59400 44.56700
H  50.15400 49.38200 44.43500
H  51.32900 48.43200 43.43700
H  46.55100 49.74200 41.39700
H  48.14500 49.78900 40.94300
H  47.74600 51.45100 43.36700
H  46.80700 51.94700 41.90900
H  48.48900 51.83600 41.75700
H  43.29100 49.40800 43.43200
H  42.12700 48.82400 44.72200
H  41.66200 48.77900 43.02300
H  41.28000 43.41700 42.30500
H  39.17700 43.65700 46.90400
H  40.38100 42.38300 47.11000
H  39.21000 42.25600 45.87900
Mg 29.24800 59.74700 41.48900
C  26.09100 58.80900 40.37800
C  30.44100 56.78900 40.13700
C  32.26900 61.00200 41.68600
C  27.90300 62.79200 42.51600
N  28.43300 58.15400 40.22400
C  27.03000 57.91100 39.95500
C  26.85800 56.53300 39.23900
C  28.16600 55.85600 39.68300
C  29.12900 57.02500 40.01800
C  27.94500 54.86400 40.88700
C  26.53800 56.65400 37.65600
C  25.30200 55.87800 37.13200
H  25.03000 55.82700 35.62000
N  31.12300 58.94600 41.07100
C  31.45200 57.72800 40.48400
C  32.82500 57.60100 40.51000
C  33.40200 58.85400 40.89000
C  32.24900 59.70600 41.17200
C  33.47600 56.31300 40.01200
C  34.90700 59.12900 40.86300
O  35.62500 58.20700 40.64000
C  35.46600 60.56900 41.09500
N  29.95400 61.68200 42.03300
C  31.29800 61.92700 42.02800
C  31.56600 63.39300 42.62800
C  30.12900 63.82100 43.03000
C  29.25800 62.74700 42.43400
C  32.70400 63.54700 43.67500
C  29.81200 65.33800 42.77400
C  29.17200 65.62300 41.39600
N  27.36200 60.64900 41.65800
C  26.97300 61.88000 42.08900
C  25.48300 61.91700 42.05000
C  25.10200 60.76900 41.31700
C  26.29100 60.09500 41.06000
C  24.65300 62.97800 42.43000
C  24.02100 59.97300 40.89800
O  22.81500 60.11700 40.97300
C  24.64800 58.71600 40.18700
C  24.04800 57.48000 40.73000
O  24.36500 56.97200 41.78200
O  23.01100 56.98000 39.95300
C  22.46800 55.71100 40.34000
H  30.77500 55.80800 39.79400
H  33.24500 61.45300 41.87900
H  27.48700 63.75300 42.82800
H  25.94100 56.03200 39.54900
H  28.58200 55.28200 38.85500
H  28.67300 54.06500 40.74700
H  26.93300 54.46000 40.91200
H  28.23000 55.36600 41.81100
H  27.39600 56.34800 37.05700
H  26.49700 57.72100 37.43700
H  24.41800 56.31300 37.59900
H  25.17800 54.86800 37.52300
H  33.91100 56.54700 39.04100
H  32.80200 55.45700 39.99400
H  34.27400 56.06200 40.71100
H  34.83000 61.14300 40.42000
H  36.54200 60.60500 40.92400
H  35.33700 60.73700 42.16400
H  31.83300 63.94500 41.72700
H  30.07500 63.80000 44.11800
H  33.67500 63.40000 43.20200
H  32.67500 62.87500 44.53300
H  32.85600 64.58400 43.97300
H  30.69400 65.95300 42.95600
H  29.11300 65.48900 43.59700
H  28.10600 65.77000 41.57100
H  29.25100 64.83100 40.65200
H  29.52000 66.60700 41.08100
H  23.69100 62.77200 41.96100
H  25.13600 63.88300 42.06100
H  24.37000 63.01900 43.48200
H  24.47400 58.76100 39.11100
H  23.25800 55.04700 39.98900
H  21.63500 55.41700 39.70100
H  22.27800 55.50000 41.39200

