158

Mg 24.83700 -5.17100 45.38000
C  26.63900 -2.58700 43.75400
C  22.17300 -4.46400 43.46700
C  23.73400 -8.17200 46.11300
C  27.99500 -5.95200 47.02700
N  24.50900 -3.75000 43.82800
C  25.33000 -2.76500 43.35200
C  24.75000 -2.08500 42.15000
C  23.32000 -2.44700 42.26900
C  23.26500 -3.61500 43.35800
C  22.17000 -1.35500 42.45600
C  25.34600 -2.38700 40.73000
C  25.55900 -1.13700 39.84200
H  24.78400 -1.10800 38.52600
N  23.20400 -6.20100 44.81800
C  22.12700 -5.71700 44.14800
C  20.97300 -6.61600 44.22800
C  21.40200 -7.81900 44.86400
C  22.87900 -7.43400 45.29400
C  19.64100 -6.44200 43.60700
C  20.62400 -9.15800 44.95900
O  19.49500 -9.26100 44.49000
C  21.16800 -10.40900 45.49300
N  25.85900 -6.91400 46.26900
C  25.09900 -7.99900 46.48600
C  25.78200 -8.98500 47.36700
C  27.04500 -8.23900 47.78600
C  26.99500 -6.92700 46.99500
C  24.97600 -9.66300 48.52000
C  28.26700 -9.15100 47.57400
C  29.49800 -9.10700 48.56900
N  26.82700 -4.40400 45.55900
C  27.96800 -4.78000 46.28700
C  29.08900 -3.88100 46.03200
C  28.66200 -3.07400 44.98400
C  27.27100 -3.38200 44.73700
C  30.43300 -3.95100 46.50000
C  29.11200 -2.15000 43.99000
O  30.19200 -1.66500 43.72100
C  27.73600 -1.71300 43.25800
C  27.59700 -0.32000 43.65600
O  27.01200 0.13900 44.62600
O  28.21400 0.42100 42.70100
C  28.21900 1.86400 42.80700
H  21.26900 -4.09300 42.97900
H  23.31200 -9.15300 46.34100
H  28.89400 -6.27200 47.55800
H  24.88500 -1.01800 42.32700
H  23.01400 -2.98500 41.37100
H  21.41000 -1.47900 41.68400
H  22.61500 -0.38600 42.23200
H  21.75100 -1.40900 43.46100
H  24.74300 -3.04500 40.10400
H  26.30800 -2.89300 40.80900
H  26.62200 -1.04300 39.62000
H  25.25700 -0.22600 40.35700
H  19.64100 -5.39000 43.32200
H  18.93300 -6.58700 44.42300
H  19.43600 -7.08200 42.74900
H  20.34000 -11.11400 45.56600
H  21.62000 -10.30000 46.47900
H  21.93600 -10.66400 44.76200
H  25.96700 -9.74900 46.61100
H  27.01500 -7.88900 48.81700
H  24.13300 -9.04000 48.81800
H  25.61100 -9.80700 49.39500
H  24.63900 -10.65400 48.21600
H  28.67600 -9.00300 46.57500
H  27.95400 -10.19200 47.49000
H  29.57300 -10.03600 49.13300
H  29.38800 -8.37000 49.36500
H  30.43500 -8.90500 48.04900
H  30.70900 -4.86600 45.97600
H  30.65900 -4.00300 47.56500
H  31.03900 -3.08300 46.23900
H  27.79900 -1.74200 42.17100
H  27.63600 2.10100 41.91700
H  29.24300 2.23600 42.82200
H  27.71800 2.20200 43.71500
Mg 35.08400 3.02500 29.64700
C  32.80100 4.02100 32.21500
C  37.52200 3.34200 31.82300
C  37.13300 2.58100 27.02500
C  32.38700 3.58300 27.35000
N  35.13300 3.55900 31.80500
C  34.13400 3.77700 32.65300
C  34.59800 3.82900 34.15200
C  36.19300 3.72600 33.92800
C  36.32600 3.57100 32.44400
C  37.00700 4.95900 34.52700
C  34.01900 2.60000 34.94600
C  33.93000 2.79800 36.51200
H  34.56700 3.98000 37.19500
N  36.98000 2.80400 29.48500
C  37.89600 2.93700 30.52300
C  39.23000 2.58700 30.05000
C  39.10800 2.30500 28.70000
C  37.69700 2.59700 28.32400
C  40.44500 2.30500 31.00800
C  40.15700 1.76500 27.76400
O  39.88700 1.43600 26.61900
C  41.57700 1.68500 28.21700
N  34.76200 3.01000 27.46800
C  35.78600 2.72400 26.64400
C  35.34500 2.62900 25.19900
C  33.86600 3.05600 25.30200
C  33.61600 3.24700 26.79300
C  36.16000 3.41200 24.14500
C  32.83200 2.05500 24.67700
C  32.52300 0.80800 25.56200
N  33.05800 3.63000 29.68300
C  32.14100 3.81000 28.71500
C  30.80900 4.11900 29.28600
C  31.03800 4.15500 30.67800
C  32.41900 3.95200 30.85800
C  29.50600 4.19400 28.53800
C  30.41300 4.45900 31.96900
O  29.29200 4.90100 32.17300
C  31.57100 4.37300 33.00300
C  31.61500 5.59400 33.79000
O  32.26100 6.56500 33.44500
O  31.10500 5.33100 35.06700
C  31.40300 6.44100 36.01300
H  38.32500 3.40300 32.56100
H  37.84200 2.47200 26.20200
H  31.53100 3.77400 26.69900
H  34.20500 4.74300 34.59700
H  36.46800 2.80700 34.44600
H  37.52700 5.52900 33.75700
H  37.70000 4.64300 35.30700
H  36.24200 5.60500 34.95800
H  34.49400 1.63700 34.75600
H  33.01200 2.51900 34.53900
H  34.34300 1.94700 37.05400
H  32.87300 2.84000 36.77600
H  40.46400 1.24200 31.24900
H  40.43800 2.90000 31.92100
H  41.41700 2.59700 30.61000
H  41.72600 0.90300 28.96200
H  41.99200 2.67000 28.42900
H  42.19200 1.43400 27.35300
H  35.49000 1.57200 24.97400
H  33.76400 4.04800 24.86400
H  36.47500 2.70000 23.38200
H  37.04500 3.85300 24.60300
H  35.57100 4.22700 23.72500
H  33.31200 1.78600 23.73600
H  31.94100 2.56700 24.31300
H  32.70800 1.05600 26.60700
H  33.22100 0.01800 25.28600
H  31.46600 0.64000 25.35300
H  28.78600 4.28000 29.35200
H  29.17600 3.35800 27.92000
H  29.40000 5.15300 28.03200
H  31.28200 3.63600 33.75200
H  30.72000 7.28400 35.90600
H  32.46500 6.68300 36.04200
H  31.21200 6.17200 37.05200

