158

Mg 36.83900 49.72900 24.60600
C  36.87000 48.00200 27.62600
C  35.67600 52.52800 26.27200
C  36.26600 51.26300 21.61400
C  37.14100 46.73000 22.95600
N  36.18800 50.13300 26.78100
C  36.42800 49.36400 27.82300
C  36.20300 50.06300 29.20000
C  35.65800 51.47700 28.71800
C  35.82100 51.42100 27.16900
C  34.42100 51.92600 29.20400
C  37.47100 50.10300 30.05300
C  37.08700 50.28300 31.54900
H  35.74500 50.22800 32.25700
N  36.01700 51.57600 24.01500
C  35.71000 52.62600 24.85400
C  35.58100 53.83300 24.03200
C  35.68700 53.51500 22.70400
C  36.01100 52.08300 22.72800
C  35.33200 55.15400 24.76800
C  35.63800 54.44100 21.48800
O  35.75200 54.07900 20.35900
C  35.43000 55.89300 21.64300
N  36.73800 49.11500 22.60400
C  36.46700 49.91800 21.52300
C  36.60400 49.19000 20.18500
C  36.66900 47.74200 20.68100
C  36.91200 47.86300 22.17600
C  35.50100 49.32000 19.14300
C  37.74900 46.94800 19.86900
C  39.24300 47.36200 20.07000
N  37.20500 47.80800 25.19400
C  37.31900 46.64000 24.40700
C  37.71600 45.50600 25.23900
C  37.43700 45.96500 26.52200
C  37.15400 47.36700 26.45900
C  38.00000 44.14100 24.75600
C  37.43600 45.64300 27.95500
O  37.60300 44.58900 28.55700
C  37.11500 46.90800 28.70800
C  35.90400 46.50700 29.45900
O  34.82300 46.18900 29.02400
O  36.13300 46.78200 30.81000
C  35.14200 46.23900 31.73200
H  35.44100 53.47300 26.76700
H  36.24100 51.74900 20.63600
H  37.18700 45.79800 22.38800
H  35.38800 49.44600 29.57700
H  36.44500 52.15900 29.03800
H  34.10500 51.28700 30.02800
H  33.65700 51.61000 28.49400
H  34.44700 53.00000 29.38500
H  38.09200 50.97100 29.82800
H  38.07900 49.22800 29.82500
H  37.70900 51.11900 31.86800
H  37.48200 49.36700 31.98800
H  35.27600 56.09000 24.21300
H  36.20000 55.37300 25.39000
H  34.47800 55.19000 25.44400
H  34.44500 55.98000 22.10100
H  35.51600 56.43000 20.69900
H  36.22900 56.26300 22.28500
H  37.55800 49.46800 19.73700
H  35.67800 47.28800 20.65500
H  35.09500 50.32000 19.30000
H  34.68900 48.61700 19.32600
H  35.91800 49.30200 18.13600
H  37.51900 46.77800 18.81700
H  37.74500 45.93300 20.26500
H  39.82600 46.57000 20.54000
H  39.33300 48.12700 20.84200
H  39.77200 47.62600 19.15500
H  38.28800 43.59600 25.65500
H  38.82200 44.08300 24.04300
H  37.06300 43.75100 24.35800
H  38.06400 47.10100 29.20800
H  35.53100 45.24900 31.96800
H  34.12700 46.09200 31.36300
H  35.05300 46.95000 32.55300
Mg -5.50700 25.64000 26.00500
C  -3.89400 27.14600 28.75900
C  -7.16800 23.69700 28.18500
C  -6.96700 24.13500 23.31400
C  -3.80800 27.76100 23.86000
N  -5.52800 25.48300 28.27400
C  -4.86600 26.15600 29.18100
C  -5.27000 25.81500 30.60700
C  -6.15800 24.56300 30.36900
C  -6.31500 24.59000 28.86000
C  -5.48400 23.21900 30.77600
C  -5.98300 27.04300 31.17400
C  -5.64800 27.43100 32.59400
H  -4.95900 26.31900 33.51400
N  -6.74400 24.07800 25.79600
C  -7.40000 23.41300 26.83900
C  -8.29300 22.46300 26.30800
C  -8.28000 22.50900 24.91600
C  -7.24300 23.55600 24.59600
C  -9.13900 21.58500 27.28800
C  -9.10000 21.79100 23.89900
O  -9.00200 22.04200 22.70000
C  -10.08500 20.78400 24.29500
N  -5.38800 25.94200 23.79900
C  -6.09200 25.16700 22.94700
C  -5.90800 25.67900 21.48800
C  -4.87800 26.79900 21.69000
C  -4.64700 26.84800 23.16600
C  -5.30500 24.67700 20.52800
C  -5.20200 28.18800 21.17000
C  -4.12900 28.86000 20.23300
N  -4.11000 27.09200 26.17900
C  -3.48600 27.90900 25.22700
C  -2.60500 28.87600 25.88500
C  -2.65600 28.49300 27.21700
C  -3.57500 27.44900 27.39200
C  -1.72400 29.91000 25.28700
C  -2.18000 28.85400 28.53300
O  -1.35100 29.62500 28.90000
C  -3.00500 28.01500 29.51300
C  -2.01800 27.15100 30.21100
O  -1.20100 26.48200 29.67100
O  -2.09300 27.28000 31.52300
C  -1.06800 26.58100 32.32700
H  -7.71200 23.10200 28.92200
H  -7.53300 23.75900 22.45900
H  -3.30500 28.50400 23.23700
H  -4.29700 25.63500 31.06200
H  -7.13000 24.68300 30.84600
H  -4.66400 23.42200 31.46600
H  -5.11600 22.63800 29.93000
H  -6.12400 22.56600 31.37000
H  -7.06500 26.94200 31.08000
H  -5.71800 27.95300 30.63600
H  -6.57600 27.75300 33.06500
H  -4.90900 28.23100 32.64500
H  -9.84300 22.16900 27.88000
H  -8.45200 21.07500 27.96400
H  -9.65800 20.79300 26.74700
H  -10.40600 20.43300 23.31500
H  -10.94200 21.03500 24.92100
H  -9.61700 19.86500 24.64600
H  -6.82500 26.21600 21.24500
H  -3.90800 26.58700 21.24100
H  -4.86800 23.72700 20.83500
H  -4.69700 25.16700 19.76900
H  -6.12400 24.34600 19.88900
H  -5.32600 28.95300 21.93700
H  -6.03800 28.04200 20.48500
H  -4.64900 29.05900 19.29500
H  -3.37800 28.13600 19.91500
H  -3.61100 29.72900 20.63800
H  -1.73400 29.71000 24.21500
H  -0.70400 30.03600 25.65100
H  -2.21000 30.87300 25.44700
H  -3.54400 28.72600 30.13800
H  -0.76500 25.55800 32.10100
H  -1.52500 26.47600 33.31100
H  -0.18200 27.19100 32.50100

