158

Mg -0.46000 7.30200 26.30000
C  0.37600 9.64700 28.80800
C  -0.16700 4.88900 28.73900
C  -0.73000 5.16800 23.76400
C  -0.32000 9.96500 23.90400
N  -0.03800 7.28100 28.52400
C  0.34600 8.32500 29.29400
C  0.34800 7.94600 30.77500
C  0.44200 6.34400 30.70300
C  0.11900 6.13300 29.20300
C  1.84300 5.73800 31.13500
C  -0.88500 8.55700 31.49500
C  -0.56100 9.29700 32.85000
H  0.70900 9.01600 33.59800
N  -0.49500 5.39400 26.29300
C  -0.35900 4.51100 27.37100
C  -0.59000 3.18400 26.90000
C  -0.78600 3.23300 25.46000
C  -0.70800 4.65300 25.10400
C  -0.60700 1.91200 27.76400
C  -1.03400 2.05500 24.41800
O  -1.15700 2.21700 23.18100
C  -1.34900 0.62600 24.88500
N  -0.47500 7.61900 24.05700
C  -0.71400 6.50600 23.28500
C  -0.92700 6.88800 21.87900
C  -1.10000 8.47100 21.93800
C  -0.64300 8.74500 23.37100
C  0.24500 6.41600 20.96000
C  -2.52200 9.00000 21.55200
C  -3.28700 9.82500 22.63900
N  -0.03700 9.36400 26.28600
C  -0.03300 10.29500 25.26600
C  0.47100 11.60500 25.82000
C  0.55100 11.41100 27.16000
C  0.26700 10.01900 27.44500
C  0.72600 12.85200 25.09500
C  0.75600 12.04200 28.41400
O  0.94900 13.22000 28.70300
C  0.58100 10.94400 29.60900
C  1.92500 10.95800 30.26600
O  3.04200 10.63300 29.83600
O  1.77800 11.40400 31.57800
C  3.02500 11.73600 32.31100
H  -0.10100 4.10600 29.49700
H  -0.91800 4.41000 23.00200
H  -0.40200 10.80700 23.21400
H  1.33500 8.33200 31.03100
H  -0.32000 5.80000 31.26200
H  2.54300 5.81100 30.30300
H  1.79300 4.70500 31.48000
H  2.04700 6.36900 32.00000
H  -1.62700 7.79300 31.72700
H  -1.36600 9.27800 30.83400
H  -1.48100 9.32000 33.43400
H  -0.46800 10.34200 32.55400
H  -1.62900 1.56400 27.91700
H  -0.33500 2.04000 28.81100
H  0.04300 1.15200 27.33100
H  -2.14700 0.61200 25.62700
H  -0.46400 0.12800 25.28100
H  -1.66500 -0.02500 24.07000
H  -1.83300 6.40600 21.50900
H  -0.31000 8.86200 21.29700
H  1.02400 6.03900 21.62200
H  0.61200 7.22500 20.32900
H  -0.04800 5.54800 20.36800
H  -3.11500 8.13000 21.27000
H  -2.46800 9.67400 20.69700
H  -3.13100 9.30400 23.58400
H  -4.35700 9.67300 22.49600
H  -3.00400 10.87700 22.65200
H  1.17100 12.72000 24.10900
H  1.34400 13.53800 25.67400
H  -0.28300 13.25600 25.01000
H  -0.18400 11.25500 30.32000
H  2.83700 12.30300 33.22300
H  3.60400 12.38700 31.65600
H  3.68200 10.88600 32.49500
Mg 45.32400 3.78400 47.74800
C  43.36300 6.65400 47.58400
C  42.54500 1.84600 47.49200
C  47.36100 1.18400 46.95300
C  48.15600 5.88400 47.30700
N  43.27400 4.18200 47.30300
C  42.62100 5.45100 47.53600
C  41.07600 5.25900 47.51300
C  40.88200 3.80400 47.52700
C  42.34200 3.21300 47.45500
C  39.89300 3.32100 48.69400
C  40.24000 6.09800 46.48600
C  40.95800 6.44200 45.17700
H  40.24700 5.92300 43.88300
N  45.03700 1.77600 47.42300
C  43.80100 1.14400 47.36800
C  43.95400 -0.28900 47.16000
C  45.32200 -0.55200 47.03800
C  45.99900 0.82100 47.13900
C  42.84000 -1.34200 47.03000
C  45.95500 -1.93700 46.99700
O  45.31000 -2.96100 46.86400
C  47.45900 -1.98900 46.78500
N  47.49400 3.59800 47.38700
C  48.03300 2.40700 47.07700
C  49.53900 2.44200 46.85800
C  49.83800 3.95700 47.11500
C  48.46700 4.49900 47.36400
C  50.39400 1.49600 47.69200
C  50.59000 4.68400 45.90800
C  52.12300 4.43300 45.96600
N  45.73400 5.81600 47.65600
C  46.90300 6.49500 47.37200
C  46.65200 7.94800 47.43300
C  45.24000 8.02700 47.66400
C  44.73800 6.71700 47.64500
C  47.59300 9.13900 47.26900
C  44.11500 8.99500 47.74500
O  44.07400 10.23500 47.65600
C  42.85900 8.06200 47.75400
C  42.02400 8.40500 48.91900
O  42.22700 7.92800 50.03700
O  40.91200 9.13200 48.53700
C  39.79500 9.17900 49.57900
H  41.69100 1.20000 47.70200
H  48.12400 0.43100 46.74300
H  48.93700 6.64500 47.37000
H  40.73600 5.68600 48.45700
H  40.36700 3.46100 46.62900
H  39.26600 2.53200 48.27700
H  39.24100 4.08400 49.11800
H  40.53900 2.91900 49.47400
H  39.89000 7.03200 46.92700
H  39.27700 5.62900 46.28300
H  41.88000 5.87200 45.05900
H  41.03500 7.52700 45.11600
H  43.00100 -2.12100 47.77600
H  43.13600 -1.75700 46.06600
H  41.83800 -0.92400 47.12700
H  47.92600 -1.52600 47.65400
H  47.73000 -1.50100 45.84900
H  47.76600 -3.01100 46.56200
H  49.61900 2.18800 45.80100
H  50.36500 4.07300 48.06200
H  50.82100 0.72900 47.04600
H  49.97200 0.97700 48.55200
H  51.24200 2.08000 48.05000
H  50.35300 5.74700 45.95000
H  50.31900 4.30600 44.92200
H  52.42200 4.01000 45.00700
H  52.47800 3.78300 46.76600
H  52.72300 5.33500 46.09000
H  47.21800 9.81300 46.49900
H  48.57900 8.73400 47.03800
H  47.66600 9.72800 48.18300
H  42.36000 8.40100 46.84600
H  40.02000 9.03500 50.63500
H  39.09400 8.40300 49.27100
H  39.19600 10.08300 49.46500

