158

Mg 45.15200 3.61500 47.40400
C  43.14500 6.43700 46.67100
C  42.25700 1.67600 46.83000
C  47.10500 0.90500 47.39300
C  47.88900 5.75200 47.36300
N  43.05600 3.99600 46.72600
C  42.51700 5.21200 46.56900
C  40.99200 5.13000 46.47200
C  40.65600 3.65700 46.79400
C  42.04600 3.06100 46.76700
C  40.04800 3.40900 48.17400
C  40.45800 5.52500 45.11700
C  39.50800 6.72300 44.98400
H  39.83700 7.71000 43.88300
N  44.77300 1.61900 47.03300
C  43.55000 1.06200 46.84900
C  43.70500 -0.33700 46.78400
C  45.08000 -0.60400 47.05700
C  45.76100 0.67000 47.18900
C  42.58800 -1.29000 46.65000
C  45.69300 -2.00800 47.31300
O  44.91300 -2.97200 47.39400
C  47.13100 -2.24800 47.56000
N  47.21300 3.35600 47.04400
C  47.80600 2.15200 47.43400
C  49.30700 2.35000 47.69400
C  49.48600 3.89700 47.48100
C  48.10100 4.37500 47.26300
C  49.73900 1.74300 49.08400
C  50.42200 4.30000 46.30300
C  51.65100 5.09800 46.79400
N  45.48300 5.67500 47.22000
C  46.64900 6.40800 47.24100
C  46.34000 7.83000 47.21400
C  44.97400 7.90800 47.00600
C  44.49300 6.55200 46.91900
C  47.30500 8.95600 47.09900
C  43.87400 8.85400 46.81600
O  43.77800 10.12300 46.81700
C  42.59900 7.84600 46.70800
C  41.70000 8.14600 47.86400
O  41.65100 7.59000 48.93400
O  40.72500 9.01300 47.40700
C  39.65400 9.29900 48.37700
H  41.36800 1.06300 46.66500
H  47.84800 0.12700 47.57900
H  48.79200 6.28300 47.67200
H  40.50700 5.78300 47.19700
H  39.94800 3.09000 46.19100
H  40.77000 2.89000 48.80500
H  39.27700 2.67700 47.93400
H  39.54700 4.25200 48.65000
H  40.20600 4.60900 44.58200
H  41.31700 5.70500 44.47100
H  39.51800 7.31100 45.90200
H  38.48800 6.34800 44.90700
H  41.59400 -0.93900 46.37400
H  42.62100 -1.85400 47.58200
H  42.78700 -2.09200 45.93900
H  47.26700 -3.32000 47.69800
H  47.44200 -1.65400 48.41900
H  47.76400 -1.81300 46.78700
H  49.80100 1.86900 46.85000
H  49.75800 4.27300 48.46800
H  49.97600 0.69200 48.91600
H  48.84900 1.89100 49.69600
H  50.57100 2.31000 49.50100
H  49.81900 4.88900 45.61200
H  50.64900 3.38200 45.76000
H  52.57800 4.52800 46.72600
H  51.55700 5.54800 47.78200
H  51.60900 5.89900 46.05600
H  46.88900 9.82700 47.60500
H  47.58900 9.10800 46.05800
H  48.20000 8.67300 47.65200
H  42.09000 8.07000 45.77100
H  39.74000 10.31600 48.76000
H  39.55200 8.59700 49.20500
H  38.71100 9.38700 47.83700
Mg 30.08400 58.17500 39.25000
C  27.40200 55.91900 38.14800
C  32.21800 55.59700 38.56200
C  32.56100 60.42700 38.97200
C  27.76100 60.81600 38.91900
N  29.77300 55.97600 38.42600
C  28.63900 55.28600 38.20300
C  29.00400 53.77200 38.09800
C  30.51700 53.71300 38.24400
C  30.85800 55.21000 38.47500
C  30.91700 52.76900 39.42900
C  28.48000 53.17900 36.69200
C  29.04600 53.92700 35.42700
H  28.13100 54.82100 34.57200
N  32.12900 58.01200 38.93500
C  32.78300 56.91900 38.64900
C  34.19300 57.20000 38.53000
C  34.35100 58.59700 38.88200
C  32.99800 59.06500 38.91000
C  35.31200 56.19100 38.25400
C  35.61500 59.24900 39.19400
O  36.66300 58.59600 39.23800
C  35.76900 60.70000 39.44100
N  30.20500 60.30900 38.82200
C  31.34400 60.96400 39.05000
C  31.11700 62.44500 39.23100
C  29.55000 62.57400 39.28900
C  29.08900 61.16800 38.96200
C  31.90300 63.26700 40.33400
C  29.03300 63.70700 38.35100
C  28.95400 65.11000 39.13700
N  28.06100 58.34100 38.77600
C  27.23100 59.47300 38.80300
C  25.82500 59.08300 38.72400
C  25.91400 57.75600 38.50400
C  27.24700 57.34600 38.49000
C  24.70100 60.04500 38.81900
C  25.10100 56.52700 38.25700
O  23.88800 56.43900 38.14300
C  26.00800 55.29500 38.04200
C  25.70300 54.16200 39.00800
O  26.09400 54.08900 40.14100
O  24.80600 53.28500 38.49400
C  24.34900 52.22900 39.41000
H  32.78300 54.71200 38.26200
H  33.38200 61.14700 39.00800
H  27.06100 61.65300 38.86400
H  28.43900 53.20900 38.84100
H  30.88500 53.37500 37.27500
H  29.98900 52.30000 39.75600
H  31.54900 53.25100 40.17500
H  31.55000 51.99300 38.99800
H  27.39200 53.23500 36.66700
H  28.78800 52.13400 36.65400
H  29.52100 53.19100 34.77900
H  29.83800 54.59000 35.77500
H  34.79600 55.23700 38.14800
H  35.99500 55.99900 39.08100
H  35.80900 56.45700 37.32100
H  35.26400 61.00000 40.35900
H  35.43700 61.29800 38.59200
H  36.80500 60.97000 39.64500
H  31.43600 62.87600 38.28200
H  29.29700 62.74900 40.33400
H  31.13200 63.71900 40.95600
H  32.55100 63.95500 39.79100
H  32.45100 62.60500 41.00500
H  28.03700 63.48100 37.97000
H  29.80200 63.76500 37.58100
H  29.94700 65.53000 39.29700
H  28.53100 64.85200 40.10700
H  28.42400 65.89800 38.60200
H  23.83700 59.57000 39.28300
H  24.26800 60.34100 37.86400
H  25.06700 60.88200 39.41300
H  25.73600 54.93900 37.04800
H  24.24000 52.59200 40.43200
H  25.15100 51.50000 39.53000
H  23.50700 51.65200 39.02600

