158

Mg -0.82800 18.29200 26.96500
C  -1.56800 15.85100 29.54900
C  -1.71000 20.80600 29.13900
C  -0.55500 20.37600 24.43700
C  -0.51900 15.52500 24.76400
N  -1.56900 18.25700 29.00100
C  -1.69900 17.16800 29.90800
C  -1.92100 17.69400 31.37100
C  -2.28400 19.23300 31.13200
C  -1.89800 19.48600 29.62400
C  -3.79400 19.59900 31.40700
C  -0.59900 17.65100 32.17200
C  -0.92800 17.28100 33.61500
H  0.17700 17.09500 34.68900
N  -0.97600 20.33800 26.83800
C  -1.22700 21.20400 27.83800
C  -1.20100 22.54900 27.32600
C  -0.78600 22.50000 25.96400
C  -0.77700 21.02100 25.69000
C  -1.61100 23.70400 28.17500
C  -0.40200 23.59100 24.99600
O  -0.15400 23.33200 23.82100
C  -0.17000 25.01000 25.59400
N  -0.72400 17.97300 24.96900
C  -0.53000 19.04300 24.11700
C  -0.39900 18.64800 22.67300
C  -0.29500 17.14300 22.74900
C  -0.45900 16.86800 24.22500
C  -1.53300 19.16200 21.81100
C  1.06600 16.66200 22.22600
C  2.31900 17.25500 22.93200
N  -1.05700 16.15800 27.05100
C  -0.89400 15.19400 26.09600
C  -1.24400 13.94000 26.62400
C  -1.45900 14.15100 28.01700
C  -1.35700 15.47600 28.22200
C  -1.36500 12.69800 25.86200
C  -1.79800 13.49200 29.30700
O  -1.96400 12.32300 29.62900
C  -1.72400 14.56300 30.30700
C  -0.57200 14.27700 31.17900
O  0.49100 14.84600 31.00600
O  -0.90300 13.49100 32.22800
C  0.08500 13.13500 33.23900
H  -2.04800 21.57800 29.83200
H  -0.30700 21.01500 23.58700
H  -0.44700 14.70500 24.04700
H  -2.70800 17.12400 31.86500
H  -1.73200 19.86600 31.82800
H  -4.01200 20.31800 32.19600
H  -4.23700 18.65600 31.72800
H  -4.20500 19.98200 30.47300
H  -0.07300 18.58800 32.35700
H  0.20000 17.02400 31.77700
H  -1.21400 16.25700 33.37800
H  -1.79100 17.86500 33.93400
H  -0.74300 24.15900 28.65300
H  -2.28600 23.42600 28.98500
H  -2.06100 24.46600 27.54000
H  0.19800 25.48500 24.68500
H  0.67800 24.87700 26.26500
H  -1.01100 25.51900 26.06500
H  0.48400 19.13600 22.25900
H  -1.05000 16.55400 22.22800
H  -2.07100 18.31900 21.37800
H  -1.10900 19.67900 20.95000
H  -2.30000 19.76800 22.29400
H  1.15900 17.03400 21.20600
H  1.12000 15.58000 22.10600
H  2.91600 17.68900 22.13000
H  2.73800 16.34200 23.35400
H  2.05700 17.92100 23.75400
H  -1.47700 12.89200 24.79600
H  -2.33800 12.24200 26.04800
H  -0.57300 12.02900 26.19700
H  -2.65800 14.60400 30.86600
H  1.03900 13.62200 33.03800
H  0.10100 12.05000 33.34000
H  -0.30800 13.46600 34.20000
Mg 54.03900 23.75900 44.82200
C  51.60200 26.16300 43.90400
C  51.97000 21.30400 43.82900
C  56.72700 21.60000 44.81600
C  56.12900 26.45800 45.62100
N  52.11200 23.79200 43.89100
C  51.29600 24.83800 43.52900
C  49.97200 24.35100 42.98000
C  49.99000 22.84300 43.42600
C  51.45400 22.60300 43.70600
C  49.08300 22.35900 44.66600
C  49.84400 24.51000 41.41400
C  48.34800 24.45500 40.96200
H  48.06400 24.11300 39.49000
N  54.32300 21.67300 44.46900
C  53.27400 20.87700 44.15800
C  53.72000 19.51700 44.30200
C  55.14200 19.50000 44.44100
C  55.48200 20.97800 44.61600
C  52.78000 18.39400 44.33900
C  56.12900 18.36900 44.30800
O  55.68600 17.24600 44.17800
C  57.69000 18.48300 44.15900
N  56.18500 24.05500 44.96500
C  56.98900 22.98300 45.10600
C  58.42700 23.47300 45.34100
C  58.21200 24.95200 45.67700
C  56.73700 25.22200 45.36200
C  59.21800 22.58000 46.41000
C  59.12100 25.94200 44.86900
C  60.24100 26.53700 45.74600
N  53.90100 25.91500 45.02200
C  54.80500 26.85300 45.35600
C  54.22200 28.20100 45.34400
C  52.92400 27.92900 44.78700
C  52.85000 26.52400 44.51200
C  54.70700 29.46400 45.83700
C  51.68900 28.61900 44.38200
O  51.23500 29.77500 44.53500
C  50.84100 27.47700 43.69400
C  50.78200 27.73800 42.29700
O  51.76000 27.85300 41.57800
O  49.48300 27.96800 41.88100
C  49.31600 28.36800 40.48200
H  51.26700 20.47400 43.72300
H  57.53500 20.87300 44.92500
H  56.81900 27.24600 45.93100
H  49.17800 24.88100 43.50600
H  49.68300 22.14700 42.64500
H  49.64100 21.82800 45.43600
H  48.36900 21.59000 44.37000
H  48.57800 23.28300 44.94800
H  50.36500 23.70100 40.90100
H  50.31300 25.46200 41.16600
H  47.91600 25.38500 41.33000
H  47.97200 23.58900 41.50600
H  53.20400 17.52300 44.83800
H  52.36500 18.22100 43.34600
H  51.88400 18.72500 44.86400
H  58.14300 19.16000 43.43600
H  57.88800 17.46400 43.82700
H  58.18600 18.44000 45.12900
H  59.02300 23.45200 44.42800
H  58.42300 25.04600 46.74300
H  59.38800 23.17500 47.30700
H  60.19600 22.30700 46.01300
H  58.66700 21.71100 46.77000
H  58.53800 26.78700 44.50300
H  59.56200 25.53200 43.96100
H  61.21100 26.48900 45.25200
H  60.20400 26.23400 46.79200
H  60.00900 27.60000 45.66900
H  54.12200 30.23900 45.34100
H  55.68200 29.69800 45.41000
H  54.53800 29.46800 46.91300
H  49.82600 27.42900 44.08900
H  48.69300 27.59000 40.03900
H  50.22300 28.44300 39.88300
H  48.81200 29.33400 40.48100

