158

Mg 41.24300 8.51800 29.38900
C  43.34000 9.36000 32.17600
C  39.18200 7.11500 31.60800
C  39.42200 7.61700 26.76800
C  43.89900 9.45900 27.19900
N  41.32500 8.20500 31.62600
C  42.16700 8.66800 32.52700
C  41.61100 8.51800 33.95500
C  40.56000 7.44000 33.77800
C  40.28900 7.57900 32.27100
C  41.00000 6.00500 34.06100
C  41.25000 9.90400 34.65700
C  40.79200 9.87100 36.18800
H  41.76700 10.40300 37.25300
N  39.54700 7.55100 29.25800
C  38.81700 7.01500 30.27700
C  37.53000 6.48900 29.73600
C  37.47300 6.81600 28.37700
C  38.84300 7.34700 28.06900
C  36.41800 5.78100 30.59200
C  36.34800 6.66000 27.30000
O  36.64100 6.79500 26.03700
C  34.92800 6.28400 27.64200
N  41.76400 8.27200 27.22300
C  40.72500 7.97700 26.41400
C  41.14300 8.33900 24.96200
C  42.57800 9.00800 25.10600
C  42.73600 8.92100 26.63700
C  41.21700 7.09500 24.14500
C  42.55500 10.50600 24.66900
C  43.70000 10.71500 23.57800
N  43.20600 9.18800 29.56500
C  44.16800 9.56200 28.60500
C  45.24500 10.19100 29.33700
C  44.96200 10.15100 30.65400
C  43.74300 9.50800 30.76600
C  46.49100 10.73300 28.65300
C  45.45900 10.45200 31.96600
O  46.49600 10.97900 32.26200
C  44.42600 9.99200 32.99800
C  45.05500 9.07800 33.96900
O  44.89600 7.88500 33.95600
O  45.78900 9.73800 34.90800
C  46.40900 8.84700 35.89900
H  38.46100 6.72600 32.33000
H  38.71700 7.56300 25.93600
H  44.62800 9.81900 26.46900
H  42.41600 8.10800 34.56600
H  39.66500 7.53800 34.39200
H  42.07600 5.85800 33.97400
H  40.48000 5.25800 33.46000
H  40.71500 5.69200 35.06500
H  40.49100 10.37000 34.02800
H  42.13700 10.53600 34.67300
H  40.47800 8.87600 36.50200
H  39.90600 10.49700 36.29700
H  36.69100 5.50400 31.61100
H  36.09100 4.88400 30.06700
H  35.53800 6.42300 30.63200
H  34.13500 6.60100 26.96400
H  34.73100 6.65000 28.65000
H  35.00600 5.19900 27.70200
H  40.36100 8.92600 24.48000
H  43.34900 8.36800 24.67700
H  41.15500 6.15300 24.69000
H  42.12000 7.06100 23.53500
H  40.43600 7.03500 23.38600
H  42.63600 11.03600 25.61800
H  41.58300 10.92500 24.40800
H  44.25300 9.80000 23.36400
H  44.37700 11.49000 23.93600
H  43.18500 11.01700 22.66600
H  46.19600 11.59600 28.05500
H  46.94000 10.00100 27.98200
H  47.17100 11.20100 29.36400
H  44.15500 10.96500 33.40800
H  46.92700 7.99900 35.45000
H  45.57100 8.59200 36.54700
H  47.17100 9.36800 36.47900
Mg 36.49100 49.59800 25.93600
C  36.56900 47.57800 28.78000
C  35.42600 52.16800 27.93400
C  36.11500 51.48300 23.15200
C  37.26800 46.84000 23.98900
N  35.90800 49.77200 28.21900
C  36.21300 48.86300 29.17200
C  36.08700 49.50600 30.59000
C  35.49600 50.98300 30.27900
C  35.58500 51.00200 28.70700
C  33.95100 51.17100 30.64200
C  37.42400 49.38100 31.32300
C  37.36600 49.15600 32.83600
H  36.15400 49.66300 33.58200
N  35.92700 51.53100 25.63000
C  35.64400 52.49700 26.57900
C  35.57600 53.79900 25.91800
C  35.67600 53.58800 24.52100
C  36.00000 52.18900 24.36400
C  35.41800 55.00000 26.79300
C  35.57400 54.60900 23.41500
O  35.88500 54.35500 22.24000
C  35.13000 55.98100 23.86400
N  36.53000 49.19200 23.81800
C  36.33900 50.09200 22.88300
C  36.68600 49.58800 21.42600
C  37.17400 48.13700 21.74500
C  36.98000 48.01500 23.28900
C  35.60900 49.67500 20.32900
C  38.62800 47.90500 21.32700
C  38.60700 46.90300 20.21300
N  36.71200 47.59400 26.27100
C  37.06400 46.61000 25.34700
C  37.14600 45.35400 26.05200
C  36.98700 45.68200 27.40400
C  36.77300 47.10400 27.48400
C  37.53800 44.10900 25.39800
C  36.99200 45.14300 28.73800
O  37.14500 43.99400 29.13800
C  36.74300 46.35200 29.70500
C  35.39800 46.09500 30.32300
O  34.36200 46.07800 29.68900
O  35.54100 45.69000 31.66300
C  34.34400 45.45600 32.34300
H  35.12500 53.05600 28.49300
H  36.16200 52.11000 22.25900
H  37.57500 46.05200 23.29800
H  35.28300 48.87600 30.97100
H  36.10900 51.79800 30.66400
H  33.90100 50.47200 31.47700
H  33.34000 50.75000 29.84400
H  33.39500 52.06600 30.92300
H  37.84600 50.38600 31.28300
H  38.16000 48.69900 30.89900
H  38.29400 49.57500 33.22300
H  37.55400 48.10900 33.07500
H  34.48100 55.55700 26.77300
H  36.17900 55.65700 26.37300
H  35.78800 54.87400 27.81100
H  34.81700 56.69200 23.09900
H  35.99100 56.47100 24.31900
H  34.23500 55.83900 24.47100
H  37.55300 50.16600 21.10500
H  36.52900 47.42700 21.22700
H  35.53200 48.72500 19.79900
H  35.74800 50.46900 19.59500
H  34.67400 49.96100 20.81100
H  39.27700 47.48500 22.09600
H  39.13000 48.82000 21.01200
H  37.96400 47.13200 19.36400
H  38.49100 45.91300 20.65400
H  39.61700 46.83000 19.81100
H  37.45600 43.20400 25.99900
H  38.50200 44.22000 24.90200
H  36.87000 43.91400 24.55900
H  37.58400 46.47800 30.38700
H  34.00000 44.44300 32.13400
H  33.55200 46.18800 32.18900
H  34.46500 45.46900 33.42600

