158

Mg 24.15800 -5.34500 45.63200
C  26.34400 -3.07400 44.31100
C  21.66000 -4.25900 43.48700
C  22.13900 -7.86000 46.68500
C  26.72300 -6.82700 47.44100
N  24.10100 -3.83000 44.13800
C  25.10900 -3.00900 43.74600
C  24.75200 -2.25800 42.40800
C  23.11500 -2.41000 42.36200
C  22.92100 -3.57600 43.37200
C  22.28800 -1.15000 42.71200
C  25.51600 -2.85900 41.21100
C  26.26700 -1.89200 40.24700
H  25.71000 -1.66300 38.84000
N  22.12500 -5.94600 45.24100
C  21.28500 -5.36000 44.30600
C  19.99000 -6.02800 44.33500
C  20.04500 -7.01400 45.39100
C  21.48500 -6.94300 45.84400
C  18.88400 -5.71900 43.37000
C  18.91800 -7.93600 45.71400
O  17.84100 -7.73000 45.18800
C  19.14000 -9.07000 46.68700
N  24.54200 -7.16900 46.71000
C  23.43300 -7.93400 47.11800
C  23.92600 -9.21200 47.91500
C  25.49100 -8.84900 48.15500
C  25.58100 -7.52100 47.42800
C  23.10100 -9.57700 49.19400
C  26.57100 -9.90300 47.63900
C  27.72800 -10.21700 48.54700
N  26.13100 -4.98000 45.96500
C  27.01000 -5.61100 46.79700
C  28.31700 -4.89900 46.74900
C  28.09700 -3.93500 45.73800
C  26.71000 -3.99300 45.33600
C  29.51800 -5.10800 47.63500
C  28.73500 -2.89700 44.90900
O  29.91600 -2.59200 44.78900
C  27.69300 -2.24400 44.01900
C  27.40500 -0.84300 44.51600
O  26.91500 -0.65500 45.59100
O  28.04800 0.07800 43.77700
C  28.42900 1.33800 44.43700
H  20.97000 -3.79100 42.78200
H  21.53700 -8.60400 47.21000
H  27.47000 -7.19200 48.14900
H  25.00600 -1.22500 42.64600
H  22.73500 -2.72900 41.39200
H  22.02600 -1.08000 43.76800
H  21.36200 -1.17300 42.13800
H  22.88100 -0.27600 42.44300
H  24.69600 -3.30200 40.64700
H  26.23500 -3.61300 41.53000
H  27.28000 -2.28600 40.16600
H  26.48200 -0.94700 40.74500
H  18.34900 -6.63400 43.11400
H  19.22800 -5.25500 42.44600
H  18.18300 -5.07000 43.89400
H  18.19700 -9.59100 46.85200
H  19.53600 -8.67600 47.62300
H  19.87400 -9.77600 46.29700
H  23.95600 -10.10300 47.28900
H  25.60300 -8.70500 49.22900
H  23.74800 -9.43400 50.05900
H  22.60800 -10.54900 49.18100
H  22.32500 -8.81600 49.28400
H  26.98300 -9.69200 46.65300
H  26.08000 -10.82900 47.34000
H  27.33200 -10.34400 49.55400
H  28.55500 -9.51500 48.44200
H  28.00900 -11.20300 48.17700
H  29.67200 -6.12300 47.99900
H  29.33100 -4.59700 48.58000
H  30.49500 -4.85700 47.22100
H  27.93400 -2.33200 42.95900
H  28.86600 1.25500 45.43200
H  27.63700 2.08600 44.39100
H  29.17900 1.81500 43.80700
Mg 16.85100 52.74000 26.97100
C  18.98200 51.25000 29.32400
C  14.61300 53.38000 29.65500
C  14.83600 54.24200 24.89200
C  18.98300 51.85200 24.50400
N  16.79300 52.32900 29.22800
C  17.82200 51.76700 29.94500
C  17.57600 51.91800 31.46700
C  16.01700 52.12100 31.43000
C  15.73200 52.63900 30.03800
C  15.11200 50.87900 31.74100
C  18.30100 53.07800 32.08800
C  18.78700 52.81600 33.51200
H  17.74300 52.24900 34.48300
N  15.01900 53.74400 27.23700
C  14.30900 53.93100 28.44300
C  13.19900 54.81400 28.16200
C  13.30200 55.23100 26.79300
C  14.39500 54.37000 26.24000
C  12.22300 55.20600 29.24000
C  12.60400 56.40900 26.00500
O  12.69900 56.66800 24.79400
C  11.59500 57.20000 26.67900
N  16.81600 52.81700 24.90700
C  15.88500 53.52800 24.27500
C  16.03600 53.27500 22.68200
C  17.46900 52.70400 22.58800
C  17.76300 52.34600 24.06900
C  14.86000 52.39900 22.05700
C  18.45500 53.80300 22.04000
C  18.78800 54.99600 22.91500
N  18.68100 51.61800 26.87400
C  19.42600 51.34000 25.78800
C  20.61700 50.66100 26.16600
C  20.52400 50.61500 27.60500
C  19.31700 51.21200 27.95500
C  21.73900 50.07400 25.25700
C  21.12000 50.15100 28.83500
O  22.16700 49.56000 29.09600
C  20.18200 50.64700 29.98300
C  19.84100 49.50400 30.85300
O  19.09900 48.60000 30.62200
O  20.56200 49.63500 32.02700
C  20.48700 48.48800 33.01800
H  13.95600 53.48600 30.52000
H  14.08900 54.69100 24.23400
H  19.56700 51.59200 23.61900
H  17.72700 50.96300 31.97000
H  15.68600 52.91800 32.09600
H  14.55200 50.87200 32.67700
H  15.61000 49.91100 31.79600
H  14.40100 50.69400 30.93600
H  17.59700 53.91000 32.10200
H  19.09700 53.30900 31.38000
H  19.17900 53.67800 34.05100
H  19.57800 52.08400 33.34400
H  11.31100 54.98100 28.68700
H  12.23600 56.25300 29.54300
H  12.30800 54.47900 30.04700
H  10.92400 57.77000 26.03600
H  12.17900 57.84700 27.33400
H  10.99700 56.54800 27.31500
H  16.12200 54.26200 22.22600
H  17.47200 51.78800 21.99800
H  14.42500 52.83500 21.15800
H  14.15700 52.21800 22.87000
H  15.22500 51.43100 21.71400
H  17.97800 54.25200 21.16800
H  19.35900 53.38700 21.59500
H  19.34400 55.69400 22.28900
H  19.47000 54.64700 23.69000
H  17.95600 55.49600 23.41200
H  22.63700 49.82400 25.82300
H  22.03000 50.92200 24.63700
H  21.45200 49.29700 24.54900
H  20.78100 51.29100 30.62600
H  21.34500 48.59300 33.68100
H  20.46000 47.53400 32.49200
H  19.57800 48.49200 33.62000

