158

Mg -0.37200 33.61200 27.06500
C  -2.44000 31.95800 29.44700
C  0.95000 35.43100 29.65400
C  0.72700 35.84400 24.84600
C  -2.29100 32.04800 24.59400
N  -0.75200 33.73600 29.24900
C  -1.50100 32.85000 30.03400
C  -1.37600 33.14500 31.52400
C  -0.32300 34.34600 31.57900
C  -0.04200 34.54100 30.03800
C  -0.65100 35.72400 32.35600
C  -0.93800 31.92800 32.37000
C  -1.81500 31.54800 33.55700
H  -1.15100 31.88700 34.93500
N  0.89200 35.32000 27.20700
C  1.39200 35.82500 28.40000
C  2.22200 37.02700 27.92700
C  2.22900 37.01100 26.48800
C  1.23400 36.04900 26.11300
C  2.67400 38.07600 28.88500
C  3.03700 37.88000 25.58300
O  2.88900 37.90500 24.35000
C  4.11700 38.71700 26.07200
N  -0.58500 33.89700 25.05200
C  -0.13700 34.92600 24.40900
C  -0.52000 34.89400 22.92900
C  -1.20800 33.50700 22.80000
C  -1.31900 33.02200 24.23700
C  -1.31900 36.05300 22.35800
C  -0.58200 32.49000 21.82900
C  0.39700 31.40200 22.47100
N  -2.00000 32.16700 26.96300
C  -2.62800 31.61900 25.90100
C  -3.53500 30.58400 26.34400
C  -3.51400 30.68800 27.71000
C  -2.55500 31.67500 28.06400
C  -4.36000 29.70100 25.33500
C  -4.20900 30.21800 28.87300
O  -5.15700 29.49100 29.07600
C  -3.38000 30.91000 30.06600
C  -4.43500 31.63600 30.80600
O  -4.88800 32.73000 30.40400
O  -4.84600 30.91200 31.86300
C  -5.87100 31.59200 32.67400
H  1.44800 35.87500 30.51800
H  1.03900 36.59300 24.11500
H  -2.85100 31.53600 23.80900
H  -2.35000 33.48300 31.87600
H  0.62800 34.05600 32.02700
H  0.08700 35.90200 33.13700
H  -1.52100 35.51700 32.97900
H  -0.67400 36.66700 31.80900
H  0.09300 32.19400 32.60200
H  -0.88700 31.01900 31.76900
H  -1.82000 30.46800 33.41200
H  -2.83100 31.93100 33.47100
H  3.74500 38.03700 29.08600
H  2.14200 37.87000 29.81300
H  2.47100 39.07800 28.50900
H  4.75100 39.26000 25.37200
H  4.70900 37.95100 26.57300
H  3.74900 39.43900 26.80200
H  0.45900 34.70400 22.49000
H  -2.18900 33.66700 22.35200
H  -0.76500 36.56400 21.57100
H  -1.46600 36.83400 23.10400
H  -2.28300 35.66700 22.02500
H  -0.05700 33.03000 21.04100
H  -1.39600 32.07800 21.23400
H  -0.17900 30.49300 22.64400
H  0.77700 31.75000 23.43100
H  1.17300 31.11000 21.76300
H  -3.68500 29.45200 24.51600
H  -5.13600 30.32200 24.88700
H  -4.79600 28.85500 25.86700
H  -2.89900 30.33200 30.85500
H  -6.55700 32.25400 32.14500
H  -5.41400 32.17200 33.47600
H  -6.56200 30.86800 33.10500
Mg -4.44400 24.74000 25.92100
C  -2.96300 26.12100 28.84000
C  -6.40800 22.85300 28.01000
C  -5.26400 22.89700 23.23500
C  -2.05800 26.42900 23.99600
N  -4.55200 24.48100 28.15800
C  -3.92100 25.23700 29.12300
C  -4.55200 25.01500 30.49300
C  -5.35900 23.73800 30.22200
C  -5.49200 23.63600 28.69500
C  -4.81800 22.38500 30.77700
C  -5.38400 26.33500 30.93600
C  -5.54300 26.66700 32.42900
H  -5.10400 25.58900 33.39400
N  -5.71200 23.16300 25.65600
C  -6.50000 22.63000 26.63100
C  -7.36400 21.63700 25.93600
C  -6.91600 21.49800 24.63100
C  -5.94100 22.58900 24.42500
C  -8.58000 21.00300 26.64700
C  -7.32600 20.53900 23.55400
O  -6.80800 20.42200 22.45400
C  -8.30900 19.47600 23.92000
N  -3.63500 24.50500 23.93000
C  -4.27100 23.85600 22.98300
C  -3.43400 23.94000 21.67600
C  -2.59400 25.20500 21.89100
C  -2.77000 25.42000 23.38700
C  -2.67100 22.65300 21.29500
C  -2.94400 26.47900 20.98800
C  -1.68600 27.23300 20.43600
N  -2.87700 26.04200 26.27400
C  -1.97100 26.70000 25.41300
C  -1.14700 27.63400 26.16400
C  -1.50300 27.45200 27.53300
C  -2.52200 26.44300 27.53600
C  -0.18200 28.63200 25.58400
C  -1.18500 27.82400 28.84800
O  -0.27800 28.49100 29.35200
C  -2.14500 27.03000 29.77100
C  -1.44900 26.40900 30.83200
O  -0.63000 25.50600 30.67500
O  -1.73700 26.97200 32.05300
C  -1.10500 26.25800 33.22500
H  -7.13300 22.32700 28.63500
H  -5.40400 22.29300 22.33600
H  -1.35400 26.92400 23.32500
H  -3.77400 24.77000 31.21600
H  -6.32800 24.01200 30.64000
H  -3.99300 22.71700 31.40700
H  -4.35900 21.77400 30.00000
H  -5.46900 21.79400 31.42100
H  -6.35700 26.23500 30.45500
H  -5.00600 27.28500 30.55600
H  -6.53400 27.05300 32.66800
H  -4.97700 27.57100 32.65000
H  -9.35700 20.94300 25.88400
H  -8.79700 21.63900 27.50500
H  -8.26700 20.02000 26.99800
H  -8.14700 18.93500 24.85200
H  -8.30700 18.73500 23.12100
H  -9.26100 19.99200 24.04900
H  -4.09600 24.09500 20.82400
H  -1.56700 24.84900 21.81400
H  -1.59400 22.78000 21.18200
H  -2.96600 22.20600 20.34600
H  -2.67400 21.93000 22.11100
H  -3.48500 27.16500 21.64000
H  -3.58000 26.12700 20.17600
H  -1.68400 28.09000 21.11000
H  -1.87400 27.65700 19.44900
H  -0.82500 26.58600 20.60300
H  0.58200 28.81800 26.33900
H  -0.53200 29.61300 25.26100
H  0.29400 28.23700 24.68700
H  -2.81800 27.79900 30.15200
H  -1.47100 26.63800 34.17900
H  -0.02400 26.36700 33.14300
H  -1.31900 25.19300 33.13100

