158

Mg 49.80600 46.24000 42.51900
C  46.56100 46.54200 41.11900
C  49.94700 43.04600 41.20900
C  53.12200 46.22200 42.79600
C  49.84900 49.71700 42.98400
N  48.37300 45.02700 41.29300
C  47.14200 45.32900 40.80000
C  46.47700 44.17000 39.98000
C  47.53900 43.05400 40.13100
C  48.69400 43.71200 41.00000
C  47.04600 41.75200 40.72400
C  46.10700 44.65400 38.51500
C  44.71200 44.52600 38.04000
H  44.46000 43.50100 36.90400
N  51.26200 44.74600 42.27600
C  51.10600 43.54600 41.73100
C  52.33200 42.75600 41.88200
C  53.37800 43.63700 42.26100
C  52.63400 44.92600 42.47200
C  52.46400 41.25600 41.61600
C  54.84600 43.30100 42.46100
O  55.34500 42.21400 42.12800
C  55.77100 44.42200 43.08200
N  51.26400 47.69300 42.79900
C  52.54800 47.42900 42.98200
C  53.41900 48.70500 43.22400
C  52.36300 49.81500 43.08500
C  51.04900 48.99900 43.02200
C  54.20200 48.79100 44.58500
C  52.43700 50.65000 41.75700
C  52.48000 52.19000 41.93600
N  48.44500 47.85400 42.35400
C  48.57800 49.19800 42.65800
C  47.29200 49.81200 42.49100
C  46.52400 48.79700 41.90900
C  47.26000 47.67200 41.74100
C  46.98600 51.28400 42.70200
C  45.13400 48.56900 41.40400
O  44.16400 49.26000 41.44400
C  45.16600 47.09700 40.78800
C  44.21700 46.30600 41.64200
O  44.25100 46.10000 42.93000
O  43.12200 45.81200 40.87000
C  42.00400 45.18500 41.67500
H  50.04800 42.02000 40.85000
H  54.19100 46.35200 42.97900
H  49.93200 50.80500 43.00400
H  45.62300 43.86000 40.58000
H  47.95900 42.74800 39.17200
H  47.11700 40.96700 39.97200
H  46.00500 41.89800 41.01200
H  47.63400 41.64100 41.63500
H  46.73800 44.05600 37.85800
H  46.44800 45.68000 38.37800
H  44.15200 45.44200 37.85100
H  44.20100 44.05100 38.87800
H  51.50500 40.74200 41.68600
H  53.05100 40.83400 42.43200
H  52.90800 41.05000 40.64100
H  55.90000 45.19100 42.32000
H  56.74600 43.95800 43.23000
H  55.44900 44.70500 44.08400
H  54.20400 48.71400 42.46900
H  52.29100 50.41600 43.99200
H  54.77200 47.87700 44.75200
H  53.54700 48.99900 45.43100
H  54.90500 49.62300 44.54000
H  51.49500 50.47500 41.23900
H  53.16900 50.28200 41.03700
H  53.43300 52.51700 41.51900
H  52.41600 52.46300 42.98900
H  51.66600 52.56100 41.31300
H  47.42300 51.84500 41.87500
H  47.48100 51.71100 43.57500
H  45.90900 51.44800 42.72300
H  44.90000 47.12300 39.73200
H  41.25300 45.12800 40.88700
H  41.57100 45.79700 42.46700
H  42.26900 44.24900 42.16700
Mg 9.67800 47.66200 26.09200
C  7.76300 48.06700 28.91400
C  12.50300 48.42500 27.79900
C  11.45500 47.21400 23.20800
C  6.72600 47.52100 24.23500
N  10.13800 48.22500 28.13700
C  9.18400 48.25300 29.17300
C  9.90700 48.30000 30.50100
C  11.27200 48.78100 30.03800
C  11.35100 48.47900 28.57000
C  11.69100 50.24900 30.24600
C  9.83300 47.01700 31.38100
C  9.67500 47.35200 32.89400
H  9.46400 46.22500 33.94800
N  11.69100 47.70600 25.58800
C  12.71600 48.06700 26.48000
C  13.95600 48.15500 25.79300
C  13.64600 47.87300 24.43600
C  12.23200 47.53200 24.37900
C  15.37500 48.52000 26.42400
C  14.60600 47.84200 23.17700
O  14.16600 47.73800 22.05100
C  16.14500 47.84500 23.44800
N  9.19700 47.34000 24.08300
C  10.09800 47.15600 23.13100
C  9.41400 46.72700 21.81000
C  7.88500 46.75600 22.17200
C  7.92400 47.21300 23.60300
C  9.83000 47.42000 20.45800
C  7.27700 45.35900 22.07100
C  7.49700 44.36200 23.20900
N  7.61300 48.00200 26.39900
C  6.52900 47.92300 25.55300
C  5.26000 47.98800 26.30100
C  5.70000 47.98300 27.63700
C  7.12900 48.01100 27.64100
C  3.90200 47.91900 25.69600
C  5.27500 47.93000 28.99800
O  4.12700 47.83900 29.41900
C  6.54200 47.95800 29.91300
C  6.49100 46.66500 30.68200
O  6.90200 45.55900 30.37600
O  5.86300 46.85900 31.92200
C  5.80800 45.68200 32.82200
H  13.45100 48.55500 28.32400
H  12.08200 46.94700 22.35500
H  5.88800 47.32000 23.56400
H  9.33800 49.07000 31.02300
H  11.96300 48.18300 30.63300
H  10.79200 50.80800 30.50700
H  12.24900 50.77700 29.47200
H  12.37300 50.36500 31.08700
H  10.69600 46.35800 31.27700
H  9.02100 46.42600 30.95800
H  8.73700 47.90600 32.89800
H  10.46000 48.02600 33.23800
H  15.46900 48.46900 27.50900
H  15.78000 49.47100 26.07900
H  16.07600 47.74500 26.11500
H  16.30800 46.97700 24.08600
H  16.47200 48.74900 23.96200
H  16.83200 47.83600 22.60100
H  9.74000 45.68900 21.73900
H  7.24200 47.43100 21.60700
H  10.17900 48.38900 20.81600
H  9.09200 47.68900 19.70200
H  10.76000 46.95300 20.13200
H  7.72600 44.90000 21.19000
H  6.20000 45.34200 21.90400
H  6.98000 43.41400 23.06400
H  6.99300 44.74100 24.09900
H  8.48900 44.11800 23.58900
H  3.76600 46.84800 25.84500
H  3.79400 48.05400 24.62000
H  3.19100 48.50100 26.28300
H  6.46400 48.73900 30.66800
H  6.73100 45.10400 32.77700
H  4.91600 45.07900 32.65400
H  5.68000 46.00500 33.85500

