158

Mg 16.42200 52.21500 25.67400
C  18.28600 51.00600 28.21500
C  14.09600 53.40400 27.96700
C  14.52400 53.23300 23.17700
C  18.77900 50.83900 23.43600
N  16.26600 52.29400 27.88500
C  17.16100 51.77800 28.76800
C  16.71300 51.84100 30.23700
C  15.25700 52.66800 30.05700
C  15.21000 52.84000 28.53100
C  14.01000 52.02700 30.68900
C  17.72300 52.54400 31.17800
C  17.93200 52.00000 32.57900
H  16.85700 51.13500 33.24300
N  14.55500 53.23100 25.61000
C  13.70600 53.56300 26.64300
C  12.62000 54.32400 26.08600
C  12.75200 54.30000 24.65200
C  14.02100 53.51000 24.40700
C  11.56200 54.89300 27.02700
C  11.85900 54.96100 23.55100
O  12.01800 54.93300 22.32500
C  10.61500 55.65400 23.88000
N  16.58100 51.86600 23.50600
C  15.72400 52.61400 22.73600
C  16.18500 52.64200 21.27200
C  17.54900 51.85600 21.39800
C  17.69500 51.51700 22.83000
C  15.17700 51.93400 20.28900
C  18.76700 52.66400 20.85100
C  19.90600 51.89900 20.18100
N  18.07900 51.06200 25.74800
C  18.98800 50.59400 24.79500
C  20.09000 49.98000 25.38500
C  19.77300 50.03500 26.76600
C  18.57300 50.72200 26.89900
C  21.20600 49.26900 24.70100
C  20.24900 49.58000 28.08800
O  21.26500 49.01400 28.49600
C  19.26100 50.13500 28.99700
C  18.66300 48.98800 29.71400
O  17.66100 48.39200 29.32800
O  19.20000 48.76000 30.95700
C  18.50100 47.63600 31.71300
H  13.26800 53.68900 28.61900
H  13.95500 53.68300 22.36100
H  19.62600 50.74400 22.75300
H  16.47600 50.86200 30.65200
H  15.44500 53.61900 30.55700
H  14.28300 51.13900 31.25900
H  13.32900 51.55200 29.98400
H  13.37200 52.73500 31.21900
H  17.35200 53.55900 31.31900
H  18.68900 52.62000 30.67900
H  18.10200 52.85200 33.23900
H  18.85600 51.42300 32.61100
H  11.37600 55.84600 26.53200
H  11.98100 55.01200 28.02600
H  10.66300 54.27900 27.07600
H  10.13400 55.84400 22.92000
H  11.02800 56.51700 24.40300
H  9.93900 55.02000 24.45200
H  16.37000 53.65400 20.91000
H  17.56300 50.96600 20.76800
H  14.76300 52.64000 19.57000
H  14.34800 51.55400 20.88600
H  15.60400 51.11400 19.71100
H  19.23900 53.33000 21.57300
H  18.41700 53.22100 19.98200
H  20.81600 51.83700 20.77700
H  20.04500 52.24100 19.15500
H  19.53700 50.87500 20.22500
H  22.17200 49.39200 25.19200
H  21.22500 49.66500 23.68500
H  21.05800 48.19000 24.73400
H  19.70300 50.72600 29.80000
H  18.77500 47.89700 32.73500
H  18.91700 46.68200 31.39000
H  17.42400 47.74900 31.59000
Mg -11.59000 16.05600 42.04000
C  -8.27500 16.52200 42.51800
C  -12.06800 19.44500 41.55900
C  -14.81600 15.46200 41.19800
C  -11.06000 12.54600 42.31300
N  -10.33300 17.76800 41.93200
C  -8.98800 17.72300 42.11700
C  -8.33900 19.11900 41.93000
C  -9.60600 20.06800 42.15600
C  -10.77200 19.03800 41.79400
C  -9.80700 20.52300 43.61000
C  -7.71300 19.32600 40.52900
C  -6.34300 19.91000 40.49700
H  -5.27200 19.32000 39.52800
N  -13.21600 17.28900 41.26100
C  -13.23200 18.66100 41.19300
C  -14.53900 19.11900 40.66800
C  -15.30400 17.92300 40.44100
C  -14.47100 16.79200 40.92800
C  -14.91700 20.55400 40.38000
C  -16.62800 17.89700 39.77600
O  -17.28600 18.88900 39.56700
C  -17.33500 16.67700 39.38600
N  -12.65200 14.18800 41.56900
C  -14.02200 14.32600 41.49900
C  -14.72500 13.06600 42.03100
C  -13.54700 11.99500 42.06800
C  -12.34500 12.92300 41.96200
C  -15.38500 13.34600 43.39200
C  -13.52700 11.04800 40.85500
C  -13.41600 9.61200 41.31100
N  -10.08100 14.74600 42.47000
C  -9.96600 13.36400 42.54500
C  -8.62700 13.07500 42.90900
C  -7.94200 14.24500 42.80400
C  -8.82900 15.25600 42.56100
C  -8.18400 11.63000 43.03400
C  -6.61100 14.80600 42.78100
O  -5.55700 14.23100 42.87200
C  -6.76400 16.29300 42.70100
C  -6.18500 16.91200 43.86000
O  -6.40500 16.56800 44.98900
O  -5.33000 17.91300 43.42400
C  -4.66400 18.60200 44.51000
H  -12.28200 20.51400 41.49900
H  -15.88600 15.24100 41.19700
H  -10.85200 11.47800 42.40000
H  -7.56500 19.25100 42.68600
H  -9.74400 20.92100 41.49200
H  -8.86600 20.41100 44.14800
H  -10.57000 19.86500 44.02700
H  -10.03200 21.57100 43.80400
H  -8.30000 20.01400 39.92000
H  -7.79600 18.40500 39.95300
H  -5.92600 19.88600 41.50400
H  -6.50400 20.93500 40.16100
H  -15.92200 20.75400 40.75100
H  -14.98900 20.79500 39.32000
H  -14.32500 21.32500 40.87400
H  -17.91900 16.77900 38.47100
H  -18.12300 16.51400 40.12200
H  -16.68300 15.80400 39.36500
H  -15.50000 12.74400 41.33500
H  -13.54200 11.44400 43.00800
H  -14.77400 12.79300 44.10600
H  -16.34800 12.83600 43.36600
H  -15.41100 14.38400 43.72200
H  -12.75400 11.30200 40.13100
H  -14.44500 11.27700 40.31300
H  -14.32300 9.09100 41.00500
H  -13.14300 9.40600 42.34600
H  -12.65100 9.10600 40.72300
H  -8.99900 10.99200 43.37700
H  -7.39300 11.61800 43.78500
H  -7.96700 11.13600 42.08700
H  -6.39200 16.71700 41.76800
H  -5.41800 18.97400 45.20400
H  -4.10000 19.43100 44.08200
H  -3.88000 17.99500 44.96300

