158

Mg 26.23300 1.63000 29.68600
C  28.23900 1.17200 32.58200
C  23.51400 2.34500 31.69100
C  24.27700 1.74900 26.94700
C  28.95100 0.48900 27.81200
N  26.00000 1.84700 31.90100
C  26.93600 1.65300 32.86700
C  26.29600 1.90900 34.23000
C  24.77100 2.18300 33.84900
C  24.76400 2.07700 32.38300
C  23.72700 1.28300 34.54700
C  26.88000 2.96800 35.20000
C  26.09400 3.21700 36.50700
H  27.02200 3.34300 37.81400
N  24.18400 1.80000 29.34400
C  23.26900 2.27000 30.32300
C  21.93500 2.40300 29.71200
C  22.13000 2.05200 28.33500
C  23.58800 1.85900 28.16200
C  20.76700 2.74200 30.61400
C  21.14800 1.90300 27.20800
O  21.49100 1.58000 26.07700
C  19.74200 2.19700 27.43000
N  26.60200 1.29700 27.57500
C  25.62200 1.46000 26.67500
C  26.04700 0.90800 25.34500
C  27.55600 0.57000 25.55900
C  27.74600 0.77100 27.06900
C  25.08800 -0.16700 24.68900
C  28.62200 1.36200 24.69900
C  29.18500 0.59500 23.57400
N  28.17100 1.03500 30.03300
C  29.18500 0.69400 29.17600
C  30.41000 0.41700 29.92200
C  30.08700 0.63600 31.27200
C  28.67300 0.95300 31.30200
C  31.81600 0.02300 29.31600
C  30.58900 0.71200 32.60600
O  31.78100 0.57100 33.01100
C  29.43100 1.03300 33.49400
C  29.31600 -0.22800 34.39300
O  28.56000 -1.22300 34.13200
O  30.14400 -0.15800 35.43100
C  30.07200 -1.21200 36.43800
H  22.68100 2.68000 32.31200
H  23.86800 1.86900 25.94100
H  29.76400 -0.01400 27.28400
H  26.24400 0.94800 34.74200
H  24.66600 3.18600 34.26100
H  24.14000 1.12800 35.54400
H  23.63500 0.30100 34.08200
H  22.80900 1.80600 34.81600
H  27.12000 3.80000 34.53900
H  27.84700 2.59500 35.53900
H  25.32200 2.49500 36.77500
H  25.58500 4.17100 36.36900
H  20.37400 3.61100 30.08500
H  20.81900 3.02500 31.66600
H  20.03200 1.97000 30.38900
H  19.20500 1.91700 26.52400
H  19.57800 3.26400 27.57600
H  19.36700 1.61800 28.27500
H  26.03500 1.77700 24.68700
H  27.71500 -0.49400 25.38400
H  24.39900 0.36300 24.03100
H  24.61200 -0.73700 25.48700
H  25.72500 -0.90200 24.19700
H  29.28000 1.81700 25.43900
H  28.16900 2.14800 24.09500
H  30.23700 0.35100 23.72600
H  29.26800 1.13300 22.63000
H  28.72700 -0.37400 23.37700
H  32.33300 0.86500 28.85700
H  31.62200 -0.77700 28.60200
H  32.46300 -0.32200 30.12300
H  29.56700 1.87300 34.17500
H  30.20800 -2.16300 35.92300
H  29.17200 -1.07300 37.03700
H  30.96900 -1.06800 37.04000
Mg 41.52500 8.72900 29.92100
C  43.25700 10.07400 32.71500
C  39.04200 7.60600 32.11200
C  40.20200 6.94100 27.42700
C  44.40400 9.15600 28.04900
N  41.26000 8.70000 32.21500
C  42.04600 9.48700 33.11700
C  41.35700 9.48200 34.49100
C  40.14100 8.46600 34.32200
C  40.13900 8.20700 32.77100
C  40.27500 7.17900 35.06800
C  41.07800 10.94900 34.94900
C  40.71300 11.06100 36.46100
H  41.58900 11.93000 37.36500
N  39.80000 7.59400 29.76800
C  38.88100 7.33400 30.76600
C  37.68300 6.77100 30.06900
C  37.98200 6.71900 28.67700
C  39.38300 7.03800 28.57300
C  36.44700 6.23800 30.82000
C  37.02400 6.39300 27.50900
O  37.51700 6.17700 26.41800
C  35.47600 6.32100 27.66600
N  42.21400 8.04200 27.97900
C  41.49400 7.30200 27.10800
C  42.20500 6.94400 25.79100
C  43.49900 7.81300 26.03100
C  43.36900 8.42000 27.46100
C  42.53500 5.42500 25.71000
C  43.81100 8.86600 24.98800
C  42.69500 9.97400 24.75900
N  43.40100 9.59200 30.19000
C  44.49300 9.64800 29.35900
C  45.55900 10.39500 29.94600
C  45.14700 10.63400 31.28800
C  43.83900 10.04300 31.38500
C  46.82200 10.83800 29.17800
C  45.46400 11.19400 32.60000
O  46.50200 11.73300 32.99000
C  44.29800 10.84900 33.52200
C  44.80000 10.04500 34.71400
O  45.41700 8.98100 34.67500
O  44.59100 10.81800 35.85900
C  44.90600 10.13900 37.16300
H  38.14300 7.38400 32.69100
H  39.76700 6.51100 26.52300
H  45.27500 9.28900 27.40400
H  42.06600 8.96800 35.14000
H  39.31700 9.13100 34.58000
H  39.59400 7.24200 35.91700
H  41.25700 7.21000 35.54100
H  40.13800 6.31900 34.41300
H  40.13300 11.34100 34.57200
H  41.97400 11.56600 34.88800
H  40.69900 10.06800 36.91000
H  39.73000 11.52800 36.52800
H  36.65300 6.30000 31.88800
H  36.19800 5.25200 30.42900
H  35.56400 6.80700 30.52800
H  35.13600 7.33200 27.89000
H  35.22900 5.61000 28.45400
H  35.04500 5.92700 26.74600
H  41.69600 7.28600 24.89000
H  44.39800 7.19800 26.07800
H  41.75400 5.02800 26.35800
H  43.53800 5.23800 26.09400
H  42.20900 5.07600 24.73000
H  43.95200 8.29900 24.06800
H  44.66800 9.41700 25.37600
H  42.37300 9.75400 23.74100
H  43.20200 10.93600 24.83700
H  41.81100 9.86400 25.38700
H  46.52700 11.72300 28.61300
H  47.25900 10.06900 28.54100
H  47.74300 11.07500 29.71000
H  43.78000 11.75600 33.83400
H  44.49300 9.13000 37.19500
H  44.47800 10.51900 38.09100
H  45.98100 10.05400 37.32100

