158

Mg 8.89000 3.76100 26.57100
C  10.22300 2.08600 29.42900
C  6.98300 5.60700 28.63800
C  7.81400 5.37100 23.92700
C  10.45600 1.35000 24.56800
N  8.46100 3.63400 28.81700
C  9.30100 3.04700 29.70800
C  8.96700 3.51600 31.15400
C  7.79200 4.58900 30.88700
C  7.71500 4.61700 29.35300
C  6.46900 4.31700 31.72100
C  10.16400 4.14400 31.91500
C  9.82700 5.04300 33.10600
H  10.73000 4.97800 34.31400
N  7.53200 5.33100 26.36800
C  6.90400 6.05500 27.28900
C  6.13100 7.12800 26.58200
C  6.28600 6.99400 25.17300
C  7.25400 5.91400 25.08700
C  5.22500 8.03200 27.41400
C  5.70600 7.79100 23.95700
O  5.94500 7.45700 22.75900
C  4.66600 8.86600 24.26100
N  9.04300 3.26700 24.56000
C  8.47600 4.15200 23.66200
C  8.86300 3.79000 22.22700
C  9.78200 2.55100 22.41400
C  9.75100 2.35900 23.92100
C  7.67300 3.66000 21.27200
C  11.20900 2.82500 21.87700
C  11.74100 1.67400 20.97800
N  10.14000 2.07000 26.85500
C  10.72300 1.16000 25.90300
C  11.54800 0.22900 26.61100
C  11.40400 0.59000 27.98900
C  10.45600 1.56000 28.09800
C  12.46500 -0.74500 25.99500
C  11.83100 0.25000 29.31300
O  12.61500 -0.66200 29.66200
C  11.12900 1.28700 30.31900
C  10.50500 0.52800 31.45600
O  9.54700 -0.20800 31.38400
O  11.16900 0.90800 32.57000
C  10.52400 0.55300 33.86600
H  6.28600 6.14800 29.28200
H  7.67800 5.99500 23.04100
H  10.94500 0.66500 23.87200
H  8.58700 2.67400 31.73300
H  7.94100 5.65000 31.08700
H  5.54400 4.21500 31.15300
H  6.39400 5.13800 32.43400
H  6.61800 3.36500 32.23000
H  10.85000 4.64300 31.23000
H  10.72200 3.24400 32.17400
H  8.83800 4.80800 33.49900
H  9.77300 6.10300 32.85500
H  5.38400 7.99600 28.49200
H  4.22300 7.75000 27.09100
H  5.51200 9.03900 27.11000
H  4.15700 9.35400 23.42900
H  5.27400 9.63600 24.73700
H  3.90100 8.58600 24.98500
H  9.48400 4.59100 21.82700
H  9.32200 1.74700 21.84000
H  7.67200 4.14800 20.29700
H  6.88300 4.20600 21.78800
H  7.28000 2.64700 21.19400
H  11.85500 2.88400 22.75300
H  11.35100 3.78400 21.37900
H  12.56800 1.16300 21.47100
H  12.23600 2.13400 20.12300
H  11.02800 0.91300 20.66000
H  12.91500 -1.31500 26.80800
H  13.25500 -0.25400 25.42800
H  11.92800 -1.30600 25.23000
H  12.02500 1.83200 30.61500
H  9.95600 -0.37700 33.89900
H  9.89000 1.39100 34.15900
H  11.24300 0.54400 34.68500
Mg 54.59300 24.96900 45.44400
C  52.03200 26.84600 43.88700
C  53.37800 22.14900 43.91300
C  57.73500 23.53400 45.60900
C  55.99500 28.05600 46.38000
N  53.01900 24.59200 43.95100
C  52.04000 25.49300 43.50800
C  51.02900 24.71900 42.62500
C  51.21500 23.29300 43.09800
C  52.64300 23.33100 43.66400
C  50.13700 22.75000 44.17600
C  51.41700 24.94800 41.12500
C  50.32100 25.07600 40.01500
H  50.79800 25.80700 38.79500
N  55.34400 23.03900 45.15500
C  54.67600 21.99100 44.52800
C  55.38300 20.81500 44.59000
C  56.74600 21.21200 44.91900
C  56.65900 22.62700 45.27400
C  54.90500 19.51100 44.13700
C  57.97900 20.23300 44.68200
O  57.74800 19.03400 44.34000
C  59.43400 20.69800 44.89000
N  56.64100 25.74600 45.68200
C  57.74000 24.93500 45.73300
C  58.99000 25.79300 46.18200
C  58.34600 27.15600 46.69000
C  56.91500 27.03100 46.14300
C  59.89200 25.13400 47.34100
C  59.21800 28.35000 46.23900
C  59.41100 29.46900 47.32800
N  54.11400 27.00700 45.27500
C  54.71300 28.10800 45.86100
C  53.84900 29.24000 45.75000
C  52.73700 28.77500 45.06800
C  53.07900 27.49700 44.67200
C  54.14000 30.60200 46.27200
C  51.40300 29.18100 44.57800
O  50.77000 30.19300 44.79100
C  50.97100 27.92000 43.76300
C  50.57000 28.39200 42.42400
O  51.37500 28.65800 41.57200
O  49.18800 28.29600 42.23600
C  48.74500 28.46400 40.88900
H  52.88000 21.25100 43.54100
H  58.73900 23.10500 45.61800
H  56.37000 28.99000 46.80400
H  49.99900 25.04800 42.77000
H  51.19800 22.54200 42.30800
H  49.46500 22.02100 43.72300
H  49.44300 23.57700 44.32700
H  50.54800 22.36200 45.10800
H  51.93400 24.03800 40.82100
H  52.18100 25.72500 41.14200
H  49.37200 25.53200 40.29900
H  49.96200 24.11600 39.64200
H  55.11100 19.20600 43.11100
H  53.83000 19.34400 44.21400
H  55.41900 18.73500 44.70500
H  59.64100 20.97100 45.92500
H  59.47700 21.63400 44.33400
H  60.13700 20.09200 44.31900
H  59.61400 25.95600 45.30300
H  58.27400 27.18400 47.77700
H  59.16400 24.56500 47.91900
H  60.33800 25.92200 47.94800
H  60.72600 24.57000 46.92300
H  58.66600 28.79300 45.41100
H  60.23500 28.03300 46.00600
H  58.84100 30.39100 47.20700
H  60.44100 29.79300 47.18300
H  59.13800 29.12200 48.32400
H  54.39600 31.23500 45.42200
H  54.96700 30.72100 46.97200
H  53.21700 31.03100 46.66100
H  50.01900 27.67100 44.23300
H  47.76500 27.98900 40.86200
H  49.38200 27.84600 40.25500
H  48.72500 29.50900 40.58100

