158

Mg 47.65500 15.78400 28.35500
C  45.78900 15.36200 31.20300
C  49.72500 17.95500 30.11200
C  49.31400 16.48900 25.45400
C  45.20900 14.13000 26.54900
N  47.68400 16.59700 30.30300
C  46.94600 16.09700 31.31500
C  47.36600 16.76700 32.66000
C  48.42100 17.83600 32.29400
C  48.61600 17.45800 30.78500
C  47.99000 19.27900 32.62300
C  47.91300 15.75400 33.73000
C  47.40100 16.09500 35.14400
H  48.20700 15.73700 36.37600
N  49.37900 16.97500 27.89500
C  50.06700 17.76300 28.72100
C  51.26200 18.27700 28.03800
C  51.17000 17.94500 26.70600
C  49.93100 17.08500 26.64100
C  52.35400 19.07500 28.73500
C  52.03500 18.29000 25.55600
O  51.83100 17.90800 24.42700
C  53.24500 19.21400 25.81400
N  47.33100 15.34400 26.37200
C  48.17900 15.65400 25.32300
C  47.78700 15.00800 23.98000
C  46.45900 14.27600 24.28900
C  46.29800 14.64400 25.82700
C  47.56500 16.03800 22.76200
C  46.42500 12.78900 23.93100
C  45.83900 12.42100 22.58800
N  45.88400 14.80400 28.69600
C  44.96900 14.18700 27.90800
C  43.84600 13.75600 28.65200
C  44.17800 14.21800 29.93600
C  45.40200 14.83800 29.95300
C  42.67300 12.86700 28.41300
C  43.60300 14.29600 31.21100
O  42.57700 13.79600 31.65000
C  44.62400 15.04400 32.12200
C  43.90400 16.18700 32.63200
O  43.50800 17.12500 31.98000
O  43.64200 15.99200 34.00100
C  42.75200 16.89400 34.61200
H  50.35500 18.69500 30.61100
H  49.75900 16.80300 24.50800
H  44.41000 13.75400 25.90600
H  46.51200 17.25100 33.13500
H  49.34200 17.70300 32.86000
H  48.73700 19.76900 33.24700
H  47.08400 19.21000 33.22600
H  47.78800 19.84400 31.71200
H  49.00300 15.78600 33.73500
H  47.61900 14.73500 33.47700
H  46.37500 15.72600 35.12300
H  47.33100 17.18200 35.18200
H  53.33500 18.66600 28.49300
H  52.35900 19.08600 29.82500
H  52.28600 20.11100 28.40600
H  54.02600 18.79600 26.44900
H  52.94500 20.19300 26.18700
H  53.65800 19.43600 24.82900
H  48.59900 14.35100 23.66900
H  45.61600 14.72000 23.75900
H  48.44100 16.63100 22.50000
H  46.74900 16.66400 23.12500
H  47.15300 15.40100 21.97800
H  45.96000 12.11000 24.64500
H  47.47500 12.50500 23.99000
H  46.53200 11.88800 21.93600
H  45.48900 13.34500 22.12800
H  45.02200 11.71800 22.74900
H  42.50900 12.77200 27.34000
H  41.81600 13.35300 28.87800
H  42.98400 11.90100 28.81300
H  44.92900 14.34300 32.89800
H  41.84100 16.30600 34.50400
H  42.53600 17.81600 34.07300
H  42.87200 17.17400 35.65800
Mg 41.86500 41.21700 26.88400
C  41.39600 43.70400 29.23000
C  42.43400 38.97600 29.47500
C  42.74600 39.01500 24.58200
C  41.51500 43.66900 24.36000
N  42.02800 41.37900 29.07500
C  41.74000 42.49000 29.81100
C  41.81800 42.23900 31.30600
C  42.29000 40.74100 31.30600
C  42.18400 40.25900 29.83700
C  43.73900 40.53900 31.77500
C  40.46800 42.57900 32.00400
C  40.63100 43.29100 33.31800
H  39.63100 42.98200 34.45800
N  42.26700 39.22600 27.01700
C  42.49700 38.48500 28.18000
C  42.89700 37.15200 27.76000
C  42.93700 37.12400 26.33800
C  42.69300 38.56400 25.94300
C  42.89200 36.00800 28.70200
C  43.11600 35.86100 25.35300
O  43.17600 35.99300 24.12200
C  43.22000 34.41300 25.85800
N  42.20800 41.32500 24.77800
C  42.46400 40.26400 24.00600
C  42.51300 40.54700 22.44300
C  42.03000 42.05900 22.47200
C  41.95600 42.42600 23.95700
C  43.81800 40.28900 21.67900
C  40.71800 42.32700 21.69100
C  39.52100 41.46300 22.29700
N  41.56600 43.26200 26.73400
C  41.39100 44.09200 25.68000
C  40.99000 45.37800 26.20700
C  41.01900 45.28200 27.57300
C  41.38600 43.97900 27.79900
C  40.59300 46.56300 25.35000
C  40.85900 46.05500 28.78000
O  40.79200 47.32700 28.91900
C  40.99200 45.02700 29.90200
C  42.21800 45.60200 30.63500
O  43.37500 45.52600 30.36500
O  41.77900 46.14600 31.81800
C  42.73900 47.06700 32.44400
H  42.62100 38.27700 30.29300
H  43.07100 38.26400 23.85900
H  41.44200 44.42000 23.57100
H  42.51400 42.94700 31.75700
H  41.59300 40.25600 31.98900
H  43.89500 39.88800 32.63600
H  44.25300 41.47000 32.01600
H  44.42300 40.17000 31.01100
H  39.87800 41.66700 32.10300
H  39.90300 43.19900 31.30800
H  40.48200 44.32100 32.99500
H  41.60300 43.15400 33.79200
H  43.89200 35.57800 28.75100
H  42.26300 35.22500 28.28000
H  42.56700 36.32400 29.69300
H  42.19300 34.19800 26.15300
H  43.69000 34.31800 26.83600
H  43.58800 33.64100 25.18200
H  41.79900 39.86300 21.98400
H  42.77800 42.72000 22.03500
H  44.63000 40.05600 22.36800
H  44.04100 41.16300 21.06600
H  43.58100 39.52100 20.94300
H  40.87300 41.89200 20.70400
H  40.48800 43.39300 21.68200
H  39.74100 41.04300 23.27800
H  39.24900 40.64800 21.62600
H  38.60700 42.01900 22.50100
H  39.69300 46.94700 25.83000
H  40.33100 46.33200 24.31700
H  41.17000 47.48700 25.30700
H  40.06100 45.16900 30.44900
H  43.22800 46.44000 33.18900
H  42.21000 47.89300 32.92000
H  43.55300 47.44500 31.82400

