158

Mg 26.05100 0.23900 29.53500
C  28.08900 -0.24100 32.32700
C  23.39300 0.89000 31.52500
C  24.16200 0.31300 26.77000
C  28.84000 -0.77500 27.57300
N  25.84700 0.32400 31.78200
C  26.77000 0.00900 32.73900
C  26.12100 0.11200 34.09900
C  24.62300 0.35200 33.78900
C  24.60100 0.67400 32.27800
C  23.62300 -0.66400 34.32700
C  26.82600 1.20700 34.99100
C  26.00100 1.70700 36.26800
H  26.78400 2.06600 37.52700
N  24.04600 0.63800 29.13400
C  23.07800 0.91500 30.13200
C  21.85600 1.25100 29.44100
C  22.05600 1.15000 28.06300
C  23.46900 0.67300 27.91500
C  20.62300 1.58200 30.21400
C  21.17000 1.49700 26.91100
O  21.43200 1.19700 25.71400
C  19.85900 2.09200 27.23800
N  26.40400 -0.46100 27.42800
C  25.42300 -0.19500 26.48900
C  26.03000 -0.39300 25.07400
C  27.56300 -0.66200 25.31700
C  27.62000 -0.58200 26.82600
C  25.31200 -1.48500 24.25700
C  28.50200 0.38100 24.56400
C  29.74600 -0.18300 23.89400
N  28.03500 -0.30800 29.82300
C  29.02900 -0.70900 28.96900
C  30.32500 -0.83700 29.63500
C  29.94800 -0.74200 30.97600
C  28.62100 -0.36900 31.01100
C  31.64700 -1.06000 29.05100
C  30.45200 -0.85400 32.29800
O  31.55000 -1.05300 32.81300
C  29.26300 -0.45000 33.28800
C  28.97600 -1.57600 34.29500
O  28.26100 -2.54500 34.12200
O  29.61400 -1.32800 35.43100
C  29.58300 -2.46800 36.31700
H  22.59600 0.87200 32.27100
H  23.49300 0.29100 25.90700
H  29.70600 -1.12400 27.00700
H  26.17100 -0.88300 34.54100
H  24.21700 1.25400 34.24700
H  24.12100 -1.23600 35.11000
H  23.49200 -1.32200 33.46800
H  22.66100 -0.30100 34.69000
H  27.10300 1.97400 34.26700
H  27.73900 0.75000 35.37200
H  25.13400 1.08400 36.48800
H  25.57500 2.65700 35.94500
H  19.88200 0.83100 29.94100
H  20.20600 2.53600 29.89000
H  20.69800 1.50600 31.29900
H  19.30900 1.18400 27.48700
H  19.46900 2.60600 26.35900
H  19.95200 2.92800 27.93200
H  25.84500 0.57700 24.61100
H  27.87600 -1.67600 25.06700
H  24.65600 -2.04200 24.92600
H  26.07100 -2.11600 23.79500
H  24.75500 -1.11500 23.39600
H  28.72600 1.05600 25.39000
H  28.03800 0.97300 23.77500
H  30.52600 0.34100 24.44600
H  29.70600 0.04300 22.82800
H  29.84900 -1.25600 24.05400
H  31.82100 -2.12100 28.87200
H  32.39800 -0.56400 29.66400
H  31.64300 -0.45000 28.14800
H  29.57200 0.48500 33.75500
H  30.43100 -2.20500 36.94900
H  29.82100 -3.45300 35.91600
H  28.66000 -2.39800 36.89200
Mg -4.78900 25.90000 26.62600
C  -3.55800 27.27900 29.54600
C  -6.49300 23.56000 28.50200
C  -5.68200 24.44200 23.81200
C  -2.74500 28.12500 24.82200
N  -4.89300 25.43300 28.76600
C  -4.51500 26.28300 29.73100
C  -5.10100 25.84800 31.09200
C  -5.79100 24.47700 30.81800
C  -5.66900 24.40600 29.25600
C  -5.32700 23.27700 31.72600
C  -6.01700 26.90400 31.64700
C  -5.75800 27.32900 33.13200
H  -5.32100 26.27300 34.14400
N  -6.04000 24.32200 26.22300
C  -6.65700 23.45100 27.07100
C  -7.48600 22.47900 26.33800
C  -7.45000 22.92700 25.01100
C  -6.28600 23.89200 24.95100
C  -8.32600 21.61700 27.10300
C  -8.31900 22.49500 23.87000
O  -8.15900 22.88200 22.75700
C  -9.52300 21.59200 24.08800
N  -4.17000 26.22500 24.56900
C  -4.69700 25.41300 23.60800
C  -4.15800 25.78900 22.18200
C  -3.23400 27.01500 22.52500
C  -3.41400 27.17300 24.05800
C  -3.35900 24.61600 21.61700
C  -3.45800 28.31700 21.75100
C  -2.57900 28.52200 20.47200
N  -3.41100 27.32000 26.98300
C  -2.71500 28.13500 26.19000
C  -1.88600 29.04200 27.05300
C  -2.17700 28.74500 28.34600
C  -3.10200 27.69800 28.25900
C  -0.93900 30.13800 26.45500
C  -1.93000 29.12700 29.76600
O  -1.25500 29.96500 30.34600
C  -2.85800 28.11900 30.55700
C  -1.93500 27.43200 31.41200
O  -0.94600 26.84600 31.02100
O  -2.22500 27.64300 32.69100
C  -1.14500 27.38100 33.67800
H  -7.02700 22.85500 29.14300
H  -6.02300 23.96500 22.89100
H  -2.18500 28.85800 24.23600
H  -4.13600 25.74300 31.58800
H  -6.86300 24.57400 30.99000
H  -4.42000 23.54900 32.26600
H  -5.03100 22.33600 31.26100
H  -6.03200 23.01500 32.51400
H  -7.03600 26.59200 31.41600
H  -5.86100 27.83200 31.09700
H  -6.71900 27.73700 33.44300
H  -5.14800 28.23200 33.11100
H  -7.87000 21.40500 28.07000
H  -8.40400 20.62500 26.65900
H  -9.31000 22.06600 27.24500
H  -9.18000 20.59500 23.81100
H  -10.22700 21.85800 23.30000
H  -9.90400 21.97600 25.03400
H  -4.96700 25.95400 21.47000
H  -2.19200 26.72200 22.39000
H  -2.58700 25.03600 20.97400
H  -4.01800 23.94700 21.06400
H  -2.82800 24.00300 22.34600
H  -3.43000 29.25100 22.31200
H  -4.44700 28.27900 21.29400
H  -3.19400 28.69200 19.58800
H  -2.11800 27.54500 20.32700
H  -1.70500 29.15000 20.64300
H  -1.35700 30.72500 25.63700
H  -0.08300 29.62400 26.01600
H  -0.80900 30.84800 27.27100
H  -3.47700 28.72400 31.21900
H  -1.21000 26.33000 33.96100
H  -1.30700 27.96200 34.58600
H  -0.14500 27.41800 33.24500

