158

Mg 50.95500 46.55100 41.35600
C  47.86000 47.71300 40.31600
C  50.15800 43.45700 40.25800
C  54.13800 45.70800 41.71600
C  51.85700 49.95400 41.81300
N  49.21300 45.65300 40.35300
C  48.03800 46.32700 40.06100
C  47.06600 45.31800 39.38800
C  47.71300 43.93900 39.50700
C  49.11900 44.34600 40.00600
C  47.02400 42.97400 40.49700
C  46.80000 45.71100 37.94000
C  45.39800 45.46900 37.32300
H  45.49000 44.43000 36.27000
N  51.99400 44.85500 41.01800
C  51.49000 43.63300 40.65100
C  52.44800 42.57600 40.82200
C  53.62500 43.24900 41.28900
C  53.26300 44.66600 41.35500
C  52.33100 41.11300 40.40300
C  54.93300 42.51600 41.56000
O  55.01900 41.27600 41.39400
C  56.24600 43.20300 41.87400
N  52.73100 47.67900 41.58600
C  53.87600 47.07600 41.73900
C  55.03800 48.01300 42.00100
C  54.32000 49.38300 42.02200
C  52.87300 49.03200 41.86700
C  55.82500 47.77300 43.29700
C  54.71700 50.69900 41.25700
C  55.05700 51.97600 42.05200
N  50.05900 48.51200 41.25400
C  50.51000 49.78900 41.52300
C  49.49600 50.76600 41.36800
C  48.46300 50.01100 40.82000
C  48.85700 48.67200 40.81500
C  49.57200 52.26600 41.65100
C  47.15000 50.09000 40.27700
O  46.51800 51.08300 40.05300
C  46.73200 48.64800 39.83400
C  45.48000 48.26500 40.60300
O  45.42100 48.24800 41.82800
O  44.40100 48.04000 39.73400
C  43.12300 48.10500 40.47700
H  49.93900 42.40300 40.07600
H  55.17800 45.39400 41.83100
H  52.10900 51.00300 41.98400
H  46.12100 45.40300 39.92300
H  47.82900 43.49000 38.52100
H  47.00200 41.95400 40.11500
H  45.97200 43.18000 40.69800
H  47.52400 42.93000 41.46500
H  47.51300 45.18600 37.30400
H  47.06000 46.75200 37.74900
H  45.12400 46.41800 36.86100
H  44.56100 45.28900 37.99700
H  53.10200 40.81300 39.69400
H  51.38400 40.93900 39.89200
H  52.29100 40.52700 41.32100
H  56.15400 43.76700 42.80100
H  56.56400 43.95800 41.15500
H  57.10400 42.53300 41.92900
H  55.74500 48.00400 41.17200
H  54.19200 49.55500 43.09000
H  55.53600 46.79300 43.67800
H  55.54900 48.51700 44.04400
H  56.89300 47.62900 43.13100
H  54.06300 51.00200 40.43900
H  55.66200 50.39700 40.80600
H  54.63200 51.83600 43.04600
H  54.44700 52.78400 41.64900
H  56.12400 52.16400 41.93200
H  50.58400 52.47200 42.00100
H  48.81100 52.55400 42.37600
H  49.45900 52.75900 40.68600
H  46.56000 48.56500 38.76100
H  42.79900 47.09800 40.74100
H  42.48900 48.81000 39.93800
H  43.12700 48.50000 41.49300
Mg 17.56100 52.16900 26.02100
C  19.39800 50.50100 28.59400
C  15.30800 52.90500 28.34600
C  15.69600 53.11300 23.50200
C  19.97200 50.70900 23.74700
N  17.54500 51.85200 28.19400
C  18.35900 51.20100 29.07200
C  18.00200 51.57600 30.53600
C  16.54800 52.06500 30.35100
C  16.45900 52.27000 28.87800
C  15.53000 51.09500 30.87700
C  19.06700 52.56800 31.16400
C  19.22600 52.58900 32.72800
H  18.17900 51.93200 33.60900
N  15.79900 52.99100 25.91500
C  14.94700 53.22100 27.00000
C  13.79800 53.88700 26.65800
C  13.83100 53.99900 25.22700
C  15.14000 53.37500 24.76200
C  12.79000 54.44300 27.66800
C  12.85500 54.61400 24.23500
O  13.05300 54.72100 23.02400
C  11.54500 55.24600 24.79700
N  17.78200 51.99000 23.88800
C  16.89600 52.54900 23.10700
C  17.34500 52.43300 21.60900
C  18.77900 51.79300 21.72300
C  18.84100 51.36400 23.17800
C  16.43900 51.74200 20.60100
C  19.82400 52.76300 21.26400
C  20.92500 52.09100 20.39300
N  19.30500 50.90900 26.16800
C  20.20500 50.51100 25.15100
C  21.32800 49.74800 25.70500
C  21.05200 49.73600 27.09100
C  19.78500 50.44600 27.25200
C  22.37100 49.13900 25.01200
C  21.48200 49.26500 28.42700
O  22.41500 48.61600 28.76500
C  20.48600 49.84300 29.40200
C  20.04100 48.72200 30.29100
O  19.45000 47.73200 29.91800
O  20.37600 49.03200 31.61600
C  19.82300 48.16200 32.62300
H  14.66900 53.29000 29.14400
H  15.01800 53.58000 22.78400
H  20.69900 50.36900 23.00700
H  18.06500 50.65300 31.11100
H  16.46200 53.05200 30.80600
H  14.76800 51.76900 31.26900
H  15.97400 50.57600 31.72600
H  15.13200 50.44100 30.10000
H  18.68000 53.46700 30.68300
H  20.06700 52.44100 30.74900
H  19.23900 53.65200 32.96600
H  20.19900 52.17000 32.98500
H  11.79200 54.33600 27.24300
H  12.94800 55.51800 27.75600
H  12.82100 54.17800 28.72500
H  11.69400 56.06800 25.49700
H  10.96900 54.38300 25.13100
H  10.95300 55.79200 24.06300
H  17.38700 53.48400 21.32400
H  18.69300 50.86100 21.16500
H  16.86100 50.92200 20.01900
H  16.18000 52.47100 19.83300
H  15.57000 51.22300 21.00400
H  20.25700 53.11900 22.19800
H  19.28400 53.53400 20.71400
H  21.92100 52.14100 20.83200
H  20.89500 52.54300 19.40200
H  20.77700 51.01900 20.26200
H  23.35700 49.60200 25.05800
H  22.16300 48.97300 23.95500
H  22.54200 48.17800 25.49700
H  20.91300 50.58200 30.07900
H  20.21400 48.26900 33.63500
H  20.24100 47.17700 32.41700
H  18.73800 48.18500 32.52100

