158

Mg 47.69300 24.93800 28.90300
C  48.37200 27.38800 31.25600
C  46.51000 22.93200 31.42800
C  47.36600 22.66500 26.58300
C  48.96400 27.19000 26.38600
N  47.34200 25.22500 31.05500
C  47.74100 26.28200 31.84200
C  47.29600 26.12300 33.31600
C  46.72800 24.72200 33.33300
C  46.82800 24.24500 31.85600
C  47.50200 23.70300 34.21200
C  46.55900 27.34700 33.92500
C  45.51100 26.95400 35.00700
H  45.23800 27.94600 36.12500
N  46.95200 23.05400 29.03100
C  46.53100 22.39400 30.11800
C  46.05100 21.03000 29.76300
C  46.31700 20.90600 28.30000
C  46.93800 22.22900 27.88200
C  45.51600 19.98800 30.63200
C  46.02700 19.83500 27.28600
O  46.58000 19.76000 26.21100
C  45.15600 18.73700 27.66900
N  48.11800 24.96000 26.76400
C  47.92800 23.82200 26.05900
C  48.21300 24.00800 24.56300
C  48.34200 25.56700 24.55500
C  48.57000 25.93900 25.98700
C  49.43500 23.23600 24.06400
C  47.06700 26.30300 23.97000
C  47.33300 27.16600 22.70100
N  48.54400 26.84100 28.77200
C  49.02000 27.57600 27.75500
C  49.53600 28.84500 28.25700
C  49.42000 28.76800 29.65900
C  48.70000 27.61700 29.89100
C  50.03500 30.06400 27.47800
C  49.70800 29.44900 30.91100
O  50.31900 30.55000 31.03300
C  49.03100 28.53700 32.04100
C  49.96100 28.07700 33.06500
O  50.59900 27.06500 32.89600
O  50.22500 29.04000 34.07700
C  51.38200 28.79400 34.93800
H  46.16100 22.36100 32.29200
H  47.27300 22.05100 25.68500
H  49.29200 27.89900 25.62300
H  48.22700 26.03000 33.87500
H  45.68500 24.68100 33.64800
H  48.15100 23.12700 33.55400
H  46.80700 22.98500 34.64800
H  48.19900 24.18600 34.89800
H  45.99400 27.91800 33.18900
H  47.28100 27.98600 34.43200
H  45.79000 25.93900 35.28800
H  44.54600 26.83400 34.51400
H  44.48800 19.84800 30.30000
H  45.54200 20.16100 31.70800
H  46.12000 19.09300 30.48100
H  45.75100 18.18900 28.39900
H  44.89400 18.24500 26.73200
H  44.30100 19.15400 28.20200
H  47.28800 23.70400 24.07400
H  49.23300 25.82000 23.98000
H  50.25300 23.94300 23.93100
H  49.30900 22.68200 23.13400
H  49.72700 22.61400 24.91100
H  46.61600 26.94500 24.72600
H  46.28900 25.58600 23.70600
H  46.55100 27.92300 22.74600
H  47.22400 26.53100 21.82200
H  48.24300 27.75400 22.82100
H  50.03200 29.79400 26.42200
H  51.01700 30.44000 27.76600
H  49.25500 30.80600 27.65100
H  48.32400 29.09300 32.65600
H  51.19700 27.84700 35.44500
H  51.48100 29.55900 35.70900
H  52.32600 28.78100 34.39200
Mg 42.64100 41.13500 25.32100
C  41.66600 43.58400 27.81800
C  43.72300 39.09900 27.86300
C  43.70300 39.07300 22.98600
C  41.77500 43.47400 22.87900
N  42.74900 41.45900 27.62700
C  42.16700 42.43300 28.41500
C  42.14000 42.01100 29.84400
C  42.67400 40.51100 29.77100
C  43.13100 40.33500 28.34900
C  43.79700 40.22100 30.81900
C  40.68200 42.01800 30.48200
C  40.48800 41.32000 31.82200
H  39.78600 42.08400 32.96500
N  43.54100 39.35400 25.43100
C  43.95200 38.67200 26.54000
C  44.67400 37.47500 26.18800
C  44.60200 37.36500 24.76700
C  43.90300 38.61000 24.34800
C  45.21900 36.49400 27.15400
C  45.11800 36.28000 23.79600
O  45.01500 36.24800 22.57100
C  45.62000 35.00800 24.48500
N  42.69100 41.17800 23.31000
C  43.13800 40.23600 22.51900
C  42.97600 40.49400 21.02000
C  42.37500 41.95900 20.97300
C  42.19800 42.21400 22.44700
C  44.32200 40.35600 20.26400
C  41.10100 42.24300 20.17800
C  41.09000 43.39300 19.17000
N  41.86100 43.08700 25.26200
C  41.49800 43.88300 24.23400
C  41.11100 45.19700 24.70000
C  41.05700 45.13600 26.06800
C  41.54800 43.82100 26.38100
C  40.77600 46.42900 23.84400
C  40.73200 45.84900 27.32000
O  40.33700 46.97200 27.50600
C  40.99800 44.76400 28.44400
C  41.85300 45.44400 29.46700
O  43.05600 45.65000 29.30100
O  41.04400 45.83600 30.53000
C  41.82600 46.11900 31.74500
H  43.86300 38.42700 28.71200
H  44.09700 38.43500 22.19200
H  41.54000 44.18800 22.08700
H  42.83800 42.60100 30.43900
H  41.87800 39.78400 29.93200
H  43.60000 40.85500 31.68300
H  44.72700 40.38100 30.27200
H  43.64300 39.14900 30.94200
H  40.00000 41.52700 29.78700
H  40.33400 43.05100 30.46200
H  41.47500 41.07900 32.21700
H  39.95400 40.38100 31.67800
H  45.02400 36.82400 28.17500
H  46.29500 36.44000 26.99000
H  44.82100 35.50200 26.94400
H  44.74800 34.59300 24.98900
H  46.41800 35.15500 25.21300
H  45.94700 34.33000 23.69600
H  42.28900 39.83400 20.49000
H  43.06700 42.71100 20.59500
H  45.15900 40.16500 20.93500
H  44.51900 41.27000 19.70300
H  44.22500 39.47700 19.62800
H  40.35300 42.48300 20.93500
H  40.84900 41.30900 19.67600
H  42.12500 43.71800 19.05900
H  40.51800 44.22700 19.57700
H  40.72600 42.95000 18.24400
H  40.52000 46.19400 22.81100
H  41.58700 47.15400 23.78000
H  39.97200 46.94700 24.36700
H  40.01500 44.47300 28.81400
H  41.31800 45.64800 32.58700
H  41.83200 47.17500 32.01600
H  42.86700 45.80100 31.79100

