158

Mg 25.32500 -0.03900 28.90000
C  27.49100 -0.50600 31.73800
C  22.74600 0.36700 31.07700
C  23.57300 0.14600 26.18700
C  28.21600 -1.01900 27.00600
N  25.24700 0.00000 31.12800
C  26.25500 -0.10400 32.05800
C  25.70800 0.16100 33.50300
C  24.12200 0.18300 33.30900
C  23.99700 0.17200 31.75200
C  23.31400 -0.93500 33.96200
C  26.35100 1.37500 34.28700
C  27.26800 0.98000 35.44200
H  26.95200 1.54800 36.77600
N  23.45500 0.27400 28.64200
C  22.52200 0.36900 29.65000
C  21.27900 0.74200 28.98000
C  21.47000 0.72000 27.52700
C  22.85400 0.37600 27.37100
C  19.96800 1.02500 29.78000
C  20.48700 0.97500 26.38600
O  20.85100 0.96900 25.21500
C  19.14600 1.42900 26.63500
N  25.79100 -0.52000 26.94100
C  24.89900 -0.27400 25.97800
C  25.54700 -0.38400 24.58500
C  27.06700 -0.60500 24.85400
C  27.02400 -0.62400 26.39300
C  24.89700 -1.34900 23.58600
C  28.00900 0.42800 24.20200
C  27.63900 1.93100 24.33500
N  27.37900 -0.64500 29.22700
C  28.38700 -1.05500 28.34800
C  29.61200 -1.40000 29.04800
C  29.30800 -1.18000 30.37000
C  27.97800 -0.80500 30.46100
C  30.94100 -1.74800 28.47600
C  29.81600 -1.18200 31.70600
O  30.91200 -1.44100 32.20100
C  28.67200 -0.69100 32.63600
C  28.49700 -1.97200 33.51900
O  27.75600 -2.93600 33.30500
O  29.23200 -1.75500 34.63500
C  28.96900 -2.79800 35.68400
H  21.92400 0.61100 31.75400
H  22.97700 0.25500 25.27800
H  29.03800 -1.22800 26.31800
H  26.03500 -0.73000 34.03900
H  23.65100 1.12900 33.57600
H  23.32500 -0.86800 35.05000
H  23.63600 -1.95900 33.77400
H  22.27600 -0.86300 33.63500
H  25.69600 2.21500 34.52000
H  27.01300 1.83400 33.55300
H  28.24400 1.44100 35.28700
H  27.42900 -0.09200 35.55500
H  19.20000 0.68500 29.08500
H  19.88200 2.09800 29.95500
H  19.95000 0.52400 30.74700
H  19.16800 2.23400 27.37000
H  18.63200 0.52200 26.95200
H  18.84900 1.73900 25.63400
H  25.25000 0.55400 24.11700
H  27.32000 -1.60300 24.49500
H  25.65600 -1.69200 22.88200
H  24.08400 -0.88300 23.03000
H  24.41900 -2.20200 24.06800
H  28.21900 0.23400 23.15000
H  28.91800 0.42300 24.80200
H  28.33500 2.49300 24.95600
H  26.61200 2.04800 24.68300
H  27.81000 2.47900 23.40800
H  31.71800 -2.12400 29.14100
H  31.40100 -0.86600 28.03100
H  30.73600 -2.44100 27.66000
H  28.97900 0.20800 33.17100
H  29.84500 -2.87400 36.32700
H  28.88000 -3.83300 35.35400
H  28.07200 -2.60100 36.27200
Mg 35.68000 49.45000 25.18600
C  35.66800 48.06800 28.32800
C  34.70600 52.53500 26.68000
C  35.15700 50.75500 22.19400
C  35.84600 46.27700 23.81900
N  35.09400 50.16800 27.28900
C  35.32500 49.39800 28.40400
C  35.24300 50.27200 29.65100
C  34.73200 51.65000 29.12100
C  34.86000 51.46700 27.59400
C  33.37700 52.22200 29.67600
C  36.63300 50.33000 30.39100
C  36.64700 50.01100 31.90100
H  35.52600 50.52700 32.82800
N  35.30500 51.46700 24.51100
C  34.93000 52.56900 25.29600
C  34.70000 53.73600 24.45200
C  34.75700 53.20100 23.07700
C  35.13800 51.75800 23.16100
C  34.44000 55.23900 24.94000
C  34.39500 53.86900 21.79300
O  34.45800 53.31900 20.66600
C  33.85300 55.17100 21.76400
N  35.45400 48.56600 23.19400
C  35.40500 49.34600 22.15200
C  35.53200 48.58100 20.81600
C  35.91900 47.17600 21.40700
C  35.75500 47.30300 22.87500
C  34.20200 48.58400 20.00000
C  37.33400 46.71900 20.95500
C  38.52100 47.26200 21.69700
N  35.66000 47.54700 25.87800
C  35.82700 46.34700 25.19200
C  36.09100 45.31900 26.17700
C  35.95400 45.90000 27.42800
C  35.72900 47.25000 27.18500
C  36.48700 43.89300 25.83500
C  36.10700 45.64900 28.76800
O  36.28300 44.55300 29.39500
C  35.98900 47.09100 29.45300
C  34.76500 46.88300 30.30400
O  33.57600 47.04800 29.92400
O  35.14500 46.32900 31.53700
C  34.01400 45.79800 32.35800
H  34.40300 53.53400 27.00000
H  34.96400 51.14000 21.19100
H  36.10200 45.35900 23.28700
H  34.50200 49.82800 30.31600
H  35.46100 52.43000 29.34200
H  32.56100 51.65400 29.23000
H  33.38200 53.26500 29.35800
H  33.33900 52.06200 30.75400
H  36.99700 51.35500 30.31600
H  37.36300 49.59400 30.05300
H  37.62400 50.36100 32.23500
H  36.41300 48.95200 32.00800
H  34.95800 55.41400 25.88300
H  33.36700 55.37600 25.07200
H  34.93400 55.94500 24.27300
H  33.38500 55.17800 20.78000
H  34.59700 55.95900 21.88300
H  33.01700 55.29300 22.45300
H  36.47500 48.93300 20.39800
H  35.33300 46.28100 21.20200
H  33.39900 49.00200 20.60900
H  33.90000 47.57700 19.71400
H  34.17200 49.32000 19.19700
H  37.53700 46.90300 19.90000
H  37.40100 45.63200 20.99500
H  39.22400 47.79600 21.05800
H  38.98300 46.35800 22.09200
H  38.20500 47.83900 22.56700
H  35.63200 43.22500 25.94800
H  37.40100 43.59500 26.34900
H  36.81000 43.70000 24.81200
H  36.81200 47.32400 30.12800
H  33.30200 46.58200 32.61400
H  34.34600 45.13300 33.15500
H  33.49100 45.15800 31.64800

