158

Mg 23.45600 -4.42700 44.74700
C  25.22100 -1.71100 43.42800
C  20.72500 -3.54100 43.00600
C  22.00400 -7.57500 45.45000
C  26.42800 -5.58600 46.17600
N  23.10700 -2.82500 43.16100
C  23.90700 -1.83400 42.88300
C  23.18700 -0.82200 41.92700
C  21.68100 -1.23200 42.17200
C  21.81800 -2.62300 42.76300
C  20.82200 -0.29000 43.00900
C  23.68700 -1.20200 40.52800
C  23.97000 -0.03900 39.46300
H  24.79800 -0.53100 38.25000
N  21.51500 -5.42400 44.30600
C  20.53400 -4.86200 43.54000
C  19.39800 -5.73900 43.55900
C  19.73000 -6.85300 44.42200
C  21.12800 -6.67700 44.73200
C  18.11100 -5.39100 42.95300
C  18.84100 -8.05500 44.68200
O  17.69300 -8.12700 44.22000
C  19.27300 -9.29400 45.34100
N  24.21400 -6.40600 45.62700
C  23.36800 -7.45700 45.85000
C  24.22000 -8.59900 46.55600
C  25.59100 -7.99000 46.67700
C  25.39500 -6.60300 46.11000
C  23.62200 -9.07600 47.91100
C  26.74200 -8.78200 45.93200
C  28.17000 -8.47200 46.50700
N  25.41800 -3.74200 44.95700
C  26.47800 -4.29300 45.66000
C  27.59900 -3.31300 45.63600
C  27.15100 -2.32900 44.68400
C  25.82100 -2.66200 44.27900
C  28.95200 -3.46900 46.33300
C  27.56500 -1.14400 43.96500
O  28.66200 -0.60700 43.99400
C  26.34200 -0.70100 43.03600
C  26.02300 0.73800 43.22300
O  25.54500 1.36800 44.17600
O  26.60700 1.30900 42.07800
C  26.62800 2.75500 41.91000
H  19.75400 -3.17400 42.66400
H  21.52300 -8.47200 45.84600
H  27.38600 -5.85500 46.62600
H  23.20500 0.26500 42.00300
H  21.09100 -1.37400 41.26600
H  20.43800 0.49500 42.35800
H  21.33700 0.20900 43.83000
H  19.92600 -0.83000 43.31700
H  22.78800 -1.71200 40.18100
H  24.48700 -1.94200 40.55300
H  24.50500 0.67700 40.08600
H  22.97900 0.22600 39.09300
H  17.55500 -6.22300 42.52200
H  18.18800 -4.65400 42.15400
H  17.52200 -4.92300 43.74300
H  18.39700 -9.88800 45.60200
H  19.59900 -9.01900 46.34400
H  20.03200 -9.70900 44.67800
H  24.22100 -9.37700 45.79200
H  25.88900 -7.90800 47.72200
H  24.08000 -8.68300 48.81800
H  23.76400 -10.14600 48.06700
H  22.54500 -8.91400 47.91700
H  26.72300 -8.34500 44.93400
H  26.51100 -9.84300 45.83600
H  28.73700 -9.35600 46.79900
H  28.22100 -7.88600 47.42500
H  28.71100 -7.95400 45.71500
H  28.82000 -3.02300 47.31900
H  29.61200 -2.83600 45.74000
H  29.23800 -4.52000 46.35700
H  26.67300 -1.01200 42.04500
H  25.66900 3.06900 41.49800
H  27.39300 3.05300 41.19300
H  26.84900 3.19000 42.88500
Mg -2.14500 33.84400 26.92200
C  -3.75600 32.05400 29.53900
C  -0.38600 35.51300 29.39000
C  -1.23700 35.90500 24.61300
C  -4.11100 32.01600 24.56000
N  -2.15200 33.81600 29.19800
C  -2.89400 33.03600 30.06500
C  -2.55200 33.31500 31.55000
C  -1.41900 34.44300 31.45700
C  -1.27500 34.63000 29.92600
C  -1.91700 35.79800 32.03900
C  -2.04800 31.97400 32.18500
C  -1.17100 31.94000 33.53400
H  -1.67900 31.07700 34.68500
N  -0.89100 35.45800 26.98300
C  -0.18000 35.93500 28.06700
C  0.77800 36.91200 27.53300
C  0.49300 37.07000 26.14500
C  -0.56900 36.16000 25.84000
C  1.70300 37.73100 28.41100
C  1.24800 37.82700 25.08300
O  1.04100 37.83800 23.90000
C  2.59000 38.45800 25.46800
N  -2.75700 33.98300 24.88500
C  -2.19400 35.01700 24.14000
C  -2.56100 34.87000 22.69400
C  -3.33400 33.47000 22.64600
C  -3.46200 33.11500 24.06900
C  -3.40000 36.06000 22.14900
C  -2.73200 32.38300 21.67500
C  -1.81900 31.27700 22.28400
N  -3.59200 32.27000 26.95800
C  -4.26800 31.64700 25.99400
C  -5.21900 30.68600 26.53800
C  -5.03600 30.80600 27.95000
C  -3.99600 31.74000 28.12400
C  -6.22100 29.80200 25.68200
C  -5.46500 30.33900 29.23700
O  -6.30200 29.57700 29.57800
C  -4.46900 31.08500 30.28000
C  -5.46100 31.65000 31.20900
O  -6.25200 32.55300 30.91000
O  -5.50000 30.99000 32.44000
C  -6.76500 31.16800 33.23200
H  0.29900 35.89600 30.14900
H  -0.78400 36.47200 23.79700
H  -4.69200 31.31700 23.95400
H  -3.46800 33.58500 32.07600
H  -0.58400 34.15300 32.09600
H  -2.55000 35.57700 32.89800
H  -2.52500 36.34200 31.31600
H  -1.12500 36.42200 32.45500
H  -1.48900 31.46400 31.40000
H  -2.96200 31.47900 32.51200
H  -0.99200 32.95700 33.88200
H  -0.17200 31.52500 33.40500
H  1.35700 38.76200 28.48600
H  2.69800 37.78700 27.96800
H  1.81200 37.31000 29.41000
H  2.90900 39.01600 24.58700
H  3.27000 37.61900 25.61400
H  2.72400 39.15100 26.29900
H  -1.69100 34.73900 22.05100
H  -4.34100 33.63400 22.26300
H  -3.47500 36.81900 22.92700
H  -4.41300 35.82700 21.82000
H  -3.00500 36.54600 21.25700
H  -2.13600 32.81300 20.86900
H  -3.62700 31.94100 21.23700
H  -1.39000 31.56000 23.24500
H  -1.11600 31.04400 21.48400
H  -2.44700 30.40800 22.48000
H  -6.30800 29.89900 24.59900
H  -7.25800 29.97400 25.96800
H  -6.19800 28.73600 25.91000
H  -3.92600 30.30400 30.81500
H  -6.80100 31.99600 33.94000
H  -6.89500 30.24200 33.79200
H  -7.62900 31.17300 32.56700

