158

Mg 17.21300 -1.56100 28.24400
C  16.04600 0.59200 30.77200
C  19.19400 -3.12600 30.48800
C  18.49600 -3.42600 25.61600
C  15.45200 0.38400 25.85700
N  17.55900 -1.26300 30.30200
C  16.88600 -0.42900 31.23900
C  17.11700 -0.80700 32.69000
C  18.31600 -1.76500 32.48000
C  18.39800 -2.04700 30.95500
C  19.73000 -1.13800 32.77600
C  15.88000 -1.44500 33.47500
C  15.43100 -0.73800 34.70900
H  16.56900 -0.29300 35.69200
N  18.54500 -3.12500 28.09000
C  19.25500 -3.65000 29.15100
C  20.05600 -4.75800 28.71200
C  19.87900 -4.87200 27.29700
C  18.91200 -3.82100 26.93500
C  20.90700 -5.49700 29.74500
C  20.56600 -5.79800 26.39500
O  20.45600 -5.63300 25.18900
C  21.50400 -6.87000 26.87500
N  16.99700 -1.50700 26.10900
C  17.67500 -2.37900 25.22800
C  17.56800 -1.96400 23.76900
C  16.41300 -0.84800 23.87400
C  16.25700 -0.62700 25.37300
C  18.90100 -1.61000 23.01200
C  15.01400 -1.17800 23.16100
C  13.95600 -1.90900 23.97800
N  15.93100 0.11600 28.25700
C  15.24500 0.74900 27.20500
C  14.45400 1.87700 27.75100
C  14.77500 1.86800 29.13200
C  15.66300 0.81700 29.37400
C  13.56000 2.68900 26.83000
C  14.52500 2.50000 30.41800
O  13.85600 3.44500 30.77000
C  15.31300 1.67200 31.56100
C  16.22700 2.60300 32.27600
O  17.40600 2.83700 32.07600
O  15.56400 3.07900 33.38200
C  16.38100 3.76300 34.32600
H  19.69100 -3.57900 31.34900
H  18.76000 -4.13100 24.82500
H  15.03100 0.92900 25.01000
H  17.30200 0.14100 33.19400
H  18.22200 -2.67600 33.07000
H  19.58000 -0.18000 33.27300
H  20.39400 -0.94200 31.93400
H  20.31500 -1.82700 33.38500
H  15.92400 -2.49500 33.76200
H  15.05500 -1.33800 32.77100
H  14.76800 -1.35400 35.31600
H  14.91900 0.18800 34.44900
H  20.86200 -6.58000 29.62700
H  20.60900 -5.28600 30.77200
H  21.93100 -5.20700 29.50800
H  22.20900 -6.42000 27.57400
H  21.91900 -7.36200 25.99600
H  20.82000 -7.65600 27.19600
H  17.26600 -2.83200 23.18200
H  16.86200 0.01200 23.37700
H  19.10500 -0.57100 22.75200
H  19.00200 -2.10800 22.04800
H  19.81200 -1.75900 23.59200
H  15.46000 -1.71600 22.32600
H  14.51300 -0.30900 22.73500
H  13.62500 -2.61500 23.21700
H  13.04300 -1.35800 24.20200
H  14.31100 -2.54500 24.79000
H  13.87800 3.73000 26.88900
H  12.56500 2.71700 27.27300
H  13.43400 2.36200 25.79800
H  14.53100 1.25500 32.19600
H  16.98700 4.57400 33.92100
H  17.14900 3.12300 34.75800
H  15.69200 4.35900 34.92600
Mg 17.35900 51.94300 26.35200
C  19.44700 50.73000 28.81100
C  15.08300 52.85800 28.74700
C  15.39100 53.17600 23.83600
C  19.69000 50.91000 23.90300
N  17.28400 51.74800 28.51700
C  18.28300 51.32500 29.30500
C  17.98900 51.49700 30.79400
C  16.46600 51.83600 30.75200
C  16.23300 52.21000 29.28600
C  15.56700 50.60700 31.11900
C  18.91700 52.55600 31.42500
C  18.86500 52.71700 32.95200
H  17.82700 51.92700 33.74900
N  15.47500 52.90900 26.30100
C  14.71500 53.21500 27.39200
C  13.62400 53.96000 26.89700
C  13.63400 54.01200 25.49500
C  14.82000 53.31900 25.15000
C  12.67300 54.57100 27.95800
C  12.69900 54.77600 24.51100
O  13.00300 54.79100 23.38200
C  11.44100 55.54300 25.05300
N  17.47900 51.87900 24.15000
C  16.56000 52.55100 23.38100
C  16.84100 52.32600 21.87600
C  18.32200 51.71800 21.94700
C  18.53400 51.56600 23.46900
C  15.83700 51.34600 21.17600
C  19.34500 52.58500 21.23300
C  19.51200 54.02900 21.87200
N  19.13300 50.89700 26.28400
C  19.96900 50.58000 25.26100
C  21.16500 49.89500 25.80000
C  20.97400 49.92000 27.20500
C  19.74600 50.54800 27.41400
C  22.31600 49.25800 25.03300
C  21.56100 49.57800 28.48300
O  22.62100 48.99800 28.76900
C  20.64300 50.13800 29.55100
C  20.25600 48.96400 30.37400
O  19.71900 47.99100 29.85600
O  20.50900 49.17900 31.68400
C  20.03300 48.09900 32.59000
H  14.34500 53.20500 29.47400
H  14.77600 53.49500 22.99200
H  20.38600 50.51900 23.15800
H  18.26200 50.67000 31.45000
H  16.25300 52.72300 31.34900
H  15.08900 50.83400 32.07200
H  16.23800 49.75500 31.22800
H  14.77200 50.55200 30.37500
H  18.65300 53.56100 31.09800
H  19.92100 52.36800 31.04400
H  18.74400 53.77800 33.17400
H  19.86500 52.36400 33.20400
H  12.61000 54.03500 28.90500
H  11.63700 54.64600 27.63000
H  13.13300 55.52900 28.20000
H  11.84300 56.21200 25.81300
H  10.84700 54.74000 25.49000
H  11.00000 56.11000 24.23300
H  16.85900 53.29600 21.37900
H  18.28500 50.74800 21.45000
H  15.26800 50.81700 21.94000
H  16.38000 50.76200 20.43200
H  15.17800 51.87800 20.49100
H  19.00300 52.65600 20.20100
H  20.33400 52.12600 21.21600
H  18.96300 54.70400 21.21600
H  20.56200 54.31200 21.78700
H  19.18300 54.01700 22.91100
H  22.14200 48.19000 24.90200
H  23.27400 49.50800 25.48800
H  22.47700 49.74000 24.06900
H  21.21300 50.75300 30.24700
H  19.09200 47.64300 32.28400
H  20.07500 48.60900 33.55300
H  20.73000 47.26100 32.57400

