158

Mg 26.24900 -0.09300 29.40300
C  28.12900 -0.61500 32.30800
C  23.51500 0.18700 31.31800
C  24.55400 0.06400 26.58300
C  29.20100 -0.88400 27.53300
N  25.85300 -0.47400 31.59700
C  26.84000 -0.35100 32.60400
C  26.23400 -0.23400 33.91400
C  24.70100 -0.04800 33.59000
C  24.63700 -0.08300 32.08300
C  23.68800 -1.04800 34.33400
C  26.96200 0.66400 34.97300
C  26.26500 1.04700 36.26500
H  26.57600 0.23500 37.51400
N  24.24300 0.10700 29.01400
C  23.28300 0.18300 29.93600
C  22.05600 0.45800 29.25800
C  22.24900 0.29300 27.84500
C  23.71000 0.12300 27.68300
C  20.76200 0.75200 30.06300
C  21.27800 0.24900 26.67100
O  21.52900 0.03300 25.49200
C  19.96700 0.56300 27.04600
N  26.82600 -0.35200 27.34400
C  25.89300 -0.18400 26.34100
C  26.52900 -0.16100 24.91200
C  28.05500 -0.18900 25.31300
C  28.07000 -0.49100 26.83000
C  26.11900 -1.30700 23.96600
C  28.93100 0.96500 24.97200
C  30.41700 0.73000 24.80700
N  28.33000 -0.66800 29.79400
C  29.35700 -0.98500 28.92700
C  30.51200 -1.28000 29.66200
C  30.10700 -1.04900 30.97200
C  28.75100 -0.71700 31.04800
C  31.77700 -1.74900 29.14500
C  30.57700 -1.11500 32.35500
O  31.73400 -1.30800 32.77800
C  29.32000 -0.77300 33.25100
C  29.21300 -1.83000 34.26900
O  28.60900 -2.91300 34.04000
O  29.83400 -1.51800 35.48200
C  29.75000 -2.49200 36.53500
H  22.62900 0.35300 31.93400
H  24.02000 0.09400 25.63000
H  30.05600 -0.93500 26.85500
H  26.35200 -1.21500 34.37300
H  24.31000 0.93600 33.84800
H  22.92100 -1.37500 33.63200
H  23.25800 -0.52100 35.18600
H  24.17400 -1.86600 34.86600
H  27.41300 1.58300 34.59900
H  27.87100 0.14400 35.27700
H  25.18100 1.11300 36.16600
H  26.48700 2.10300 36.41900
H  20.25500 1.55800 29.53200
H  21.04300 1.14700 31.03900
H  20.03500 -0.05800 30.12200
H  19.36500 0.53700 26.13800
H  19.87000 1.62000 27.29400
H  19.50400 -0.08100 27.79300
H  26.27800 0.81300 24.49000
H  28.52600 -1.08100 24.90000
H  25.41400 -1.95700 24.48500
H  26.95900 -1.83400 23.51400
H  25.49900 -0.93900 23.14900
H  28.95400 1.77400 25.70200
H  28.65700 1.51200 24.06900
H  30.62800 1.13000 23.81600
H  30.67100 -0.33000 24.76500
H  31.04200 1.15300 25.59300
H  32.26200 -2.17200 30.02400
H  32.42800 -1.09800 28.56100
H  31.43500 -2.53400 28.47000
H  29.60200 0.17300 33.71500
H  29.79200 -3.52400 36.18400
H  28.74900 -2.38400 36.95400
H  30.44500 -2.45700 37.37400
Mg 29.39900 58.78400 41.17200
C  26.45200 57.13900 40.30100
C  31.22700 56.23700 39.87700
C  32.05400 60.95000 40.90600
C  27.45600 61.65900 41.98100
N  28.84300 57.01600 40.15500
C  27.57700 56.43600 39.99300
C  27.69300 55.15300 39.20500
C  29.18900 54.73200 39.47300
C  29.83200 56.08700 39.87000
C  29.33800 53.54100 40.49800
C  27.32300 55.38000 37.66900
C  26.35700 54.42600 36.94900
H  25.62700 55.01100 35.69900
N  31.40400 58.52200 40.75200
C  31.96500 57.35100 40.26500
C  33.38800 57.60800 40.21200
C  33.66300 58.94300 40.53300
C  32.36200 59.54400 40.75500
C  34.39900 56.51000 39.68900
C  35.08000 59.50800 40.72500
O  36.00800 58.75200 40.66200
C  35.26200 60.86100 41.27300
N  29.72900 61.07000 41.52500
C  30.96300 61.58200 41.41700
C  30.98100 63.07900 41.73700
C  29.45200 63.35700 42.02400
C  28.80600 61.99100 41.93800
C  31.94400 63.40200 42.98000
C  28.77300 64.33800 41.05600
C  27.99700 65.48800 41.83600
N  27.38900 59.29900 41.22900
C  26.73200 60.48500 41.59800
C  25.25900 60.25600 41.47100
C  25.08200 59.00900 40.99800
C  26.44600 58.45000 40.86100
C  24.24700 61.35900 41.79000
C  24.12400 57.98700 40.58100
O  22.91500 58.01000 40.62700
C  24.97000 56.85300 40.13400
C  24.57900 55.67600 41.09200
O  24.51300 55.77400 42.33200
O  24.16300 54.52700 40.37800
C  23.86000 53.32800 41.11800
H  31.62700 55.28900 39.51200
H  32.88700 61.56400 40.55800
H  26.90100 62.53300 42.32700
H  26.96800 54.40100 39.51600
H  29.58700 54.38100 38.52000
H  29.57400 53.86200 41.51300
H  30.15700 52.88800 40.19600
H  28.41300 52.96500 40.50700
H  28.22900 55.35700 37.06300
H  26.98600 56.40500 37.51000
H  25.58300 54.11400 37.65100
H  26.88900 53.51700 36.67100
H  35.00400 56.97800 38.91200
H  33.89300 55.62600 39.30100
H  35.08700 56.09600 40.42700
H  35.16400 61.59800 40.47600
H  36.29900 60.92500 41.60500
H  34.59900 61.04200 42.12000
H  31.20200 63.59500 40.80300
H  29.38200 63.79000 43.02200
H  31.38300 63.91900 43.75900
H  32.72400 64.09000 42.65300
H  32.41200 62.49800 43.36900
H  28.10800 63.83100 40.35700
H  29.45900 64.76200 40.32300
H  26.91900 65.47300 41.67700
H  28.27900 66.50300 41.55400
H  28.26600 65.51000 42.89200
H  24.53100 62.27400 41.27100
H  24.45400 61.49400 42.85100
H  23.22000 61.04800 41.59500
H  24.70500 56.58100 39.11300
H  23.27300 52.76500 40.39300
H  23.36400 53.54500 42.06400
H  24.69200 52.64900 41.30300

