158

Mg 47.96300 16.06600 28.19100
C  45.75400 15.85500 31.07700
C  49.91500 18.24100 30.19400
C  49.90500 16.70600 25.55200
C  45.67100 14.27400 26.37900
N  47.79600 16.99400 30.35700
C  46.89500 16.57300 31.38600
C  47.38000 17.16300 32.78900
C  48.54100 18.15700 32.32700
C  48.74900 17.75200 30.90300
C  48.28500 19.69100 32.39800
C  47.93300 16.10800 33.81300
C  47.69800 16.48600 35.27500
H  47.28000 17.90000 35.62500
N  49.67300 17.28800 27.91600
C  50.31900 18.04400 28.88800
C  51.50300 18.57800 28.38100
C  51.45100 18.30800 26.90300
C  50.30300 17.35800 26.72200
C  52.44000 19.45100 29.16900
C  52.34000 18.92000 25.76400
O  52.16400 18.69600 24.56400
C  53.52700 19.77800 26.12800
N  47.76300 15.61000 26.25700
C  48.74500 15.91800 25.35000
C  48.38800 15.35100 24.00200
C  47.21600 14.44000 24.28600
C  46.86700 14.74300 25.75000
C  48.16600 16.45000 22.99400
C  47.58900 12.92500 24.05100
C  46.96400 12.28700 22.79100
N  46.00100 15.27300 28.50500
C  45.20700 14.54300 27.64900
C  43.99200 14.16300 28.34800
C  44.13700 14.66000 29.70800
C  45.42700 15.32900 29.75800
C  42.87000 13.38700 27.75500
C  43.51900 14.70600 31.05200
O  42.46700 14.30900 31.48600
C  44.58500 15.38800 31.98500
C  44.00100 16.64100 32.62600
O  43.95900 17.69500 32.09900
O  43.53600 16.37500 33.87100
C  43.07300 17.55700 34.64000
H  50.59300 18.88900 30.75300
H  50.45000 16.97100 24.64400
H  45.12500 13.54500 25.77700
H  46.55100 17.80500 33.08300
H  49.46100 18.02000 32.89600
H  48.17100 20.12600 31.40500
H  49.16000 20.13200 32.87600
H  47.42600 19.94300 33.02100
H  49.00700 15.94100 33.72500
H  47.50500 15.12100 33.64000
H  48.63800 16.37100 35.81400
H  46.94200 15.81500 35.68400
H  52.94900 18.93000 29.98000
H  51.92400 20.22600 29.73500
H  53.29500 19.87700 28.64500
H  53.26600 20.75100 26.54500
H  53.98600 19.92400 25.15000
H  54.06800 19.16600 26.85000
H  49.25000 14.76100 23.69100
H  46.42200 14.73700 23.60000
H  48.94700 16.24300 22.26200
H  48.29500 17.46000 23.38500
H  47.30100 16.26900 22.35600
H  47.28100 12.31500 24.90000
H  48.67400 12.83100 24.01400
H  46.50000 11.34300 23.07600
H  47.75700 12.16900 22.05200
H  46.22100 12.89600 22.27500
H  43.11500 13.03800 26.75200
H  42.01900 14.05200 27.61000
H  42.62400 12.51400 28.35900
H  44.83400 14.66600 32.76300
H  42.01600 17.82500 34.63900
H  43.59100 18.49400 34.43700
H  43.49100 17.38600 35.63200
Mg 1.08100 43.29400 26.47600
C  3.30500 43.17300 29.14200
C  -1.36500 42.40300 28.64000
C  -0.89500 42.88600 23.72300
C  3.77400 43.75600 24.26400
N  0.95000 42.91200 28.70200
C  2.00000 42.91700 29.54700
C  1.63000 42.64200 31.02900
C  0.20400 42.13500 30.79300
C  -0.16700 42.55400 29.31900
C  -0.10200 40.71000 31.16000
C  1.62800 43.96500 31.87900
C  1.38200 43.93000 33.38400
H  1.11100 42.60100 34.09600
N  -0.87800 42.86500 26.20500
C  -1.69600 42.50800 27.24200
C  -3.01800 42.27300 26.69300
C  -2.92200 42.55100 25.24500
C  -1.51000 42.78600 25.00300
C  -4.10800 41.64100 27.48900
C  -3.99400 42.42900 24.13300
O  -3.81800 42.52300 22.89900
C  -5.46300 42.08600 24.56000
N  1.41900 43.23200 24.29400
C  0.45200 43.08000 23.33700
C  0.95000 43.26400 21.86500
C  2.40500 43.76100 22.13200
C  2.59200 43.56000 23.65200
C  0.81400 41.93600 20.98300
C  2.71200 45.26300 21.73700
C  4.02800 45.44700 20.92300
N  3.09900 43.57600 26.62200
C  4.07900 43.76500 25.69000
C  5.32200 43.91300 26.34800
C  5.08400 43.63800 27.63200
C  3.70000 43.47400 27.80900
C  6.63200 44.14900 25.65400
C  5.77200 43.49000 28.92700
O  6.93100 43.48600 29.19400
C  4.58900 43.16200 29.89800
C  4.85200 41.91300 30.61200
O  5.20500 40.92800 30.04100
O  4.66300 42.10300 31.97100
C  5.21300 41.21000 33.02200
H  -2.14100 41.97600 29.27700
H  -1.61500 42.84500 22.90300
H  4.67400 44.04100 23.71500
H  2.23400 41.88200 31.52400
H  -0.46300 42.79800 31.34500
H  0.73000 40.20900 31.65500
H  -0.27000 40.18400 30.22000
H  -1.05000 40.59900 31.68600
H  0.91800 44.68700 31.47500
H  2.63300 44.36500 31.74600
H  0.44300 44.48000 33.45700
H  2.14600 44.54400 33.86000
H  -5.07400 41.56800 26.98900
H  -4.19000 42.22300 28.40700
H  -3.84700 40.61600 27.75300
H  -5.90400 42.60600 25.41100
H  -5.37300 41.06900 24.93900
H  -6.15000 42.05900 23.71400
H  0.33600 44.07600 21.47500
H  3.09800 43.03100 21.71500
H  0.80900 41.09800 21.68000
H  1.76300 41.86900 20.45200
H  -0.09000 41.98900 20.37600
H  2.75400 45.88200 22.63300
H  1.93800 45.50300 21.00800
H  4.48800 44.46600 20.79900
H  4.53200 46.28600 21.40200
H  3.83300 45.86400 19.93500
H  7.34300 44.42700 26.43200
H  6.60300 44.96600 24.93300
H  7.05300 43.24400 25.21500
H  4.35800 43.98300 30.57600
H  4.43200 40.67400 33.56100
H  5.70900 41.80700 33.78700
H  5.92000 40.54600 32.52500

