158

Mg 26.80500 49.94900 26.53700
C  24.51000 51.06400 29.02500
C  28.95300 48.93700 29.08100
C  29.10000 49.25700 24.27600
C  24.60800 51.26700 24.13700
N  26.73200 49.97500 28.81400
C  25.61700 50.34800 29.53500
C  26.00300 50.24100 31.01600
C  27.56300 49.82500 31.00300
C  27.74200 49.47400 29.52200
C  28.50000 50.94800 31.55900
C  25.04200 49.41300 31.84000
C  24.47100 49.99000 33.12000
H  24.52000 49.12900 34.43000
N  28.67800 49.14500 26.68500
C  29.38900 48.76900 27.79600
C  30.63000 48.12900 27.39200
C  30.69200 48.19300 25.95000
C  29.41100 48.80600 25.56000
C  31.60200 47.57100 28.33800
C  31.81000 47.80000 25.06800
O  31.82000 48.00400 23.85100
C  33.03000 47.21100 25.53800
N  26.84100 50.11300 24.60700
C  27.92800 49.80200 23.83800
C  27.62600 49.83100 22.35700
C  26.15700 50.28900 22.37800
C  25.83200 50.62100 23.80300
C  28.50400 50.78600 21.57200
C  25.26500 49.16900 21.75600
C  24.70100 49.66000 20.40700
N  24.92400 50.99200 26.56800
C  24.21200 51.44200 25.48100
C  23.04500 52.07100 25.98000
C  23.14800 52.02500 27.38300
C  24.31900 51.29500 27.63200
C  21.93800 52.76900 25.17100
C  22.50800 52.36000 28.49500
O  21.39600 52.82700 28.57400
C  23.35500 51.71900 29.64300
C  23.78600 52.86500 30.44400
O  24.69800 53.70600 30.17100
O  22.88100 52.86600 31.50200
C  22.99800 53.96700 32.42100
H  29.50500 48.57900 29.95200
H  29.74400 48.96900 23.44200
H  23.90200 51.62200 23.38400
H  25.87500 51.21400 31.49100
H  27.69200 48.98400 31.68500
H  28.89000 51.43100 30.66300
H  29.23400 50.40000 32.15000
H  27.95100 51.72900 32.08500
H  25.54600 48.46600 32.03400
H  24.28100 49.11400 31.11900
H  23.38500 50.05500 33.04900
H  24.92200 50.95900 33.33300
H  32.53500 47.99500 27.96600
H  31.59000 46.48600 28.23100
H  31.42100 47.80300 29.38800
H  32.80700 46.35800 26.17900
H  33.50700 48.03400 26.06900
H  33.75500 46.98700 24.75600
H  27.76100 48.82000 21.97200
H  25.99500 51.21400 21.82400
H  29.32000 51.15200 22.19500
H  27.86700 51.53700 21.10400
H  29.09000 50.30600 20.78800
H  24.37900 48.90000 22.33200
H  25.74900 48.19900 21.64000
H  23.64700 49.88200 20.57400
H  24.83300 48.84400 19.69600
H  25.27900 50.48000 19.97900
H  22.38900 52.95300 24.19500
H  21.70900 53.76300 25.55700
H  21.07800 52.10100 25.14600
H  22.79300 51.04600 30.29100
H  23.35400 54.89200 31.96600
H  23.74200 53.72400 33.18000
H  22.07400 54.08300 32.98700
Mg 6.14200 53.66900 41.76700
C  5.40800 50.19900 41.54700
C  9.10900 53.11100 40.34500
C  6.53200 57.03900 41.44800
C  2.85400 54.17600 42.92900
N  7.03100 51.88700 40.91100
C  6.64000 50.57000 41.00300
C  7.77400 49.62900 40.56400
C  8.97100 50.53600 40.81600
C  8.38300 51.98000 40.63000
C  9.78800 50.39100 42.14100
C  7.64500 49.12300 39.09300
C  7.34700 50.26400 38.06900
H  6.15600 50.25800 37.29700
N  7.65100 54.93800 41.12900
C  8.86700 54.49100 40.50700
C  9.78500 55.65000 40.30700
C  8.98800 56.80900 40.57700
C  7.61900 56.27600 41.07200
C  11.21900 55.44500 39.79500
C  9.48200 58.18500 40.43600
O  10.55800 58.33500 39.93500
C  8.71200 59.43300 40.90200
N  4.82300 55.33800 42.11000
C  5.29400 56.67900 42.01100
C  4.16900 57.67400 42.40000
C  2.99200 56.78100 42.89300
C  3.53000 55.35400 42.62000
C  4.60800 58.78700 43.41000
C  1.55200 56.99000 42.17200
C  0.25000 56.92400 42.95900
N  4.47400 52.46400 42.30000
C  3.22300 52.79700 42.81500
C  2.52700 51.63700 43.20600
C  3.33100 50.57200 42.62200
C  4.50400 51.17700 42.09800
C  1.26800 51.41400 43.90200
C  3.40900 49.09700 42.47000
O  2.66800 48.15800 42.80500
C  4.69700 48.79900 41.61200
C  4.24800 48.32000 40.39800
O  3.39700 48.78800 39.69400
O  4.88200 47.13400 40.07200
C  4.64400 46.45300 38.76800
H  10.15700 53.00700 40.05500
H  6.53900 58.12800 41.36500
H  1.85500 54.30700 43.35000
H  7.71400 48.77900 41.24400
H  9.67300 50.40100 39.99300
H  9.55100 49.50200 42.72500
H  9.64900 51.17300 42.88800
H  10.83400 50.28500 41.85600
H  6.91600 48.31400 39.12200
H  8.56700 48.59800 38.84300
H  8.26500 50.33300 37.48500
H  7.22600 51.21300 38.59000
H  11.77400 56.37400 39.93400
H  11.35200 55.14400 38.75600
H  11.78200 54.87500 40.53400
H  7.75600 59.47600 40.38000
H  9.22800 60.38500 41.02300
H  8.54300 59.17000 41.94600
H  3.76600 58.09500 41.47900
H  2.89200 56.91900 43.97000
H  5.64900 58.66200 43.70700
H  4.12100 58.63100 44.37300
H  4.19300 59.74800 43.10500
H  1.43500 56.25900 41.37100
H  1.50900 57.96200 41.68000
H  0.45900 57.14600 44.00600
H  -0.15900 55.91400 42.93700
H  -0.56000 57.59700 42.68000
H  1.22800 51.70100 44.95200
H  0.97200 50.37300 43.76900
H  0.49000 52.00800 43.42300
H  5.24300 48.09400 42.23900
H  5.55000 46.21900 38.20900
H  3.89500 46.96600 38.16500
H  4.11900 45.55700 39.09900

