158

Mg 40.39600 9.88000 29.80300
C  42.67300 10.75700 32.34600
C  38.26700 8.67200 32.21400
C  38.46700 8.84100 27.43700
C  42.70900 10.95200 27.36300
N  40.55300 9.63200 32.02200
C  41.48800 10.17000 32.86100
C  41.13800 10.01400 34.37000
C  39.71600 9.25800 34.31000
C  39.46000 9.21700 32.81000
C  39.69800 7.90400 35.03600
C  41.02200 11.37900 35.14000
C  40.19600 11.40800 36.47500
H  40.71700 12.17500 37.63600
N  38.55500 8.89200 29.83600
C  37.84700 8.41700 30.90100
C  36.61200 7.80600 30.41900
C  36.62500 7.95200 29.00700
C  37.92500 8.55700 28.64500
C  35.65000 7.12000 31.40800
C  35.57500 7.58100 28.07400
O  35.69300 7.82900 26.90200
C  34.26500 7.08300 28.59100
N  40.67000 9.71100 27.72100
C  39.73000 9.20300 26.99200
C  39.88600 9.37600 25.53600
C  41.21400 10.09600 25.42000
C  41.59300 10.26200 26.93700
C  39.82600 7.96300 24.82300
C  41.15600 11.50100 24.60300
C  40.79400 12.79500 25.24800
N  42.32300 10.54000 29.82500
C  43.07800 11.05900 28.73600
C  44.28700 11.70700 29.26200
C  44.14400 11.56600 30.70700
C  42.99900 10.87700 30.97600
C  45.30500 12.45500 28.47000
C  44.78400 11.96400 31.98600
O  45.78800 12.63400 32.20400
C  43.73500 11.45200 33.13400
C  44.46800 10.53800 34.06700
O  45.26100 9.64900 33.70500
O  43.99700 10.80100 35.34600
C  44.37700 9.84100 36.38500
H  37.60100 8.32400 33.00600
H  37.84900 8.56600 26.57900
H  43.44200 11.42300 26.70400
H  41.96200 9.44400 34.80000
H  38.87300 9.89000 34.59000
H  39.39500 7.05300 34.42600
H  38.83000 7.79100 35.68500
H  40.61000 7.60500 35.55200
H  40.43900 12.02200 34.48100
H  42.00600 11.81200 35.31800
H  40.16200 10.38300 36.84400
H  39.16300 11.68400 36.26200
H  34.67100 7.59900 31.43300
H  36.13100 7.01400 32.38100
H  35.42000 6.12900 31.01500
H  34.49700 6.11100 29.02600
H  33.61500 6.86200 27.74500
H  33.77900 7.64300 29.39100
H  39.24300 10.17100 25.15800
H  42.02300 9.53500 24.95300
H  39.84100 7.25700 25.65400
H  40.69000 7.94900 24.15900
H  38.88500 7.78300 24.30400
H  40.50900 11.38800 23.73300
H  42.14800 11.56700 24.15800
H  41.59100 13.47800 24.95600
H  40.74900 12.63600 26.32600
H  39.81000 13.13500 24.92500
H  44.90100 12.88800 27.55500
H  46.06600 11.72600 28.19300
H  45.70200 13.22600 29.13000
H  43.52400 12.35900 33.69900
H  45.37000 10.03700 36.79100
H  44.28700 8.82100 36.01100
H  43.63100 10.03400 37.15500
Mg -12.69500 17.12700 41.39300
C  -9.87600 15.04900 40.96300
C  -10.93800 19.65100 39.85800
C  -15.68500 18.92500 40.97200
C  -14.58300 14.41100 42.40700
N  -10.63900 17.26100 40.51400
C  -9.65400 16.36000 40.57900
C  -8.28200 16.89000 40.07400
C  -8.58600 18.40900 39.74600
C  -10.17900 18.46100 40.05500
C  -7.72500 19.45500 40.54600
C  -7.76900 16.15000 38.77600
C  -6.17900 16.25700 38.66500
H  -5.54100 16.10400 37.28400
N  -13.19900 19.05100 40.52900
C  -12.31000 19.93600 39.97800
C  -13.07700 21.16800 39.65700
C  -14.44000 21.00700 40.00000
C  -14.48900 19.57700 40.43400
C  -12.42000 22.36100 39.14000
C  -15.51300 22.03600 39.78000
O  -15.25300 23.13000 39.27000
C  -16.88000 21.81700 40.20100
N  -14.84400 16.73600 41.68200
C  -15.84500 17.63000 41.51300
C  -17.20300 17.07300 41.91900
C  -16.89100 15.58700 42.29200
C  -15.35400 15.51100 42.10600
C  -18.08500 17.92700 42.91500
C  -17.66600 14.42300 41.60200
C  -18.14000 13.26600 42.47900
N  -12.37700 15.15800 41.74400
C  -13.21700 14.17300 42.19100
C  -12.43900 12.84200 42.35600
C  -11.14000 13.21600 41.92000
C  -11.17200 14.57300 41.52500
C  -12.96100 11.54700 42.83900
C  -9.80500 12.76000 41.74200
O  -9.43000 11.60900 41.97200
C  -8.87600 13.93100 41.18500
C  -7.92100 14.39300 42.21200
O  -8.18400 14.89300 43.29000
O  -6.62200 14.01000 41.78400
C  -5.48600 14.55100 42.56200
H  -10.32700 20.48400 39.50500
H  -16.64900 19.40200 40.78300
H  -15.17400 13.55600 42.74300
H  -7.55600 16.75900 40.87600
H  -8.43700 18.69100 38.70400
H  -8.38300 19.93600 41.27000
H  -7.29300 20.19600 39.87400
H  -6.96500 18.88100 41.07600
H  -8.20200 16.56500 37.86600
H  -8.00900 15.09000 38.85300
H  -5.67500 15.53500 39.30700
H  -6.04700 17.30500 38.93300
H  -12.56600 23.24500 39.76100
H  -12.84000 22.61000 38.16500
H  -11.36800 22.26400 38.87300
H  -16.92000 21.57300 41.26200
H  -17.31900 21.01900 39.60100
H  -17.45000 22.73400 40.05000
H  -17.71400 16.96000 40.96300
H  -17.13100 15.40600 43.34000
H  -18.09000 17.26300 43.77900
H  -19.11300 18.09300 42.59100
H  -17.57900 18.82000 43.28200
H  -17.11200 13.93200 40.80200
H  -18.47700 14.97900 41.13200
H  -17.81400 13.43500 43.50500
H  -17.86000 12.28300 42.10200
H  -19.22600 13.28500 42.57300
H  -13.86200 11.57800 43.45200
H  -12.15200 11.20200 43.48300
H  -13.08000 11.03200 41.88500
H  -8.25800 13.57700 40.36000
H  -5.32500 15.62500 42.46600
H  -4.70900 14.01700 42.01600
H  -5.41400 14.24200 43.60500

