158

Mg 15.91600 -2.53700 28.25500
C  15.05600 -0.43700 30.99000
C  17.88400 -4.30500 30.27500
C  17.42500 -3.96200 25.52800
C  14.34400 -0.26500 26.17300
N  16.39800 -2.31000 30.42500
C  15.93500 -1.46300 31.33700
C  16.38500 -1.83100 32.76400
C  17.34900 -3.06800 32.53400
C  17.17400 -3.23500 31.00200
C  18.90400 -2.86000 32.82200
C  15.32000 -2.11000 33.86700
C  15.29700 -1.38700 35.19900
H  16.64800 -0.75500 35.69200
N  17.40300 -4.01100 27.96200
C  18.04500 -4.56000 28.93500
C  18.87300 -5.59300 28.43200
C  18.77300 -5.55900 26.99400
C  17.84700 -4.51000 26.73500
C  19.65300 -6.57700 29.32700
C  19.47100 -6.37700 25.83800
O  19.17600 -6.25100 24.62800
C  20.45000 -7.48200 26.14400
N  15.98600 -2.11000 26.04500
C  16.56500 -2.92100 25.16700
C  16.22200 -2.49500 23.73600
C  15.03100 -1.46900 23.92600
C  15.16600 -1.19300 25.46300
C  17.53000 -1.97400 23.00800
C  13.58400 -1.98100 23.71700
C  12.55000 -0.93800 23.18000
N  14.80500 -0.77900 28.45600
C  14.12700 -0.06000 27.50200
C  13.37200 1.06200 28.20800
C  13.71500 0.96200 29.56000
C  14.62200 -0.16100 29.67500
C  12.59100 2.15100 27.44300
C  13.62900 1.60500 30.81700
O  13.18800 2.69900 31.07400
C  14.34000 0.63700 31.92500
C  15.17700 1.43400 32.90600
O  16.36500 1.74100 32.77500
O  14.30900 1.94500 33.88900
C  14.86600 3.04800 34.68100
H  18.39700 -5.04700 30.89100
H  17.89400 -4.41400 24.65100
H  13.74900 0.42800 25.57500
H  16.88600 -0.93500 33.12900
H  16.97100 -3.96200 33.03000
H  19.47700 -2.71500 31.90600
H  19.24500 -3.75600 33.34100
H  19.31900 -2.04500 33.41500
H  15.24400 -3.16700 34.12200
H  14.37200 -1.77900 33.44300
H  14.90000 -1.97400 36.02700
H  14.63400 -0.52600 35.10700
H  19.68100 -7.44800 28.67300
H  19.13700 -6.87600 30.23900
H  20.67700 -6.20800 29.39100
H  19.91100 -8.34000 26.54600
H  21.14900 -7.07400 26.87500
H  20.84300 -7.85300 25.19800
H  15.92200 -3.35500 23.13700
H  15.20800 -0.66200 23.21500
H  17.49400 -0.88500 22.98600
H  17.63500 -2.43800 22.02700
H  18.45300 -2.21600 23.53600
H  13.16400 -2.37100 24.64400
H  13.68800 -2.82500 23.03600
H  12.01300 -0.67100 24.09000
H  11.88900 -1.42400 22.46200
H  13.15000 -0.11100 22.80100
H  11.62500 2.22900 27.94100
H  12.50700 1.85800 26.39700
H  13.07900 3.11600 27.58200
H  13.55700 0.15000 32.50700
H  15.77100 2.71200 35.18700
H  14.17400 3.25500 35.49700
H  14.95500 3.85000 33.94800
Mg 49.19000 36.06300 27.59500
C  47.17500 34.59000 30.02400
C  49.63700 38.68800 29.61200
C  50.38000 37.81300 24.99200
C  48.52600 33.37100 25.52000
N  48.56700 36.55200 29.62800
C  47.84500 35.77600 30.45600
C  48.00200 36.26900 31.95200
C  48.48800 37.71500 31.74200
C  48.95500 37.66900 30.28800
C  47.39600 38.80200 31.82900
C  49.08800 35.42900 32.65800
C  49.03800 35.40100 34.21300
H  48.11700 36.42000 34.91800
N  49.93900 38.02700 27.34200
C  50.05400 38.93600 28.27500
C  50.63200 40.17900 27.70700
C  50.87700 39.92700 26.34600
C  50.33800 38.55100 26.18500
C  50.88800 41.34300 28.48100
C  51.47400 40.82300 25.25500
O  51.54400 40.49700 24.09400
C  52.18600 42.10400 25.63800
N  49.16100 35.68800 25.45800
C  49.94900 36.51200 24.74200
C  50.35100 35.87600 23.40100
C  49.72300 34.41100 23.54200
C  49.12900 34.45800 24.95700
C  50.14000 36.54400 21.97900
C  50.75900 33.24600 23.22400
C  50.53400 32.42300 21.91900
N  48.10400 34.30700 27.68600
C  48.05500 33.27200 26.84600
C  47.19900 32.21500 27.38600
C  46.72700 32.72800 28.58400
C  47.42200 33.94000 28.76500
C  46.86800 30.94500 26.87800
C  45.81700 32.59100 29.66800
O  45.09900 31.63600 29.88600
C  46.02900 33.80000 30.69900
C  46.23900 33.12700 32.04700
O  47.33400 32.59900 32.35600
O  45.15600 33.45200 32.91100
C  45.20300 33.01900 34.29200
H  49.98900 39.44800 30.31300
H  50.91200 38.26600 24.15300
H  48.51900 32.52200 24.83400
H  47.03800 36.07200 32.42100
H  49.30100 38.02900 32.39700
H  47.16300 38.60400 32.87500
H  46.59400 38.61900 31.11300
H  47.83000 39.80200 31.81600
H  50.05600 35.87500 32.42800
H  49.08000 34.40500 32.28500
H  50.04200 35.59900 34.58900
H  48.66400 34.39700 34.40800
H  50.80900 42.20900 27.82400
H  51.91000 41.24600 28.84900
H  50.15700 41.50200 29.27400
H  52.91100 41.96300 26.44000
H  51.56600 42.96700 25.88100
H  52.75400 42.35500 24.74200
H  51.43700 35.86400 23.49000
H  48.85900 34.34800 22.88100
H  49.48300 37.40000 22.13200
H  49.57900 35.87200 21.32900
H  51.06600 36.81800 21.47400
H  50.94700 32.69700 24.14600
H  51.66000 33.81500 22.99300
H  50.85000 33.01600 21.06000
H  49.44900 32.33100 21.87600
H  51.00100 31.43900 21.96000
H  47.81700 30.57000 26.49700
H  46.11100 30.97500 26.09400
H  46.57100 30.40400 27.77700
H  45.05700 34.28800 30.63000
H  44.17300 32.82500 34.58900
H  45.52200 33.83500 34.94000
H  45.79400 32.11300 34.42600

