158

Mg 8.48200 4.64500 27.55600
C  9.70800 2.92100 30.30700
C  6.56300 6.61600 29.72300
C  6.97400 6.04000 24.92900
C  10.06200 2.36800 25.43500
N  8.19300 4.78400 29.67500
C  8.83300 3.95200 30.62800
C  8.58800 4.55500 32.08300
C  7.68300 5.77800 31.78500
C  7.43800 5.75500 30.31000
C  6.31900 5.70100 32.65900
C  9.89200 4.89100 32.81800
C  9.65200 5.94300 33.95200
H  10.42300 5.67400 35.24000
N  7.09600 6.23400 27.28400
C  6.42300 6.91500 28.30800
C  5.61500 7.93500 27.76300
C  5.74000 7.78300 26.32300
C  6.70200 6.69600 26.10200
C  4.73200 8.93500 28.65600
C  4.97200 8.53800 25.30900
O  5.19000 8.39300 24.11200
C  3.93100 9.53100 25.68700
N  8.39200 4.14800 25.51600
C  7.79900 5.01200 24.59600
C  8.23500 4.68500 23.12300
C  9.35400 3.63700 23.36000
C  9.30100 3.32700 24.87400
C  7.09300 4.18900 22.22700
C  10.82500 4.11400 22.89600
C  11.57300 5.03300 23.85700
N  9.63600 2.96700 27.75100
C  10.28900 2.14700 26.81400
C  11.17600 1.27600 27.52100
C  10.97300 1.52400 28.86900
C  9.98500 2.50600 28.97000
C  12.16000 0.45900 26.88800
C  11.42700 1.16900 30.21200
O  12.21000 0.33000 30.63100
C  10.53300 2.02200 31.11500
C  9.68600 1.11200 31.87300
O  8.90700 0.31700 31.40600
O  9.96900 1.23100 33.20000
C  9.11200 0.46400 34.17000
H  6.10700 7.27600 30.46300
H  6.65000 6.54200 24.01400
H  10.74800 1.79900 24.80400
H  8.07200 3.83200 32.71500
H  8.17700 6.73100 31.97800
H  6.07100 6.67800 33.07300
H  6.58700 5.04800 33.49000
H  5.51000 5.19800 32.13000
H  10.53600 5.29300 32.03600
H  10.20400 3.98000 33.32800
H  8.59100 6.05200 34.17900
H  10.06100 6.89500 33.61500
H  5.04500 9.95600 28.44200
H  4.79800 8.77900 29.73200
H  3.68200 8.81300 28.38800
H  4.31300 10.38600 26.24500
H  3.17400 9.04600 26.30300
H  3.66200 9.97600 24.72900
H  8.61200 5.60700 22.67900
H  9.18100 2.64300 22.94700
H  6.25100 3.88000 22.84700
H  7.40300 3.29100 21.69300
H  6.92800 5.14100 21.72300
H  10.80400 4.65300 21.94900
H  11.38000 3.17800 22.83000
H  10.98000 5.06100 24.77100
H  11.72400 6.01500 23.40900
H  12.56600 4.64500 24.08500
H  12.47100 0.92300 25.95200
H  11.61200 -0.41400 26.53300
H  12.90800 0.22400 27.64600
H  11.26100 2.56000 31.72100
H  9.71900 -0.24400 34.73300
H  8.23600 -0.02300 33.74200
H  8.80700 1.25000 34.86100
Mg 16.83500 52.27900 25.49800
C  18.53700 50.72200 28.32100
C  14.18000 52.85500 27.71800
C  14.94200 52.99300 22.79800
C  19.39700 51.05100 23.50500
N  16.51700 51.95800 27.81000
C  17.34400 51.35900 28.71600
C  16.79500 51.57500 30.16400
C  15.33400 51.88100 29.77900
C  15.36100 52.29100 28.38000
C  14.25700 50.76600 30.08600
C  17.51000 52.76200 30.82700
C  17.37600 52.88500 32.35000
H  16.61900 51.85900 33.10100
N  14.91400 52.92800 25.36800
C  13.94000 53.09800 26.31700
C  12.68300 53.68500 25.66900
C  12.95700 53.66500 24.26700
C  14.30600 53.19000 24.05000
C  11.37700 54.00700 26.37600
C  12.00200 54.17400 23.09600
O  12.41500 54.23100 21.98700
C  10.62500 54.70400 23.41500
N  17.19600 52.24700 23.49200
C  16.28300 52.60000 22.50700
C  16.78700 52.29700 21.07200
C  18.29600 51.91900 21.29400
C  18.37500 51.80300 22.88100
C  15.99500 51.28800 20.23700
C  19.36000 52.80100 20.66400
C  20.31900 53.62400 21.50700
N  18.68200 51.27700 25.78400
C  19.57100 50.83000 24.83000
C  20.62900 49.94500 25.48000
C  20.29500 50.01300 26.79900
C  19.07700 50.75800 26.95300
C  21.87500 49.30600 24.80100
C  20.68200 49.54900 28.12800
O  21.65500 48.84800 28.42700
C  19.64200 50.07700 29.12000
C  19.40900 48.98100 30.07500
O  18.85600 47.89900 29.81300
O  20.10400 49.24100 31.31600
C  19.88700 48.35000 32.49900
H  13.35200 53.16200 28.36100
H  14.32400 53.05400 21.90100
H  20.12100 50.69100 22.77100
H  16.76500 50.64700 30.73500
H  14.97100 52.79400 30.25100
H  14.17000 50.10900 29.22100
H  13.28100 51.16700 30.35700
H  14.59800 50.10000 30.87800
H  17.13500 53.60700 30.25000
H  18.58700 52.74200 30.65800
H  16.96600 53.81700 32.73900
H  18.40500 52.90400 32.70800
H  10.72300 53.16800 26.13900
H  11.04400 54.95000 25.94400
H  11.42800 54.12100 27.45900
H  10.68200 55.56600 24.08000
H  10.06000 53.84700 23.78200
H  10.20900 54.96900 22.44300
H  16.76600 53.26800 20.57700
H  18.45700 50.89100 20.97000
H  16.60400 50.57100 19.68600
H  15.53300 51.88600 19.45100
H  15.25200 50.79000 20.86000
H  18.87100 53.41800 19.91000
H  20.04000 52.14700 20.11800
H  19.92600 53.77200 22.51300
H  20.50300 54.62400 21.11600
H  21.28800 53.12600 21.46600
H  22.75000 49.76000 25.26700
H  21.92000 49.52000 23.73300
H  21.88900 48.21900 24.88500
H  20.30300 50.82700 29.55400
H  19.20500 48.84100 33.19300
H  20.87800 48.29000 32.94700
H  19.57600 47.33200 32.26200

