158

Mg 7.87400 2.20200 27.87100
C  9.72700 0.83800 30.60200
C  6.11700 4.14300 30.05500
C  6.23300 3.44400 25.14300
C  9.40300 -0.31800 25.78900
N  7.94600 2.44400 30.04500
C  8.85000 1.94400 30.91300
C  8.70900 2.54400 32.28200
C  7.34400 3.32900 32.18800
C  7.04800 3.25700 30.62800
C  6.17700 2.68500 33.01800
C  9.89400 3.42400 32.68500
C  10.34500 3.05400 34.14300
H  10.35500 4.25200 35.09100
N  6.37000 3.66400 27.65200
C  5.80200 4.37100 28.67200
C  4.99900 5.42100 28.13100
C  4.88300 5.07100 26.75800
C  5.87500 4.04400 26.42500
C  4.18800 6.36000 28.98200
C  3.91000 5.67900 25.69100
O  3.90400 5.39800 24.51200
C  2.95800 6.71900 26.17400
N  7.75300 1.57600 25.76500
C  7.07800 2.42800 24.84000
C  7.37800 1.84100 23.48000
C  8.53000 0.81000 23.64600
C  8.54800 0.67600 25.16900
C  6.06400 1.28600 22.77300
C  9.93200 1.26700 23.23100
C  10.83400 0.18200 22.60700
N  9.20300 0.54300 28.07400
C  9.79100 -0.35800 27.17300
C  10.60400 -1.29000 27.90800
C  10.78200 -0.83400 29.23900
C  9.83200 0.25800 29.29900
C  11.22800 -2.40700 27.32000
C  11.42600 -0.92100 30.52100
O  12.39600 -1.65000 30.77900
C  10.81200 0.13500 31.47400
C  10.30000 -0.51200 32.63900
O  9.19800 -1.03900 32.58400
O  10.97100 -0.13200 33.73300
C  10.44700 -0.54800 35.08000
H  5.52500 4.71000 30.77800
H  5.82900 3.96700 24.27400
H  9.94500 -0.99000 25.11900
H  8.57100 1.84200 33.10400
H  7.47000 4.33400 32.59200
H  6.61500 1.90300 33.63900
H  5.49000 2.13600 32.37400
H  5.67200 3.43900 33.62100
H  9.76000 4.50200 32.59900
H  10.71200 3.17900 32.00700
H  11.38700 2.78800 33.96800
H  9.79700 2.26100 34.65200
H  3.15000 6.06400 29.13400
H  4.21800 7.39800 28.64900
H  4.59600 6.34700 29.99200
H  2.32700 6.97200 25.32200
H  3.55200 7.61000 26.37700
H  2.44600 6.34000 27.05800
H  7.72100 2.71800 22.93000
H  8.31900 -0.20300 23.30200
H  6.00900 0.20700 22.91600
H  5.97700 1.56900 21.72400
H  5.13400 1.62400 23.23100
H  10.40900 1.79500 24.05700
H  9.80500 1.98500 22.42100
H  11.34100 0.59900 21.73700
H  10.29700 -0.72000 22.31100
H  11.62600 -0.10500 23.29800
H  11.90100 -2.93000 27.99900
H  11.89400 -2.00200 26.55800
H  10.43000 -3.01800 26.89600
H  11.63100 0.83400 31.64100
H  11.25700 -0.95300 35.68800
H  9.74800 -1.38100 35.15800
H  10.00200 0.24200 35.68400
Mg 16.89200 -2.19000 27.92300
C  15.72300 0.00000 30.44300
C  19.14900 -3.55600 30.11000
C  18.13800 -3.96100 25.42200
C  14.70300 -0.55000 25.67100
N  17.37200 -1.81300 30.02100
C  16.77000 -0.87500 30.89600
C  17.37800 -0.96100 32.28500
C  18.51000 -2.09600 32.18300
C  18.43800 -2.48000 30.64500
C  19.96000 -1.52500 32.55800
C  16.27100 -1.33600 33.27700
C  16.32000 -1.04800 34.76800
H  17.57300 -0.31400 35.29500
N  18.35000 -3.64000 27.77300
C  19.07500 -4.13500 28.84200
C  19.83900 -5.28600 28.36300
C  19.50200 -5.46400 26.97900
C  18.60900 -4.35000 26.68800
C  20.88900 -6.15900 29.08800
C  20.12800 -6.45200 25.91000
O  19.97500 -6.34700 24.69800
C  20.96900 -7.64100 26.34500
N  16.50000 -2.34900 25.81700
C  17.24400 -3.02400 24.99300
C  17.01500 -2.59400 23.51700
C  15.68800 -1.81400 23.70100
C  15.63200 -1.51800 25.14000
C  18.19300 -1.78300 22.99200
C  14.49200 -2.64600 23.12100
C  13.66700 -1.91400 21.99600
N  15.57100 -0.56700 27.98200
C  14.70900 -0.03600 27.02900
C  13.84100 0.94500 27.57400
C  14.29300 1.11500 28.85000
C  15.18200 0.06500 29.09800
C  12.75700 1.72100 26.95000
C  14.09400 1.82500 30.11700
O  13.27500 2.68900 30.44600
C  15.08200 1.13300 31.15600
C  16.06500 2.18100 31.78300
O  17.23500 2.30600 31.45200
O  15.44700 2.79000 32.83700
C  16.31400 3.75800 33.56600
H  19.79100 -4.01900 30.86200
H  18.57000 -4.52100 24.58900
H  13.92600 -0.16700 25.00600
H  17.71600 0.00500 32.66000
H  18.32200 -3.01400 32.73800
H  19.99600 -0.47700 32.85500
H  20.66900 -1.78100 31.77000
H  20.34800 -2.05100 33.43100
H  16.22900 -2.42500 33.25000
H  15.25000 -1.10300 32.97500
H  16.16700 -1.91400 35.41200
H  15.46100 -0.40900 34.97200
H  20.46500 -7.16000 29.16500
H  21.13400 -5.72800 30.05900
H  21.86600 -6.29600 28.62300
H  21.74400 -7.47300 27.09300
H  21.45100 -8.12900 25.49800
H  20.30500 -8.42400 26.71300
H  16.85700 -3.46500 22.88100
H  15.74900 -0.82700 23.24200
H  18.78400 -2.47800 22.39500
H  18.74800 -1.51100 23.88900
H  17.97000 -0.93900 22.33900
H  13.72500 -2.79500 23.88100
H  14.80600 -3.63000 22.77300
H  14.10700 -0.93800 21.79300
H  12.62600 -1.85300 22.31200
H  13.67300 -2.41200 21.02600
H  12.31200 1.25500 26.07200
H  13.21700 2.63600 26.57800
H  11.95300 1.84600 27.67600
H  14.38700 0.67600 31.86000
H  16.74300 4.36600 32.77000
H  17.04700 3.20000 34.14800
H  15.63200 4.32700 34.19700

