158

Mg 30.18700 58.00300 40.10000
C  27.28800 56.52300 39.24800
C  31.85900 55.11500 39.38400
C  33.07800 59.77800 40.35100
C  28.42200 61.06500 40.31800
N  29.63900 56.01100 39.21600
C  28.35000 55.65600 38.97600
C  28.28800 54.21000 38.57800
C  29.73200 53.65800 39.10000
C  30.48000 54.95600 39.24400
C  29.82600 52.76500 40.38400
C  27.96200 53.77100 37.12000
C  28.49700 54.62200 35.94900
H  27.79300 54.65800 34.59300
N  32.17200 57.50500 39.84800
C  32.65500 56.24200 39.62800
C  34.07200 56.28200 39.59400
C  34.49400 57.56000 40.00600
C  33.23600 58.39600 40.12200
C  34.86400 55.03600 39.31500
C  35.87900 57.89300 40.34600
O  36.78200 57.11900 40.07400
C  36.20900 59.22100 41.05000
N  30.67300 60.10800 40.37300
C  31.93700 60.56700 40.46600
C  32.02800 62.09700 40.49400
C  30.49700 62.45000 40.56400
C  29.79000 61.15700 40.28800
C  32.95600 62.77800 41.51600
C  30.10500 63.41900 39.44000
C  29.08700 64.51200 39.76500
N  28.15100 58.68600 39.94400
C  27.52400 59.90700 40.17800
C  26.14400 59.76300 39.86600
C  26.01100 58.42500 39.52400
C  27.24100 57.83100 39.66300
C  25.19100 60.93200 39.75600
C  24.99100 57.47000 39.06800
O  23.82100 57.56700 38.77700
C  25.80700 56.13400 38.93100
C  25.34600 55.14900 39.93400
O  25.82500 54.99700 41.06300
O  24.43900 54.28500 39.32700
C  24.00500 53.15100 40.21200
H  32.28800 54.11200 39.32500
H  34.06200 60.25000 40.38000
H  27.98200 62.06200 40.40100
H  27.52000 53.90200 39.28800
H  30.29200 53.16900 38.30200
H  28.77300 52.54900 40.56300
H  30.24800 53.34900 41.20200
H  30.34800 51.86200 40.07000
H  26.87300 53.71700 37.11700
H  28.28700 52.75000 36.92000
H  29.57600 54.48000 35.88700
H  28.38700 55.64300 36.31400
H  34.31100 54.23800 38.81900
H  35.18600 54.60300 40.26200
H  35.67400 55.17200 38.59900
H  36.19400 60.09600 40.40000
H  37.26600 59.16700 41.31000
H  35.62100 59.38900 41.95200
H  32.33800 62.36400 39.48400
H  30.03000 62.72900 41.50900
H  32.32300 63.41700 42.13100
H  33.69900 63.36000 40.97000
H  33.47000 62.11700 42.21300
H  29.72400 62.87500 38.57500
H  30.96500 64.02200 39.14900
H  29.56400 65.45400 39.49300
H  28.90500 64.57500 40.83800
H  28.19500 64.40000 39.14800
H  24.73200 61.13400 40.72300
H  24.38700 60.65400 39.07500
H  25.63100 61.79500 39.25600
H  25.74900 55.72700 37.92100
H  23.09000 53.44700 40.72600
H  24.75400 52.80400 40.92400
H  23.72100 52.31500 39.57200
Mg 36.30100 48.98700 25.45400
C  36.38000 47.19900 28.50800
C  35.35800 51.85900 27.20200
C  35.63200 50.45400 22.48900
C  37.35100 46.10200 23.77200
N  35.66300 49.37400 27.57300
C  35.91600 48.53000 28.63900
C  35.80000 49.28400 29.94000
C  35.24400 50.68600 29.47000
C  35.42200 50.67000 27.97500
C  33.79500 51.15400 29.85500
C  37.20100 49.29500 30.72200
C  37.23100 49.04900 32.27300
H  35.86900 48.84800 32.94500
N  35.60100 50.88500 24.93300
C  35.39200 51.96700 25.78900
C  35.13000 53.19900 25.02500
C  35.08800 52.81200 23.64300
C  35.40500 51.25600 23.57900
C  34.83600 54.60400 25.63600
C  34.85000 53.64600 22.41400
O  34.83300 53.12300 21.30600
C  34.48400 55.02900 22.48100
N  36.33500 48.33000 23.45100
C  36.08100 49.17800 22.40600
C  36.42400 48.43400 21.07000
C  36.97200 47.04000 21.45300
C  36.94900 47.18600 23.01100
C  35.16600 48.29600 20.07500
C  38.34200 46.74300 20.89400
C  39.57900 47.34100 21.59100
N  36.75100 46.99800 25.97300
C  37.28900 46.00000 25.17300
C  37.48500 44.84900 26.07600
C  37.23200 45.33200 27.39100
C  36.81400 46.67500 27.27600
C  37.78400 43.44000 25.49200
C  37.12000 44.92300 28.82700
O  37.32000 43.83300 29.27400
C  36.56500 46.11600 29.57900
C  35.24400 45.73400 30.20300
O  34.17100 45.94800 29.63100
O  35.31700 45.14700 31.41300
C  34.02900 44.91300 32.10500
H  35.13300 52.76900 27.76100
H  35.52100 50.97200 21.53400
H  37.58400 45.21600 23.17700
H  35.00600 48.82500 30.53000
H  35.87800 51.49800 29.82500
H  33.98300 51.97100 30.55100
H  33.25600 50.31300 30.29400
H  33.22500 51.66100 29.07700
H  37.74300 50.21700 30.50800
H  37.81500 48.53700 30.23600
H  37.68000 49.91800 32.75500
H  37.89500 48.22400 32.52900
H  33.76000 54.76700 25.68700
H  35.36300 55.39500 25.10200
H  35.25400 54.62300 26.64300
H  34.40800 55.42100 21.46700
H  35.36900 55.47600 22.93200
H  33.59900 55.15300 23.10500
H  37.12000 49.03000 20.48000
H  36.22400 46.28200 21.22000
H  34.29800 48.51200 20.69700
H  35.17100 47.32400 19.58000
H  35.17300 49.10700 19.34700
H  38.30900 47.09700 19.86300
H  38.48700 45.66300 20.87800
H  39.27500 48.00400 22.40100
H  40.12500 47.90400 20.83500
H  40.28000 46.53200 21.79500
H  38.29100 43.45200 24.52800
H  36.85300 42.96000 25.19000
H  38.29400 42.82700 26.23500
H  37.30800 46.38900 30.32900
H  33.15800 45.34100 31.60900
H  34.13200 45.52600 33.00000
H  33.82600 43.88600 32.40700

