158

Mg -1.71700 17.62200 26.94700
C  -1.91100 15.39600 29.61200
C  -2.73600 20.22000 29.09600
C  -1.66000 19.73800 24.29000
C  -1.29100 14.86600 24.69700
N  -1.94800 17.79300 29.11900
C  -2.04400 16.73700 30.04200
C  -2.38100 17.25300 31.46000
C  -2.96500 18.69000 31.16300
C  -2.46300 18.96500 29.64900
C  -4.51600 18.92300 31.30700
C  -1.30500 17.13200 32.56300
C  -1.72100 16.93600 34.00100
H  -0.63300 16.57300 35.03400
N  -2.18100 19.67800 26.73200
C  -2.48600 20.56600 27.71600
C  -2.54200 21.83800 27.11700
C  -2.01200 21.77500 25.82900
C  -1.92700 20.35100 25.55000
C  -3.13800 22.95600 27.96600
C  -1.57400 22.86000 24.81300
O  -1.04500 22.67700 23.70900
C  -1.73400 24.28800 25.26900
N  -1.48300 17.29900 24.88200
C  -1.47000 18.38200 23.96800
C  -1.33400 17.82900 22.55600
C  -0.95300 16.33600 22.71100
C  -1.17000 16.14500 24.20500
C  -2.54300 18.09100 21.58700
C  0.45900 16.05300 22.19600
C  1.51700 16.80200 23.01900
N  -1.62700 15.61800 27.07700
C  -1.50300 14.62100 26.04200
C  -1.53400 13.27400 26.63600
C  -1.64200 13.54400 28.01400
C  -1.68900 14.96600 28.26300
C  -1.38400 11.97600 25.86200
C  -1.65500 12.87700 29.20800
O  -1.59700 11.68200 29.45700
C  -2.14500 13.97600 30.24100
C  -1.41600 13.70000 31.54500
O  -0.23500 13.63400 31.78200
O  -2.44200 13.60200 32.52200
C  -1.84700 13.28600 33.92000
H  -3.11800 20.92400 29.83900
H  -1.79800 20.32600 23.38000
H  -1.27300 13.98800 24.04800
H  -3.25100 16.63100 31.67100
H  -2.58300 19.44900 31.84500
H  -4.80300 19.88100 31.74000
H  -4.82300 18.20900 32.07200
H  -4.99200 18.73800 30.34500
H  -0.84500 18.12000 32.51700
H  -0.59800 16.33900 32.32000
H  -2.44300 16.12000 34.01800
H  -2.07900 17.91400 34.32400
H  -4.01400 22.71000 28.56600
H  -3.62800 23.66600 27.29900
H  -2.41800 23.52500 28.55300
H  -1.27800 24.49200 26.23800
H  -2.80200 24.45600 25.40800
H  -1.31500 24.87800 24.45400
H  -0.55300 18.48200 22.16600
H  -1.73600 15.84100 22.13500
H  -3.44700 18.42600 22.09500
H  -2.82700 17.19900 21.02800
H  -2.34500 18.92300 20.91100
H  0.67300 16.51100 21.23000
H  0.62900 14.97700 22.16500
H  1.21600 16.96000 24.05400
H  1.86600 17.75100 22.61100
H  2.30900 16.05400 23.04300
H  -0.63100 12.23500 25.11800
H  -2.27900 11.56000 25.39900
H  -1.02500 11.19400 26.53100
H  -3.17900 13.77400 30.52300
H  -1.36200 12.33000 33.72300
H  -2.70700 13.10500 34.56500
H  -1.09900 13.96600 34.32600
Mg 40.72800 8.28100 29.34000
C  42.53700 9.85600 32.25100
C  38.88700 6.76700 31.76400
C  39.37500 6.77100 26.94200
C  43.50700 9.38300 27.46800
N  40.83900 8.12800 31.78500
C  41.48500 8.97000 32.75800
C  40.93800 8.81600 34.21700
C  39.88200 7.69400 33.97100
C  39.88800 7.46800 32.42200
C  40.11300 6.47700 34.84700
C  40.31500 10.12600 34.57900
C  40.90000 10.97800 35.78600
H  41.39300 10.29300 37.10800
N  39.25900 7.00100 29.34700
C  38.57400 6.54200 30.39000
C  37.39700 5.89700 29.91500
C  37.46800 5.87100 28.50300
C  38.79500 6.54000 28.21600
C  36.39900 5.18100 30.82600
C  36.39300 5.40000 27.47700
O  36.73700 5.21700 26.31600
C  34.96800 5.13300 27.93500
N  41.57700 7.91600 27.52300
C  40.67300 7.29200 26.63500
C  41.22100 7.29200 25.14700
C  42.39600 8.28200 25.26600
C  42.55000 8.53800 26.84900
C  41.68400 5.88800 24.67600
C  42.19000 9.63000 24.47500
C  40.99100 10.46200 24.97000
N  42.63300 9.38300 29.72200
C  43.57500 9.77400 28.82700
C  44.54800 10.59200 29.43800
C  44.12100 10.71700 30.77000
C  42.96900 9.94100 30.90200
C  45.72400 11.26100 28.66300
C  44.59300 11.16900 32.08800
O  45.55200 11.81900 32.54900
C  43.55400 10.66900 33.02800
C  44.27000 9.82000 34.06000
O  44.34500 8.60200 33.97000
O  44.78400 10.59100 35.13500
C  45.41400 9.94300 36.28000
H  38.19000 6.43500 32.53700
H  38.84300 6.36900 26.07700
H  44.19300 9.91600 26.80600
H  41.73000 8.61800 34.93900
H  38.86100 7.97600 34.22600
H  39.19400 6.00700 35.19800
H  40.54800 6.80300 35.79200
H  40.77800 5.74800 34.38400
H  39.27400 9.93600 34.84000
H  40.39000 10.88200 33.79700
H  40.12700 11.65800 36.14200
H  41.71100 11.56600 35.35600
H  36.67200 5.40100 31.85800
H  36.47900 4.10800 30.65500
H  35.37600 5.55200 30.76500
H  34.50300 6.04900 28.29700
H  35.09400 4.43900 28.76600
H  34.42100 4.76300 27.06900
H  40.37200 7.61300 24.54400
H  43.31100 7.83900 24.87300
H  41.25000 5.67900 23.69800
H  41.11600 5.26300 25.36400
H  42.73400 5.62100 24.56100
H  41.83400 9.27400 23.50800
H  43.07800 10.26100 24.42600
H  41.28400 11.40200 25.43900
H  40.49200 10.00600 25.82400
H  40.27200 10.70300 24.18700
H  46.10200 12.16600 29.13900
H  45.26500 11.62300 27.74300
H  46.48800 10.51900 28.43000
H  43.01300 11.45600 33.55400
H  44.83300 9.76900 37.18500
H  46.26500 10.57300 36.53900
H  45.84300 8.97100 36.03700

