158

Mg -1.09100 7.00300 27.00500
C  0.22200 9.34000 29.24300
C  -1.52900 4.69300 29.41000
C  -2.11300 4.81800 24.57600
C  -0.36600 9.39000 24.42000
N  -0.63300 7.01900 29.02400
C  -0.20500 8.11700 29.79700
C  -0.38500 7.73800 31.28100
C  -0.38000 6.23200 31.20700
C  -0.83100 5.94600 29.77700
C  0.84900 5.32500 31.49800
C  -1.71800 8.33000 31.89000
C  -1.75400 8.71600 33.30600
H  -0.66700 8.04100 34.21600
N  -1.87400 5.02800 27.01200
C  -2.00000 4.27400 28.13600
C  -2.69900 3.04200 27.78400
C  -2.73500 3.03900 26.33900
C  -2.26400 4.35300 25.90600
C  -2.99100 2.01000 28.80800
C  -3.30800 2.06700 25.34900
O  -3.40400 2.31400 24.16400
C  -3.75900 0.71300 25.86100
N  -1.02100 7.02500 24.80000
C  -1.50400 6.00700 24.06600
C  -1.60100 6.35900 22.57400
C  -1.05100 7.86300 22.51400
C  -0.79300 8.14400 24.03000
C  -0.69800 5.45600 21.57400
C  -2.00800 8.92200 21.81900
C  -1.47700 9.77400 20.69400
N  -0.29900 9.01000 26.80600
C  -0.11600 9.83500 25.73500
C  0.28900 11.12900 26.15800
C  0.51200 10.97000 27.53700
C  0.15400 9.65400 27.87100
C  0.69600 12.31500 25.30100
C  0.93700 11.61100 28.70700
O  1.37000 12.75000 28.81800
C  0.71800 10.63100 29.90800
C  1.93700 10.50400 30.78100
O  2.70000 9.56000 30.79100
O  2.07200 11.64200 31.56300
C  3.12000 11.67100 32.53700
H  -1.58800 4.04700 30.28900
H  -2.35400 4.14500 23.75000
H  -0.21700 10.12900 23.62900
H  0.46000 8.18700 31.80300
H  -1.13600 5.84300 31.88900
H  1.71600 5.93000 31.76300
H  1.13900 4.84000 30.56600
H  0.69700 4.55600 32.25500
H  -2.62700 7.74400 31.76000
H  -1.84100 9.31700 31.44400
H  -2.76000 8.66100 33.72000
H  -1.56200 9.78800 33.35600
H  -2.26500 1.20100 28.88900
H  -3.93100 1.49600 28.60500
H  -3.15800 2.44900 29.79100
H  -4.32500 0.12700 25.13700
H  -4.37500 0.85000 26.74900
H  -2.87600 0.17800 26.21100
H  -2.65100 6.27900 22.29400
H  -0.05100 7.99800 22.10200
H  0.01500 6.01500 20.96900
H  -1.38800 4.93000 20.91400
H  -0.14900 4.71900 22.16100
H  -2.31100 9.56400 22.64700
H  -2.91100 8.40600 21.49400
H  -2.21700 9.75900 19.89400
H  -0.47300 9.46400 20.40300
H  -1.47200 10.77600 21.12300
H  0.24200 12.12500 24.32800
H  1.78600 12.32200 25.28200
H  0.24200 13.17200 25.79800
H  -0.11400 11.02800 30.48900
H  4.12400 11.62500 32.11600
H  2.99400 10.87900 33.27500
H  2.96700 12.63600 33.01800
Mg 25.38000 1.91800 29.45400
C  27.16800 1.38500 32.42900
C  22.48400 1.93700 31.36300
C  23.58400 1.97900 26.60400
C  28.24000 1.07300 27.64200
N  24.91300 1.64600 31.69600
C  25.78600 1.68600 32.75000
C  25.11100 1.98500 34.11300
C  23.62900 2.10900 33.68500
C  23.67200 1.96700 32.13000
C  22.64300 1.08100 34.32700
C  25.73900 3.21200 34.85600
C  25.99400 3.03400 36.44900
H  25.48700 4.00000 37.48300
N  23.38300 1.85700 29.08300
C  22.27600 1.85700 30.01000
C  21.06300 1.82300 29.25000
C  21.39300 1.68400 27.84700
C  22.85100 1.79800 27.79500
C  19.75600 1.70100 30.04000
C  20.42200 1.46800 26.69100
O  20.84100 1.39800 25.54000
C  18.92800 1.37000 26.85700
N  25.89300 1.58100 27.39600
C  24.96400 1.82400 26.45100
C  25.67200 1.82100 25.05800
C  27.18100 1.56100 25.43400
C  27.11900 1.48100 26.93300
C  25.11400 0.87500 24.00300
C  28.20200 2.78700 25.06000
C  29.64700 2.39000 24.44700
N  27.34500 1.42900 29.88400
C  28.38200 1.12100 29.06600
C  29.57800 0.81400 29.83200
C  29.17000 0.93600 31.16300
C  27.79600 1.30200 31.18000
C  30.85300 0.42600 29.20200
C  29.57100 0.69900 32.59900
O  30.60200 0.19500 33.04900
C  28.32000 1.16200 33.46900
C  27.96900 0.12500 34.46900
O  27.15200 -0.76400 34.35200
O  28.77400 0.30100 35.57400
C  28.38900 -0.60900 36.69500
H  21.59100 2.19100 31.93800
H  23.08500 2.13700 25.64500
H  29.12100 0.74800 27.08500
H  25.26000 1.17900 34.83100
H  23.14300 3.06000 33.90400
H  23.02300 0.44700 35.12900
H  22.38300 0.39200 33.52400
H  21.66900 1.50400 34.57300
H  25.04500 4.01900 34.61800
H  26.70600 3.42500 34.40100
H  27.07500 2.89500 36.43100
H  25.59700 2.04800 36.69000
H  18.92200 2.25900 29.61300
H  19.88300 2.05700 31.06200
H  19.38300 0.67900 30.10700
H  18.42700 1.04300 25.94600
H  18.52700 2.34200 27.14300
H  18.85100 0.59700 27.62100
H  25.50000 2.84900 24.73900
H  27.50800 0.61100 25.01200
H  24.24400 0.32700 24.36600
H  25.87500 0.12200 23.79900
H  24.80300 1.48800 23.15800
H  28.21800 3.41000 25.95400
H  27.80000 3.40900 24.26100
H  29.76900 1.31400 24.57300
H  30.45500 2.83100 25.03000
H  29.73500 2.68500 23.40100
H  31.21400 -0.48500 29.68100
H  31.49000 1.25600 29.50900
H  30.76200 0.25100 28.13000
H  28.48300 2.09000 34.01600
H  28.85000 -1.59100 36.59000
H  27.33300 -0.81100 36.87800
H  28.71500 -0.19200 37.64800

