158

Mg 8.31500 2.76300 27.27300
C  9.81200 1.05900 30.05500
C  7.00300 4.94900 29.44700
C  6.46400 3.78600 24.74600
C  9.68100 0.21300 25.25100
N  8.32200 2.86200 29.55100
C  9.09200 2.16600 30.43100
C  8.92600 2.77700 31.83100
C  7.88800 3.94900 31.62600
C  7.79100 4.00900 30.13100
C  6.56800 3.71800 32.40500
C  10.28300 3.29900 32.39200
C  10.13700 3.92900 33.79500
H  11.09900 3.47400 34.91500
N  7.02200 4.26400 27.04700
C  6.62900 5.06800 28.08900
C  5.79700 6.18000 27.50800
C  5.54400 5.83800 26.11300
C  6.33100 4.59900 25.91000
C  5.49500 7.39000 28.29000
C  4.78500 6.50700 25.06200
O  4.63000 5.92200 23.96300
C  3.96400 7.69400 25.28200
N  8.02300 2.14100 25.29500
C  7.15800 2.65400 24.39700
C  7.14200 2.06600 23.03700
C  8.33400 1.06900 23.11500
C  8.72600 1.13300 24.62300
C  5.77400 1.56400 22.61000
C  9.49200 1.48300 22.15100
C  10.23900 0.31100 21.58800
N  9.51000 1.13700 27.51800
C  9.97200 0.14400 26.59000
C  10.84200 -0.78400 27.31700
C  10.80600 -0.44500 28.62800
C  9.96200 0.67000 28.73600
C  11.60900 -1.99100 26.83600
C  11.26100 -0.84100 29.96600
O  11.98600 -1.81300 30.33400
C  10.62200 0.16200 30.96800
C  10.02500 -0.57800 32.15000
O  8.96800 -1.14100 32.11500
O  10.91900 -0.49600 33.26600
C  10.30200 -1.16100 34.42000
H  6.74400 5.79600 30.08600
H  5.81600 3.92000 23.87800
H  10.04400 -0.60500 24.62500
H  8.49200 2.00800 32.47000
H  8.28500 4.94700 31.81100
H  5.77400 3.47700 31.69900
H  6.22900 4.61500 32.92300
H  6.67000 2.97800 33.19900
H  10.84400 3.97700 31.74900
H  11.02700 2.51300 32.52200
H  9.07900 3.75100 33.98500
H  10.42300 4.97700 33.70300
H  6.03900 7.47200 29.23100
H  4.43200 7.41700 28.53200
H  5.77000 8.15400 27.56200
H  3.02400 7.59400 24.73900
H  4.44000 8.66200 25.12600
H  3.74900 7.67800 26.35000
H  7.46200 2.83200 22.33200
H  7.92600 0.09000 22.86200
H  5.33800 2.30900 21.94400
H  5.09300 1.40500 23.44600
H  5.86700 0.63900 22.04000
H  10.17200 2.12200 22.71400
H  9.19300 2.14500 21.33800
H  10.47600 0.48700 20.53900
H  9.71700 -0.62200 21.80000
H  11.21000 0.29000 22.08400
H  11.44700 -2.76100 27.59000
H  12.64000 -1.64600 26.75500
H  11.11600 -2.31000 25.91700
H  11.43800 0.79700 31.31200
H  10.09700 -2.22900 34.34100
H  9.44400 -0.56500 34.73100
H  10.90900 -1.14300 35.32600
Mg 6.46400 56.90800 42.14500
C  5.50700 53.46400 42.57800
C  9.34100 55.64500 40.80000
C  7.08100 59.86000 41.22200
C  3.10600 57.64300 43.03300
N  7.29200 54.73300 41.50800
C  6.73100 53.50800 41.82900
C  7.62800 52.38400 41.30000
C  8.99500 53.16300 41.19800
C  8.54200 54.61800 41.24700
C  10.13800 52.83200 42.20300
C  7.19700 51.97500 39.89900
C  7.73000 50.60300 39.46300
H  6.97100 49.82100 38.43300
N  8.12900 57.71300 41.41900
C  9.17400 57.04400 40.89700
C  10.16000 58.03800 40.47700
C  9.54700 59.34200 40.54000
C  8.17700 59.04300 41.11700
C  11.62800 57.69000 40.07600
C  10.15300 60.65400 40.07400
O  11.21600 60.66600 39.48100
C  9.41200 61.90300 40.36500
N  5.25000 58.53600 42.10600
C  5.76700 59.67000 41.69200
C  4.66800 60.78100 41.76800
C  3.41000 60.06800 42.43000
C  3.89800 58.65900 42.49700
C  5.21200 62.16300 42.26800
C  2.11500 60.35000 41.66900
C  0.93500 60.78500 42.55300
N  4.64800 55.84900 42.71400
C  3.43500 56.35800 43.20500
C  2.66500 55.23100 43.75400
C  3.48800 54.05600 43.56500
C  4.61900 54.50100 42.89900
C  1.24200 55.30900 44.33300
C  3.62100 52.63700 43.85100
O  2.90600 51.81300 44.45200
C  4.93200 52.23700 43.18200
C  4.69800 51.23000 42.17700
O  4.21000 51.47300 41.08900
O  5.15100 50.00900 42.67000
C  5.02700 48.83600 41.82400
H  10.25000 55.26100 40.33200
H  7.21400 60.87100 40.83200
H  2.17000 57.93400 43.51400
H  7.65700 51.55300 42.00400
H  9.42900 53.12900 40.19800
H  9.98900 51.81800 42.57500
H  10.14300 53.51700 43.05100
H  11.07400 52.95900 41.66000
H  7.66900 52.65000 39.18500
H  6.11600 52.01000 39.76400
H  7.76800 49.96300 40.34500
H  8.76600 50.73600 39.15200
H  12.24900 58.44000 40.56600
H  11.85200 57.83000 39.01900
H  11.91900 56.66300 40.29700
H  9.10600 61.95600 41.41000
H  8.59000 62.02300 39.65900
H  10.17900 62.63500 40.11300
H  4.49500 60.93900 40.70300
H  3.45400 60.55900 43.40200
H  6.13000 62.00800 42.83500
H  4.54800 62.68900 42.95400
H  5.33100 62.76200 41.36400
H  1.86600 59.47700 41.06600
H  2.34500 61.13300 40.94600
H  1.07500 60.54400 43.60700
H  0.01400 60.26100 42.29700
H  0.94200 61.87500 42.55300
H  0.97300 56.31900 44.64200
H  1.31500 54.72300 45.24900
H  0.48200 54.89100 43.67300
H  5.65800 51.78700 43.85900
H  4.11600 48.76000 41.23000
H  5.09100 47.93300 42.43100
H  5.86100 48.72200 41.13300

