158

Mg 48.21300 25.86800 27.84600
C  48.92400 28.06600 30.25800
C  47.11600 23.44700 30.14500
C  47.58200 23.58900 25.27900
C  49.50100 28.06700 25.44300
N  47.88100 25.79400 29.87600
C  48.29600 26.79800 30.68300
C  48.00900 26.51900 32.18300
C  47.75400 24.96700 32.12700
C  47.55600 24.70900 30.63800
C  48.67300 24.01400 32.90600
C  46.78600 27.42100 32.67700
C  46.16500 27.00400 33.99500
H  46.04000 28.05600 35.14200
N  47.44400 23.83100 27.74500
C  47.09000 23.03900 28.77700
C  46.55700 21.72000 28.31600
C  46.74200 21.77800 26.93200
C  47.26700 23.13800 26.56200
C  45.88400 20.71400 29.19000
C  46.43700 20.60800 25.95600
O  46.65100 20.63900 24.79400
C  45.97500 19.35000 26.46600
N  48.59600 25.84600 25.65500
C  48.09600 24.84200 24.84600
C  48.09100 25.28600 23.39200
C  48.85800 26.57200 23.39600
C  49.04200 26.87400 24.91900
C  48.60500 24.24500 22.37500
C  48.21400 27.74500 22.61900
C  48.89800 28.28500 21.38400
N  49.09900 27.66600 27.81200
C  49.59500 28.44800 26.77700
C  50.10700 29.70900 27.31500
C  49.80100 29.65100 28.70000
C  49.25600 28.37300 28.93300
C  50.66400 30.96800 26.60200
C  49.91300 30.34500 29.98200
O  50.27000 31.50900 30.17100
C  49.34800 29.35600 31.06500
C  50.38200 29.03800 32.14500
O  51.44300 28.47300 32.02800
O  49.92600 29.61200 33.34200
C  50.74600 29.36500 34.54000
H  46.79100 22.72400 30.89600
H  47.30700 22.95600 24.43300
H  49.77100 28.84800 24.73000
H  48.88900 26.77600 32.77300
H  46.80200 24.73800 32.60600
H  49.03900 23.18300 32.30300
H  48.21500 23.60200 33.80500
H  49.52700 24.56400 33.30400
H  46.03400 27.49400 31.89200
H  47.24100 28.39300 32.86900
H  46.70100 26.15000 34.40900
H  45.19600 26.57700 33.73600
H  46.56000 19.86200 29.25700
H  44.98100 20.38100 28.67900
H  45.63200 21.07100 30.18900
H  45.90500 18.57900 25.69900
H  45.00300 19.43300 26.95200
H  46.76300 18.99800 27.13200
H  47.11300 25.48600 22.95400
H  49.85100 26.52500 22.94900
H  49.05800 23.39400 22.88500
H  49.37300 24.63200 21.70600
H  47.76800 23.74800 21.88500
H  48.07400 28.59600 23.28600
H  47.24800 27.42700 22.22800
H  49.63400 27.65500 20.88300
H  49.33300 29.18200 21.82500
H  48.17400 28.53100 20.60700
H  50.13100 31.91600 26.68400
H  50.56100 30.80200 25.52900
H  51.69900 31.23200 26.81400
H  48.44800 29.82300 31.46500
H  51.04800 30.36200 34.86100
H  51.61500 28.71800 34.41700
H  50.11200 28.88900 35.28700
Mg 16.83700 53.02800 26.71600
C  18.85000 51.22600 28.89500
C  14.49700 53.52200 29.08400
C  14.66700 54.26000 24.28000
C  18.82500 51.83900 24.11000
N  16.76800 52.54400 28.77300
C  17.70400 51.79800 29.43500
C  17.34400 51.94400 30.93400
C  15.81600 52.46300 30.96500
C  15.69400 52.86000 29.51900
C  14.82500 51.28600 31.27300
C  18.29100 52.97600 31.61600
C  18.68300 52.59700 33.07600
H  17.57000 52.14400 34.01700
N  15.05800 54.00200 26.72700
C  14.23600 54.18500 27.84700
C  13.01500 54.93100 27.52900
C  13.08900 55.17300 26.15200
C  14.33600 54.47800 25.62600
C  11.99400 55.34500 28.55700
C  12.04500 55.89300 25.23300
O  12.10000 55.81900 24.04600
C  10.81600 56.65100 25.75300
N  16.75800 53.01100 24.53800
C  15.77600 53.58600 23.78900
C  16.13800 53.63300 22.30000
C  17.62700 53.15300 22.28500
C  17.73700 52.57400 23.68500
C  15.22200 52.67100 21.37600
C  18.71700 54.26700 21.90900
C  19.17500 54.20600 20.44300
N  18.57500 51.89600 26.51000
C  19.26400 51.45700 25.38000
C  20.51700 50.90400 25.86000
C  20.42600 50.73200 27.19200
C  19.15700 51.28300 27.54100
C  21.70000 50.55400 24.91600
C  21.06500 50.18400 28.40900
O  22.13400 49.62700 28.49900
C  20.08900 50.63200 29.57600
C  19.64000 49.32800 30.23900
O  19.11200 48.36600 29.72900
O  19.84500 49.50700 31.60600
C  19.42500 48.30900 32.35500
H  13.72500 53.54100 29.85700
H  14.01300 54.60400 23.47600
H  19.59400 51.58400 23.37800
H  17.49300 50.95300 31.36200
H  15.74500 53.32200 31.63300
H  13.98600 51.73700 31.80300
H  15.28900 50.68500 32.05500
H  14.51600 50.73800 30.38300
H  17.87400 53.98100 31.56500
H  19.24200 52.92300 31.08600
H  19.07200 53.52900 33.48400
H  19.51400 51.89100 33.08100
H  12.23800 54.79100 29.46400
H  10.98600 55.14700 28.19300
H  12.12000 56.40600 28.77000
H  11.18300 57.44900 26.39900
H  10.10600 55.95900 26.20800
H  10.29700 57.07700 24.89400
H  16.12500 54.65800 21.92800
H  17.83100 52.32100 21.61200
H  14.20400 52.70000 21.76500
H  15.54300 51.62900 21.37600
H  15.11300 52.89900 20.31600
H  19.54100 54.22800 22.62200
H  18.23100 55.23900 21.99300
H  18.52700 53.67500 19.74600
H  20.06200 53.57200 20.44900
H  19.27800 55.23100 20.08700
H  21.70500 51.28900 24.11100
H  21.63500 49.59500 24.40300
H  22.60500 50.58200 25.52300
H  20.52700 51.26100 30.35100
H  19.70300 48.40200 33.40500
H  19.84000 47.39200 31.93600
H  18.33600 48.35400 32.36100

