158

Mg 30.73300 57.75000 39.38700
C  27.95600 55.70300 38.57100
C  32.77600 55.00200 38.20800
C  33.39100 59.72600 39.53800
C  28.55000 60.36600 39.88300
N  30.35000 55.63700 38.45200
C  29.18100 54.99200 38.46200
C  29.31200 53.50500 38.16900
C  30.87300 53.33900 38.14800
C  31.41900 54.80800 38.25500
C  31.33400 52.49000 39.30700
C  28.62000 52.96000 36.92500
C  29.03500 53.70400 35.61500
H  27.92000 54.42100 34.74400
N  32.81200 57.40500 38.97900
C  33.45300 56.24800 38.54200
C  34.83300 56.52900 38.47500
C  35.05400 57.80700 39.05000
C  33.71200 58.44300 39.24300
C  35.86000 55.69900 37.86500
C  36.48600 58.41400 39.33300
O  37.48600 57.80500 38.94800
C  36.59800 59.68000 40.11000
N  30.92700 59.74700 39.62300
C  32.14400 60.36100 39.56400
C  32.05400 61.88600 39.69500
C  30.52200 62.09800 39.76100
C  29.90900 60.63000 39.78500
C  32.92600 62.58800 40.80100
C  29.95300 63.04800 38.66000
C  28.96600 64.12000 39.12300
N  28.65300 57.99300 39.26400
C  27.90500 59.17000 39.45300
C  26.50400 58.81000 39.22400
C  26.50900 57.46700 38.95400
C  27.82800 57.06800 38.89800
C  25.36700 59.68600 39.47400
C  25.60600 56.34700 38.66000
O  24.39000 56.25000 38.56900
C  26.52800 55.13500 38.35100
C  26.12700 54.04700 39.33800
O  26.65700 53.76000 40.42400
O  25.16300 53.27700 38.69400
C  24.80000 52.08700 39.35600
H  33.32000 54.06700 38.05500
H  34.22600 60.41200 39.69400
H  27.90400 61.21200 40.12600
H  28.77100 53.01000 38.97500
H  31.23500 52.88100 37.22700
H  32.22300 51.93800 39.00400
H  30.61900 51.76100 39.68800
H  31.67000 52.97500 40.22300
H  27.53400 52.92900 37.01100
H  28.98100 51.93300 36.89600
H  29.51200 52.95600 34.98100
H  29.75900 54.49300 35.81700
H  36.63500 55.27800 38.50600
H  36.33100 56.29400 37.08200
H  35.35300 54.93600 37.27500
H  35.79500 59.76000 40.84300
H  36.65600 60.45600 39.34700
H  37.53700 59.70100 40.66300
H  32.50700 62.38800 38.84000
H  30.24200 62.48900 40.73900
H  32.18000 63.18600 41.32300
H  33.73900 63.18800 40.39200
H  33.35400 61.91700 41.54500
H  29.76600 62.39700 37.80600
H  30.81100 63.68300 38.44000
H  29.48400 65.06600 39.27800
H  28.47200 63.78400 40.03500
H  28.26600 64.28600 38.30400
H  25.52500 60.57900 38.87100
H  25.16800 59.84700 40.53400
H  24.48500 59.10700 39.19900
H  26.15200 54.71100 37.42100
H  23.90300 51.61800 38.95100
H  24.73500 52.35600 40.41000
H  25.64500 51.40600 39.25000
Mg 0.91000 43.77300 25.96100
C  2.81200 43.75900 28.87300
C  -1.76000 42.95400 27.87300
C  -0.71500 43.02600 23.11400
C  3.92000 44.22200 24.19900
N  0.56100 43.40100 28.23900
C  1.44200 43.69700 29.19400
C  0.70700 43.62300 30.57700
C  -0.78000 43.34600 30.19900
C  -0.68800 43.33600 28.66300
C  -1.40000 42.06800 30.89000
C  0.87500 44.95700 31.40400
C  0.74900 44.72300 32.95700
H  0.33800 43.31300 33.52100
N  -0.97200 43.08000 25.52000
C  -1.87400 42.80700 26.48500
C  -3.12500 42.37300 25.75000
C  -2.89900 42.39800 24.37600
C  -1.46300 42.84600 24.29000
C  -4.41500 41.98300 26.41500
C  -3.65500 41.84100 23.20200
O  -3.09800 41.79300 22.09200
C  -5.00800 41.35500 23.35300
N  1.47000 43.77600 23.94200
C  0.62500 43.39200 22.98300
C  1.31800 43.40700 21.58600
C  2.73100 44.02200 21.95300
C  2.74500 44.01800 23.41400
C  1.22500 42.07800 20.73400
C  2.91500 45.45100 21.48500
C  2.94500 45.71600 20.01400
N  2.95700 43.97400 26.42300
C  4.04800 44.18100 25.61100
C  5.23900 44.04500 26.40000
C  4.83400 43.95800 27.69000
C  3.39300 43.89800 27.66300
C  6.66100 44.26400 25.96500
C  5.29700 43.89100 29.03600
O  6.44200 43.77200 29.45500
C  3.98100 43.75300 29.83600
C  4.12800 42.51600 30.65600
O  4.41400 41.39600 30.23100
O  4.07300 42.79500 31.99400
C  4.34400 41.69000 32.87800
H  -2.69800 42.81900 28.41400
H  -1.18000 42.84900 22.14200
H  4.80200 44.29200 23.55900
H  1.10200 42.81500 31.19200
H  -1.36200 44.21100 30.51600
H  -0.65600 41.49900 31.44700
H  -1.84400 41.44000 30.11700
H  -2.18300 42.39300 31.57500
H  0.09400 45.65000 31.09100
H  1.85800 45.41100 31.28000
H  0.02700 45.42300 33.37800
H  1.74900 44.88000 33.36100
H  -5.29900 42.52200 26.07400
H  -4.44700 42.18500 27.48600
H  -4.68000 40.92600 26.39000
H  -5.30700 40.90700 22.40500
H  -5.65400 42.18800 23.63000
H  -5.04700 40.51600 24.04800
H  0.73300 44.13300 21.02100
H  3.59500 43.44400 21.62400
H  0.86200 41.38900 21.49600
H  2.22400 41.76500 20.43000
H  0.54100 42.19000 19.89300
H  3.78000 45.81700 22.03900
H  2.07400 45.96400 21.95300
H  2.07200 46.26000 19.65200
H  2.85600 44.79600 19.43700
H  3.88200 46.14200 19.65700
H  7.04700 45.26200 26.17600
H  6.95000 43.98600 24.95200
H  7.24600 43.57000 26.56800
H  3.78600 44.46400 30.63900
H  3.49000 41.03300 33.04200
H  4.62600 41.99900 33.88500
H  5.20300 41.13200 32.50400

