158

Mg 24.58000 -4.64900 45.58000
C  26.25100 -1.84400 44.16100
C  21.70400 -3.86900 43.84000
C  23.39700 -7.63700 46.48000
C  27.56600 -5.27100 47.27000
N  24.03700 -3.02000 44.16900
C  24.92600 -2.08000 43.67700
C  24.26300 -1.30900 42.57100
C  22.73300 -1.84300 42.53000
C  22.81300 -2.91500 43.66900
C  21.62300 -0.76800 42.78000
C  24.96000 -1.43400 41.18400
C  25.16300 -0.25700 40.32000
H  24.85700 -0.44900 38.83200
N  22.73800 -5.57200 45.28200
C  21.68800 -5.09700 44.53900
C  20.74000 -6.13600 44.32500
C  21.14300 -7.28200 45.05000
C  22.44800 -6.88500 45.69700
C  19.45800 -5.95900 43.46900
C  20.33000 -8.49000 45.17200
O  19.30800 -8.65800 44.61100
C  20.79500 -9.59100 45.96100
N  25.43900 -6.28700 46.65600
C  24.69700 -7.40400 46.88200
C  25.51300 -8.30900 47.78700
C  26.72500 -7.44400 48.24400
C  26.62200 -6.25500 47.29300
C  24.77900 -8.98600 48.97400
C  28.17500 -8.10300 48.06300
C  29.07800 -7.99100 49.27500
N  26.52700 -3.80200 45.70300
C  27.62800 -4.23600 46.40100
C  28.69300 -3.27300 46.29800
C  28.17900 -2.32200 45.41500
C  26.86900 -2.68000 45.08800
C  29.99900 -3.23000 46.95300
C  28.48100 -1.08700 44.80600
O  29.49200 -0.44200 44.96200
C  27.30800 -0.74200 43.76600
C  26.78800 0.60300 44.03900
O  26.20500 0.94300 45.06300
O  26.98300 1.44500 42.98500
C  26.45500 2.75100 42.98600
H  20.81700 -3.60200 43.26300
H  23.07700 -8.66900 46.64400
H  28.44100 -5.47900 47.88900
H  24.23900 -0.26700 42.89000
H  22.50500 -2.46000 41.66100
H  21.95100 0.26900 42.84900
H  20.99000 -1.03600 43.62600
H  20.96200 -0.93800 41.93000
H  24.57000 -2.27800 40.61700
H  25.93800 -1.88800 41.34200
H  26.22100 -0.07900 40.51400
H  24.70200 0.68400 40.61900
H  19.24400 -6.81300 42.82700
H  19.56700 -5.07600 42.83900
H  18.55800 -5.64400 43.99700
H  21.76500 -9.73400 45.48300
H  20.11500 -10.43100 45.82000
H  21.00800 -9.33300 46.99800
H  25.89600 -9.07200 47.11000
H  26.56000 -7.10700 49.26700
H  24.80200 -10.05700 48.76900
H  23.77500 -8.56100 48.99000
H  25.23200 -8.77600 49.94200
H  28.72000 -7.69600 47.21100
H  28.09800 -9.17300 47.87000
H  29.98200 -7.42700 49.04900
H  29.35500 -9.02200 49.49500
H  28.43800 -7.50600 50.01200
H  30.68100 -2.53200 46.46700
H  30.51900 -4.18800 46.91200
H  29.98800 -3.06800 48.03100
H  27.65100 -0.78000 42.73200
H  25.96000 3.02100 43.91800
H  25.77600 2.61200 42.14400
H  27.24100 3.42800 42.65200
Mg 49.35500 46.73100 42.35900
C  46.05000 47.15000 41.14800
C  49.39000 43.59800 40.92900
C  52.60100 46.66800 42.96800
C  49.06600 50.05000 43.61400
N  47.82500 45.41400 41.14300
C  46.56600 45.89800 40.71000
C  45.89600 44.85500 39.83200
C  46.94100 43.63200 39.85000
C  48.13600 44.19000 40.72900
C  46.41800 42.31100 40.37600
C  45.47200 45.41600 38.41800
C  44.10900 45.02500 37.92800
H  43.98100 44.83300 36.45400
N  50.75700 45.31000 42.14500
C  50.56900 44.10000 41.54100
C  51.72700 43.25800 41.74800
C  52.69200 44.08900 42.33900
C  52.04800 45.41900 42.52500
C  51.70000 41.77500 41.31000
C  54.12400 43.58600 42.75400
O  54.53700 42.46000 42.60600
C  55.02500 44.50800 43.59000
N  50.59500 48.16800 43.19700
C  51.90900 47.89700 43.27900
C  52.70100 49.17100 43.67400
C  51.52900 50.14300 44.15800
C  50.30700 49.42600 43.64500
C  53.77900 48.94300 44.76900
C  51.69900 51.56900 43.65600
C  51.79600 52.70200 44.64500
N  47.93800 48.24200 42.42600
C  47.89400 49.43400 43.03200
C  46.70400 50.17400 42.85900
C  45.88300 49.25500 42.16300
C  46.75400 48.14200 41.86800
C  46.33100 51.49900 43.32700
C  44.52500 49.07900 41.64000
O  43.49700 49.77500 41.60600
C  44.60200 47.64000 40.96400
C  43.58000 46.80200 41.64000
O  43.48300 46.72700 42.83400
O  42.64000 46.21000 40.77900
C  41.37900 45.84400 41.36000
H  49.46500 42.63400 40.42100
H  53.68800 46.59200 43.03900
H  49.02600 51.11200 43.86500
H  45.06600 44.54200 40.46500
H  47.29400 43.51600 38.82500
H  45.49200 42.49500 40.92100
H  47.11400 41.74000 40.99100
H  46.21500 41.64100 39.54100
H  46.14800 44.90300 37.73400
H  45.58100 46.49900 38.35300
H  43.41300 45.80900 38.22500
H  43.92000 44.16100 38.56600
H  51.60200 41.66800 40.23000
H  50.73400 41.29800 41.47600
H  52.44200 41.09300 41.72400
H  55.44000 45.26000 42.91900
H  55.88800 44.03200 44.05600
H  54.45400 45.03500 44.35400
H  53.17600 49.56700 42.77600
H  51.38400 50.12800 45.23900
H  53.65400 49.58100 45.64400
H  54.82800 49.00700 44.48000
H  53.63000 47.96000 45.21700
H  50.95200 51.74100 42.88100
H  52.59900 51.74600 43.06800
H  51.78800 52.26300 45.64200
H  51.03200 53.47300 44.53600
H  52.75200 53.21600 44.54400
H  45.25900 51.30500 43.36100
H  46.64700 52.14800 42.51100
H  46.86800 51.82600 44.21700
H  44.17900 47.69200 39.96000
H  40.76100 45.48200 40.53900
H  40.94600 46.65600 41.94400
H  41.50100 44.95300 41.97600

