158

Mg 8.62200 4.45000 27.58600
C  10.12000 2.72000 30.24700
C  6.70500 6.20600 29.77000
C  7.18200 5.94400 24.92200
C  10.22000 2.32800 25.43700
N  8.41000 4.42300 29.73600
C  9.11500 3.67200 30.67800
C  8.69000 3.89600 32.14900
C  7.51400 4.90200 31.89200
C  7.53300 5.25000 30.40300
C  6.12400 4.33000 32.33400
C  9.86100 4.43200 32.94700
C  9.61800 5.08300 34.38700
H  10.09400 4.38200 35.66100
N  7.17900 5.99300 27.35300
C  6.57200 6.64100 28.41400
C  5.68600 7.61300 27.88300
C  5.81600 7.57900 26.44700
C  6.73500 6.48600 26.15800
C  4.80800 8.54800 28.81500
C  5.03300 8.38200 25.43600
O  5.16500 8.09300 24.26300
C  4.10800 9.49900 25.82400
N  8.52000 4.07100 25.47500
C  7.94700 4.88200 24.58200
C  8.24200 4.47300 23.12800
C  9.33100 3.38700 23.35100
C  9.37000 3.21500 24.84200
C  6.90000 4.01700 22.41500
C  10.63000 3.51000 22.52500
C  11.15300 2.25700 21.79600
N  9.88100 2.88500 27.78300
C  10.43600 2.09600 26.77900
C  11.31500 1.10900 27.36700
C  11.23900 1.30400 28.74600
C  10.38200 2.41500 28.90200
C  12.04900 0.07100 26.65400
C  11.66600 0.89200 30.00100
O  12.38600 -0.04200 30.31500
C  10.90000 1.74300 31.11400
C  10.21900 0.90600 31.99500
O  9.21300 0.29400 31.66800
O  10.77300 0.94300 33.26300
C  10.11500 0.07400 34.34100
H  6.15800 6.83800 30.47300
H  6.78000 6.55500 24.11100
H  10.72400 1.58700 24.81300
H  8.41700 2.91600 32.54000
H  7.60800 5.86400 32.39400
H  5.58600 4.98500 33.01800
H  6.26100 3.36200 32.81500
H  5.69000 4.06900 31.36900
H  10.36100 5.22300 32.38900
H  10.69400 3.73300 33.01100
H  8.53400 5.18700 34.44800
H  9.98200 6.10900 34.33300
H  5.08800 9.59800 28.73700
H  4.97500 8.29300 29.86200
H  3.75100 8.47000 28.56000
H  3.91300 10.06700 24.91400
H  4.59100 10.13300 26.56700
H  3.18500 9.02900 26.16600
H  8.54100 5.36600 22.58000
H  8.86800 2.45200 23.03400
H  7.05400 3.09000 21.86100
H  6.58900 4.74700 21.66800
H  6.10500 3.96100 23.15800
H  11.38800 3.86800 23.22100
H  10.45000 4.12300 21.64100
H  10.49700 2.30500 20.92600
H  10.89700 1.39700 22.41500
H  12.17700 2.39900 21.45200
H  11.43100 -0.78900 26.39700
H  12.75100 -0.35000 27.37300
H  12.69400 0.49700 25.88600
H  11.62200 2.32500 31.68700
H  9.25700 -0.47500 33.95300
H  9.85300 0.78000 35.12900
H  10.79600 -0.69300 34.71000
Mg 46.00900 4.75600 48.21000
C  43.73600 7.20200 47.45100
C  43.37200 2.47300 47.69400
C  48.17000 2.20800 48.12000
C  48.62500 7.06800 47.47100
N  43.71400 4.87800 47.82100
C  43.04800 5.96200 47.40200
C  41.60700 5.67800 46.92300
C  41.45400 4.19100 47.37800
C  42.89500 3.82700 47.72100
C  40.43200 4.03200 48.52200
C  41.68600 5.88400 45.37400
C  40.78100 7.03500 44.78800
H  41.33600 7.92600 43.65300
N  45.81100 2.66700 48.04800
C  44.64800 1.93400 47.84900
C  45.03200 0.54800 47.67400
C  46.38500 0.34300 47.89600
C  46.83800 1.72700 48.11300
C  44.01400 -0.56800 47.31900
C  47.21800 -0.93600 47.71000
O  46.61100 -2.01400 47.52800
C  48.65500 -0.97400 47.73700
N  48.07400 4.60800 47.98200
C  48.77600 3.44300 48.13300
C  50.31300 3.65300 47.96100
C  50.45600 5.22600 47.85400
C  48.98800 5.67800 47.76200
C  50.97900 3.01700 49.21900
C  51.35100 5.80000 46.79500
C  52.56300 6.58500 47.31700
N  46.23100 6.71800 47.77700
C  47.31500 7.51400 47.50700
C  46.92900 8.89500 47.50100
C  45.53600 8.83800 47.43600
C  45.12300 7.48100 47.63100
C  47.89000 10.08400 47.56800
C  44.37300 9.67200 47.34800
O  44.29500 10.90600 47.15900
C  43.13600 8.63900 47.31500
C  42.10000 8.97700 48.33500
O  41.94800 8.32200 49.35300
O  41.15100 9.87000 47.82400
C  40.12400 10.16800 48.76800
H  42.53900 1.77800 47.56900
H  48.96400 1.46200 48.18300
H  49.45300 7.78000 47.47100
H  40.86300 6.38000 47.29800
H  41.10200 3.47500 46.63400
H  40.98400 3.70400 49.40300
H  39.61000 3.34700 48.31300
H  39.85900 4.94700 48.67400
H  41.34800 5.01400 44.81000
H  42.64800 6.20500 44.97600
H  40.58900 7.70200 45.62900
H  39.76800 6.68100 44.59900
H  44.41400 -1.03500 46.41900
H  43.05200 -0.10600 47.09600
H  44.06700 -1.12700 48.25400
H  48.97300 -0.57200 48.69900
H  49.06400 -0.30300 46.98200
H  49.13400 -1.95200 47.69300
H  50.55800 3.16300 47.01900
H  50.89700 5.66100 48.75100
H  51.38300 2.11900 48.75200
H  50.20700 2.65600 49.89900
H  51.78700 3.65100 49.58400
H  50.91100 6.49500 46.08000
H  51.88900 4.98900 46.30400
H  52.36500 7.11700 48.24700
H  52.86000 7.31100 46.56100
H  53.40600 5.93200 47.54400
H  48.69400 9.91500 46.85100
H  48.32700 10.17300 48.56200
H  47.31800 10.98200 47.33500
H  42.61400 8.86000 46.38300
H  39.48500 10.91400 48.29400
H  40.37800 10.47200 49.78300
H  39.45100 9.31800 48.87800

