158

Mg 35.90700 49.62800 25.63400
C  35.76300 47.96400 28.61500
C  34.14100 52.23900 27.07200
C  35.57400 50.91400 22.51400
C  37.02200 46.63700 24.02400
N  35.16500 50.09900 27.65200
C  35.20900 49.29200 28.74200
C  34.76000 50.01200 29.93000
C  34.17100 51.33400 29.46200
C  34.50100 51.17800 27.96900
C  32.70100 51.59900 29.85900
C  35.86800 50.15700 30.97600
C  35.31500 50.37900 32.38400
H  33.82800 50.27900 32.68500
N  35.10200 51.36400 24.92600
C  34.35300 52.29800 25.64300
C  33.97300 53.35400 24.70000
C  34.32100 52.93800 23.40400
C  34.91900 51.57800 23.58300
C  33.17400 54.53400 25.12800
C  34.11300 53.69200 22.11100
O  34.41900 53.27000 20.99700
C  33.38900 55.02000 22.06900
N  36.42100 48.91800 23.54100
C  36.18900 49.67400 22.49200
C  36.68100 49.06800 21.16400
C  37.30100 47.73500 21.66700
C  36.81800 47.71300 23.15700
C  35.52200 48.94600 20.09600
C  38.84200 47.50000 21.60600
C  39.74300 48.63300 22.24400
N  36.33100 47.76300 26.17200
C  36.84100 46.66200 25.48500
C  37.01400 45.55500 26.36100
C  36.66000 46.02600 27.61100
C  36.22900 47.35900 27.43900
C  37.46300 44.18900 25.94000
C  36.49600 45.68600 29.01200
O  36.62600 44.59400 29.55700
C  35.95700 46.93700 29.72200
C  34.72500 46.56700 30.37600
O  33.71100 46.11000 29.90700
O  34.88200 46.64900 31.77200
C  33.83800 45.97700 32.52800
H  33.65200 53.10300 27.52600
H  35.36400 51.27900 21.50700
H  37.36500 45.76700 23.46000
H  33.97400 49.33100 30.25800
H  34.71000 52.17500 29.89800
H  32.61500 52.45100 30.53400
H  32.29700 50.78700 30.46400
H  31.95500 51.77600 29.08500
H  36.52100 50.96200 30.64000
H  36.53900 49.29800 30.96100
H  35.65400 51.36300 32.70900
H  35.80100 49.78100 33.15400
H  33.36100 54.54000 26.20100
H  32.11600 54.31900 24.97900
H  33.45300 55.55700 24.87500
H  33.30600 55.44100 21.06700
H  33.91600 55.76200 22.66900
H  32.34100 54.95000 22.36200
H  37.37600 49.73100 20.64800
H  36.73600 46.93900 21.18400
H  34.60500 49.20700 20.62500
H  35.37500 47.95300 19.67100
H  35.68800 49.61300 19.25000
H  39.04800 47.34300 20.54700
H  39.06600 46.53500 22.06100
H  39.17900 49.36400 22.82400
H  40.43300 49.10100 21.54200
H  40.25700 48.12600 23.06000
H  38.37700 43.85700 26.43200
H  37.84000 44.22500 24.91800
H  36.64900 43.48500 26.11500
H  36.65800 47.10600 30.53900
H  33.78700 46.58900 33.42800
H  33.92100 44.92200 32.78900
H  32.84800 46.17200 32.11600
Mg -5.82500 25.36000 26.51600
C  -3.90400 26.95700 28.89800
C  -6.73500 22.99600 28.95400
C  -7.42200 23.57200 24.13500
C  -4.21300 27.20800 23.96000
N  -5.35500 25.02700 28.66600
C  -4.77700 26.00500 29.44700
C  -5.02200 25.68300 30.91100
C  -5.45100 24.18900 30.90900
C  -5.89200 24.03800 29.40000
C  -4.32400 23.24900 31.24800
C  -5.92400 26.78600 31.55800
C  -5.50200 27.15300 33.01700
H  -5.09800 25.99300 33.95500
N  -6.96200 23.59000 26.60800
C  -7.24600 22.77100 27.63700
C  -7.91100 21.49200 27.24800
C  -8.19200 21.74000 25.88700
C  -7.51600 22.99800 25.47500
C  -8.38400 20.41100 28.18200
C  -9.00700 20.89000 24.88400
O  -9.15200 21.19200 23.73100
C  -9.53800 19.56900 25.38800
N  -5.67600 25.34800 24.36500
C  -6.65300 24.63900 23.64100
C  -6.64000 24.97200 22.20400
C  -5.50700 26.06400 22.08800
C  -5.20400 26.33100 23.55300
C  -6.32900 23.73000 21.24800
C  -5.95600 27.33100 21.36200
C  -5.63500 27.33100 19.84900
N  -4.34100 26.81500 26.41600
C  -3.79800 27.43200 25.34500
C  -2.76400 28.36700 25.79900
C  -2.74900 28.27400 27.16000
C  -3.71700 27.19300 27.48600
C  -2.05700 29.32600 24.84400
C  -2.15400 28.67700 28.45000
O  -1.25200 29.46800 28.78400
C  -2.84600 27.75200 29.62200
C  -1.66000 26.95900 30.20900
O  -0.89700 26.34300 29.48800
O  -1.67800 26.94300 31.58200
C  -0.82600 25.93500 32.18700
H  -7.09800 22.32300 29.73400
H  -7.94900 23.06300 23.32500
H  -3.71800 27.79300 23.18200
H  -4.04800 25.77900 31.39100
H  -6.25200 24.21200 31.64800
H  -3.59700 23.65400 31.95200
H  -3.80800 23.04300 30.31100
H  -4.65600 22.35900 31.78200
H  -6.92000 26.37300 31.72000
H  -5.98200 27.72900 31.01400
H  -6.33500 27.62600 33.53700
H  -4.56900 27.70900 32.92800
H  -8.28500 20.77900 29.20300
H  -7.83100 19.50700 27.92900
H  -9.43400 20.19700 27.98200
H  -9.91800 18.93900 24.58400
H  -10.42500 19.80200 25.97700
H  -8.75100 19.00400 25.88700
H  -7.65600 25.31800 22.01700
H  -4.66500 25.57000 21.60500
H  -6.35400 22.78300 21.78800
H  -5.44600 23.71700 20.61000
H  -7.13000 23.55200 20.53100
H  -5.57000 28.21900 21.86300
H  -7.03700 27.44900 21.42900
H  -6.60200 27.51300 19.38000
H  -5.09200 26.47500 19.44800
H  -5.02600 28.21400 19.65700
H  -2.83400 29.66600 24.16000
H  -1.36200 28.67500 24.31400
H  -1.59700 30.19700 25.31100
H  -3.24400 28.38000 30.41900
H  0.19600 26.30400 32.09600
H  -0.96900 25.02000 31.61200
H  -0.99200 25.75200 33.24800

