158

Mg 23.91800 -5.35300 46.34600
C  26.31700 -3.30700 44.62300
C  21.56500 -4.00400 44.10500
C  21.99000 -8.08000 46.85700
C  26.65200 -6.99900 47.90800
N  24.00000 -3.84600 44.50100
C  25.03300 -3.02800 44.14000
C  24.57100 -2.12500 42.99900
C  23.00700 -2.15300 43.08800
C  22.82700 -3.41800 43.96600
C  22.35400 -0.87500 43.65900
C  25.17000 -2.58600 41.60800
C  26.10400 -1.67100 40.89700
H  26.04000 -1.48600 39.42000
N  22.00100 -5.85700 45.75800
C  21.23400 -5.15300 44.87000
C  19.96400 -5.80800 44.85100
C  20.07500 -7.04600 45.54100
C  21.42900 -7.08100 46.04400
C  18.75200 -5.26700 44.15600
C  18.89700 -8.00300 45.64900
O  17.72900 -7.75100 45.33500
C  19.16100 -9.36200 46.13100
N  24.26700 -7.23100 47.36500
C  23.24100 -8.16600 47.45600
C  23.74900 -9.40000 48.26000
C  25.25900 -9.04100 48.68300
C  25.47000 -7.73600 47.93500
C  22.82900 -9.79600 49.47600
C  26.31400 -10.10100 48.19200
C  27.36700 -10.69200 49.12100
N  26.02700 -5.14600 46.39200
C  26.98300 -5.84400 47.11900
C  28.25300 -5.26300 46.91000
C  28.07700 -4.25500 45.93000
C  26.68800 -4.30700 45.56500
C  29.58500 -5.56800 47.59100
C  28.69700 -3.23700 45.13900
O  29.89200 -2.81400 45.09500
C  27.65800 -2.65800 44.15400
C  27.60600 -1.15200 44.39000
O  27.20600 -0.59200 45.41500
O  28.15900 -0.50300 43.33800
C  28.01200 0.92200 43.25000
H  20.78500 -3.40000 43.63600
H  21.44900 -9.00900 47.05000
H  27.51500 -7.48600 48.36800
H  25.01500 -1.16800 43.27500
H  22.52300 -2.35000 42.13100
H  22.00200 -0.87400 44.69100
H  21.52200 -0.58600 43.01600
H  23.02400 -0.04200 43.44900
H  24.33200 -2.80000 40.94600
H  25.67300 -3.54300 41.75100
H  27.11500 -1.92900 41.21200
H  26.03800 -0.64900 41.27100
H  18.00800 -5.47300 44.92600
H  18.55300 -5.62900 43.14800
H  18.77400 -4.18000 44.08000
H  19.26300 -9.23800 47.20900
H  20.07100 -9.66700 45.61500
H  18.37500 -10.06900 45.86500
H  23.78400 -10.28500 47.62500
H  25.38900 -8.79800 49.73700
H  21.96200 -9.13700 49.51900
H  23.45800 -9.65600 50.35500
H  22.54900 -10.84700 49.41300
H  26.75400 -9.82900 47.23200
H  25.61800 -10.92800 48.05500
H  27.28500 -11.74000 49.41100
H  27.68000 -10.06000 49.95300
H  28.27800 -10.76000 48.52700
H  30.23900 -4.73700 47.32500
H  29.94600 -6.51500 47.19100
H  29.47700 -5.71800 48.66500
H  27.83100 -2.92900 43.11200
H  29.03200 1.28700 43.12700
H  27.34900 1.37300 43.98900
H  27.58900 1.17300 42.27700
Mg 17.44600 -0.81700 28.09100
C  16.44600 1.29000 30.83900
C  19.09800 -2.76600 30.10700
C  18.91100 -2.15400 25.24500
C  15.64700 1.48300 25.96700
N  17.85000 -0.63500 30.20600
C  17.29700 0.24300 31.19200
C  17.79600 -0.13900 32.55700
C  18.79400 -1.38600 32.26600
C  18.53800 -1.63700 30.77300
C  20.32000 -1.10200 32.49000
C  16.56700 -0.62700 33.51900
C  16.65700 -0.15800 35.01100
H  17.92600 0.52300 35.58700
N  18.70500 -2.34000 27.75000
C  19.20800 -3.08900 28.71300
C  19.96100 -4.20600 28.19400
C  19.87500 -4.03700 26.76400
C  19.12900 -2.80500 26.50300
C  20.60800 -5.29200 29.00000
C  20.38200 -4.92900 25.63700
O  20.13700 -4.72300 24.48400
C  21.08700 -6.22600 25.82300
N  17.21300 -0.52800 25.93500
C  18.05800 -1.05300 25.02600
C  17.81400 -0.42800 23.60000
C  16.75200 0.59100 23.88300
C  16.45200 0.47600 25.40100
C  19.19300 0.10600 22.90500
C  15.45100 0.47500 23.03900
C  15.18100 1.47200 21.89100
N  16.21600 1.00700 28.27400
C  15.53000 1.78500 27.33700
C  14.86600 2.89400 27.97600
C  15.14800 2.68500 29.42100
C  16.01900 1.58100 29.50900
C  14.16900 4.03300 27.45700
C  14.94400 3.21800 30.74000
O  14.32600 4.19400 31.22800
C  15.75100 2.32000 31.71600
C  16.72800 3.14000 32.48800
O  17.72100 3.61500 32.03700
O  16.17000 3.41600 33.75100
C  16.73900 4.44900 34.61100
H  19.60500 -3.40500 30.83200
H  19.49000 -2.48900 24.38200
H  15.13200 2.09700 25.22600
H  18.36300 0.66300 33.02900
H  18.57900 -2.25400 32.89000
H  20.92900 -1.13000 31.58700
H  20.72500 -1.69700 33.31000
H  20.47800 -0.08900 32.85900
H  16.66000 -1.71100 33.57000
H  15.62100 -0.30800 33.08100
H  16.41000 -1.00500 35.65100
H  15.84700 0.56000 35.14600
H  20.20500 -6.22400 28.60300
H  20.33300 -5.31400 30.05500
H  21.66600 -5.30600 28.74000
H  21.47800 -6.61600 24.88300
H  20.41300 -6.95700 26.27000
H  21.90700 -6.13800 26.53600
H  17.48300 -1.26100 22.97900
H  17.22800 1.55500 23.70300
H  20.08400 -0.03800 23.51700
H  19.04900 1.17900 22.77800
H  19.30600 -0.37600 21.93400
H  14.61100 0.62500 23.71800
H  15.35400 -0.55500 22.69600
H  16.11400 2.03000 21.81900
H  14.36700 2.18200 22.04200
H  15.17200 0.99700 20.91000
H  14.74500 4.48900 26.65200
H  14.08800 4.90500 28.10600
H  13.18300 3.71900 27.11600
H  15.17900 1.75800 32.45500
H  16.12900 4.45400 35.51500
H  16.85900 5.39100 34.07600
H  17.74900 4.14000 34.87700

