158

Mg 27.42000 50.22100 26.93300
C  25.17100 51.12600 29.43400
C  29.77700 49.37800 29.39600
C  29.51400 49.20600 24.42300
C  25.10000 51.17200 24.51400
N  27.42400 50.24100 29.16300
C  26.34800 50.56400 29.97500
C  26.69200 50.44700 31.41100
C  28.24100 50.07400 31.41100
C  28.54400 49.85200 29.90700
C  29.10600 51.12800 32.09900
C  25.73200 49.38600 32.16400
C  24.87200 49.81700 33.38700
H  24.92300 48.83600 34.54200
N  29.35600 49.47000 26.93700
C  30.19100 49.21200 28.04100
C  31.42900 48.64600 27.58000
C  31.36500 48.62500 26.11800
C  30.04300 49.13600 25.76400
C  32.47800 48.14900 28.49100
C  32.44800 48.27000 25.14500
O  32.32000 48.27700 23.89600
C  33.75900 47.82300 25.76700
N  27.38000 50.34700 24.79500
C  28.22000 49.63700 23.99200
C  27.81000 49.57300 22.56900
C  26.42500 50.18200 22.64400
C  26.27500 50.64800 24.08400
C  28.82800 50.13200 21.49400
C  25.25500 49.17100 22.20000
C  24.05100 49.82500 21.49800
N  25.53700 51.14700 26.91700
C  24.67700 51.33800 25.91500
C  23.44600 51.93800 26.39600
C  23.54100 51.79300 27.83100
C  24.87700 51.38400 28.04000
C  22.35500 52.50900 25.54900
C  22.80500 52.02900 29.09300
O  21.69100 52.50200 29.26800
C  23.84600 51.57300 30.16900
C  23.97800 52.72100 31.05300
O  24.41300 53.80500 30.76100
O  23.28500 52.42300 32.15900
C  23.15200 53.40400 33.19000
H  30.62000 49.28400 30.08500
H  30.15000 48.82900 23.61900
H  24.29300 51.23100 23.78200
H  26.46300 51.40100 31.88500
H  28.31400 49.23400 32.10300
H  29.60900 51.67000 31.29900
H  29.81900 50.69900 32.80300
H  28.49600 51.89500 32.57500
H  26.14200 48.41700 32.45100
H  25.05300 49.02000 31.39300
H  23.82200 49.91700 33.11300
H  25.14500 50.84700 33.61700
H  32.91900 47.19300 28.20800
H  32.12700 48.15800 29.52300
H  33.23700 48.93000 28.44800
H  33.77900 46.81300 26.17800
H  34.13600 48.61100 26.41900
H  34.36900 47.76600 24.86600
H  27.75000 48.52800 22.26700
H  26.40300 51.11300 22.07800
H  29.47600 50.59800 22.23700
H  28.37000 50.89600 20.86600
H  29.44600 49.50900 20.84800
H  25.02800 48.68900 23.15100
H  25.67200 48.36700 21.59400
H  23.91700 49.39600 20.50400
H  24.09700 50.88600 21.25400
H  23.12100 49.55900 22.00100
H  21.61500 51.70900 25.52900
H  22.69400 52.72400 24.53600
H  21.95600 53.33600 26.13500
H  23.58900 50.66100 30.70700
H  22.11900 53.48300 33.52700
H  23.38700 54.41500 32.85800
H  23.72800 53.14200 34.07700
Mg -12.91600 16.77800 40.91800
C  -9.90900 15.07800 40.52600
C  -11.45600 19.61000 39.62400
C  -15.95300 18.21600 40.75800
C  -14.40000 13.65600 41.82400
N  -10.91300 17.29900 40.02700
C  -9.83600 16.42800 40.10300
C  -8.52700 17.20100 39.63400
C  -9.05400 18.71700 39.44800
C  -10.53000 18.54300 39.73700
C  -8.32200 19.72500 40.38700
C  -7.89100 16.51700 38.40000
C  -6.35100 16.28600 38.45300
H  -5.57600 16.62400 37.20200
N  -13.68100 18.60800 40.22500
C  -12.89700 19.66800 39.78300
C  -13.75700 20.85000 39.58000
C  -15.07400 20.42200 39.84600
C  -14.95900 18.98000 40.30500
C  -13.30800 22.25900 39.15700
C  -16.31200 21.35800 39.69700
O  -16.16300 22.48200 39.27600
C  -17.74100 20.81100 39.96000
N  -14.96800 15.96500 41.11900
C  -16.00200 16.87200 41.19500
C  -17.30800 16.04600 41.50800
C  -16.71700 14.62600 42.14600
C  -15.24100 14.74500 41.69900
C  -18.51500 16.72000 42.28900
C  -17.49000 13.37100 41.67300
C  -18.02100 12.30200 42.71400
N  -12.31700 14.66600 41.13500
C  -13.05300 13.54800 41.44100
C  -12.14400 12.43800 41.56800
C  -10.86000 12.97200 41.23800
C  -11.08400 14.35400 40.90100
C  -12.56600 11.08300 41.88600
C  -9.45900 12.65600 41.11900
O  -8.76800 11.63900 41.24200
C  -8.77700 14.03200 40.67300
C  -7.71800 14.42600 41.63600
O  -7.85100 15.13600 42.62900
O  -6.48500 14.03200 41.22100
C  -5.25200 14.67900 41.84200
H  -10.96900 20.55100 39.36100
H  -16.97000 18.60400 40.66700
H  -14.79700 12.72200 42.22700
H  -7.93300 17.09000 40.54100
H  -8.99700 19.06800 38.41800
H  -9.05500 20.30300 40.94900
H  -7.69600 20.34400 39.74400
H  -7.65700 19.18000 41.05700
H  -8.03400 17.20400 37.56600
H  -8.46400 15.60000 38.25800
H  -6.09800 15.25100 38.68600
H  -5.90900 16.91700 39.22400
H  -13.79800 22.63100 38.25700
H  -12.25500 22.40900 38.91900
H  -13.53500 22.92100 39.99200
H  -18.40000 21.54400 39.49500
H  -17.88800 20.93000 41.03400
H  -18.06700 19.88400 39.49000
H  -17.78700 15.70700 40.58900
H  -16.66400 14.64500 43.23400
H  -19.43100 16.88000 41.72000
H  -18.19000 17.74900 42.43800
H  -18.79200 16.23300 43.22400
H  -16.85700 12.86300 40.94600
H  -18.34900 13.63400 41.05600
H  -17.93600 12.78400 43.68800
H  -17.37500 11.42500 42.73300
H  -19.07500 12.04000 42.61400
H  -11.65000 10.50800 41.75000
H  -13.34200 10.67100 41.24200
H  -12.96300 10.98200 42.89600
H  -8.34500 13.88900 39.68200
H  -5.40400 15.67000 42.26800
H  -4.45800 14.72900 41.09600
H  -4.89100 14.06000 42.66400

