158

Mg 48.87100 34.82400 26.52500
C  46.79700 33.23000 28.89200
C  48.97800 37.56100 28.52800
C  50.58000 36.42300 24.08700
C  48.16100 32.18000 24.23900
N  48.00600 35.21900 28.64100
C  47.24600 34.44100 29.39800
C  47.05700 35.11900 30.77600
C  47.41000 36.65300 30.39900
C  48.23100 36.47400 29.13600
C  46.24000 37.69500 30.35600
C  47.90100 34.41300 31.95800
C  48.58400 35.30000 33.04300
H  47.62900 36.09100 34.03300
N  49.65900 36.67900 26.35600
C  49.66100 37.68400 27.30400
C  50.44200 38.85100 26.78600
C  51.03700 38.44200 25.55900
C  50.47500 37.09700 25.31000
C  50.47700 40.25200 27.39500
C  52.06800 39.12800 24.61800
O  52.44400 38.70000 23.51400
C  52.63700 40.42500 25.10800
N  49.02100 34.52900 24.39300
C  49.92400 35.27200 23.63700
C  50.14100 34.78100 22.18000
C  49.55900 33.30400 22.37900
C  48.91600 33.27900 23.76000
C  49.46800 35.63700 21.00300
C  50.50200 32.14600 22.06400
C  50.46100 31.67200 20.61600
N  47.71700 33.02600 26.61400
C  47.53400 32.11800 25.55000
C  46.56500 31.14300 26.05200
C  46.21700 31.55400 27.36400
C  46.99500 32.66200 27.64200
C  46.12100 29.96100 25.32500
C  45.38700 31.20400 28.53200
O  44.53600 30.32700 28.72200
C  45.69900 32.31900 29.54700
C  46.15200 31.63000 30.82300
O  47.28200 31.19500 31.04200
O  45.14200 31.72100 31.72600
C  45.41400 31.58200 33.19200
H  48.94100 38.44100 29.17300
H  51.03900 36.92300 23.23100
H  48.05200 31.23900 23.69500
H  46.00100 35.00800 31.02100
H  48.06700 37.03300 31.18100
H  46.60200 38.66200 30.70500
H  45.30000 37.50500 30.87500
H  46.06100 37.96200 29.31400
H  48.77900 33.95700 31.49900
H  47.31100 33.65400 32.47200
H  49.28200 35.94000 32.50300
H  49.28500 34.75100 33.67100
H  49.70700 40.32300 28.16400
H  50.25500 41.03100 26.66600
H  51.50100 40.48000 27.68900
H  53.30100 40.68200 24.28300
H  53.22800 40.18600 25.99200
H  51.86100 41.18900 25.15900
H  51.21100 34.74400 21.97200
H  48.77700 33.34600 21.62100
H  49.97800 36.59700 21.08500
H  48.40900 35.84600 21.15500
H  49.65700 35.05200 20.10200
H  50.23800 31.37300 22.78600
H  51.50600 32.53100 22.24200
H  50.08900 30.64800 20.62500
H  51.43000 31.67300 20.11700
H  49.74300 32.20100 19.98900
H  46.05600 30.20100 24.26400
H  45.10400 29.71200 25.62800
H  46.82000 29.15500 25.55200
H  44.77900 32.90200 29.59600
H  46.38900 31.14200 33.39900
H  44.69600 30.91000 33.66300
H  45.42300 32.48400 33.80400
Mg -2.32900 34.08100 27.72400
C  -4.16900 31.90100 29.98300
C  -1.02500 35.55100 30.48000
C  -1.13700 36.29600 25.65400
C  -3.92500 32.29200 25.15500
N  -2.70100 33.84600 29.97700
C  -3.40000 32.86800 30.59500
C  -3.06700 32.87900 32.12000
C  -2.14600 34.11000 32.30800
C  -1.87800 34.46200 30.85000
C  -2.74500 35.39500 33.02500
C  -2.38400 31.56500 32.70900
C  -2.98000 30.90600 33.98400
H  -2.13100 30.95200 35.26900
N  -1.32600 35.80300 28.04600
C  -0.72700 36.23300 29.19900
C  0.04000 37.37900 28.92300
C  0.05400 37.59500 27.49700
C  -0.82600 36.55900 26.99700
C  0.66400 38.11700 30.06900
C  0.75400 38.64200 26.69400
O  0.54400 38.75200 25.48600
C  1.59300 39.67500 27.38200
N  -2.29200 34.08300 25.64900
C  -1.78900 35.23500 25.01200
C  -2.04900 35.20600 23.49200
C  -2.81200 33.86400 23.32500
C  -3.09400 33.37800 24.74900
C  -2.73400 36.46000 22.90200
C  -2.10300 32.80000 22.36900
C  -1.60600 31.49900 23.01400
N  -3.73000 32.43200 27.53000
C  -4.22400 31.80500 26.43000
C  -5.06700 30.70000 26.70900
C  -5.07100 30.69700 28.11400
C  -4.26800 31.74800 28.58900
C  -5.72300 29.78000 25.67000
C  -5.52900 30.02400 29.31500
O  -6.13700 29.05400 29.42700
C  -4.95500 30.80900 30.61900
C  -6.04000 31.21100 31.55900
O  -6.97600 32.05500 31.39300
O  -5.86000 30.50700 32.73100
C  -6.79500 30.71400 33.83200
H  -0.41200 35.88700 31.31800
H  -0.83100 37.03800 24.91300
H  -4.44200 31.88400 24.28300
H  -4.04200 32.96600 32.59900
H  -1.31900 33.83800 32.96300
H  -3.66100 35.17600 33.57300
H  -3.04500 36.13300 32.28100
H  -2.03600 35.89700 33.68500
H  -1.34600 31.84000 32.90000
H  -2.33700 30.87500 31.86600
H  -3.39300 29.90800 33.83100
H  -3.84300 31.53600 34.20200
H  0.49800 39.19000 29.96700
H  1.74800 38.11300 29.95700
H  0.45300 37.81500 31.09500
H  0.91000 40.44400 27.74300
H  2.35600 40.03500 26.69200
H  2.15100 39.14600 28.15400
H  -1.03200 35.07700 23.12000
H  -3.82900 33.96200 22.94600
H  -3.04100 37.10600 23.72500
H  -3.64300 36.20400 22.35700
H  -2.05700 36.99600 22.23700
H  -1.23200 33.32000 21.97200
H  -2.78300 32.39000 21.62200
H  -2.34900 30.70200 23.01200
H  -1.29300 31.63700 24.04900
H  -0.74400 31.15000 22.44600
H  -5.09700 29.38900 24.86900
H  -6.59700 30.28000 25.25200
H  -6.03100 28.91600 26.25900
H  -4.24000 30.16800 31.13400
H  -6.31700 31.33400 34.59100
H  -6.88800 29.66400 34.10700
H  -7.81100 31.00500 33.56300

