158

Mg 7.90600 3.85500 27.14500
C  9.48500 2.30600 29.88600
C  5.89300 5.52300 29.34800
C  6.62700 5.45800 24.63000
C  9.83700 1.86800 25.06200
N  7.76700 3.88200 29.39500
C  8.46400 3.19600 30.26400
C  8.06000 3.51700 31.73800
C  6.79800 4.40100 31.48100
C  6.79200 4.62300 29.95500
C  5.44200 3.70500 31.85800
C  9.07500 4.16400 32.61200
C  8.62500 4.93000 33.87100
H  9.63000 5.16700 34.99100
N  6.47700 5.35500 27.01400
C  5.79600 5.98400 28.02800
C  4.86800 6.94800 27.49800
C  5.18200 7.03400 26.12600
C  6.07400 5.93100 25.80700
C  3.93100 7.72700 28.40500
C  4.64800 7.91600 25.08100
O  4.86500 7.82700 23.88100
C  3.79200 8.96000 25.52400
N  8.05200 3.57400 25.16500
C  7.45400 4.36700 24.29000
C  7.68000 3.91800 22.85700
C  8.94200 2.94900 23.05100
C  8.99900 2.76900 24.51100
C  6.53500 3.43900 21.88800
C  10.27900 3.46700 22.40600
C  11.28500 4.19800 23.36600
N  9.33800 2.30900 27.32500
C  9.99700 1.58500 26.42300
C  10.74800 0.56000 27.03200
C  10.65200 0.85500 28.43900
C  9.78700 1.95300 28.55100
C  11.62900 -0.51100 26.48900
C  11.10600 0.48800 29.78900
O  11.87100 -0.30700 30.23300
C  10.38900 1.45100 30.71900
C  9.73400 0.52400 31.67100
O  8.72300 -0.12900 31.49800
O  10.42500 0.48500 32.82000
C  9.74600 -0.06500 34.01000
H  5.27800 6.10100 30.04200
H  6.34700 6.01100 23.73100
H  10.47300 1.28500 24.39300
H  7.76300 2.54100 32.12000
H  6.88900 5.35700 31.99700
H  5.56200 2.68400 32.22100
H  4.64200 3.75300 31.11900
H  5.06800 4.31300 32.68200
H  9.64600 4.83200 31.96800
H  9.85500 3.49800 32.98100
H  7.89400 4.25000 34.30800
H  8.19900 5.91700 33.68800
H  4.31800 8.74300 28.47200
H  3.65600 7.33600 29.38500
H  2.96000 7.78100 27.91200
H  2.76600 8.60400 25.61900
H  3.75700 9.65700 24.68600
H  4.37000 9.39300 26.34000
H  8.08200 4.83100 22.41700
H  8.82500 1.94600 22.64100
H  5.60800 3.33900 22.45200
H  6.78500 2.46200 21.47200
H  6.42800 4.20700 21.12200
H  10.13000 4.14800 21.56900
H  10.75500 2.54900 22.06200
H  12.34100 3.92600 23.39400
H  11.08300 4.23200 24.43700
H  11.32400 5.26200 23.13100
H  11.38300 -0.67600 25.44000
H  11.51300 -1.44800 27.03500
H  12.70800 -0.37300 26.42000
H  11.21000 1.97100 31.21100
H  9.40500 0.79400 34.58900
H  10.53800 -0.52000 34.60400
H  8.90600 -0.74800 33.88400
Mg 48.01300 24.84300 27.98200
C  48.74400 27.06700 30.49500
C  47.53400 22.33700 30.49400
C  47.37000 22.49300 25.56100
C  48.69600 27.16700 25.62200
N  48.25400 24.71900 30.25800
C  48.54800 25.82900 31.08700
C  48.40200 25.54500 32.58100
C  48.08000 23.92200 32.54700
C  47.96100 23.60700 30.98100
C  49.04600 22.89500 33.32700
C  47.17300 26.36700 33.18700
C  47.45400 27.19500 34.51400
H  46.36600 27.19300 35.54000
N  47.40600 22.77700 28.00600
C  47.24800 21.94900 29.13600
C  46.80500 20.64400 28.61000
C  46.79800 20.62200 27.17000
C  47.21500 21.95300 26.85600
C  46.47600 19.51300 29.60500
C  46.35400 19.52100 26.14300
O  46.44100 19.65800 24.96300
C  45.82700 18.21700 26.62300
N  48.21800 24.72200 25.85200
C  47.84100 23.71000 25.02800
C  47.90400 24.06600 23.52700
C  48.13000 25.59700 23.60800
C  48.32800 25.88400 25.16300
C  48.90600 23.15300 22.67400
C  46.96900 26.38100 22.91000
C  45.76200 26.75500 23.75600
N  48.69000 26.77400 27.96100
C  48.95500 27.61500 26.95200
C  49.47400 28.87500 27.46500
C  49.25700 28.77400 28.92100
C  48.83600 27.43900 29.15600
C  50.06500 30.02900 26.65600
C  49.46900 29.39900 30.20800
O  49.87200 30.51100 30.46800
C  49.13100 28.28600 31.26300
C  50.28000 28.32000 32.19500
O  51.36700 27.83100 31.99500
O  49.92000 29.07700 33.29000
C  50.90200 29.01200 34.42800
H  47.38900 21.59800 31.28400
H  47.30000 21.80500 24.71500
H  49.07200 27.80000 24.81500
H  49.25700 25.81900 33.19800
H  47.05800 23.83700 32.91400
H  49.13300 21.96500 32.76400
H  48.55800 22.55200 34.24000
H  50.01500 23.38600 33.41400
H  46.39400 25.67200 33.50100
H  46.89000 27.05000 32.38600
H  47.58400 28.25400 34.29100
H  48.33800 26.64600 34.83900
H  46.80600 18.56000 29.19100
H  45.42800 19.54100 29.90600
H  46.94000 19.64000 30.58300
H  46.56900 17.61300 27.14600
H  45.54600 17.67300 25.72100
H  44.92700 18.50700 27.16600
H  46.96000 23.78800 23.06000
H  48.97000 25.75800 22.93200
H  48.50700 22.57400 21.84100
H  49.21100 22.34800 23.34200
H  49.79000 23.71200 22.36500
H  46.46500 25.89600 22.07400
H  47.39500 27.30000 22.50800
H  44.88600 26.29700 23.29600
H  45.67500 27.84000 23.81000
H  45.82300 26.41100 24.78800
H  50.33100 29.73300 25.64100
H  50.96500 30.24500 27.23200
H  49.43000 30.91400 26.65000
H  48.20500 28.61900 31.73200
H  50.39800 28.84600 35.38000
H  51.57100 29.86800 34.51400
H  51.48500 28.10600 34.26300

