158

Mg 0.82900 7.73600 25.49400
C  1.49500 9.52900 28.30800
C  0.94100 4.87100 27.31700
C  0.48200 5.94900 22.55300
C  1.14700 10.58800 23.45700
N  1.12300 7.26900 27.56400
C  1.36700 8.14600 28.56800
C  1.49700 7.44900 29.99300
C  1.49900 5.99500 29.55100
C  1.11400 6.01400 28.07000
C  2.85700 5.14100 29.87200
C  0.32600 7.84900 30.99000
C  0.67300 7.87000 32.45400
H  1.92000 7.07100 32.94000
N  0.73700 5.69900 24.99600
C  0.72100 4.64600 25.86800
C  0.33700 3.40200 25.19100
C  0.20300 3.75100 23.82100
C  0.51700 5.17600 23.68700
C  0.14500 2.11700 25.93800
C  -0.15800 2.83300 22.71100
O  -0.28700 3.31300 21.58300
C  -0.50700 1.42400 22.85300
N  0.92600 8.21400 23.22600
C  0.63300 7.29700 22.28500
C  0.52300 7.93100 20.86600
C  0.68100 9.45900 21.17200
C  0.88500 9.44900 22.70800
C  1.74300 7.37300 19.94000
C  -0.65300 10.26800 20.86500
C  -0.56200 11.77600 20.36800
N  1.23700 9.66100 25.73700
C  1.28900 10.72100 24.82900
C  1.51500 11.96100 25.54100
C  1.58600 11.55000 26.90200
C  1.40600 10.17400 27.00700
C  1.57400 13.32300 24.88600
C  1.76000 12.06900 28.31300
O  2.11400 13.20800 28.57700
C  1.56000 10.79900 29.25600
C  2.68500 10.70300 30.22400
O  3.77700 10.32700 29.88900
O  2.35600 11.39900 31.39400
C  3.35200 11.28600 32.47200
H  1.12100 3.98000 27.92300
H  0.26700 5.46400 21.59800
H  1.10400 11.55000 22.94300
H  2.47600 7.73500 30.38000
H  0.62600 5.50900 29.98700
H  2.73500 4.13900 30.28500
H  3.55400 5.69200 30.50300
H  3.35500 5.12500 28.90200
H  -0.60900 7.29200 30.92800
H  0.04200 8.85100 30.67000
H  -0.27000 7.77500 32.99100
H  1.02800 8.89000 32.60200
H  -0.93000 1.94900 25.86300
H  0.45700 2.14000 26.98200
H  0.73100 1.29000 25.53800
H  -0.97000 1.09200 21.92400
H  -1.18800 1.20700 23.67700
H  0.35600 0.77900 23.01900
H  -0.37000 7.53400 20.38300
H  1.53100 9.99300 20.74700
H  1.44900 7.57200 18.91000
H  1.97900 6.31400 20.04600
H  2.67400 7.91500 20.10500
H  -1.29900 10.15000 21.73500
H  -1.29100 9.70500 20.18300
H  -1.20200 11.87600 19.49100
H  0.45700 12.00700 20.05900
H  -0.85000 12.48000 21.14900
H  2.44400 13.45800 24.24400
H  1.55700 14.15600 25.58900
H  0.70900 13.47500 24.24100
H  0.66700 11.12000 29.79200
H  3.73500 10.26900 32.55800
H  3.01100 11.64800 33.44200
H  4.17900 11.92200 32.15600
Mg 26.05800 50.40000 27.29600
C  24.03300 51.43300 29.91200
C  28.66600 49.79300 29.61700
C  28.09200 49.75600 24.83700
C  23.68900 51.72400 25.07900
N  26.23200 50.41900 29.46500
C  25.22500 50.89400 30.35600
C  25.63600 50.53000 31.81100
C  27.19100 50.23500 31.67900
C  27.39300 50.12700 30.17200
C  28.17700 51.25900 32.20200
C  24.83600 49.34400 32.35800
C  24.55100 49.14000 33.84600
H  25.17000 50.09500 34.91600
N  28.09000 49.70300 27.21800
C  28.97300 49.53300 28.26800
C  30.24500 49.13800 27.68900
C  30.09600 49.08200 26.30100
C  28.69600 49.47000 26.06400
C  31.46500 48.93900 28.58000
C  31.12500 48.86300 25.20200
O  30.79900 48.76800 24.02300
C  32.60900 48.74500 25.49700
N  25.97800 50.81000 25.19900
C  26.90000 50.36000 24.35000
C  26.34000 50.22600 22.92800
C  24.84700 50.64500 23.08300
C  24.82700 51.07000 24.56900
C  27.12200 51.05900 21.80600
C  23.74000 49.58100 22.79900
C  22.44400 50.14000 22.09700
N  24.34000 51.53000 27.38500
C  23.49000 52.04900 26.43700
C  22.32000 52.65400 27.08200
C  22.49700 52.37500 28.44000
C  23.72900 51.76300 28.56200
C  21.17000 53.26800 26.39500
C  21.86700 52.48400 29.71600
O  20.76900 52.90200 30.11800
C  22.89400 51.89300 30.73800
C  23.30200 52.91700 31.75300
O  24.23000 53.67500 31.62500
O  22.62900 52.74200 32.95100
C  23.04900 53.55400 34.10900
H  29.47000 49.80400 30.35600
H  28.67500 49.46000 23.96300
H  22.83500 51.71800 24.39800
H  25.41200 51.45700 32.33700
H  27.52000 49.32300 32.17700
H  28.88100 50.76800 32.87400
H  27.62600 52.04100 32.72500
H  28.68700 51.67200 31.33200
H  25.38100 48.46700 32.00800
H  23.93200 49.21700 31.76200
H  25.15500 48.25100 34.03000
H  23.52800 48.84300 34.07700
H  31.50600 49.82600 29.21200
H  32.42800 48.94300 28.07000
H  31.37400 47.95900 29.04800
H  33.15000 48.60100 24.56100
H  32.76400 47.98600 26.26400
H  32.96700 49.72300 25.81700
H  26.31400 49.16700 22.67100
H  24.65100 51.56800 22.53600
H  27.77100 51.65500 22.44900
H  26.51400 51.79600 21.28100
H  27.70700 50.41900 21.14600
H  23.45000 49.09300 23.73000
H  24.18700 48.89900 22.07600
H  22.40000 49.75100 21.08000
H  22.57400 51.21800 22.00000
H  21.54000 49.91000 22.66000
H  21.21200 52.92400 25.36100
H  21.33400 54.33900 26.51000
H  20.21100 53.08100 26.87800
H  22.47100 51.01200 31.22200
H  23.28700 54.59700 33.90100
H  23.95700 53.05100 34.44200
H  22.26300 53.46400 34.85900

