158

Mg 16.40900 51.73100 26.76900
C  18.29500 50.86200 29.54600
C  13.75500 52.50600 29.04100
C  14.46400 52.73600 24.19500
C  18.79700 50.58400 24.60400
N  16.10100 51.76000 28.99500
C  17.09400 51.42400 29.88900
C  16.50400 51.63400 31.38500
C  15.07800 52.16800 31.19700
C  14.95400 52.18400 29.66300
C  14.01300 51.20100 31.77700
C  17.43900 52.65400 32.21500
C  17.77500 52.37400 33.67000
H  16.93900 53.01700 34.80100
N  14.39300 52.53200 26.64800
C  13.55400 52.84400 27.71000
C  12.38300 53.54700 27.15100
C  12.51300 53.56400 25.71800
C  13.80100 52.91200 25.39700
C  11.41800 54.23100 28.11800
C  11.57100 54.16100 24.63000
O  11.79500 54.15500 23.45700
C  10.17800 54.64700 25.09300
N  16.63300 51.69300 24.68500
C  15.73100 52.19100 23.86900
C  16.26600 52.08400 22.35100
C  17.67500 51.61900 22.55800
C  17.73600 51.25900 24.07800
C  15.39500 51.19900 21.42600
C  18.75900 52.60500 22.14400
C  19.29700 53.61100 23.16500
N  18.20800 50.79400 26.96800
C  19.04800 50.34800 25.98300
C  20.25900 49.81300 26.63600
C  19.94900 49.93000 28.05100
C  18.64900 50.51800 28.19900
C  21.40700 49.27700 25.93500
C  20.39000 49.64300 29.45800
O  21.33200 48.92800 29.77700
C  19.37300 50.27300 30.44900
C  18.84300 49.23800 31.38500
O  18.20000 48.28400 31.03800
O  19.25700 49.54300 32.64900
C  19.10000 48.53500 33.75100
H  13.02200 52.84200 29.77800
H  13.88400 52.99500 23.30700
H  19.63900 50.36500 23.94300
H  16.41800 50.62700 31.79300
H  14.98100 53.17600 31.60000
H  13.15200 51.81300 32.04500
H  14.34500 50.69100 32.68100
H  13.70200 50.41600 31.08700
H  17.02400 53.66000 32.27500
H  18.40100 52.84300 31.74000
H  18.80600 52.72600 33.70900
H  17.82200 51.29900 33.84100
H  11.67800 55.28500 28.02800
H  11.52500 54.03900 29.18500
H  10.38600 53.95900 27.89400
H  9.65100 55.00200 24.20700
H  10.37000 55.45300 25.80200
H  9.68600 53.80200 25.57400
H  16.24200 53.06900 21.88500
H  17.88500 50.74300 21.94300
H  15.85900 50.43700 20.80000
H  14.82400 51.96000 20.89300
H  14.60000 50.71500 21.99300
H  18.47200 53.18700 21.26800
H  19.56800 51.93000 21.86500
H  20.38000 53.55400 23.26500
H  18.89500 53.58600 24.17800
H  18.95100 54.59100 22.83600
H  21.65100 49.97400 25.13300
H  21.19200 48.24500 25.65800
H  22.22500 49.27300 26.65500
H  19.77000 51.10200 31.03500
H  18.48900 48.97000 34.54100
H  20.05000 48.48600 34.28200
H  18.73700 47.56500 33.41000
Mg 0.35600 44.08100 25.59000
C  2.39000 43.70100 28.38400
C  -2.37800 43.19200 27.54200
C  -1.64500 43.76600 22.71200
C  3.07900 44.32100 23.58200
N  0.03500 43.54400 27.70800
C  0.99300 43.57600 28.75000
C  0.43500 43.32400 30.18100
C  -1.05500 42.90500 29.78700
C  -1.18300 43.25100 28.26400
C  -1.41400 41.41200 30.16600
C  0.42600 44.63800 31.07900
C  0.85500 44.44000 32.48500
H  0.72200 43.06600 33.14800
N  -1.73500 43.78500 25.27200
C  -2.67400 43.51000 26.21800
C  -3.97700 43.49300 25.55700
C  -3.75400 43.62800 24.14300
C  -2.31100 43.73400 23.99500
C  -5.26500 43.36000 26.33400
C  -4.77900 43.55500 23.07700
O  -4.51900 43.58800 21.87300
C  -6.29100 43.41000 23.34600
N  0.69300 43.74100 23.40200
C  -0.26700 43.83500 22.43100
C  0.36700 43.94000 21.08700
C  1.81000 44.42700 21.40200
C  1.89700 44.14300 22.85900
C  0.14600 42.68300 20.27300
C  1.92300 45.95200 21.15800
C  3.07200 46.45600 20.40100
N  2.35200 43.97800 25.86500
C  3.36300 44.22300 24.93400
C  4.58600 44.36200 25.65200
C  4.28100 44.06000 27.03500
C  2.89200 43.81700 27.10300
C  5.96600 44.67900 25.04200
C  4.82400 44.06200 28.38500
O  5.98200 44.18600 28.79200
C  3.59800 43.79600 29.28100
C  3.77400 42.60300 30.11100
O  3.45400 41.44300 29.86100
O  4.37900 42.95800 31.26000
C  4.74000 41.99200 32.19900
H  -3.32000 42.98400 28.05300
H  -2.21000 43.67900 21.78200
H  3.91500 44.61000 22.94200
H  1.08300 42.51100 30.51100
H  -1.74700 43.60500 30.25500
H  -2.28300 41.47900 30.82000
H  -0.62800 41.02300 30.81300
H  -1.55700 40.78200 29.28800
H  -0.53200 45.15700 31.05700
H  1.14300 45.30300 30.59600
H  0.08900 45.02400 32.99500
H  1.83800 44.85900 32.69800
H  -6.04500 44.06900 26.05700
H  -5.17500 43.63600 27.38500
H  -5.65200 42.34100 26.30500
H  -6.90700 43.23600 22.46400
H  -6.68100 44.33200 23.77600
H  -6.37800 42.53400 23.98900
H  -0.12300 44.74000 20.53200
H  2.64200 43.92300 20.91000
H  -0.39400 41.94700 20.86800
H  1.13900 42.30200 20.03500
H  -0.46000 42.88100 19.38900
H  1.99300 46.51000 22.09200
H  1.07400 46.44400 20.68200
H  3.64500 47.12800 21.03900
H  2.79200 46.96000 19.47600
H  3.76100 45.69200 20.04100
H  6.39300 45.62600 25.37200
H  5.92100 44.76400 23.95700
H  6.59400 43.84800 25.36500
H  3.53700 44.69000 29.90100
H  4.73700 42.37500 33.21900
H  5.68600 41.49800 31.97700
H  3.90700 41.28900 32.23600

