158

Mg 43.78600 41.76600 26.48400
C  42.73700 44.18000 28.83000
C  44.73900 39.79200 29.06900
C  44.77800 39.59500 24.22800
C  43.17900 44.24200 23.99000
N  43.89100 42.12200 28.71700
C  43.25200 43.07700 29.45200
C  43.15200 42.64500 30.96100
C  44.11400 41.43600 31.00700
C  44.37400 41.13400 29.50100
C  45.44800 41.66700 31.83700
C  41.63300 42.56900 31.37400
C  41.27700 41.70300 32.56900
H  40.61600 42.32400 33.84700
N  44.67700 39.97300 26.64900
C  44.95800 39.26400 27.79400
C  45.40300 37.90800 27.43900
C  45.52500 37.89000 26.05200
C  45.02100 39.15200 25.55500
C  45.74200 36.73400 28.48700
C  45.98000 36.73200 25.14500
O  45.88600 36.70100 23.91000
C  46.55400 35.46600 25.79100
N  43.92900 41.91200 24.34700
C  44.38600 40.87300 23.64800
C  44.33500 41.13700 22.12700
C  43.79400 42.64400 22.09600
C  43.60600 42.99200 23.52200
C  45.75300 41.02300 21.38000
C  42.52300 42.89300 21.20300
C  42.66100 43.98900 20.28000
N  43.08000 43.69900 26.33700
C  42.90000 44.58800 25.29100
C  42.32700 45.83300 25.76100
C  42.24900 45.67900 27.14700
C  42.77100 44.43100 27.46900
C  42.01100 46.93400 24.92800
C  41.90600 46.46700 28.40400
O  41.48000 47.56400 28.56400
C  42.11700 45.37500 29.55500
C  42.96500 45.99100 30.55500
O  44.11200 46.40900 30.41900
O  42.15500 46.25700 31.72400
C  42.82400 46.89500 32.87900
H  45.05100 39.04900 29.80600
H  45.02400 38.89300 23.42800
H  43.08800 45.05600 23.26800
H  43.54800 43.52500 31.46800
H  43.67300 40.55300 31.47100
H  46.34100 41.33300 31.30900
H  45.32500 40.99900 32.69000
H  45.52500 42.68900 32.21000
H  41.04100 42.14300 30.56400
H  41.37400 43.61600 31.53000
H  42.07500 41.04800 32.92000
H  40.55800 40.94600 32.25400
H  44.96600 35.98400 28.64000
H  45.85500 37.32300 29.39700
H  46.76000 36.35900 28.37700
H  46.93400 34.86500 24.96500
H  45.79000 34.95400 26.37500
H  47.40500 35.62800 26.45300
H  43.59100 40.49300 21.65900
H  44.61300 43.28900 21.77800
H  46.52800 41.38700 22.05500
H  45.77300 41.59100 20.45000
H  45.79600 39.96900 21.10800
H  41.76400 43.23100 21.90800
H  42.18200 41.99500 20.68800
H  43.64200 44.06600 19.81100
H  42.29100 44.90700 20.73600
H  42.02200 43.73900 19.43300
H  42.97800 47.43100 24.84400
H  41.39100 47.62200 25.50200
H  41.58400 46.65100 23.96600
H  41.12700 45.17800 29.96500
H  42.73900 46.29000 33.78200
H  42.55100 47.92600 33.10400
H  43.89100 46.93900 32.65900
Mg -12.06300 16.27400 41.14700
C  -9.14500 14.58000 40.33000
C  -10.85400 19.03500 39.62100
C  -15.12400 17.68800 41.29700
C  -13.46500 13.13900 42.11600
N  -10.17600 16.70900 39.98100
C  -9.09500 15.92400 39.94100
C  -7.95000 16.63800 39.29700
C  -8.42200 18.13900 39.15800
C  -9.92400 17.98900 39.53500
C  -7.66000 19.14900 40.13900
C  -7.40700 16.02000 37.93800
C  -6.10700 16.62100 37.55800
H  -5.61100 16.43900 36.12100
N  -12.80900 18.15600 40.70300
C  -12.14400 19.14000 40.09300
C  -13.03100 20.33500 39.97600
C  -14.26800 19.95900 40.58500
C  -14.11300 18.56400 40.94900
C  -12.54100 21.67500 39.43100
C  -15.45100 20.86600 40.80400
O  -15.45200 21.95700 40.29300
C  -16.50300 20.48900 41.72200
N  -14.00700 15.45300 41.55600
C  -15.14100 16.28800 41.54700
C  -16.41400 15.52200 41.88200
C  -15.87400 14.08900 42.22900
C  -14.36700 14.21000 41.92900
C  -17.34900 16.10100 43.01800
C  -16.46700 12.93900 41.30000
C  -16.79600 11.61900 41.93700
N  -11.47100 14.29800 41.40700
C  -12.08800 13.15600 41.80200
C  -11.05800 12.05200 41.85200
C  -9.97400 12.56300 41.28400
C  -10.23000 13.90800 40.98800
C  -11.21400 10.67100 42.49300
C  -8.57400 12.26800 41.00700
O  -7.96800 11.21900 41.26200
C  -7.95500 13.56000 40.48500
C  -6.87300 14.03200 41.39200
O  -7.06900 14.31400 42.58500
O  -5.65300 14.07600 40.77100
C  -4.52400 13.97000 41.70000
H  -10.42800 19.96900 39.24800
H  -16.16100 18.02200 41.21300
H  -13.88400 12.23900 42.57100
H  -7.12100 16.66300 40.00400
H  -8.53400 18.47400 38.12700
H  -7.35700 18.64400 41.05600
H  -8.22700 20.05800 40.34200
H  -6.77600 19.52900 39.62800
H  -8.03200 16.43200 37.14600
H  -7.42500 14.93100 37.89300
H  -5.36900 16.32900 38.30600
H  -6.22400 17.70000 37.66000
H  -13.38300 22.28700 39.10900
H  -11.97200 21.40600 38.54200
H  -11.89300 22.26400 40.08100
H  -17.37900 20.15000 41.17000
H  -16.73600 21.38400 42.29900
H  -16.25100 19.65900 42.38100
H  -16.94300 15.45300 40.93100
H  -15.98400 13.89800 43.29600
H  -17.66300 15.25200 43.62600
H  -18.33700 16.42000 42.68600
H  -16.90000 16.79700 43.72600
H  -15.82200 12.84100 40.42700
H  -17.38200 13.31300 40.84100
H  -16.49300 10.77500 41.31700
H  -17.86000 11.50000 42.14200
H  -16.29200 11.45300 42.88900
H  -11.49400 10.03000 41.65700
H  -11.93300 10.62800 43.31100
H  -10.23400 10.35300 42.84900
H  -7.48900 13.42000 39.51000
H  -4.49800 14.86100 42.32800
H  -3.73600 14.02100 40.95000
H  -4.42700 13.00000 42.18800

