158

Mg 40.15300 9.32800 30.22500
C  41.72500 10.60600 33.06800
C  37.70900 8.01400 32.21600
C  38.58200 8.12600 27.48600
C  42.99300 10.10300 28.37600
N  39.79300 9.30300 32.36400
C  40.47700 9.97100 33.38300
C  39.81000 9.97300 34.74600
C  38.56600 8.98800 34.46800
C  38.67400 8.79100 32.93800
C  38.48200 7.68500 35.25800
C  39.43200 11.38600 35.26700
C  38.53800 11.37100 36.55600
H  39.17700 12.23600 37.66500
N  38.32000 8.29200 29.90100
C  37.47700 7.80300 30.86200
C  36.44200 7.02900 30.27000
C  36.65200 7.17100 28.85300
C  37.88500 7.97000 28.66600
C  35.44900 6.21700 31.07500
C  35.84800 6.54900 27.73500
O  36.02600 6.84000 26.52800
C  34.75700 5.62100 28.00600
N  40.70400 9.28300 28.16900
C  39.87200 8.63100 27.25800
C  40.58900 8.44700 25.98000
C  41.88100 9.29600 26.14300
C  41.85500 9.63900 27.62600
C  40.91700 6.95500 25.56600
C  41.99400 10.46900 25.17100
C  41.80000 11.86400 25.70600
N  41.92800 10.28300 30.56300
C  43.04500 10.46000 29.70300
C  44.00900 11.17400 30.39600
C  43.53800 11.25400 31.68100
C  42.24000 10.65600 31.78800
C  45.36000 11.64800 29.82500
C  43.85100 11.79300 32.92200
O  44.70500 12.62900 33.20300
C  42.76500 11.24300 33.91800
C  43.45800 10.36300 34.86200
O  43.55400 9.16500 34.76000
O  43.84500 11.15700 35.90700
C  44.43400 10.37900 36.97200
H  36.87300 7.67800 32.83300
H  38.18100 7.59600 26.61900
H  43.92500 10.32900 27.85200
H  40.47300 9.58400 35.51800
H  37.58900 9.42500 34.67600
H  38.60000 6.78300 34.65800
H  37.54500 7.58200 35.80500
H  39.33800 7.68600 35.93400
H  38.88900 11.91900 34.48600
H  40.37100 11.91900 35.42100
H  38.45800 10.33200 36.87500
H  37.54700 11.78500 36.36800
H  36.16500 5.92100 31.84200
H  35.03700 5.31900 30.61300
H  34.58500 6.82500 31.33900
H  34.07900 6.12700 28.69200
H  35.16400 4.64600 28.27200
H  34.26400 5.50500 27.04000
H  39.95300 8.91500 25.22900
H  42.74500 8.63200 26.16700
H  40.26200 6.29800 26.13800
H  41.93900 6.63100 25.76600
H  40.64600 6.83700 24.51700
H  41.23900 10.34000 24.39600
H  42.99000 10.42400 24.72900
H  41.38400 12.49200 24.91800
H  42.72100 12.34100 26.04000
H  41.09200 11.93900 26.53100
H  45.25400 12.23000 28.91000
H  46.12300 10.89800 29.61300
H  45.68200 12.29100 30.64400
H  42.30600 12.02700 34.51900
H  45.01800 9.52500 36.62900
H  43.59000 10.09800 37.60300
H  45.14500 11.07300 37.42300
Mg -11.03600 17.14000 42.07500
C  -7.58000 18.05000 41.99200
C  -11.87200 20.38100 41.89100
C  -14.24100 16.06400 42.04100
C  -9.97300 13.79100 42.04500
N  -9.80900 18.99200 41.82200
C  -8.46800 19.17600 41.88900
C  -8.06900 20.64400 41.98800
C  -9.42800 21.30000 42.30600
C  -10.42100 20.16600 42.06600
C  -9.53300 21.86700 43.80200
C  -7.37200 21.14300 40.70300
C  -5.83600 21.45400 40.82600
H  -4.98800 20.81200 39.72200
N  -12.82000 18.05500 41.80400
C  -12.99300 19.43000 41.74600
C  -14.39600 19.73000 41.47900
C  -15.15000 18.48500 41.52700
C  -14.09500 17.45900 41.85200
C  -14.94800 21.11500 41.35200
C  -16.62600 18.33000 41.27400
O  -17.39700 19.26600 40.91800
C  -17.22900 17.03600 41.22200
N  -11.98300 15.21100 42.07500
C  -13.29500 15.05700 42.25300
C  -13.72800 13.57800 42.40700
C  -12.28800 12.89200 42.41800
C  -11.36500 13.98900 42.06300
C  -14.68600 13.20900 43.59800
C  -12.16800 11.63700 41.56900
C  -12.13100 10.35000 42.29500
N  -9.19500 16.08600 42.02500
C  -8.94000 14.73900 41.98600
C  -7.51400 14.44000 42.08800
C  -6.99800 15.74400 42.03500
C  -8.01500 16.73700 41.99600
C  -6.67800 13.18300 42.02500
C  -5.76200 16.43600 42.06800
O  -4.65000 15.96000 42.07600
C  -6.09000 17.93000 42.13400
C  -5.57700 18.46400 43.40000
O  -5.95400 18.20200 44.50600
O  -4.36000 19.14400 43.12100
C  -3.45900 19.54300 44.25500
H  -12.10200 21.43600 42.04900
H  -15.30800 15.83100 42.06800
H  -9.62600 12.77400 42.23800
H  -7.33700 20.77000 42.78600
H  -9.74300 22.14100 41.68800
H  -10.27500 21.29400 44.35800
H  -9.80800 22.92000 43.75000
H  -8.55600 21.88000 44.28600
H  -7.94300 21.97200 40.28400
H  -7.45600 20.36600 39.94200
H  -5.46700 21.17800 41.81300
H  -5.64700 22.52800 40.81500
H  -15.28500 21.43000 40.36400
H  -14.28400 21.83800 41.82700
H  -15.90000 21.14500 41.88100
H  -18.21500 17.10600 40.76200
H  -17.35000 16.59800 42.21300
H  -16.68100 16.51600 40.43500
H  -14.29200 13.34700 41.50300
H  -11.95900 12.65300 43.43000
H  -15.66000 13.11100 43.12000
H  -14.69200 14.11500 44.20300
H  -14.39700 12.26200 44.05500
H  -11.38800 11.73700 40.81400
H  -13.06300 11.66800 40.94800
H  -11.48400 9.60600 41.83000
H  -13.10000 9.85900 42.19600
H  -11.79100 10.31800 43.33000
H  -6.15800 12.91700 42.94500
H  -5.98800 13.18600 41.18000
H  -7.33600 12.35900 41.74900
H  -5.63300 18.47000 41.30400
H  -3.01000 20.50700 44.01200
H  -2.57500 18.90600 44.26800
H  -3.93100 19.52600 45.23800

