158

Mg 48.24200 45.30200 42.66400
C  44.85100 45.89600 42.08100
C  47.72200 42.02300 42.03400
C  51.58600 44.92900 41.86300
C  48.75300 48.70800 42.79100
N  46.45400 44.14200 41.97300
C  45.19900 44.59000 41.79000
C  44.32500 43.41100 41.34100
C  45.14800 42.18900 41.83500
C  46.51600 42.77800 41.93900
C  44.55700 41.53800 43.12900
C  43.87100 43.41300 39.83800
C  44.75900 44.00200 38.72300
H  44.43100 43.81000 37.30100
N  49.52600 43.64700 42.14300
C  49.07800 42.35700 42.02700
C  50.22700 41.50700 41.99600
C  51.39700 42.31700 41.81800
C  50.88100 43.68800 42.00900
C  50.16400 40.01700 42.09600
C  52.82200 41.80400 41.60800
O  53.11100 40.64500 41.68400
C  53.99500 42.67400 41.30200
N  49.90200 46.62100 42.25500
C  51.14800 46.24300 41.94700
C  52.14600 47.38000 41.86800
C  51.34100 48.56400 42.49700
C  49.89900 47.95300 42.44100
C  53.55800 47.17500 42.49800
C  51.30300 49.99300 41.81400
C  51.55700 51.18500 42.73700
N  47.07100 46.93000 42.73300
C  47.39200 48.23000 42.99200
C  46.19800 49.01500 43.20200
C  45.18500 48.17600 42.79100
C  45.71600 46.92800 42.55100
C  46.07800 50.47600 43.75900
C  43.79100 48.09800 42.63000
O  42.86400 48.90700 42.82700
C  43.62000 46.68700 41.92900
C  42.37200 45.98700 42.58300
O  41.51400 45.34000 41.97200
O  42.32200 46.13300 43.91900
C  41.31500 45.31200 44.53600
H  47.45700 40.96800 42.13300
H  52.66500 44.78400 41.76700
H  48.73100 49.77100 43.03900
H  43.36000 43.50900 41.83700
H  45.13800 41.44000 41.04400
H  44.22100 40.58900 42.71200
H  43.76700 42.12700 43.59600
H  45.36900 41.29500 43.81500
H  42.89400 43.87800 39.70800
H  43.53100 42.40200 39.61300
H  45.74400 43.56000 38.87400
H  44.72400 45.08000 38.87800
H  49.18600 39.77300 41.68200
H  50.08800 39.76500 43.15400
H  50.85200 39.40400 41.51400
H  54.09700 43.42700 42.08400
H  53.87400 43.28200 40.40500
H  54.93200 42.18300 41.03800
H  52.23200 47.70200 40.83000
H  51.70700 48.69800 43.51500
H  53.59800 46.27100 43.10500
H  53.73700 47.91500 43.27800
H  54.36000 47.18000 41.76100
H  50.38500 50.25400 41.28700
H  52.05400 49.85400 41.03600
H  51.05800 51.02800 43.69200
H  51.11600 52.00600 42.17100
H  52.62900 51.38200 42.78200
H  46.56500 51.24400 43.15700
H  46.52700 50.46600 44.75200
H  45.00400 50.66300 43.76800
H  43.49800 46.91700 40.87000
H  41.47300 44.24500 44.37800
H  40.29200 45.51100 44.21700
H  41.41400 45.47200 45.61000
Mg 27.10000 50.44000 26.60200
C  24.95100 51.31600 29.31100
C  29.48800 49.74200 28.92600
C  28.97300 49.41100 24.08700
C  24.74700 51.75400 24.33900
N  27.15900 50.48200 28.83500
C  26.18200 50.76100 29.72700
C  26.62400 50.42800 31.21100
C  28.15900 50.04400 31.04200
C  28.29400 50.16800 29.51500
C  29.14800 50.94700 31.90500
C  25.79300 49.41400 31.93700
C  24.95100 49.82800 33.15900
H  24.97500 48.89800 34.48800
N  28.88500 49.63300 26.55100
C  29.71800 49.40400 27.63500
C  30.97100 48.80900 27.12200
C  30.91200 48.75600 25.64400
C  29.56000 49.29300 25.34200
C  32.15300 48.36200 28.01100
C  32.06900 48.55200 24.59900
O  31.88100 48.78100 23.40200
C  33.50200 48.09000 25.15800
N  26.95900 50.75200 24.46000
C  27.83800 50.19100 23.64100
C  27.51900 50.52200 22.20400
C  26.03300 51.03300 22.32600
C  25.87000 51.22400 23.75300
C  28.54500 51.56500 21.53600
C  24.94800 50.04700 21.67600
C  23.86500 50.69700 20.72900
N  25.30700 51.25500 26.68600
C  24.49200 51.73700 25.71600
C  23.27500 52.36200 26.33500
C  23.46900 52.17600 27.69100
C  24.70800 51.48400 27.93100
C  22.20600 53.14700 25.57700
C  22.82100 52.46400 28.94700
O  21.78000 52.93900 29.31300
C  23.72700 51.79900 30.04000
C  24.10700 52.75200 31.10500
O  24.84400 53.69800 30.90100
O  23.37400 52.47700 32.24700
C  23.22500 53.54600 33.25300
H  30.17800 49.34000 29.67000
H  29.38700 48.77800 23.29800
H  24.08700 52.13800 23.55800
H  26.47500 51.37000 31.73800
H  28.26700 48.97700 31.23800
H  29.90300 50.33800 32.40300
H  28.56400 51.38100 32.71600
H  29.71700 51.62300 31.26700
H  26.34800 48.53000 32.25200
H  24.96900 49.21900 31.25100
H  23.93300 49.82800 32.77100
H  25.27300 50.84600 33.37900
H  31.84300 48.36200 29.05600
H  32.90900 49.14300 28.08800
H  32.48100 47.35300 27.76000
H  33.93200 48.88900 25.76200
H  34.17200 48.07600 24.29900
H  33.56300 47.09100 25.58700
H  27.43800 49.55000 21.71800
H  25.98100 52.00900 21.84400
H  29.54000 51.54100 21.98100
H  28.22200 52.60100 21.63000
H  28.62500 51.20700 20.50900
H  24.38400 49.62800 22.51000
H  25.30200 49.23900 21.03600
H  22.86100 50.45900 21.07900
H  23.98500 50.39900 19.68700
H  23.92700 51.78500 20.72600
H  21.74400 52.66900 24.71300
H  22.59800 54.14000 25.35700
H  21.32500 53.21500 26.21400
H  23.10800 51.01800 30.48200
H  23.33200 54.48700 32.71200
H  23.66100 53.41500 34.24300
H  22.15000 53.52200 33.43100

