158

Mg 24.76300 -6.67400 45.86800
C  26.83600 -4.12500 44.32500
C  22.25800 -5.58300 43.82400
C  23.26200 -9.49100 46.41200
C  27.63000 -7.71600 47.59100
N  24.64200 -5.05900 44.22200
C  25.56700 -4.13300 43.75200
C  24.84400 -3.06200 42.86000
C  23.35100 -3.49800 42.90700
C  23.40700 -4.77900 43.72400
C  22.29900 -2.46700 43.50900
C  25.44500 -3.02500 41.47200
C  25.69800 -1.63800 40.76600
H  25.06700 -1.33000 39.38300
N  22.95800 -7.42700 45.35300
C  22.06500 -6.80900 44.50200
C  20.94700 -7.64100 44.27200
C  21.19200 -8.78100 45.05100
C  22.48600 -8.59300 45.64100
C  19.73500 -7.29200 43.51900
C  20.25800 -9.99300 45.13400
O  19.08200 -9.94300 44.70600
C  20.72700 -11.18300 45.74400
N  25.41700 -8.42900 46.75800
C  24.54500 -9.44500 46.97100
C  25.31100 -10.62500 47.66200
C  26.57800 -9.95700 48.22600
C  26.58800 -8.65200 47.47100
C  24.52000 -11.47800 48.68000
C  27.92000 -10.84500 48.09300
C  29.11800 -10.69900 49.10300
N  26.85100 -6.01200 46.09200
C  27.79200 -6.54800 46.78300
C  29.02400 -5.70600 46.61600
C  28.65000 -4.70800 45.64100
C  27.31500 -5.00100 45.31800
C  30.31700 -5.78100 47.38700
C  29.16300 -3.62600 44.87600
O  30.33000 -3.25200 44.72300
C  27.99300 -3.20300 43.92900
C  27.61600 -1.79000 44.25100
O  27.22400 -1.29500 45.34700
O  27.87300 -0.99300 43.14400
C  27.57600 0.47900 43.11100
H  21.42300 -5.18200 43.24600
H  22.87500 -10.47600 46.68400
H  28.49500 -8.10500 48.13200
H  24.96800 -2.05700 43.26400
H  22.96600 -3.74100 41.91700
H  22.66200 -1.46100 43.71500
H  21.84000 -2.73100 44.46200
H  21.50700 -2.47100 42.76000
H  24.82000 -3.48600 40.70800
H  26.33200 -3.65000 41.57600
H  26.76700 -1.62600 40.55400
H  25.39900 -0.77200 41.35700
H  19.01900 -8.09300 43.33600
H  20.03300 -6.79300 42.59700
H  19.14300 -6.56000 44.06900
H  19.90600 -11.88500 45.88800
H  21.05100 -10.82200 46.72000
H  21.53800 -11.63300 45.17100
H  25.54500 -11.23200 46.78700
H  26.46000 -9.76100 49.29100
H  23.46300 -11.21200 48.66600
H  24.85600 -11.19200 49.67700
H  24.57100 -12.55300 48.50800
H  28.36100 -10.64900 47.11600
H  27.57800 -11.88000 48.06400
H  29.46900 -11.60000 49.60600
H  28.93400 -9.98000 49.90200
H  29.98100 -10.26900 48.59500
H  30.90300 -4.92200 47.06000
H  30.81900 -6.70000 47.08300
H  30.11300 -5.73600 48.45600
H  28.17000 -3.39100 42.87000
H  26.96900 0.62900 42.21800
H  28.49200 1.03200 42.90600
H  27.03400 0.74400 44.02000
Mg 40.96200 8.98600 30.05500
C  42.65200 10.33300 32.66100
C  38.63600 7.62900 32.28400
C  39.42900 7.34700 27.47600
C  43.67000 9.60100 27.92100
N  40.74800 8.98600 32.22300
C  41.48400 9.73700 33.10000
C  41.00600 9.61700 34.53400
C  39.68800 8.78100 34.40300
C  39.67000 8.38500 32.87500
C  39.55600 7.54600 35.31100
C  40.80500 10.97700 35.14600
C  40.32800 10.98400 36.62200
H  40.98000 11.89800 37.57700
N  39.17800 7.75100 29.91200
C  38.38000 7.34200 30.96400
C  37.19700 6.67100 30.35400
C  37.36600 6.67700 28.97900
C  38.72000 7.29000 28.70300
C  35.95600 6.31300 31.14800
C  36.38400 6.31300 27.84300
O  36.62300 6.49300 26.63300
C  35.01000 5.82100 28.19400
N  41.41000 8.53500 27.98000
C  40.63400 7.86600 27.13700
C  41.17700 7.77800 25.74800
C  42.42000 8.75000 25.83700
C  42.50800 8.99800 27.37800
C  41.55300 6.25600 25.43800
C  42.22900 10.08800 25.09000
C  43.33200 10.73900 24.25900
N  42.79000 9.85900 30.17300
C  43.79400 10.06800 29.24400
C  44.95200 10.73500 29.87200
C  44.53300 10.86500 31.24400
C  43.20200 10.26600 31.37000
C  46.16600 11.32200 29.27700
C  44.97000 11.29800 32.51700
O  46.00300 11.84400 32.80000
C  43.77000 11.07000 33.44700
C  44.27300 10.18900 34.55200
O  44.62700 8.98500 34.45900
O  44.14100 10.81500 35.76200
C  44.39800 9.95800 36.94200
H  37.91700 7.33600 33.05300
H  38.98400 6.79700 26.64500
H  44.43000 9.78700 27.16000
H  41.76500 9.05000 35.07200
H  38.75700 9.33600 34.51600
H  40.47500 7.27800 35.83300
H  39.25800 6.65300 34.76100
H  38.74000 7.81800 35.98000
H  39.97400 11.34600 34.54500
H  41.68100 11.62200 35.07500
H  40.37800 9.97300 37.02400
H  39.26400 11.22100 36.63700
H  35.74400 5.26400 30.93900
H  35.07700 6.94200 31.00800
H  36.23100 6.40300 32.19900
H  34.43700 6.65800 28.59100
H  35.01400 5.05600 28.97100
H  34.55800 5.44500 27.27600
H  40.44800 7.97400 24.96100
H  43.33700 8.24000 25.54300
H  41.22700 5.52300 26.17600
H  42.61500 6.11900 25.23500
H  41.11900 5.96600 24.48100
H  41.83300 10.81500 25.79900
H  41.42500 10.05200 24.35500
H  43.38000 11.81200 24.44200
H  43.13000 10.65900 23.19100
H  44.31000 10.26600 24.35000
H  46.42200 10.79300 28.35900
H  47.03700 11.26400 29.93000
H  46.04200 12.35200 28.94300
H  43.39700 11.99400 33.88900
H  45.43200 9.96900 37.28800
H  43.96500 8.95800 36.91500
H  43.93100 10.49700 37.76700

