158

Mg 1.39800 -0.71300 43.04800
C  4.92400 0.09500 42.69800
C  0.79300 2.14500 41.33000
C  -1.75300 -1.89500 42.62000
C  2.44400 -3.88300 44.24600
N  2.74200 0.83100 42.03500
C  4.05900 1.05600 42.14500
C  4.45500 2.33200 41.40800
C  3.11500 3.11300 41.15000
C  2.15700 1.96000 41.51700
C  2.90900 4.36600 41.99400
C  5.25600 1.98100 40.08200
C  6.70200 2.55500 39.85000
H  6.91000 3.19500 38.42000
N  -0.32200 0.09600 42.21100
C  -0.29600 1.23900 41.46500
C  -1.64600 1.49700 41.10500
C  -2.44000 0.34100 41.49900
C  -1.52900 -0.55600 42.12500
C  -2.02200 2.85000 40.51900
C  -3.88200 0.12200 41.20700
O  -4.63800 0.90800 40.57300
C  -4.72000 -1.03000 41.65000
N  0.45000 -2.63000 43.46900
C  -0.88800 -2.84400 43.23700
C  -1.35900 -4.20300 43.83800
C  0.07300 -4.96300 44.12600
C  1.06900 -3.77800 43.95600
C  -2.13600 -4.03100 45.19000
C  0.50900 -6.15300 43.13800
C  0.85800 -7.47400 43.85700
N  3.24900 -1.71600 43.48000
C  3.49700 -2.95200 44.02100
C  4.92100 -3.18800 44.11400
C  5.51700 -1.98600 43.65800
C  4.45300 -1.12000 43.27400
C  5.57400 -4.42300 44.66400
C  6.76300 -1.25700 43.51100
O  7.90800 -1.58500 43.81100
C  6.39400 0.12100 42.84000
C  6.97300 1.20300 43.71200
O  6.49000 1.49500 44.80700
O  8.08200 1.88400 43.15200
C  8.67700 2.99700 43.93200
H  0.48300 3.14500 41.02000
H  -2.79200 -2.23300 42.64600
H  2.69100 -4.91100 44.52100
H  5.13200 2.90400 42.04200
H  2.87100 3.49500 40.15900
H  3.88600 4.61200 42.41200
H  2.06600 4.23200 42.67200
H  2.60400 5.17800 41.33500
H  4.58600 2.25700 39.26800
H  5.36000 0.89600 40.04900
H  7.47600 1.79500 39.95400
H  6.76400 3.35700 40.58500
H  -2.31400 3.56400 41.28800
H  -2.90100 2.80500 39.87600
H  -1.23700 3.31900 39.92600
H  -5.76500 -0.72600 41.70800
H  -4.46100 -1.11900 42.70500
H  -4.53900 -1.98700 41.15900
H  -1.85600 -4.82300 43.09200
H  0.20900 -5.31000 45.15000
H  -3.01200 -4.67600 45.13100
H  -2.35500 -2.96400 45.22800
H  -1.49000 -4.41000 45.98200
H  1.31500 -5.81100 42.48900
H  -0.35500 -6.26900 42.48300
H  -0.00400 -8.12900 43.72600
H  1.06100 -7.19200 44.89000
H  1.75900 -7.83300 43.35900
H  5.44500 -5.33900 44.08700
H  5.11300 -4.55000 45.64300
H  6.63000 -4.25500 44.87500
H  6.92800 0.33100 41.91400
H  8.79700 2.71800 44.97900
H  8.02300 3.86800 43.90500
H  9.72000 3.18300 43.67500
Mg 29.94900 58.58900 38.96900
C  27.06500 57.17200 38.05300
C  31.66000 55.72100 38.22200
C  32.83500 60.37300 38.81700
C  28.25200 61.63300 39.64200
N  29.47000 56.68000 38.20000
C  28.18300 56.33600 37.81000
C  28.21300 54.84700 37.28500
C  29.59200 54.36300 37.73200
C  30.31600 55.63600 38.00200
C  29.59800 53.37300 38.99500
C  28.04500 54.73100 35.68900
C  26.67600 54.10100 35.36900
H  25.81500 54.92900 34.33500
N  31.96800 58.08300 38.57200
C  32.45100 56.81700 38.36500
C  33.86400 56.78900 38.23600
C  34.33900 58.10900 38.42300
C  33.08900 58.90600 38.58100
C  34.63000 55.44800 38.08500
C  35.71300 58.59600 38.44000
O  36.63700 57.77400 38.42800
C  36.09700 60.03400 38.48400
N  30.42000 60.68400 39.08400
C  31.73200 61.09300 39.05200
C  31.78100 62.57400 39.21600
C  30.31400 63.02800 39.46900
C  29.61600 61.71900 39.38800
C  32.77600 63.19100 40.22100
C  29.87300 64.16000 38.59400
C  29.65500 65.47200 39.41200
N  28.04300 59.25500 38.98300
C  27.48600 60.43700 39.34100
C  26.07300 60.29200 39.34600
C  25.86400 59.03900 38.79600
C  27.08600 58.45400 38.61600
C  25.10100 61.39800 39.60700
C  24.79900 58.05000 38.37200
O  23.56700 58.21200 38.39900
C  25.57600 56.76200 37.93700
C  25.21900 55.65500 38.86900
O  25.69400 55.56800 39.97800
O  24.41900 54.60200 38.37900
C  24.29800 53.41300 39.34200
H  32.05700 54.70500 38.17100
H  33.64300 61.10400 38.74600
H  27.67300 62.53000 39.87300
H  27.48200 54.20000 37.76800
H  30.14100 53.86600 36.93200
H  30.02300 54.05200 39.73400
H  30.15900 52.45500 38.82200
H  28.56900 53.05000 39.15400
H  28.86400 54.11900 35.31100
H  28.01000 55.73100 35.25700
H  26.11900 53.94100 36.29200
H  26.82700 53.13700 34.88300
H  34.20700 54.70100 38.75700
H  35.60300 55.61800 38.54700
H  34.76600 54.98600 37.10700
H  37.17300 60.05600 38.30900
H  35.78100 60.36400 39.47400
H  35.48000 60.55600 37.75300
H  32.07500 62.85200 38.20400
H  30.26600 63.29500 40.52400
H  32.45100 63.68700 41.13600
H  33.28800 64.07400 39.84000
H  33.56100 62.47800 40.47400
H  28.90400 63.95800 38.13800
H  30.60400 64.33400 37.80400
H  28.98100 66.09100 38.81900
H  30.61600 65.96300 39.56300
H  29.12600 65.23200 40.33400
H  24.80900 61.98200 38.73400
H  25.62700 62.08700 40.26800
H  24.27800 60.97700 40.18500
H  25.32000 56.46300 36.92100
H  23.81700 52.54800 38.88500
H  23.66700 53.71300 40.17900
H  25.18900 53.13600 39.90500

