158

Mg 1.16600 7.51200 26.29000
C  1.46400 9.73300 29.05700
C  1.80400 5.01100 28.42300
C  1.17100 5.64300 23.68400
C  1.19600 10.44600 24.21800
N  1.64200 7.43700 28.54500
C  1.55300 8.36400 29.48400
C  1.63400 7.80400 30.91800
C  2.09200 6.28900 30.60000
C  1.89200 6.23700 29.11300
C  3.53200 5.85800 31.13000
C  0.25400 7.91000 31.67900
C  0.27500 8.05200 33.19900
H  1.40300 7.39600 33.98000
N  1.27800 5.55400 26.08000
C  1.61400 4.67900 27.09300
C  1.58700 3.33000 26.53600
C  1.38900 3.50300 25.09800
C  1.29400 4.95300 24.88700
C  1.71800 2.05500 27.30900
C  1.34300 2.46100 23.92000
O  1.23500 2.70100 22.67900
C  1.48800 0.95300 24.18600
N  1.29300 7.99400 24.19700
C  1.14600 6.98000 23.33500
C  0.99100 7.55900 21.92200
C  0.64200 9.05300 22.16300
C  0.96000 9.19200 23.63900
C  2.35700 7.40800 21.08000
C  -0.87400 9.42200 21.87000
C  -1.13700 10.33300 20.63100
N  1.37900 9.57300 26.50800
C  1.41100 10.64400 25.59000
C  1.49100 11.91300 26.23500
C  1.47600 11.61600 27.56600
C  1.46300 10.21100 27.68300
C  1.34600 13.25800 25.74500
C  1.55800 12.25500 28.87500
O  1.70000 13.39900 29.18300
C  1.56900 10.99700 29.92700
C  2.63800 11.05700 30.91900
O  3.83000 11.25000 30.59300
O  2.26100 10.78400 32.20400
C  3.27100 10.99600 33.20400
H  1.99200 4.16800 29.09200
H  1.16500 5.05500 22.76300
H  1.18200 11.26800 23.49900
H  2.46000 8.30800 31.42000
H  1.55000 5.46100 31.05700
H  4.13600 6.69300 31.48500
H  4.08100 5.35200 30.33600
H  3.52700 5.17600 31.98000
H  -0.34600 7.00900 31.55400
H  -0.30600 8.65800 31.11800
H  -0.63300 7.63300 33.63200
H  0.32500 9.10400 33.48100
H  0.74400 1.76200 27.70200
H  2.38700 2.25500 28.14600
H  2.26500 1.28900 26.75900
H  0.72000 0.68700 24.91200
H  2.37500 0.51500 24.64400
H  1.37900 0.23500 23.37200
H  0.19200 6.99200 21.44300
H  1.44900 9.52500 21.60200
H  2.14900 6.70300 20.27600
H  3.14100 6.92100 21.66100
H  2.70100 8.29600 20.55100
H  -1.21100 9.97800 22.74400
H  -1.44000 8.49300 21.79800
H  -1.92100 9.90300 20.00800
H  -0.20100 10.45800 20.08700
H  -1.45100 11.33700 20.91600
H  2.25200 13.86100 25.69200
H  0.67500 13.77900 26.42800
H  0.97800 13.28000 24.71900
H  0.65100 11.08000 30.50800
H  3.44900 12.06400 33.08400
H  4.16900 10.44500 32.92300
H  3.03400 10.80200 34.25000
Mg 26.31800 51.73600 25.72300
C  23.89000 52.49500 28.21100
C  28.51900 51.19000 28.31200
C  28.80300 51.63400 23.48800
C  24.12600 52.52300 23.30400
N  26.27200 52.14000 28.00600
C  25.14000 52.21700 28.77900
C  25.43300 52.09600 30.27700
C  26.97700 51.82600 30.33200
C  27.32700 51.74800 28.78500
C  27.90300 52.59300 31.32600
C  24.46500 51.17600 31.07100
C  24.99900 50.33300 32.31900
H  24.20200 50.23000 33.57000
N  28.28300 51.39600 25.85800
C  29.01200 51.18600 27.02600
C  30.37300 50.91300 26.64500
C  30.54600 50.99000 25.22700
C  29.19000 51.39200 24.79400
C  31.41900 50.47600 27.60800
C  31.77200 50.89000 24.33800
O  31.77700 50.92700 23.12600
C  33.20400 50.77800 24.95900
N  26.41900 52.00400 23.69700
C  27.54700 51.86500 22.94800
C  27.29200 52.05600 21.48000
C  25.72400 52.18300 21.40500
C  25.41200 52.25300 22.88600
C  28.15000 53.20700 20.87400
C  25.03500 51.19000 20.51000
C  23.70500 51.67900 19.85500
N  24.47500 52.47000 25.72700
C  23.62000 52.69800 24.64600
C  22.35300 53.12000 25.05900
C  22.41200 53.04900 26.45000
C  23.73100 52.65400 26.82200
C  21.13200 53.51000 24.24000
C  21.60300 53.18600 27.65200
O  20.45200 53.57100 27.80200
C  22.56000 52.82500 28.85600
C  22.66400 53.96300 29.73800
O  23.30800 54.96000 29.48000
O  21.90500 53.80400 30.84700
C  21.99400 54.89700 31.85600
H  29.20200 50.99300 29.14100
H  29.43800 51.44600 22.62000
H  23.37300 52.68400 22.53000
H  25.22400 53.06900 30.72200
H  27.10600 50.78500 30.62600
H  28.57400 53.24000 30.76000
H  28.50400 51.85100 31.85000
H  27.38000 53.19300 32.07100
H  24.20100 50.37800 30.37700
H  23.49000 51.59200 31.32600
H  25.78800 51.03500 32.59200
H  25.49500 49.37200 32.18600
H  31.77200 49.47700 27.35400
H  31.09100 50.46500 28.64800
H  32.34200 51.05600 27.60700
H  33.98500 50.94000 24.21600
H  33.26100 49.78100 25.39500
H  33.27700 51.56800 25.70600
H  27.58300 51.11900 21.00500
H  25.52000 53.19500 21.05400
H  27.47200 54.02000 20.61000
H  28.75400 52.82500 20.05100
H  28.84200 53.75000 21.51700
H  24.58500 50.45300 21.17400
H  25.65200 50.74400 19.73000
H  23.56700 51.35600 18.82300
H  23.65900 52.76800 19.81300
H  22.77900 51.53900 20.41200
H  20.20600 53.06200 24.60000
H  21.11800 53.17600 23.20200
H  20.86900 54.56500 24.16800
H  22.17200 52.01400 29.47400
H  21.78800 54.41700 32.81300
H  21.24900 55.64800 31.59200
H  22.96900 55.38500 31.83900

