158

Mg 40.62800 8.29000 29.76400
C  42.31700 9.61200 32.68900
C  38.23300 7.03500 31.83700
C  39.41700 7.06700 27.09200
C  43.69400 9.27700 27.96100
N  40.31700 8.40700 32.03200
C  41.11200 8.97400 33.02100
C  40.48700 8.93600 34.42200
C  39.18600 8.04700 34.11200
C  39.22600 7.78900 32.55600
C  39.10400 6.83100 35.06100
C  40.15500 10.32900 34.94600
C  40.05700 10.35700 36.45800
H  40.91900 11.26800 37.30100
N  39.00500 7.21000 29.50700
C  38.11000 6.78800 30.44800
C  37.05700 6.09900 29.77700
C  37.27100 6.24100 28.37700
C  38.63800 6.84300 28.26100
C  35.88700 5.54500 30.53300
C  36.41600 5.81300 27.20700
O  36.63600 6.13400 26.02300
C  35.26000 5.04200 27.50600
N  41.56800 8.03700 27.80100
C  40.74300 7.54700 26.88400
C  41.34700 7.70300 25.44300
C  42.75100 8.45000 25.66800
C  42.68000 8.63500 27.23700
C  41.44300 6.39000 24.74400
C  42.88900 9.74700 24.95200
C  41.77300 10.73700 25.11500
N  42.56400 9.21400 30.17400
C  43.65500 9.55300 29.31500
C  44.70400 10.09600 30.08200
C  44.27100 10.08800 31.41600
C  42.91600 9.65800 31.39600
C  45.98900 10.56200 29.45900
C  44.65000 10.33900 32.78600
O  45.72400 10.77600 33.27500
C  43.41400 10.01100 33.66800
C  43.77400 8.90400 34.67500
O  44.32200 7.84300 34.43900
O  43.32800 9.25300 35.96500
C  43.55300 8.32000 37.06700
H  37.49900 6.60400 32.52200
H  38.98300 6.72900 26.14800
H  44.57600 9.65300 27.43700
H  41.26300 8.40300 34.97100
H  38.27800 8.64700 34.15700
H  38.68100 5.99700 34.50000
H  38.47900 7.04300 35.92900
H  40.11100 6.50900 35.32700
H  39.23800 10.75500 34.53700
H  40.92700 10.97900 34.53400
H  40.15800 9.33700 36.82800
H  39.06200 10.66400 36.77800
H  35.61900 4.54400 30.19400
H  34.95800 6.09900 30.39800
H  36.15600 5.34700 31.57000
H  35.53300 4.18600 28.12400
H  34.89700 4.58300 26.58700
H  34.45200 5.59200 27.98900
H  40.60000 8.35800 24.99500
H  43.57300 7.81200 25.34300
H  42.33400 6.15600 24.16200
H  40.69500 6.52600 23.96300
H  41.34300 5.53600 25.41400
H  42.85700 9.41900 23.91300
H  43.85900 10.16600 25.21900
H  41.20000 10.69800 24.18900
H  42.18900 11.70800 25.38600
H  41.03000 10.54000 25.88800
H  45.98400 11.24500 28.61000
H  46.70300 9.74100 29.38400
H  46.35700 11.14300 30.30400
H  43.17700 10.95300 34.16100
H  43.08300 8.90400 37.85800
H  44.62900 8.22800 37.22100
H  43.08500 7.35400 36.87900
Mg 16.43700 51.46100 25.15200
C  18.08100 50.54500 28.03400
C  13.76600 52.49000 27.06500
C  14.63400 51.75300 22.35300
C  19.04900 49.76900 23.32500
N  16.01300 51.50300 27.35400
C  16.87200 51.14200 28.33900
C  16.26000 51.61200 29.72000
C  14.77700 52.02200 29.36300
C  14.81000 51.98800 27.83700
C  13.61600 51.29100 30.11200
C  17.30200 52.61700 30.40900
C  17.80300 52.33500 31.84600
H  16.94300 51.60300 32.81200
N  14.50400 52.14600 24.80200
C  13.58200 52.53600 25.69800
C  12.32700 53.01700 25.06600
C  12.55700 52.71000 23.66100
C  13.94200 52.12200 23.52000
C  11.06200 53.63000 25.63500
C  11.65300 52.92500 22.48000
O  11.96400 52.71100 21.31800
C  10.22700 53.41600 22.63000
N  16.82000 50.92600 23.10100
C  15.91300 51.17200 22.11600
C  16.44700 50.78700 20.62000
C  17.92800 50.39000 21.02900
C  17.91000 50.31900 22.57300
C  15.62700 49.66600 19.92200
C  19.08500 51.21400 20.45700
C  19.35000 52.65700 20.97100
N  18.27400 50.41700 25.49500
C  19.22300 49.77800 24.69300
C  20.19400 49.18300 25.57300
C  19.85400 49.54700 26.86100
C  18.64400 50.23600 26.77800
C  21.28800 48.23000 25.08100
C  20.18100 49.37700 28.25900
O  21.11100 48.80400 28.77800
C  19.05400 50.01900 29.03300
C  18.48500 48.86700 29.89300
O  17.67700 48.03600 29.49200
O  19.13600 48.86900 31.10300
C  18.64800 47.85500 32.00800
H  12.90500 52.73700 27.68900
H  14.15100 51.83300 21.37600
H  19.97700 49.32100 22.96200
H  16.20300 50.71700 30.33900
H  14.52800 53.07300 29.51100
H  13.98600 50.77300 30.99700
H  12.99200 50.61000 29.53500
H  12.94600 52.04900 30.51900
H  16.74700 53.55100 30.31200
H  18.14400 52.83500 29.75200
H  18.18300 53.20400 32.38300
H  18.71000 51.75200 31.69100
H  11.26600 53.79300 26.69300
H  10.19900 52.97900 25.50000
H  10.79100 54.65800 25.39400
H  10.40400 54.45000 22.92700
H  9.73100 52.68000 23.26300
H  9.73100 53.32700 21.66400
H  16.37300 51.60900 19.90800
H  18.17100 49.36600 20.74600
H  15.11000 50.17000 19.10500
H  14.82600 49.31200 20.57100
H  16.25400 48.80300 19.69300
H  18.89900 51.19500 19.38300
H  19.88900 50.52000 20.70000
H  20.28500 52.64000 21.53200
H  18.44400 52.98700 21.48000
H  19.44000 53.35100 20.13500
H  21.12700 47.79300 24.09500
H  21.26900 47.41500 25.80300
H  22.20100 48.81900 25.16500
H  19.47600 50.74300 29.73000
H  17.64000 47.45400 31.90500
H  18.63700 48.32100 32.99400
H  19.36300 47.03200 32.03400

