158

Mg 46.77400 16.91400 27.46900
C  44.56500 16.62000 30.41400
C  48.79300 18.72500 29.46700
C  48.26300 17.70700 24.71000
C  43.83200 15.66600 25.66800
N  46.43500 17.92600 29.70500
C  45.75200 17.32300 30.68400
C  46.27000 17.74800 32.05700
C  47.46100 18.71400 31.62200
C  47.57400 18.47900 30.14500
C  47.37100 20.21100 32.11300
C  46.67900 16.49500 32.85300
C  46.76200 16.72700 34.30500
H  46.97700 18.12500 34.90700
N  48.33200 18.01800 27.17000
C  49.15400 18.57800 28.10100
C  50.41300 18.96100 27.46200
C  50.20100 18.73700 26.11100
C  48.94600 18.04300 25.97100
C  51.64800 19.34600 28.19000
C  51.23900 19.15400 24.92300
O  50.97000 18.85600 23.78500
C  52.55700 19.78000 25.26400
N  46.12200 16.67000 25.56000
C  46.98100 17.13200 24.54400
C  46.38000 16.93900 23.11300
C  44.99100 16.14300 23.46100
C  44.95500 16.14000 24.99200
C  46.22800 18.31800 22.40800
C  44.89400 14.70500 22.76000
C  43.67300 14.46100 21.86900
N  44.65600 16.07500 27.92100
C  43.62000 15.61600 27.06800
C  42.45700 15.27900 27.91100
C  42.84900 15.64700 29.22500
C  44.14200 16.16600 29.16400
C  41.11700 14.69600 27.42600
C  42.37900 15.60200 30.58400
O  41.38600 15.14000 31.04500
C  43.54200 16.18600 31.47500
C  43.09200 17.29000 32.29800
O  42.88600 18.43100 31.82800
O  42.75700 16.87900 33.58700
C  42.29500 17.94700 34.47100
H  49.48900 19.19700 30.16300
H  48.85000 17.81200 23.79600
H  42.96100 15.30900 25.11500
H  45.52800 18.22300 32.70000
H  48.38400 18.34300 32.07000
H  46.65400 20.28000 32.93100
H  47.01400 20.74600 31.23400
H  48.34500 20.61700 32.38500
H  47.68100 16.18200 32.55800
H  46.05600 15.60200 32.80400
H  47.46800 15.98100 34.66900
H  45.78500 16.49200 34.72800
H  52.48000 18.69700 27.91800
H  51.45300 19.39100 29.26200
H  51.84500 20.35100 27.81600
H  52.42700 20.74000 25.76400
H  53.20600 19.86600 24.39200
H  53.10200 19.07400 25.89100
H  46.97900 16.22400 22.55000
H  44.18600 16.80100 23.13200
H  46.53900 19.14000 23.05400
H  45.17700 18.42100 22.13900
H  46.86000 18.29500 21.52000
H  44.99300 13.97000 23.55900
H  45.80800 14.67100 22.16800
H  43.18900 13.48900 21.96800
H  43.95200 14.55800 20.82000
H  42.90200 15.19500 22.10300
H  40.84600 15.08500 26.44400
H  40.37800 15.05300 28.14300
H  41.18000 13.61000 27.48600
H  43.93000 15.35500 32.06400
H  41.84700 18.77400 33.92000
H  43.09400 18.37400 35.07800
H  41.52300 17.62600 35.17000
Mg 41.94600 41.86100 27.59100
C  40.83000 44.30900 29.89100
C  42.80000 39.83800 30.17700
C  43.24100 39.74400 25.35100
C  41.39300 44.28200 25.03300
N  41.69100 42.01800 29.76500
C  41.18800 43.12200 30.53000
C  41.21700 42.75800 32.05900
C  42.07200 41.38600 32.06600
C  42.31000 41.07200 30.62100
C  43.34500 41.54500 32.98300
C  39.79000 42.63900 32.73900
C  39.84100 43.17900 34.15900
H  39.39200 42.17500 35.24700
N  42.88600 40.08700 27.67500
C  43.09600 39.32500 28.84800
C  43.43500 37.93800 28.50900
C  43.55400 37.89900 27.10900
C  43.25300 39.28200 26.60700
C  43.69000 36.88700 29.54900
C  43.82300 36.70100 26.19900
O  43.91900 36.77700 24.97000
C  44.14400 35.33300 26.73500
N  42.27000 42.08400 25.54400
C  42.80800 41.04900 24.83200
C  42.80000 41.25500 23.30300
C  41.93200 42.57100 23.24800
C  41.96000 43.06000 24.68900
C  44.23000 41.36400 22.67400
C  40.48700 42.48400 22.62800
C  39.46000 41.82400 23.59400
N  41.37500 43.95100 27.48000
C  41.06000 44.73800 26.34400
C  40.43500 45.93300 26.78200
C  40.33600 45.82300 28.14900
C  40.96700 44.65600 28.53500
C  40.08200 47.18900 25.99100
C  39.87400 46.45700 29.30700
O  39.23800 47.53100 29.42800
C  40.22100 45.48800 30.51700
C  41.15600 46.16700 31.44900
O  42.36100 46.27200 31.31400
O  40.59000 46.51500 32.68200
C  41.53500 46.99200 33.77000
H  42.97500 39.19700 31.04400
H  43.31900 38.99100 24.56400
H  41.04200 45.01000 24.29900
H  41.71400 43.65300 32.43200
H  41.48900 40.58600 32.52200
H  44.08600 40.78700 32.72900
H  43.03400 41.33600 34.00700
H  43.80700 42.53200 32.96600
H  39.37900 41.62900 32.72400
H  38.93300 43.04300 32.20000
H  39.27400 44.11000 34.17800
H  40.85800 43.40500 34.48200
H  43.20000 35.95400 29.27000
H  43.37200 37.23800 30.53000
H  44.75800 36.67500 29.58500
H  45.05400 35.33800 27.33500
H  44.20700 34.59700 25.93400
H  43.21300 35.07700 27.24100
H  42.26400 40.42100 22.85000
H  42.38200 43.33700 22.61700
H  44.85200 41.93300 23.36500
H  44.15500 41.84400 21.69800
H  44.57200 40.34700 22.48400
H  40.55700 41.96200 21.67300
H  40.21700 43.50700 22.36900
H  39.75000 41.83300 24.64400
H  39.29300 40.80300 23.25200
H  38.50100 42.32600 23.46500
H  39.27400 47.05700 25.27100
H  40.92900 47.31200 25.31600
H  40.00100 48.04200 26.66500
H  39.40300 45.11900 31.13500
H  41.13100 47.62000 34.56400
H  42.41000 47.54400 33.42700
H  41.81200 46.13200 34.38000

