158

Mg 40.92500 7.66100 28.74900
C  42.59100 8.94200 31.55300
C  38.45700 6.15000 30.80100
C  39.23100 6.60100 26.00100
C  43.62700 8.60100 26.74300
N  40.65300 7.50100 30.92700
C  41.38500 8.22000 31.84600
C  40.73700 8.05000 33.17400
C  39.55400 6.96300 32.97400
C  39.55800 6.79700 31.45300
C  39.92100 5.50000 33.56400
C  40.19000 9.39800 33.81000
C  40.89300 9.85400 35.12700
H  40.27600 10.71900 36.17700
N  39.12600 6.56000 28.42400
C  38.23800 6.06200 29.44200
C  37.02900 5.41000 28.76800
C  37.19200 5.74500 27.39700
C  38.52200 6.37700 27.21700
C  36.01700 4.60800 29.53500
C  36.23500 5.40900 26.36500
O  36.36100 5.71300 25.19800
C  34.90300 4.86800 26.75000
N  41.29500 7.71200 26.69700
C  40.46700 7.14800 25.71300
C  41.17700 7.02600 24.30700
C  42.56600 7.70900 24.55700
C  42.53700 8.01600 26.09400
C  41.22400 5.53500 23.76300
C  42.87600 8.96400 23.66100
C  42.00100 10.17500 24.09200
N  42.71300 8.58300 29.05900
C  43.69500 8.89100 28.18100
C  44.82000 9.50000 28.89800
C  44.33200 9.59200 30.18400
C  43.10000 8.98300 30.24000
C  46.11800 9.96600 28.34200
C  44.68800 10.07300 31.54200
O  45.67200 10.62600 31.89200
C  43.50300 9.69100 32.53600
C  44.04900 8.95700 33.63600
O  44.00100 7.74300 33.69500
O  44.41800 9.89300 34.57100
C  44.82200 9.22100 35.80000
H  37.68600 5.82700 31.50400
H  38.68100 6.25100 25.12400
H  44.48800 8.85600 26.12200
H  41.42200 7.42500 33.74700
H  38.61800 7.26100 33.44600
H  40.20300 4.89600 32.70100
H  39.03900 5.10500 34.06900
H  40.61700 5.60400 34.39500
H  39.12500 9.25100 33.98500
H  40.33100 10.22200 33.11000
H  41.76700 10.43500 34.83500
H  41.29700 8.95700 35.59600
H  36.42900 4.56700 30.54400
H  35.84800 3.67500 28.99900
H  35.05100 5.10800 29.59600
H  34.35300 5.62800 27.30400
H  34.97400 3.92800 27.29700
H  34.30600 4.68300 25.85700
H  40.60700 7.51400 23.51600
H  43.26400 6.89100 24.37600
H  42.20100 5.07500 23.91400
H  41.01600 5.39000 22.70300
H  40.43400 4.94600 24.22900
H  42.73200 8.73100 22.60700
H  43.91900 9.21500 23.85800
H  42.62800 11.03100 24.34100
H  41.21900 9.92400 24.80900
H  41.59100 10.43900 23.11700
H  46.04600 10.91700 27.81400
H  46.58000 9.20000 27.71800
H  46.76900 10.01400 29.21500
H  42.91400 10.58900 32.72200
H  43.93700 8.75000 36.22800
H  45.13500 9.93500 36.56100
H  45.54700 8.40800 35.74400
Mg 25.90500 50.69000 26.03500
C  23.81300 51.79300 28.61800
C  28.03800 49.32800 28.42000
C  28.20600 50.14300 23.64700
C  23.62600 51.94000 23.83800
N  25.90900 50.58300 28.30800
C  24.95500 51.11400 29.17600
C  25.23500 50.92900 30.63300
C  26.60500 50.17200 30.48700
C  26.95100 50.01400 28.98300
C  27.82700 50.78700 31.26800
C  24.08300 50.16500 31.38700
C  24.41900 49.42000 32.73200
H  23.57600 49.80100 33.97400
N  27.81700 49.82200 26.03300
C  28.49500 49.29700 27.05300
C  29.77000 48.64300 26.58300
C  29.85900 48.87800 25.25100
C  28.61900 49.70000 24.89600
C  30.65000 47.80700 27.47000
C  30.87700 48.28800 24.32000
O  30.93400 48.70000 23.20100
C  31.96100 47.30300 24.71800
N  25.99600 51.08100 24.07600
C  26.98100 50.64700 23.26200
C  26.53800 50.87000 21.75600
C  25.05800 51.29700 21.77000
C  24.84600 51.38100 23.34300
C  27.39100 51.81200 21.01000
C  23.99000 50.19800 21.12800
C  23.65300 50.55900 19.68300
N  24.04300 51.55800 26.11200
C  23.20400 51.99600 25.14900
C  22.00000 52.47700 25.63600
C  22.23700 52.54900 26.99500
C  23.47400 51.91500 27.26100
C  20.72100 52.94900 24.86900
C  21.68600 53.02000 28.24800
O  20.64900 53.71400 28.44400
C  22.65800 52.45200 29.38300
C  23.09500 53.53600 30.33900
O  24.16300 54.12300 30.30400
O  22.13500 53.69500 31.28700
C  22.28200 54.62900 32.42000
H  28.55200 48.97500 29.31600
H  29.00200 50.08100 22.90200
H  22.87200 52.22200 23.10100
H  25.33900 51.90900 31.09800
H  26.44500 49.16900 30.88200
H  27.62100 51.52700 32.04100
H  28.63900 51.14500 30.63500
H  28.35500 49.98600 31.78500
H  23.93600 49.30800 30.72900
H  23.12300 50.67700 31.45200
H  25.44800 49.57700 33.05600
H  24.16400 48.36100 32.69900
H  30.52200 46.72900 27.37500
H  30.52400 48.06300 28.52200
H  31.67900 48.13700 27.32300
H  31.53500 46.35600 25.04900
H  32.33400 47.92200 25.53400
H  32.71600 47.14400 23.94800
H  26.69400 49.91400 21.25600
H  24.88400 52.28700 21.34900
H  28.16200 52.21900 21.66500
H  26.80500 52.58000 20.50500
H  27.91700 51.17600 20.29800
H  23.07800 50.30600 21.71400
H  24.62700 49.31600 21.20000
H  22.56800 50.66200 19.66800
H  24.02100 49.76100 19.03800
H  24.04500 51.51400 19.33500
H  20.78400 54.02300 24.69400
H  19.85900 52.84300 25.52700
H  20.60600 52.40900 23.93000
H  21.99900 51.70800 29.82900
H  21.40400 55.26400 32.30000
H  23.13200 55.30700 32.33900
H  22.37900 54.15300 33.39600

