158

Mg 53.38300 23.82800 44.80200
C  50.65700 26.02700 44.37900
C  51.31100 21.19100 44.18200
C  56.13600 21.91700 44.23000
C  55.47400 26.63900 45.12700
N  51.16700 23.63300 44.11300
C  50.25300 24.67500 44.21500
C  48.80400 24.12700 44.25200
C  49.07800 22.64600 44.56400
C  50.54700 22.43600 44.21800
C  48.79300 22.17100 46.01000
C  47.88900 24.35300 43.01300
C  48.44700 24.26400 41.61200
H  47.91700 23.04000 40.77300
N  53.75200 21.84600 44.26900
C  52.70300 20.90100 44.08900
C  53.29500 19.60300 43.98500
C  54.75400 19.74400 43.96500
C  54.91900 21.24100 44.15200
C  52.34800 18.39100 43.75600
C  55.76300 18.56600 43.84400
O  55.46300 17.36600 43.82500
C  57.20800 18.88000 43.89600
N  55.56800 24.22800 44.59500
C  56.51500 23.26000 44.38600
C  57.94200 23.86800 44.21700
C  57.65000 25.38400 44.66400
C  56.12600 25.44500 44.86000
C  58.90900 23.01300 45.13000
C  58.20700 26.53100 43.66700
C  57.24000 26.92300 42.49500
N  53.17500 25.89500 44.85900
C  54.10400 26.90500 45.07900
C  53.39400 28.20000 45.16300
C  52.06600 27.87300 44.85300
C  51.99900 26.49400 44.62700
C  54.14400 29.43900 45.50200
C  50.76000 28.43600 44.74300
O  50.43000 29.59900 44.94600
C  49.77500 27.23400 44.44700
C  49.23700 27.48400 43.08000
O  49.90000 27.58000 42.03700
O  47.88200 27.71400 43.17300
C  47.12400 27.93000 41.95500
H  50.65000 20.34000 44.35500
H  57.04100 21.34700 44.01200
H  56.07800 27.53400 45.28900
H  48.33000 24.56400 45.13100
H  48.48300 21.99300 43.92500
H  49.73400 22.10600 46.55600
H  48.41600 21.15600 45.88200
H  48.09900 22.77700 46.59200
H  47.43600 25.33700 43.12800
H  47.08200 23.62600 43.10700
H  49.52100 24.44200 41.55800
H  48.11900 25.23400 41.24000
H  51.86800 18.50900 42.78500
H  51.61900 18.22900 44.55000
H  52.91500 17.46800 43.63500
H  57.78300 17.95900 43.79400
H  57.32300 19.40300 44.84600
H  57.41500 19.60000 43.10500
H  58.31500 23.69200 43.20800
H  58.03700 25.62000 45.65600
H  59.74300 22.64300 44.53300
H  58.48900 22.17500 45.68600
H  59.35900 23.78700 45.75100
H  59.16400 26.26600 43.21700
H  58.51500 27.43300 44.19500
H  56.62600 27.76200 42.82400
H  56.58800 26.08600 42.24300
H  57.95500 27.20200 41.72100
H  54.55900 29.24600 46.49200
H  53.47900 30.30300 45.50900
H  54.92300 29.54800 44.74800
H  48.98900 26.99400 45.16300
H  46.62800 28.89100 42.09400
H  46.32700 27.18800 41.90600
H  47.74200 27.93000 41.05700
Mg -5.02400 24.80900 26.70700
C  -3.76400 26.81600 29.44700
C  -6.01300 22.56400 29.18300
C  -6.16100 22.88900 24.16200
C  -3.39900 26.84400 24.50400
N  -4.90800 24.75600 29.10800
C  -4.51600 25.77900 29.97900
C  -5.07700 25.52600 31.38100
C  -5.57500 24.00900 31.31000
C  -5.56100 23.77900 29.82400
C  -4.61400 23.01400 32.11700
C  -6.19200 26.57500 31.84900
C  -5.97600 27.22100 33.21500
H  -6.96300 26.80400 34.25600
N  -5.96000 22.97000 26.64400
C  -6.29500 22.24400 27.77000
C  -6.83600 21.02300 27.26500
C  -6.83500 21.04200 25.84900
C  -6.35700 22.35700 25.45000
C  -7.42800 20.07200 28.13700
C  -7.30800 20.07200 24.75100
O  -7.38900 20.34200 23.53200
C  -7.59400 18.64300 25.22400
N  -4.99000 24.85400 24.65400
C  -5.54900 24.06700 23.74100
C  -5.24600 24.35100 22.31700
C  -4.32800 25.66800 22.43600
C  -4.24800 25.80500 23.95700
C  -4.56000 23.17200 21.57000
C  -4.88600 26.96700 21.75300
C  -3.99100 27.71300 20.79800
N  -3.91400 26.53400 26.86300
C  -3.27900 27.20200 25.85700
C  -2.55600 28.26500 26.41000
C  -2.68400 28.13800 27.77400
C  -3.54600 27.08900 28.06900
C  -1.71500 29.26300 25.55200
C  -2.37200 28.77400 29.02000
O  -1.63000 29.72500 29.25100
C  -3.02100 27.92400 30.20600
C  -1.88700 27.37900 31.06500
O  -0.77700 27.08900 30.63200
O  -2.27900 27.21300 32.35400
C  -1.26400 26.72400 33.32000
H  -6.30300 21.81000 29.91800
H  -6.40400 22.26900 23.29700
H  -2.76700 27.38300 23.79400
H  -4.28200 25.49800 32.12700
H  -6.56300 23.71300 31.66200
H  -4.18300 22.20900 31.52100
H  -5.19000 22.58200 32.93500
H  -3.80200 23.59300 32.55800
H  -7.17900 26.11100 31.84900
H  -6.22100 27.36200 31.09500
H  -5.98200 28.29700 33.04100
H  -5.02300 26.89800 33.63400
H  -8.44300 19.89800 27.77900
H  -7.45300 20.30600 29.20100
H  -6.87000 19.14900 27.97900
H  -7.86200 17.88000 24.49300
H  -8.39100 18.71700 25.96300
H  -6.62800 18.43400 25.68400
H  -6.25300 24.47600 21.92000
H  -3.33200 25.36500 22.11500
H  -4.00300 22.55700 22.27700
H  -3.92500 23.41600 20.71900
H  -5.37000 22.49400 21.29900
H  -5.11900 27.69100 22.53400
H  -5.81600 26.81700 21.20500
H  -3.60000 28.61500 21.26900
H  -4.47200 27.90400 19.83900
H  -3.15300 27.07700 20.51600
H  -2.20800 29.81100 24.75000
H  -0.81800 28.74900 25.20600
H  -1.47900 29.91900 26.39000
H  -3.68800 28.51000 30.83800
H  -0.31000 27.25000 33.27700
H  -1.22900 25.66400 33.06900
H  -1.76400 26.85200 34.27900

