158

Mg 24.93300 -7.64200 47.71600
C  27.24800 -5.38200 46.27200
C  22.65900 -6.30500 45.22900
C  22.83300 -10.14000 48.43500
C  27.49600 -8.99200 49.47400
N  25.08100 -6.17700 45.83600
C  26.09500 -5.33900 45.52000
C  25.75000 -4.35800 44.31800
C  24.21200 -4.56600 44.11000
C  23.96000 -5.74300 45.16800
C  23.33800 -3.34500 44.43400
C  26.59000 -4.55700 43.07500
C  27.35000 -3.35700 42.48500
H  26.98200 -2.83300 41.11700
N  22.99700 -8.10800 47.08000
C  22.23900 -7.38800 46.10300
C  20.93000 -8.00500 46.16000
C  20.95500 -9.12000 47.08200
C  22.27100 -9.18700 47.63200
C  19.86800 -7.64700 45.18400
C  19.73600 -10.02600 47.27400
O  18.63700 -9.94800 46.69900
C  19.77200 -11.21900 48.12600
N  25.16100 -9.47400 48.56700
C  24.15900 -10.28100 48.93800
C  24.65000 -11.39600 49.79700
C  26.06700 -10.92000 50.21000
C  26.29000 -9.68700 49.39600
C  23.73100 -11.75100 50.95800
C  27.16600 -11.96900 50.24900
C  27.92600 -12.25300 51.62000
N  26.94000 -7.24500 48.03800
C  27.83200 -7.85000 48.87600
C  29.02600 -7.01300 49.00400
C  28.90700 -6.10300 47.89700
C  27.57700 -6.20300 47.43400
C  30.21400 -7.34200 49.82100
C  29.57900 -5.10800 46.99400
O  30.76700 -4.71900 46.93100
C  28.49800 -4.48300 46.04600
C  28.27500 -3.12200 46.56400
O  27.54200 -2.77400 47.51300
O  28.69100 -2.21200 45.57800
C  28.00600 -0.89000 45.70900
H  21.91100 -6.01700 44.48700
H  22.23200 -10.89300 48.94800
H  28.16600 -9.39400 50.23700
H  26.03200 -3.36500 44.66900
H  23.90200 -5.04400 43.18100
H  22.81500 -3.53300 45.37200
H  22.68100 -3.22100 43.57300
H  23.98000 -2.47700 44.59100
H  26.02800 -5.02400 42.26700
H  27.25600 -5.37800 43.33800
H  28.41100 -3.60400 42.52100
H  27.25900 -2.48900 43.13700
H  19.83600 -6.60000 44.88000
H  18.84900 -7.87800 45.49200
H  20.06400 -8.27300 44.31300
H  20.59800 -11.90200 47.92300
H  18.85200 -11.79500 48.02200
H  19.79600 -10.90400 49.16900
H  24.54200 -12.29600 49.19300
H  26.04000 -10.37600 51.15400
H  24.26900 -12.17200 51.80700
H  22.95600 -12.42800 50.59800
H  23.26900 -10.82800 51.30700
H  27.91000 -11.80100 49.47000
H  26.74600 -12.94000 49.98500
H  28.99100 -12.25700 51.38800
H  27.59000 -13.22200 51.98900
H  27.69800 -11.47500 52.34800
H  30.86400 -7.89300 49.14100
H  29.94400 -7.92300 50.70200
H  30.82100 -6.48400 50.11000
H  28.81700 -4.51800 45.00400
H  28.50600 -0.34800 46.51100
H  26.93300 -0.94900 45.89100
H  28.04700 -0.37000 44.75200
Mg 47.27300 15.60500 28.00800
C  45.07000 15.32000 30.79700
C  49.42400 17.36100 30.08600
C  49.02200 16.48300 25.25800
C  44.65200 14.57300 25.96100
N  47.32200 16.10600 30.22800
C  46.30100 15.87700 31.13000
C  46.77700 16.29500 32.49900
C  48.06600 17.15100 32.30500
C  48.29500 16.93300 30.77200
C  47.93200 18.68000 32.68600
C  47.02700 15.06800 33.41500
C  47.18200 15.29300 34.92700
H  46.78300 16.65900 35.47000
N  49.05500 16.45300 27.76800
C  49.77900 17.14400 28.71800
C  51.09700 17.61000 28.13600
C  50.97800 17.29300 26.76500
C  49.67400 16.67200 26.51100
C  52.16300 18.29100 28.98300
C  52.05100 17.63800 25.75200
O  51.95200 17.19300 24.57800
C  53.32800 18.42300 26.09500
N  46.83500 15.53300 25.87800
C  47.75400 15.92000 25.03700
C  47.16700 15.72600 23.59000
C  45.86200 14.88500 23.80300
C  45.81400 14.96400 25.27000
C  46.80900 17.10800 22.90400
C  45.85600 13.41000 23.42400
C  46.33000 13.04400 22.01800
N  45.29900 15.02400 28.27800
C  44.36300 14.61500 27.34300
C  43.16800 14.26800 28.00200
C  43.35400 14.46100 29.38300
C  44.72300 14.93700 29.50200
C  41.82300 13.77700 27.30900
C  42.65400 14.43900 30.74600
O  41.56700 13.95000 31.16100
C  43.85000 15.05400 31.70700
C  43.31300 16.25700 32.41900
O  43.65400 17.38700 32.18400
O  42.57400 15.83700 33.52100
C  41.94800 16.89000 34.33300
H  50.12900 17.78300 30.80500
H  49.64500 16.64300 24.37500
H  43.83300 14.27300 25.30400
H  46.03800 16.99600 32.88800
H  48.90600 16.63400 32.76800
H  48.69900 18.89800 33.42800
H  47.02000 18.93000 33.22800
H  47.99300 19.37100 31.84500
H  47.89300 14.56900 32.97800
H  46.20200 14.39800 33.17500
H  48.17500 14.92800 35.18800
H  46.46300 14.58800 35.34500
H  53.09900 17.75500 29.14200
H  51.72400 18.56700 29.94200
H  52.36300 19.26400 28.53400
H  53.82100 17.82700 26.86200
H  53.03600 19.45300 26.30300
H  53.99100 18.42200 25.23000
H  47.88700 15.27600 22.90600
H  44.99300 15.37000 23.36000
H  45.83400 17.05000 22.41900
H  47.56400 17.52100 22.23600
H  46.79900 17.84800 23.70500
H  44.81200 13.10100 23.37600
H  46.42100 12.89500 24.20100
H  47.34500 12.65000 21.95100
H  46.37700 13.94000 21.39900
H  45.64900 12.32700 21.56000
H  41.47500 12.86500 27.79500
H  42.00600 13.59800 26.24900
H  41.10600 14.59500 27.37600
H  44.10700 14.30000 32.45100
H  41.12900 17.30400 33.74600
H  42.59700 17.64300 34.78000
H  41.49200 16.43900 35.21400

