158

Mg 56.21600 25.31200 44.88700
C  53.46600 26.97000 43.36600
C  54.95900 22.35400 43.45600
C  59.17100 23.88400 45.33100
C  57.49900 28.31300 45.70300
N  54.38300 24.75800 43.56400
C  53.50200 25.61300 42.97700
C  52.49200 24.84300 42.14100
C  52.81500 23.42000 42.51700
C  54.18300 23.48700 43.16800
C  51.79600 22.60000 43.32000
C  52.68600 25.15500 40.64000
C  51.56200 25.62800 39.84000
H  50.90000 24.65200 38.83600
N  57.01000 23.36800 44.60600
C  56.28600 22.28200 43.97700
C  57.06200 21.06700 44.15400
C  58.41100 21.54200 44.56700
C  58.26500 22.96700 44.80000
C  56.55300 19.65400 43.86800
C  59.68400 20.68800 44.53700
O  59.61900 19.46000 44.34700
C  61.02200 21.27900 44.87100
N  58.10500 26.05500 45.18000
C  59.18300 25.23400 45.36000
C  60.33600 25.95600 45.69400
C  59.85100 27.44500 45.83000
C  58.38600 27.27500 45.61000
C  61.20100 25.43200 46.93200
C  60.55500 28.34000 44.72900
C  60.70000 29.90900 44.98500
N  55.60900 27.32000 44.70000
C  56.15500 28.41600 45.28000
C  55.23200 29.47300 45.19300
C  54.12700 29.01100 44.45900
C  54.45100 27.62600 44.12900
C  55.45600 30.86600 45.76000
C  52.85300 29.28400 43.88100
O  52.14200 30.28100 43.95100
C  52.40200 28.03500 43.16100
C  52.17800 28.38300 41.77000
O  53.03900 28.70300 40.93700
O  50.84400 28.21400 41.50200
C  50.38500 28.47000 40.12600
H  54.53500 21.37500 43.22200
H  60.15700 23.51200 45.61900
H  57.83400 29.29500 46.04600
H  51.52100 25.21800 42.46500
H  53.02000 22.89800 41.58200
H  50.95700 23.09400 43.81000
H  52.38400 22.17900 44.13600
H  51.44000 21.71800 42.78700
H  52.97500 24.23600 40.12900
H  53.52300 25.83600 40.48400
H  51.88000 26.52300 39.30500
H  50.67400 25.88400 40.41800
H  55.49900 19.46400 44.07200
H  57.15100 18.97300 44.47300
H  56.70200 19.34900 42.83300
H  61.20200 22.01700 44.09000
H  61.72600 20.44700 44.85900
H  61.04300 21.85400 45.79700
H  61.09600 25.83900 44.92200
H  60.17400 27.80600 46.80700
H  62.08900 24.91700 46.56300
H  60.64300 24.69800 47.51300
H  61.51200 26.19500 47.64600
H  60.11500 28.27800 43.73300
H  61.58500 28.00800 44.60300
H  60.46400 30.52500 44.11600
H  61.73300 30.14800 45.23900
H  60.04800 30.28300 45.77400
H  56.35200 30.78200 46.37500
H  54.57300 31.09200 46.35700
H  55.63500 31.58700 44.96200
H  51.47500 27.68300 43.61400
H  49.84600 27.63700 39.67400
H  51.16000 28.75500 39.41600
H  49.59900 29.21300 40.26400
Mg 0.39800 43.45300 25.34300
C  2.44900 43.18700 28.18600
C  -2.33700 42.77700 27.44200
C  -1.52600 42.87000 22.63800
C  3.27100 43.40000 23.25100
N  0.10400 43.19600 27.56000
C  1.11500 43.19800 28.54500
C  0.54200 43.21000 29.97900
C  -0.96600 42.99500 29.62400
C  -1.10100 42.91500 28.13300
C  -1.68000 41.75600 30.29600
C  0.91000 44.45000 30.94500
C  1.64700 44.18600 32.23200
H  1.18700 42.94200 33.04100
N  -1.69200 42.95100 25.05000
C  -2.56400 42.70400 26.03400
C  -3.87700 42.43100 25.36600
C  -3.73700 42.67200 24.01000
C  -2.28000 42.83700 23.82600
C  -5.13600 42.11400 26.08400
C  -4.77900 42.60000 22.89100
O  -4.46700 42.56000 21.72000
C  -6.27700 42.48000 23.22000
N  0.87300 43.15000 23.30700
C  -0.11100 43.06400 22.37300
C  0.43100 43.09400 20.96200
C  1.84500 43.58000 21.20100
C  2.03100 43.32400 22.66000
C  0.39600 41.67700 20.21200
C  2.02300 45.12400 20.91700
C  3.16600 45.69700 20.06800
N  2.49600 43.32300 25.59000
C  3.58300 43.34900 24.68100
C  4.84400 43.19700 25.43300
C  4.42200 43.11800 26.80300
C  2.98600 43.20900 26.83000
C  6.18300 43.14300 24.93200
C  4.92000 43.01000 28.14200
O  6.07500 42.78200 28.53900
C  3.66800 43.14400 29.10200
C  3.82600 41.91300 30.03100
O  3.65400 40.69500 29.74400
O  4.37500 42.32200 31.20200
C  4.75600 41.19700 32.06200
H  -3.21100 42.58900 28.07000
H  -2.11400 42.90700 21.71800
H  4.07600 43.45500 22.51500
H  0.83600 42.22500 30.34200
H  -1.57800 43.86500 29.86100
H  -1.97800 41.01300 29.55700
H  -2.50500 42.07200 30.93500
H  -0.93600 41.26000 30.92000
H  0.00800 45.00500 31.20400
H  1.53400 45.15900 30.40100
H  1.66300 45.01100 32.94400
H  2.69600 44.09800 31.94900
H  -4.97400 41.73900 27.09500
H  -5.55000 41.22900 25.60200
H  -5.80700 42.97100 26.12700
H  -6.40100 41.49200 23.66400
H  -6.81900 42.38100 22.27900
H  -6.53400 43.32500 23.85800
H  -0.21300 43.77800 20.40900
H  2.56200 42.88900 20.75700
H  1.39600 41.38300 19.89300
H  -0.15100 41.86800 19.28900
H  -0.07400 40.86200 20.76200
H  2.21200 45.59700 21.88100
H  1.11400 45.59300 20.54100
H  3.85300 44.85200 20.03100
H  3.68300 46.52300 20.55700
H  2.76000 46.02300 19.11100
H  6.45000 42.26800 24.34000
H  6.94900 43.36400 25.67600
H  6.21400 44.07400 24.36600
H  3.60100 44.11300 29.59600
H  5.14200 41.83000 32.86200
H  5.58300 40.65800 31.60100
H  3.95600 40.48800 32.27200

