158

Mg 47.65600 16.45300 28.77200
C  45.62200 15.98000 31.78100
C  49.79100 18.20600 30.72600
C  49.22100 17.28900 25.92800
C  45.02300 15.08200 26.89800
N  47.62500 17.06500 31.09100
C  46.78500 16.76000 32.05400
C  47.36500 17.20600 33.41900
C  48.66300 18.01400 33.01000
C  48.68800 17.85700 31.46600
C  48.81200 19.42800 33.52600
C  47.57900 15.98200 34.33700
C  47.91000 16.19400 35.80900
H  47.70200 17.63900 36.52000
N  49.34600 17.42500 28.37500
C  50.14300 18.18300 29.29900
C  51.35400 18.50700 28.64000
C  51.14100 18.21500 27.29100
C  49.81800 17.59700 27.13800
C  52.51300 19.14100 29.33700
C  52.09200 18.38100 26.01400
O  51.84100 17.96700 24.91200
C  53.47600 18.75600 26.22700
N  47.10900 16.29700 26.58500
C  47.97100 16.67800 25.61200
C  47.32200 16.39000 24.19600
C  46.14600 15.42300 24.53100
C  46.06400 15.57200 26.09100
C  46.76700 17.68500 23.59700
C  46.44800 13.93400 24.23700
C  45.73300 13.10600 23.13200
N  45.76800 15.68000 29.18900
C  44.82700 15.09400 28.28000
C  43.64800 14.62900 29.02700
C  43.96100 14.92500 30.33500
C  45.25000 15.49800 30.43700
C  42.37200 14.04200 28.34600
C  43.40100 14.85300 31.64000
O  42.36200 14.38000 32.08700
C  44.49000 15.46700 32.58500
C  43.88200 16.62800 33.31500
O  43.71300 17.71700 32.80000
O  43.61700 16.36800 34.66700
C  42.97700 17.49800 35.35700
H  50.54100 18.68100 31.36200
H  49.70500 17.48900 24.97000
H  44.18100 14.68700 26.32600
H  46.62200 17.83500 33.90800
H  49.51000 17.42000 33.35300
H  48.69700 20.19600 32.76200
H  49.79300 19.61400 33.96400
H  48.10000 19.51300 34.34700
H  48.32900 15.26800 33.99700
H  46.62900 15.44600 34.33000
H  48.88000 15.71900 35.95800
H  47.21200 15.52000 36.30500
H  52.36300 19.13600 30.41600
H  52.75900 20.15100 29.00900
H  53.38900 18.52300 29.13700
H  53.85100 17.84700 26.69800
H  53.46500 19.63300 26.87400
H  54.03800 19.08300 25.35200
H  48.02400 15.94300 23.49300
H  45.14700 15.65600 24.16200
H  47.67000 18.14700 23.19800
H  46.33100 18.32400 24.36500
H  46.09800 17.53900 22.75000
H  46.27400 13.29500 25.10200
H  47.52200 13.98400 24.05900
H  46.48400 12.73400 22.43400
H  44.79700 13.50100 22.73900
H  45.39500 12.11200 23.42500
H  42.57600 13.07400 27.88900
H  41.99200 14.74000 27.60100
H  41.58800 14.00800 29.10300
H  44.89500 14.74400 33.29400
H  42.62700 17.02500 36.27500
H  42.14200 17.89200 34.77900
H  43.63500 18.28600 35.72200
Mg -5.93800 24.69900 26.33300
C  -4.56200 26.34200 29.16600
C  -7.93300 22.92100 28.53100
C  -6.62400 22.65500 23.84600
C  -3.66200 26.37900 24.40100
N  -6.06200 24.58300 28.67100
C  -5.45400 25.35800 29.55400
C  -6.01800 25.02500 31.00100
C  -6.95600 23.77000 30.77300
C  -6.97400 23.71500 29.19600
C  -6.59300 22.47200 31.47000
C  -6.68900 26.37700 31.59600
C  -6.74600 26.41900 33.17300
H  -6.40200 25.12800 33.99700
N  -7.19900 23.08800 26.21300
C  -8.06800 22.56000 27.12200
C  -8.89000 21.60300 26.48100
C  -8.41400 21.41900 25.13400
C  -7.36500 22.42500 25.00300
C  -9.96300 20.81200 27.26700
C  -8.80700 20.49200 24.10000
O  -8.37200 20.42200 22.93000
C  -9.96000 19.57800 24.36900
N  -5.28200 24.52100 24.28900
C  -5.71500 23.63100 23.45300
C  -5.11600 23.82600 22.04200
C  -4.03100 24.97800 22.33400
C  -4.34900 25.33200 23.79600
C  -4.57500 22.67600 21.29000
C  -3.97900 26.14400 21.36000
C  -2.59400 26.57100 20.83000
N  -4.48600 26.11700 26.60300
C  -3.70900 26.78900 25.73800
C  -2.80300 27.64900 26.47300
C  -3.11300 27.55100 27.81400
C  -4.19800 26.60800 27.79700
C  -1.74900 28.46700 25.77100
C  -2.81600 28.00500 29.12500
O  -2.00600 28.82000 29.50600
C  -3.73100 27.20200 30.14200
C  -2.87400 26.34200 31.02500
O  -2.35000 25.30500 30.71800
O  -2.66800 27.02300 32.21400
C  -1.99500 26.15100 33.16000
H  -8.48300 22.24100 29.18600
H  -6.80900 22.00600 22.98800
H  -2.97400 26.94600 23.77000
H  -5.16300 24.70900 31.59700
H  -7.98100 24.00700 31.06000
H  -5.56700 22.46300 31.83800
H  -6.71600 21.78300 30.63500
H  -7.28200 22.30400 32.29800
H  -7.71300 26.52800 31.25500
H  -6.10800 27.22600 31.23400
H  -7.60600 26.93400 33.60000
H  -5.86400 27.02600 33.37600
H  -10.94700 21.10300 26.89900
H  -10.13200 21.15600 28.28800
H  -9.98100 19.73100 27.12900
H  -9.70100 18.81600 25.10400
H  -10.05400 19.00600 23.44500
H  -10.93000 20.06400 24.47300
H  -5.94700 24.09400 21.39000
H  -3.05600 24.49300 22.37800
H  -3.54200 22.92600 21.05100
H  -5.26500 22.53000 20.45800
H  -4.53300 21.77900 21.90700
H  -4.52500 26.98000 21.79700
H  -4.47300 25.98300 20.40200
H  -2.72100 26.99900 19.83600
H  -1.97500 25.67500 20.89000
H  -2.13500 27.24000 21.55800
H  -1.35100 28.00500 24.86800
H  -0.95100 28.57300 26.50700
H  -2.10200 29.46500 25.50800
H  -4.25500 27.95900 30.72600
H  -2.39500 26.39200 34.14500
H  -0.90900 26.23700 33.12000
H  -2.31300 25.11200 33.07200

