158

Mg 47.42900 25.40700 28.69500
C  48.34600 27.54800 31.06500
C  46.49500 23.04500 31.08300
C  46.87400 23.12100 26.28100
C  49.07400 27.39700 26.18600
N  47.49200 25.28500 30.75400
C  47.77200 26.39700 31.53200
C  47.40700 26.17700 33.02900
C  47.07100 24.65100 32.94400
C  46.93100 24.31400 31.47100
C  48.05100 23.74600 33.74900
C  46.26600 27.09000 33.59500
C  45.75600 26.83800 35.03700
H  45.46000 27.85600 36.11600
N  46.61800 23.39200 28.68100
C  46.25400 22.62700 29.76600
C  45.92000 21.33400 29.30600
C  45.81200 21.43200 27.91800
C  46.45600 22.71000 27.55300
C  45.57700 20.20100 30.21700
C  45.28600 20.38100 26.96500
O  45.28900 20.56700 25.74900
C  44.48300 19.17200 27.56900
N  47.87000 25.30100 26.51200
C  47.41600 24.30700 25.76800
C  47.56100 24.51400 24.22900
C  48.14600 25.93300 24.25200
C  48.40700 26.28100 25.73400
C  48.43600 23.46600 23.42200
C  47.02800 26.92400 23.72000
C  47.64700 28.29900 23.18800
N  48.62800 27.02400 28.63900
C  49.22700 27.78600 27.54200
C  49.77900 28.94100 28.08600
C  49.50400 28.97200 29.49400
C  48.77600 27.74100 29.76300
C  50.67400 29.91100 27.30600
C  49.65800 29.68500 30.70300
O  50.27700 30.69300 30.95400
C  48.79200 28.85500 31.75600
C  49.60200 28.81300 32.99800
O  50.69700 28.26200 33.06400
O  48.94000 29.36800 34.07300
C  49.65500 29.43700 35.40100
H  46.19100 22.32000 31.84100
H  46.69500 22.39700 25.48400
H  49.33800 28.16100 25.45200
H  48.36300 26.36200 33.52000
H  46.17000 24.52300 33.54300
H  47.61300 23.48900 34.71400
H  48.96400 24.32700 33.88500
H  48.15800 22.83400 33.16300
H  45.45300 26.89700 32.89500
H  46.66900 28.10200 33.57800
H  46.48800 26.17100 35.49200
H  44.82400 26.31700 34.81700
H  46.00900 19.27700 29.83200
H  44.50000 20.03300 30.21900
H  46.01700 20.30300 31.20900
H  43.91500 18.55700 26.87100
H  43.76600 19.58700 28.27700
H  45.12800 18.41800 28.02000
H  46.60100 24.48000 23.71400
H  49.10600 26.01300 23.74100
H  49.24100 23.99300 22.90800
H  47.79000 23.00800 22.67300
H  48.84300 22.70200 24.08400
H  46.39600 27.15600 24.57700
H  46.46600 26.45700 22.91100
H  47.31700 28.39900 22.15400
H  48.72500 28.18500 23.07500
H  47.18900 29.13500 23.71700
H  51.53300 29.39900 26.87400
H  51.22900 30.38200 28.11700
H  50.14900 30.66100 26.71600
H  47.90800 29.46400 31.94900
H  50.06400 30.40400 35.69200
H  50.42000 28.66200 35.44000
H  48.89400 29.09500 36.10300
Mg -10.61300 16.71000 41.09500
C  -7.14900 16.33500 41.35700
C  -10.12300 20.04800 40.49600
C  -13.77500 16.93100 40.11900
C  -10.86400 13.15200 40.89900
N  -8.81800 18.04700 40.91000
C  -7.49700 17.64100 41.01100
C  -6.58200 18.87600 40.83000
C  -7.57800 20.07900 40.92500
C  -8.94400 19.36000 40.76100
C  -7.51200 20.94400 42.17600
C  -5.75700 18.79300 39.51700
C  -4.28600 18.34500 39.57700
H  -3.84100 17.01400 38.78800
N  -11.83800 18.36200 40.55400
C  -11.46200 19.63700 40.35700
C  -12.65000 20.40400 40.07300
C  -13.80400 19.57200 40.17400
C  -13.24400 18.21900 40.31100
C  -12.66100 21.80100 39.89300
C  -15.31900 20.00700 40.05900
O  -15.65900 21.18100 39.85400
C  -16.38100 18.93800 40.34300
N  -12.05800 15.18800 40.39200
C  -13.31100 15.57200 40.13200
C  -14.26300 14.38600 39.92500
C  -13.40100 13.21400 40.35500
C  -11.99600 13.86400 40.52100
C  -15.65800 14.42800 40.69600
C  -13.47900 11.94600 39.44700
C  -13.56100 10.48100 40.07000
N  -9.33500 14.99700 41.29400
C  -9.55400 13.67000 41.17100
C  -8.29800 12.95000 41.46400
C  -7.37800 14.03000 41.54400
C  -8.01700 15.22100 41.33000
C  -8.14100 11.44900 41.54900
C  -5.96800 14.22600 41.74600
O  -5.01400 13.41200 41.92600
C  -5.77600 15.70500 41.63000
C  -5.03600 16.11400 42.88100
O  -3.81900 16.12900 42.89500
O  -5.92200 16.55700 43.83100
C  -5.29200 17.24400 44.92800
H  -10.00600 21.13400 40.51800
H  -14.84000 17.01700 39.89500
H  -10.86600 12.06000 40.89000
H  -5.91300 19.02800 41.67600
H  -7.43000 20.68200 40.02900
H  -6.69200 21.66000 42.21000
H  -7.46000 20.40700 43.12400
H  -8.45800 21.48600 42.16200
H  -5.72600 19.77700 39.04900
H  -6.22000 18.09900 38.81600
H  -3.99700 18.22000 40.62100
H  -3.62000 19.08200 39.12900
H  -13.21600 21.99000 38.97400
H  -11.65200 22.21200 39.89100
H  -13.10600 22.36300 40.71400
H  -17.35800 19.34300 40.60500
H  -16.05800 18.24300 41.11800
H  -16.45800 18.38000 39.40900
H  -14.41100 14.44300 38.84700
H  -13.71200 12.87700 41.34400
H  -15.70400 13.65600 41.46400
H  -16.46800 14.25900 39.98600
H  -15.84000 15.43300 41.07600
H  -12.48400 11.86900 39.00900
H  -14.13000 12.05300 38.57800
H  -13.53700 10.62700 41.15000
H  -12.72500 9.89500 39.69000
H  -14.53600 10.03300 39.87600
H  -7.15200 11.27600 41.12500
H  -8.94000 11.08600 40.90200
H  -8.24700 11.18000 42.60000
H  -5.11300 15.97500 40.80800
H  -4.94100 16.44900 45.58600
H  -5.96700 17.95900 45.39900
H  -4.43500 17.82100 44.58200

