158

Mg 42.64700 41.70000 26.64800
C  41.60400 44.09400 29.03700
C  43.56900 39.75300 29.34300
C  43.32400 39.45800 24.44300
C  41.66000 44.01000 24.17400
N  42.49100 41.86800 28.93600
C  42.08300 42.94000 29.70000
C  42.13600 42.66100 31.26400
C  42.92000 41.30600 31.22800
C  42.99000 40.93000 29.77900
C  44.44400 41.27400 31.86500
C  40.70300 42.52500 31.95000
C  40.18700 43.44800 33.10200
H  39.96900 42.81100 34.46700
N  43.45800 39.94400 26.83300
C  43.76500 39.25200 28.01100
C  44.35900 38.01200 27.67500
C  44.37000 37.88000 26.29000
C  43.75400 39.11800 25.79000
C  44.71600 36.90000 28.77800
C  44.91500 36.74900 25.42200
O  44.79400 36.74900 24.23200
C  45.61800 35.55500 26.00000
N  42.54800 41.75300 24.58600
C  42.80500 40.62500 23.86200
C  42.57900 40.90200 22.36200
C  41.94700 42.32300 22.24600
C  42.01600 42.73600 23.74200
C  43.76000 40.59900 21.38600
C  40.54100 42.38000 21.50300
C  40.43400 43.48900 20.41200
N  41.91000 43.65000 26.58200
C  41.56600 44.51100 25.45800
C  40.93600 45.76000 25.96100
C  40.91100 45.56800 27.30500
C  41.57000 44.30600 27.65200
C  40.13700 46.81900 25.18500
C  40.56300 46.16200 28.60000
O  39.96500 47.19000 28.77300
C  41.09300 45.23800 29.86300
C  42.16500 45.97600 30.63300
O  43.27900 46.10200 30.31100
O  41.61100 46.44800 31.73600
C  42.44500 46.89400 32.86600
H  43.84600 39.06400 30.14300
H  43.63000 38.81300 23.61700
H  41.32100 44.59900 23.32000
H  42.61200 43.48600 31.79500
H  42.33400 40.55300 31.75400
H  44.28400 40.73700 32.80000
H  44.76800 42.29900 32.04300
H  45.10700 40.69200 31.22400
H  40.76600 41.60200 32.52600
H  39.92600 42.39300 31.19700
H  39.23100 43.94000 32.92500
H  40.93600 44.23600 33.18400
H  44.33400 36.97400 29.79700
H  45.78800 36.72000 28.84400
H  44.17700 36.08300 28.30000
H  46.04100 35.00700 25.15800
H  44.82600 34.94200 26.43100
H  46.43500 35.96500 26.59400
H  41.81300 40.17500 22.09000
H  42.68400 42.86200 21.65100
H  43.42800 39.94100 20.58200
H  44.54700 40.10400 21.95500
H  44.18300 41.53100 21.01000
H  39.81600 42.64600 22.27200
H  40.12800 41.44600 21.12200
H  41.42300 43.91000 20.23000
H  39.82700 44.29300 20.82800
H  39.95100 43.03100 19.54900
H  40.70500 47.74500 25.27100
H  39.23400 46.97600 25.77500
H  39.97800 46.49200 24.15800
H  40.28500 44.96200 30.54100
H  42.36000 47.95800 33.08900
H  43.50300 46.70200 32.68800
H  42.14100 46.32000 33.74100
Mg -2.25400 34.51700 27.01300
C  -4.36300 33.14100 29.46100
C  -1.21100 36.75600 29.42500
C  -0.62400 36.09000 24.57900
C  -3.79000 32.41800 24.69000
N  -2.87300 35.03100 29.13000
C  -3.54700 34.15300 29.98600
C  -3.31400 34.43600 31.48500
C  -2.55400 35.81000 31.42600
C  -2.23100 35.92500 29.89300
C  -3.39700 37.02900 31.99300
C  -2.66300 33.27300 32.38300
C  -3.51000 32.69700 33.54300
H  -2.76500 32.31300 34.80900
N  -0.97100 36.04500 26.98900
C  -0.66700 36.89000 28.08300
C  0.24500 37.93300 27.69500
C  0.33000 37.80700 26.28200
C  -0.42400 36.57500 25.88400
C  0.83000 38.96500 28.66700
C  1.04500 38.75100 25.30500
O  1.02300 38.48200 24.11500
C  1.80200 40.02900 25.76900
N  -2.31800 34.37300 24.87300
C  -1.49300 35.14900 24.08900
C  -1.44100 34.50600 22.62900
C  -2.20100 33.15200 22.85000
C  -2.76800 33.33100 24.21300
C  -2.20100 35.40100 21.56800
C  -1.29000 31.87700 22.92300
C  -1.88100 30.52000 22.21700
N  -3.75400 33.08700 26.96700
C  -4.27800 32.28700 26.00700
C  -5.18100 31.28100 26.56000
C  -5.20400 31.60900 27.97200
C  -4.35900 32.76500 28.14600
C  -5.84600 30.18800 25.79200
C  -5.74700 31.16300 29.16500
O  -6.43000 30.20900 29.53100
C  -5.20400 32.14800 30.24600
C  -6.28400 32.90000 30.94000
O  -6.87000 33.85800 30.52800
O  -6.54000 32.27700 32.10600
C  -7.72700 32.70200 32.89800
H  -0.68600 37.42900 30.10700
H  0.06500 36.49400 23.83400
H  -4.14800 31.60400 24.05600
H  -4.30500 34.62900 31.89400
H  -1.66400 35.77700 32.05300
H  -4.44700 36.98500 31.70200
H  -2.93600 37.82200 31.40400
H  -3.34000 37.15100 33.07500
H  -1.64300 33.58100 32.61000
H  -2.52700 32.37700 31.77600
H  -4.02100 31.80500 33.18000
H  -4.30800 33.40600 33.76200
H  0.81000 40.00600 28.34700
H  1.86300 38.61800 28.62200
H  0.52000 39.10400 29.70300
H  1.15200 40.85000 26.07000
H  2.40500 40.20900 24.87900
H  2.55200 39.80700 26.52800
H  -0.40900 34.33900 22.32200
H  -2.97000 32.95500 22.10400
H  -2.42800 36.40700 21.92000
H  -3.14600 34.95700 21.25200
H  -1.60700 35.53700 20.66400
H  -1.03800 31.62900 23.95400
H  -0.36100 32.10800 22.40200
H  -2.80700 30.71900 21.67800
H  -2.23000 29.73300 22.88600
H  -1.05400 30.23400 21.56700
H  -5.53300 29.40600 26.48400
H  -5.54000 30.17100 24.74600
H  -6.91600 30.39700 25.79900
H  -4.60900 31.60500 30.98000
H  -8.14400 31.80100 33.34800
H  -8.55100 33.10500 32.30900
H  -7.58300 33.43300 33.69400

