158

Mg 24.23400 -6.20900 46.80900
C  26.60500 -3.77300 45.88100
C  22.02900 -4.66600 44.58600
C  22.16200 -8.81900 47.14200
C  26.83100 -8.10000 48.21500
N  24.28500 -4.35800 45.40000
C  25.39300 -3.58400 45.17300
C  25.12400 -2.58000 44.07400
C  23.56500 -2.66900 43.91600
C  23.23700 -3.96800 44.72500
C  22.75300 -1.48500 44.42800
C  26.03700 -2.82800 42.83000
C  26.70700 -1.64000 42.31400
H  25.97800 -0.87900 41.19900
N  22.32600 -6.72000 46.07600
C  21.59700 -5.91300 45.21200
C  20.33400 -6.54800 44.93400
C  20.21000 -7.71500 45.78400
C  21.57700 -7.80600 46.42400
C  19.43800 -6.12200 43.75600
C  18.99300 -8.68000 45.86100
O  18.00400 -8.43700 45.19700
C  19.03100 -9.85200 46.75200
N  24.53500 -8.22500 47.51200
C  23.43500 -9.05200 47.60900
C  23.80300 -10.38200 48.36600
C  25.38200 -10.17000 48.64600
C  25.58500 -8.72100 48.18300
C  23.01900 -10.63200 49.64400
C  26.29000 -11.19600 47.81500
C  27.38500 -11.83200 48.54000
N  26.20300 -5.96000 47.15800
C  27.21000 -6.80500 47.70600
C  28.45400 -6.08300 47.71100
C  28.22100 -4.88500 47.10400
C  26.87300 -4.84800 46.71300
C  29.74600 -6.59200 48.28200
C  28.89800 -3.65700 46.65000
O  30.03500 -3.25600 46.83500
C  27.85700 -2.91800 45.81900
C  27.55000 -1.62900 46.46800
O  26.84200 -1.47200 47.50000
O  28.05700 -0.69800 45.67800
C  27.74900 0.68100 45.97000
H  21.34100 -4.21200 43.87000
H  21.55100 -9.71400 47.27600
H  27.66600 -8.64500 48.66100
H  25.38300 -1.72800 44.70200
H  23.34700 -2.74000 42.85000
H  23.35500 -0.57700 44.45200
H  22.35100 -1.63800 45.42900
H  21.91200 -1.55100 43.73800
H  25.40300 -3.21700 42.03300
H  26.83300 -3.54600 43.02500
H  27.71900 -1.84700 41.96600
H  26.75800 -1.02100 43.21000
H  19.05100 -7.00500 43.24800
H  20.09700 -5.65200 43.02700
H  18.64800 -5.46100 44.11000
H  18.07700 -10.37900 46.77400
H  19.27700 -9.48500 47.74800
H  19.77300 -10.57800 46.41900
H  23.63400 -11.17400 47.63600
H  25.59500 -10.08000 49.71100
H  22.20600 -11.33000 49.44300
H  22.79500 -9.63500 50.02400
H  23.64400 -11.12700 50.38700
H  26.77000 -10.85600 46.89700
H  25.63300 -12.01200 47.51400
H  27.44900 -11.51700 49.58200
H  28.33700 -11.86500 48.01000
H  27.20100 -12.90400 48.61500
H  29.82500 -6.35200 49.34200
H  30.54200 -6.25200 47.62000
H  29.74700 -7.65700 48.05300
H  28.09100 -2.68700 44.77900
H  26.70400 0.80100 46.25700
H  27.75000 1.32500 45.09100
H  28.44600 1.01100 46.74100
Mg 17.32900 -1.12200 28.33400
C  16.21300 1.17600 30.85300
C  19.12900 -2.80200 30.72500
C  18.90600 -2.91400 25.90500
C  15.81300 0.79000 25.95000
N  17.64500 -0.74900 30.49300
C  17.06500 0.13400 31.37700
C  17.54400 -0.07900 32.82800
C  18.69200 -1.22700 32.60800
C  18.45800 -1.63800 31.15200
C  20.12800 -0.80400 33.05100
C  16.35000 -0.52400 33.69900
C  16.18900 0.10900 35.08200
H  17.47700 0.36400 35.84500
N  18.73800 -2.72200 28.33000
C  19.31800 -3.31200 29.44400
C  20.00100 -4.51700 29.01500
C  19.96200 -4.55900 27.62900
C  19.21100 -3.36500 27.20400
C  20.73300 -5.42100 29.95100
C  20.57400 -5.61000 26.68400
O  20.27000 -5.59400 25.51200
C  21.47500 -6.71300 27.14400
N  17.40400 -1.04100 26.21000
C  18.14300 -1.87300 25.42700
C  18.00500 -1.49900 23.93700
C  16.89500 -0.46200 23.95000
C  16.63100 -0.19000 25.46800
C  19.37000 -1.08200 23.25100
C  15.67400 -0.92000 23.06600
C  14.33300 -1.17800 23.76400
N  16.15100 0.57200 28.36100
C  15.57900 1.18100 27.32100
C  14.70400 2.23800 27.82200
C  14.96900 2.36000 29.22300
C  15.81200 1.29800 29.48400
C  13.78200 3.03000 26.85800
C  14.74000 3.15900 30.43800
O  14.06500 4.17400 30.68100
C  15.53500 2.35500 31.58300
C  16.39700 3.23800 32.35400
O  17.49400 3.67600 32.01800
O  15.88700 3.58500 33.54100
C  16.55800 4.55500 34.34400
H  19.51800 -3.37200 31.57100
H  19.39600 -3.38000 25.04800
H  15.42900 1.37100 25.11000
H  17.95000 0.88400 33.13600
H  18.40000 -2.05000 33.26100
H  19.98600 0.07100 33.68400
H  20.62800 -0.47400 32.14000
H  20.70300 -1.58600 33.54700
H  16.41600 -1.58100 33.95600
H  15.38100 -0.33800 33.23600
H  15.51100 -0.51000 35.67000
H  15.70600 1.06900 34.89900
H  21.82000 -5.46600 29.87500
H  20.25400 -6.39400 30.06400
H  20.56500 -4.98800 30.93700
H  22.32000 -6.46700 27.78800
H  21.91800 -7.15700 26.25300
H  20.71900 -7.34300 27.61200
H  17.56400 -2.36600 23.44700
H  17.15000 0.52000 23.55300
H  20.07400 -0.93200 24.06900
H  19.29900 -0.08200 22.82300
H  19.71700 -1.85200 22.56200
H  15.83700 -1.79300 22.43400
H  15.38800 -0.12700 22.37500
H  13.75200 -0.25900 23.68500
H  14.52200 -1.44300 24.80400
H  13.77600 -2.05100 23.42600
H  13.31900 2.31000 26.18300
H  14.39900 3.67800 26.23400
H  13.08600 3.56300 27.50400
H  14.79300 1.94100 32.26600
H  16.54100 4.04200 35.30600
H  15.94900 5.45900 34.35700
H  17.58000 4.85900 34.11500

