158

Mg -2.46600 17.26800 26.01700
C  -2.68500 14.91200 28.60500
C  -2.98500 19.64600 28.45000
C  -2.65600 19.39600 23.61300
C  -2.52600 14.58100 23.71200
N  -2.80200 17.23800 28.33100
C  -2.66500 16.21100 29.09200
C  -2.80000 16.56600 30.63300
C  -2.89800 18.13900 30.54200
C  -3.04500 18.35900 29.03500
C  -4.02500 18.71700 31.45500
C  -1.66500 15.93100 31.50100
C  -1.10700 16.72800 32.60100
H  -0.58100 15.94000 33.81500
N  -2.69000 19.21200 25.95700
C  -2.78500 20.04200 27.07400
C  -2.74500 21.44300 26.62400
C  -2.54300 21.41200 25.20500
C  -2.64700 20.00500 24.81600
C  -2.80600 22.62700 27.53800
C  -2.31600 22.62200 24.19300
O  -2.35300 22.41400 23.01000
C  -1.96800 23.97700 24.70900
N  -2.50000 16.95500 23.89800
C  -2.70300 18.08900 23.12900
C  -2.67600 17.73400 21.64100
C  -2.70700 16.16100 21.61300
C  -2.64300 15.86500 23.15700
C  -3.66400 18.34700 20.63200
C  -1.57000 15.50800 20.81100
C  -1.96200 14.74000 19.57600
N  -2.47900 15.18700 26.07900
C  -2.51300 14.17600 25.09800
C  -2.78200 12.93700 25.66300
C  -2.82800 13.11100 27.02300
C  -2.61800 14.51000 27.25200
C  -2.78100 11.65800 24.99200
C  -3.08000 12.46600 28.37400
O  -3.37400 11.31100 28.74800
C  -2.98400 13.61500 29.40700
C  -1.91100 13.08800 30.29800
O  -0.68500 13.30800 30.13400
O  -2.52300 12.38500 31.31900
C  -1.58300 12.06600 32.40900
H  -2.94900 20.43600 29.20300
H  -2.67700 20.06000 22.74600
H  -2.62300 13.78400 22.97200
H  -3.79100 16.37900 31.04600
H  -1.92100 18.54200 30.80900
H  -3.71500 18.70200 32.50000
H  -4.96800 18.19000 31.31200
H  -4.29900 19.75800 31.28400
H  -0.94100 15.62300 30.74600
H  -2.04500 15.02200 31.96800
H  -1.93200 17.36900 32.91100
H  -0.26800 17.35300 32.29500
H  -3.64500 23.27500 27.28500
H  -1.95100 23.28300 27.37200
H  -2.94000 22.32300 28.57600
H  -1.82100 24.73600 23.94000
H  -1.03700 23.82200 25.25500
H  -2.71100 24.22800 25.46600
H  -1.74900 18.11300 21.21100
H  -3.58800 15.74300 21.12600
H  -4.34800 17.54600 20.35300
H  -3.17300 18.77100 19.75600
H  -4.23900 19.13000 21.12800
H  -1.16700 14.77700 21.51200
H  -0.69400 16.07200 20.49000
H  -2.20000 13.72100 19.88200
H  -1.26100 14.70800 18.74200
H  -2.87500 15.13800 19.13400
H  -1.82300 11.43600 24.52300
H  -3.61000 11.48100 24.30600
H  -2.76300 10.86000 25.73400
H  -3.88900 13.75200 30.00000
H  -1.55800 11.03500 32.76200
H  -1.81300 12.76900 33.21000
H  -0.51500 12.19000 32.22500
Mg 8.69900 3.40400 27.90600
C  10.17600 1.81200 30.63700
C  6.74800 5.17600 29.98100
C  7.11600 4.73100 25.15900
C  10.39400 1.06100 25.84200
N  8.61600 3.53400 30.09800
C  9.33500 2.87900 31.00000
C  9.17900 3.47900 32.37100
C  7.91300 4.38700 32.19300
C  7.72800 4.36800 30.64400
C  6.64900 4.02000 33.06700
C  10.41700 4.27100 32.84500
C  11.03500 3.90200 34.21500
H  10.46900 4.74100 35.48500
N  7.19400 4.75100 27.63500
C  6.47100 5.37400 28.59800
C  5.63400 6.35200 28.01300
C  5.71700 6.24400 26.55800
C  6.71400 5.22100 26.42100
C  4.59600 7.17900 28.77000
C  4.94200 7.00400 25.43800
O  5.15700 6.87800 24.24600
C  3.97500 8.04700 25.81200
N  8.81300 2.98700 25.87900
C  8.08400 3.74000 24.90700
C  8.46900 3.26100 23.50500
C  9.42600 2.03000 23.80600
C  9.56700 2.02400 25.26200
C  7.24000 2.98000 22.53500
C  10.95100 2.28000 23.09900
C  11.70400 0.93400 22.63800
N  9.90900 1.72100 28.18300
C  10.41800 0.82400 27.23700
C  11.21200 -0.21700 27.84800
C  11.13200 0.12400 29.23300
C  10.29200 1.26600 29.33500
C  11.94300 -1.34500 27.17200
C  11.72000 -0.16100 30.52000
O  12.53600 -1.02800 30.85000
C  10.96400 0.84500 31.51100
C  10.10100 0.14600 32.43000
O  9.15000 -0.60600 32.21800
O  10.49500 0.41600 33.73400
C  9.63300 -0.15300 34.81200
H  6.19100 5.82500 30.66000
H  6.67100 5.17900 24.26800
H  10.85600 0.41200 25.09500
H  8.90500 2.67600 33.05600
H  8.14900 5.42900 32.41000
H  5.78500 3.94800 32.40700
H  6.38600 4.76000 33.82300
H  6.83400 3.07700 33.58200
H  10.01800 5.27300 33.00500
H  11.16900 4.38100 32.06300
H  12.11400 4.05300 34.18100
H  10.85000 2.83800 34.36400
H  4.57800 6.81000 29.79500
H  3.59900 6.94500 28.39800
H  4.67900 8.25600 28.62000
H  4.44200 8.80600 26.43900
H  3.19100 7.52900 26.36500
H  3.62400 8.64500 24.97100
H  9.01900 4.05300 22.99600
H  9.05900 1.13900 23.29600
H  6.26200 3.27300 22.91600
H  7.25500 1.93200 22.23600
H  7.32100 3.61300 21.65100
H  11.66700 2.81900 23.72100
H  10.96300 2.80000 22.14100
H  12.07700 0.82800 21.62000
H  11.09700 0.04100 22.79100
H  12.49800 0.73500 23.35800
H  12.82700 -0.89100 26.72400
H  11.28000 -1.72700 26.39600
H  12.32400 -2.14000 27.81200
H  11.62400 1.51500 32.06200
H  9.96800 0.32900 35.73100
H  9.54100 -1.23900 34.85100
H  8.61500 0.16500 34.58900

