158

Mg 17.32900 -1.12200 28.33400
C  16.21300 1.17600 30.85300
C  19.12900 -2.80200 30.72500
C  18.90600 -2.91400 25.90500
C  15.81300 0.79000 25.95000
N  17.64500 -0.74900 30.49300
C  17.06500 0.13400 31.37700
C  17.54400 -0.07900 32.82800
C  18.69200 -1.22700 32.60800
C  18.45800 -1.63800 31.15200
C  20.12800 -0.80400 33.05100
C  16.35000 -0.52400 33.69900
C  16.18900 0.10900 35.08200
H  17.47700 0.36400 35.84500
N  18.73800 -2.72200 28.33000
C  19.31800 -3.31200 29.44400
C  20.00100 -4.51700 29.01500
C  19.96200 -4.55900 27.62900
C  19.21100 -3.36500 27.20400
C  20.73300 -5.42100 29.95100
C  20.57400 -5.61000 26.68400
O  20.27000 -5.59400 25.51200
C  21.47500 -6.71300 27.14400
N  17.40400 -1.04100 26.21000
C  18.14300 -1.87300 25.42700
C  18.00500 -1.49900 23.93700
C  16.89500 -0.46200 23.95000
C  16.63100 -0.19000 25.46800
C  19.37000 -1.08200 23.25100
C  15.67400 -0.92000 23.06600
C  14.33300 -1.17800 23.76400
N  16.15100 0.57200 28.36100
C  15.57900 1.18100 27.32100
C  14.70400 2.23800 27.82200
C  14.96900 2.36000 29.22300
C  15.81200 1.29800 29.48400
C  13.78200 3.03000 26.85800
C  14.74000 3.15900 30.43800
O  14.06500 4.17400 30.68100
C  15.53500 2.35500 31.58300
C  16.39700 3.23800 32.35400
O  17.49400 3.67600 32.01800
O  15.88700 3.58500 33.54100
C  16.55800 4.55500 34.34400
H  19.51800 -3.37200 31.57100
H  19.39600 -3.38000 25.04800
H  15.42900 1.37100 25.11000
H  17.95000 0.88400 33.13600
H  18.40000 -2.05000 33.26100
H  19.98600 0.07100 33.68400
H  20.62800 -0.47400 32.14000
H  20.70300 -1.58600 33.54700
H  16.41600 -1.58100 33.95600
H  15.38100 -0.33800 33.23600
H  15.51100 -0.51000 35.67000
H  15.70600 1.06900 34.89900
H  21.82000 -5.46600 29.87500
H  20.25400 -6.39400 30.06400
H  20.56500 -4.98800 30.93700
H  22.32000 -6.46700 27.78800
H  21.91800 -7.15700 26.25300
H  20.71900 -7.34300 27.61200
H  17.56400 -2.36600 23.44700
H  17.15000 0.52000 23.55300
H  20.07400 -0.93200 24.06900
H  19.29900 -0.08200 22.82300
H  19.71700 -1.85200 22.56200
H  15.83700 -1.79300 22.43400
H  15.38800 -0.12700 22.37500
H  13.75200 -0.25900 23.68500
H  14.52200 -1.44300 24.80400
H  13.77600 -2.05100 23.42600
H  13.31900 2.31000 26.18300
H  14.39900 3.67800 26.23400
H  13.08600 3.56300 27.50400
H  14.79300 1.94100 32.26600
H  16.54100 4.04200 35.30600
H  15.94900 5.45900 34.35700
H  17.58000 4.85900 34.11500
Mg 35.65000 2.33700 29.09600
C  33.48600 3.11600 31.68100
C  38.30200 2.49600 31.32500
C  37.77800 2.23100 26.39300
C  32.94500 2.73300 26.80300
N  35.84600 2.73400 31.23600
C  34.79800 2.80500 32.09100
C  35.24100 2.93600 33.48400
C  36.83000 2.94400 33.43600
C  37.03900 2.73900 31.86700
C  37.53100 4.23000 34.03400
C  34.63900 1.74400 34.36800
C  34.48800 2.08900 35.87900
H  34.90600 3.49600 36.46700
N  37.71700 2.25500 28.94300
C  38.64100 2.35900 29.98400
C  39.94800 2.18100 29.44600
C  39.83900 2.08300 28.01300
C  38.39300 2.23700 27.69600
C  41.19000 2.12900 30.30300
C  41.01300 1.94300 27.05200
O  40.81900 1.98300 25.79100
C  42.36000 1.62900 27.50700
N  35.43200 2.37400 27.00800
C  36.40600 2.37300 26.09000
C  35.94100 2.64100 24.65700
C  34.41800 2.38300 24.74200
C  34.19400 2.44200 26.25200
C  36.27100 4.08800 24.07400
C  33.89900 1.10200 24.06300
C  33.24400 1.39700 22.73000
N  33.58700 2.81400 29.15500
C  32.60500 2.96100 28.14500
C  31.39200 3.56800 28.72900
C  31.70000 3.58200 30.13600
C  33.03100 3.15900 30.32500
C  30.11300 3.90600 28.00900
C  31.13500 3.86100 31.52900
O  29.98200 3.96500 31.90700
C  32.28400 3.60800 32.53500
C  32.48000 4.83000 33.27700
O  33.16400 5.83600 33.01500
O  31.67900 4.66700 34.47200
C  31.45600 5.89300 35.27800
H  39.15800 2.35100 31.98800
H  38.49800 2.16400 25.57500
H  32.02800 2.83400 26.22000
H  34.94500 3.87500 33.95200
H  37.21300 2.04900 33.92600
H  38.24800 3.91900 34.79400
H  36.76900 4.93400 34.37000
H  38.17000 4.69000 33.28000
H  35.36700 0.93700 34.27900
H  33.69900 1.42800 33.91600
H  35.05200 1.30500 36.38600
H  33.46300 1.90400 36.20000
H  41.93700 2.84300 29.95500
H  41.52200 1.09200 30.35100
H  41.13600 2.40700 31.35600
H  42.65200 2.45500 28.15600
H  42.91800 1.49100 26.58100
H  42.33700 0.67400 28.03100
H  36.35900 1.88500 23.99200
H  33.82000 3.22100 24.38600
H  36.67400 4.00900 23.06400
H  36.96800 4.49300 24.80800
H  35.40900 4.74200 23.93900
H  33.21700 0.57300 24.72800
H  34.68400 0.36600 23.88900
H  32.17700 1.36900 22.95200
H  33.42000 0.56100 22.05300
H  33.70000 2.31800 22.36600
H  29.65100 2.98700 27.64600
H  30.37300 4.65000 27.25600
H  29.36100 4.30300 28.69000
H  32.02600 2.89200 33.31600
H  31.38900 6.84400 34.75000
H  32.12300 5.89700 36.14000
H  30.48200 5.78900 35.75400

