158

Mg 23.34700 -5.34700 44.61000
C  24.92100 -2.66100 43.25000
C  20.37900 -4.56800 43.09100
C  22.07200 -8.46300 45.38000
C  26.52300 -6.64500 45.69200
N  22.75100 -3.70900 43.41000
C  23.56500 -2.74500 42.85700
C  22.78300 -1.70900 41.97600
C  21.31700 -2.16600 42.27200
C  21.43500 -3.58100 43.00700
C  20.56800 -1.17200 43.18600
C  23.18000 -1.82500 40.46900
C  23.86100 -0.59300 39.85200
H  25.07900 -0.74100 38.97200
N  21.48400 -6.30900 44.35300
C  20.36000 -5.83100 43.67800
C  19.22700 -6.76100 43.79100
C  19.72200 -7.89900 44.48400
C  21.13700 -7.58600 44.79100
C  17.95100 -6.48200 43.11800
C  18.92300 -9.10300 44.74300
O  17.69900 -9.07900 44.55200
C  19.43600 -10.43100 45.23000
N  24.23300 -7.36000 45.30900
C  23.47000 -8.38200 45.69900
C  24.25600 -9.47700 46.53300
C  25.67900 -8.77500 46.66200
C  25.44500 -7.43600 45.94400
C  23.70200 -10.00400 47.89800
C  26.85300 -9.71300 46.23100
C  28.15500 -9.77400 47.08100
N  25.36200 -4.79500 44.54800
C  26.51300 -5.42400 44.96200
C  27.66500 -4.59400 44.66300
C  27.07100 -3.45400 43.98100
C  25.64400 -3.66800 43.94300
C  29.12300 -4.93200 44.88900
C  27.30300 -2.20600 43.29100
O  28.36200 -1.57100 43.21400
C  25.88400 -1.67300 42.75600
C  25.59300 -0.36200 43.38600
O  24.74000 -0.09900 44.20700
O  26.50300 0.54900 42.84900
C  26.34200 1.90900 43.28100
H  19.41600 -4.26200 42.67500
H  21.66800 -9.43500 45.67100
H  27.54600 -6.98200 45.87300
H  22.97500 -0.72500 42.40500
H  20.67800 -2.19200 41.38900
H  20.95400 -0.15300 43.15400
H  20.47400 -1.50200 44.22100
H  19.56700 -1.03800 42.77800
H  22.36400 -2.20200 39.85300
H  23.75100 -2.74200 40.31800
H  23.97100 0.13300 40.65700
H  23.14300 -0.21800 39.12300
H  17.97000 -6.84100 42.08900
H  17.66600 -5.43500 43.01100
H  17.16000 -6.92300 43.72400
H  18.74300 -11.24800 45.03100
H  19.67100 -10.36300 46.29300
H  20.19800 -10.66400 44.48600
H  24.28900 -10.35400 45.88600
H  25.86400 -8.45500 47.68800
H  22.66000 -9.68600 47.94200
H  24.15900 -9.48000 48.73800
H  23.71400 -11.08200 48.05600
H  27.12600 -9.41600 45.21900
H  26.48600 -10.72200 46.04500
H  28.85600 -9.21600 46.46000
H  28.56700 -10.78100 47.15400
H  27.95300 -9.38300 48.07800
H  29.31500 -5.55500 45.76300
H  29.53800 -3.94700 45.10200
H  29.52800 -5.36700 43.97600
H  25.98300 -1.45300 41.69300
H  25.50100 2.40100 42.79200
H  27.18200 2.47500 42.87500
H  26.27700 2.01100 44.36400
Mg 7.54300 54.49800 41.36200
C  6.92700 51.10500 40.43800
C  10.78800 54.19200 40.35000
C  7.74700 57.83800 41.54300
C  4.00900 54.69700 41.98300
N  8.60500 52.87800 40.31400
C  8.21400 51.60700 40.10700
C  9.30400 50.89400 39.28000
C  10.63800 51.61300 39.68200
C  10.01200 52.98300 40.22800
C  11.50400 50.93300 40.74300
C  9.00500 51.06300 37.74500
C  9.29900 49.78600 36.86800
H  8.77400 49.76400 35.43200
N  9.12200 55.83200 41.18100
C  10.38700 55.53000 40.72100
C  11.16600 56.71300 40.76400
C  10.36000 57.78200 41.18600
C  9.00500 57.20300 41.38300
C  12.66100 56.67400 40.35300
C  10.79200 59.13000 41.41300
O  11.99200 59.36200 41.29400
C  10.00400 60.26900 41.94400
N  6.03200 56.00100 41.71700
C  6.45700 57.33100 41.68400
C  5.18500 58.21400 41.77300
C  4.00600 57.21900 41.85700
C  4.68700 55.95000 41.83500
C  5.28000 59.41700 42.79500
C  2.99500 57.29800 40.66400
C  1.48600 57.35400 40.97900
N  5.81200 53.15200 41.46000
C  4.53600 53.39900 41.74100
C  3.84300 52.18400 41.71200
C  4.72300 51.23800 41.31500
C  5.93900 51.90900 40.98900
C  2.48000 51.98000 42.29800
C  4.96200 49.82400 41.02900
O  4.28100 48.80200 41.18100
C  6.35800 49.72100 40.28600
C  6.24800 49.32800 38.92300
O  5.68200 49.98600 38.07300
O  6.72200 48.02700 38.81100
C  6.41300 47.46600 37.45300
H  11.86200 54.19600 40.15500
H  7.81800 58.92700 41.58700
H  2.93400 54.60400 42.15100
H  9.16600 49.89200 39.68700
H  11.26000 51.77600 38.80100
H  11.71500 51.63000 41.55300
H  12.41300 50.46200 40.36800
H  10.81800 50.20700 41.17900
H  9.52300 51.92900 37.33300
H  7.94700 51.22500 37.53600
H  8.88100 48.94400 37.42000
H  10.37800 49.64300 36.81200
H  12.99800 57.61400 39.91600
H  12.94100 55.88400 39.65500
H  13.22300 56.44800 41.25900
H  9.61600 59.96200 42.91600
H  9.14000 60.59700 41.36700
H  10.60500 61.16200 42.11800
H  5.03000 58.74400 40.83300
H  3.46100 57.26500 42.79900
H  4.96900 60.29100 42.22400
H  6.27900 59.40600 43.23200
H  4.48300 59.38800 43.53800
H  3.18600 56.37200 40.12200
H  3.26700 58.09100 39.96800
H  1.06900 56.40500 40.64300
H  0.90800 58.09000 40.42000
H  1.34200 57.61200 42.02800
H  2.27600 50.91100 42.34600
H  1.77000 52.49100 41.64600
H  2.32000 52.48700 43.25000
H  6.95200 48.95600 40.78500
H  6.26900 46.44200 37.79800
H  7.25600 47.60200 36.77500
H  5.50600 47.83600 36.97500

