158

Mg 1.09200 8.15000 26.05000
C  2.06000 10.11700 28.74600
C  1.44100 5.31900 27.96800
C  0.51400 6.26700 23.30800
C  1.55900 11.04200 23.89800
N  1.71400 7.77800 28.12600
C  1.95500 8.74100 29.02500
C  2.06800 8.16000 30.43000
C  2.02200 6.61500 30.23400
C  1.66600 6.53600 28.70400
C  3.29800 5.87400 30.80800
C  0.86900 8.68500 31.15400
C  1.00300 8.77500 32.72200
H  2.24400 8.18300 33.44300
N  0.98900 6.00900 25.75200
C  1.07300 5.04500 26.66300
C  0.81700 3.79600 26.05700
C  0.43100 4.01300 24.74600
C  0.65900 5.49200 24.54900
C  0.73700 2.41300 26.82000
C  -0.10800 3.12100 23.76200
O  -0.32100 3.51300 22.61300
C  -0.47800 1.77800 24.03700
N  1.21600 8.58200 23.88900
C  0.86700 7.55600 22.93500
C  0.83300 8.14400 21.48400
C  0.98900 9.67000 21.81900
C  1.15400 9.81100 23.30800
C  2.00200 7.60400 20.62300
C  -0.17200 10.52000 21.30200
C  -0.07900 10.98100 19.79700
N  1.76000 10.15600 26.25200
C  1.82400 11.13500 25.30700
C  2.15000 12.43200 25.94500
C  2.30600 12.04600 27.31100
C  2.01800 10.69900 27.42700
C  2.20300 13.81600 25.35200
C  2.59200 12.61700 28.61100
O  2.90100 13.71300 28.97600
C  2.35100 11.30300 29.57600
C  3.47700 11.00800 30.44000
O  4.53400 10.53800 30.11900
O  3.20200 11.62300 31.60400
C  4.22300 11.69400 32.60000
H  1.50500 4.41500 28.57600
H  0.22400 5.72800 22.40400
H  1.53800 11.95100 23.29300
H  2.98000 8.41200 30.97100
H  1.16300 6.08300 30.64400
H  4.08400 6.56200 31.11900
H  3.55800 5.23700 29.96200
H  3.05500 5.24700 31.66500
H  0.09400 7.94100 30.96800
H  0.51100 9.62500 30.73400
H  0.05000 8.32300 32.99400
H  0.80300 9.78900 33.06800
H  -0.31700 2.19300 26.99500
H  1.43200 2.47300 27.65700
H  0.93600 1.53000 26.21300
H  0.39000 1.19800 24.35000
H  -0.79200 1.24100 23.14200
H  -1.29800 1.72100 24.75300
H  -0.15300 8.06700 21.02700
H  1.82000 10.16500 21.31600
H  2.69300 8.34600 20.22200
H  1.61500 7.09300 19.74100
H  2.56500 6.89800 21.23300
H  -0.16400 11.37300 21.98100
H  -1.10500 9.96500 21.39700
H  -0.21000 10.12100 19.14000
H  0.88600 11.40600 19.52300
H  -0.87700 11.67000 19.52400
H  1.16600 14.14800 25.31000
H  2.57800 13.74200 24.33100
H  2.88600 14.46200 25.90300
H  1.52000 11.48900 30.25500
H  4.86000 12.57700 32.52700
H  4.92400 10.85900 32.57800
H  3.69800 11.77400 33.55200
Mg 17.20100 -2.25900 27.47900
C  16.54900 -0.00500 30.19100
C  19.13500 -4.09600 29.54400
C  18.51800 -3.77100 24.71700
C  15.70700 0.19900 25.36400
N  17.83600 -2.00700 29.58000
C  17.37200 -1.12000 30.58800
C  17.97400 -1.38000 31.98700
C  18.94900 -2.60200 31.64000
C  18.66200 -2.91200 30.16500
C  20.53700 -2.47600 31.88600
C  16.93100 -1.65400 33.07500
C  17.38200 -1.29500 34.47500
H  18.90200 -1.44700 34.81900
N  18.51200 -3.84200 27.16900
C  19.17500 -4.53800 28.16400
C  19.98900 -5.53900 27.57500
C  19.72600 -5.53000 26.16300
C  18.86400 -4.37700 25.96200
C  20.82100 -6.48100 28.43400
C  20.08400 -6.48700 25.06500
O  19.94700 -6.26500 23.85600
C  20.84500 -7.68100 25.37900
N  16.99200 -1.92100 25.44200
C  17.68700 -2.63600 24.46700
C  17.48100 -2.02300 23.01000
C  16.38900 -0.94800 23.32800
C  16.25700 -0.92500 24.79400
C  18.79000 -1.53600 22.28500
C  15.05300 -1.19700 22.67100
C  14.42800 0.02300 21.99800
N  16.28000 -0.34400 27.64200
C  15.64600 0.51700 26.71900
C  15.04100 1.65200 27.38900
C  15.30600 1.48700 28.73200
C  16.11500 0.28200 28.86100
C  14.03100 2.60700 26.70100
C  15.06600 2.02200 30.01200
O  14.31800 2.95900 30.35600
C  15.86500 1.04500 31.02500
C  16.75600 1.83800 31.93900
O  17.90400 2.17500 31.67600
O  16.09300 2.07600 33.14700
C  16.79700 2.96900 34.08900
H  19.72400 -4.70900 30.22900
H  19.13800 -4.11700 23.88700
H  15.16900 0.88000 24.70100
H  18.55100 -0.49400 32.25300
H  18.64200 -3.39500 32.32200
H  21.05600 -3.39700 32.15000
H  20.72300 -1.69600 32.62500
H  20.90100 -2.18500 30.90000
H  16.76000 -2.73000 33.03900
H  15.95700 -1.21400 32.86400
H  16.90600 -2.06900 35.07800
H  16.97000 -0.36500 34.86700
H  21.27900 -5.89300 29.23000
H  21.63100 -7.00900 27.93100
H  20.25800 -7.18300 29.05000
H  20.24300 -8.24600 26.09100
H  21.76700 -7.28400 25.80300
H  21.16900 -8.39300 24.62000
H  17.04500 -2.80300 22.38500
H  16.69400 0.04600 23.00100
H  18.57800 -0.56600 21.83500
H  18.98900 -2.25000 21.48500
H  19.67300 -1.43100 22.91500
H  14.31800 -1.50600 23.41400
H  15.00300 -1.99400 21.93000
H  13.72300 -0.32400 21.24200
H  15.18900 0.62800 21.50400
H  13.91800 0.65500 22.72500
H  14.36300 2.97000 25.72900
H  14.10000 3.47300 27.36000
H  13.03700 2.17300 26.58800
H  15.10400 0.60200 31.66800
H  17.70000 2.58700 34.56400
H  16.07700 3.17200 34.88200
H  16.96700 3.88600 33.52400

