158

Mg 35.45600 1.00300 29.17700
C  33.08000 2.18700 31.64800
C  37.91500 0.94600 31.71900
C  37.65100 -0.07100 26.91700
C  32.99800 1.56800 26.70100
N  35.42900 1.50200 31.40100
C  34.31900 1.94800 32.21400
C  34.68400 1.77900 33.72800
C  36.22800 1.51200 33.63100
C  36.55300 1.35400 32.17000
C  37.14900 2.62600 34.42300
C  33.86300 0.63500 34.40300
C  33.16700 0.87000 35.79300
H  33.66100 2.12800 36.62100
N  37.42400 0.47700 29.28900
C  38.27900 0.52300 30.41900
C  39.62100 0.11000 30.02500
C  39.57500 -0.24400 28.66500
C  38.15500 0.03600 28.24400
C  40.74000 -0.11900 31.03300
C  40.62000 -0.91300 27.75600
O  40.33100 -1.36700 26.60800
C  41.98600 -1.15200 28.33000
N  35.33300 0.92400 27.03900
C  36.34800 0.30700 26.34600
C  35.99300 0.10900 24.85600
C  34.51100 0.55300 24.83400
C  34.30100 1.10700 26.27300
C  37.00100 0.68900 23.90900
C  33.53700 -0.63600 24.49100
C  33.46100 -0.97900 23.00000
N  33.44700 1.80700 29.07200
C  32.62800 1.90200 28.03000
C  31.32800 2.39700 28.48800
C  31.45300 2.53100 29.90100
C  32.76200 2.14000 30.20600
C  30.07500 2.68700 27.66200
C  30.81100 2.89800 31.12300
O  29.68600 3.33000 31.39300
C  31.81900 2.65100 32.31300
C  31.93500 3.95000 33.00900
O  32.90600 4.60700 33.19100
O  30.79600 4.26300 33.74700
C  30.83800 5.48200 34.59100
H  38.71500 1.15800 32.43200
H  38.25400 -0.54900 26.14200
H  32.24900 1.62300 25.90800
H  34.49900 2.77000 34.14500
H  36.43400 0.56500 34.13000
H  36.58500 3.20000 35.15800
H  37.68600 3.28900 33.74500
H  37.94400 2.18200 35.02200
H  34.53300 -0.21300 34.54800
H  33.05600 0.38000 33.71600
H  33.16300 -0.03100 36.40700
H  32.10500 1.09500 35.70000
H  41.54000 0.58400 30.80100
H  41.09400 -1.14800 30.97200
H  40.45600 0.02100 32.07600
H  42.75200 -1.22100 27.55800
H  41.97800 -2.04000 28.96100
H  42.33700 -0.27100 28.86800
H  36.06600 -0.96300 24.67100
H  34.42100 1.36800 24.11600
H  37.53000 1.50700 24.40000
H  36.51500 1.26400 23.12100
H  37.57700 -0.12600 23.47400
H  32.51600 -0.33000 24.71900
H  33.68400 -1.53300 25.09200
H  34.35700 -0.65200 22.47200
H  32.53500 -0.64000 22.53600
H  33.52300 -2.06200 22.89400
H  29.63300 1.83800 27.14100
H  30.46400 3.45200 26.99100
H  29.32200 3.23900 28.22400
H  31.40700 1.89600 32.98200
H  29.92100 5.73200 35.12400
H  31.22300 6.31200 33.99800
H  31.55700 5.39500 35.40600
Mg -11.15700 17.22700 42.35800
C  -7.60400 18.24500 42.36500
C  -11.92500 20.59900 42.34000
C  -14.25600 16.32400 41.75100
C  -10.04800 13.89200 42.03700
N  -9.93400 19.21200 42.15100
C  -8.52800 19.34200 42.35700
C  -8.17100 20.75000 42.23600
C  -9.42200 21.48600 42.58500
C  -10.51500 20.41400 42.33300
C  -9.47300 22.06500 44.05200
C  -7.61000 20.98100 40.79100
C  -6.19800 21.61100 40.74900
H  -5.21500 21.04400 39.72700
N  -12.86400 18.33600 41.96600
C  -12.97800 19.68300 42.06500
C  -14.43900 19.96900 41.90600
C  -15.16000 18.74300 41.78400
C  -14.09600 17.74200 41.82500
C  -14.98500 21.41200 41.96200
C  -16.70000 18.54000 41.71200
O  -17.41600 19.54300 41.89700
C  -17.38200 17.24700 41.43500
N  -11.95700 15.35300 42.01300
C  -13.31500 15.27800 41.85400
C  -13.81400 13.83300 41.99800
C  -12.48700 13.00600 42.06600
C  -11.41700 14.14000 41.95700
C  -14.84000 13.60300 43.14900
C  -12.43400 11.86000 40.96200
C  -11.97400 10.53500 41.50500
N  -9.26600 16.23000 42.27200
C  -9.06200 14.86000 42.14600
C  -7.57900 14.60700 42.30400
C  -7.06900 15.96100 42.29100
C  -8.07800 16.90100 42.33200
C  -6.78400 13.38500 42.26000
C  -5.78700 16.61800 42.38800
O  -4.70400 16.12500 42.44300
C  -6.07400 18.20000 42.31600
C  -5.51400 18.75400 43.51300
O  -5.76600 18.38900 44.64100
O  -4.60600 19.71700 43.14800
C  -3.73000 20.29300 44.21800
H  -12.20100 21.65100 42.43100
H  -15.26700 15.91200 41.73100
H  -9.69200 12.86900 41.89600
H  -7.35400 21.00100 42.91100
H  -9.55700 22.35500 41.94200
H  -10.15500 21.40200 44.58400
H  -9.87300 23.08000 44.06200
H  -8.51600 21.94800 44.56000
H  -8.24100 21.76200 40.36700
H  -7.63300 20.04800 40.22800
H  -5.85000 21.73800 41.77400
H  -6.34500 22.63000 40.39200
H  -15.35700 21.76100 40.99800
H  -14.27100 22.05100 42.48100
H  -15.90100 21.31600 42.54500
H  -18.44300 17.49100 41.48400
H  -17.09200 16.67800 42.31800
H  -17.04800 16.70900 40.54700
H  -14.36400 13.70000 41.06600
H  -12.41100 12.64500 43.09200
H  -14.48600 12.77900 43.76800
H  -15.74700 13.23400 42.67100
H  -14.97400 14.53700 43.69600
H  -11.77800 12.14400 40.14000
H  -13.38600 11.69800 40.45600
H  -11.17900 10.09200 40.90500
H  -12.80400 9.84200 41.37200
H  -11.73800 10.63000 42.56500
H  -7.46600 12.66000 42.70400
H  -5.94800 13.50000 42.95000
H  -6.29100 13.18200 41.30900
H  -5.59300 18.60300 41.42500
H  -2.95700 19.57900 44.50200
H  -4.36100 20.47800 45.08700
H  -3.21400 21.16800 43.82300

