158

Mg 9.30100 3.95900 27.17000
C  10.33700 2.36800 30.03100
C  7.19200 5.85100 29.00600
C  7.89600 4.91400 24.30000
C  10.46200 1.01700 25.31500
N  8.65300 3.99600 29.29100
C  9.43700 3.43900 30.24800
C  9.09200 4.00800 31.61100
C  7.84400 4.95100 31.35900
C  7.89400 5.03200 29.82400
C  6.45700 4.48500 31.93900
C  10.36200 4.51100 32.33000
C  10.06300 5.26000 33.60500
H  11.14600 5.29400 34.68200
N  7.79600 5.29500 26.71300
C  6.98600 5.98100 27.62500
C  6.20300 6.94800 26.84300
C  6.50600 6.76300 25.50400
C  7.46500 5.57900 25.43200
C  5.22200 7.95200 27.48900
C  6.00300 7.54900 24.25700
O  6.49200 7.37000 23.17300
C  4.88200 8.55900 24.49100
N  9.19600 2.97800 25.07500
C  8.56600 3.70500 24.11000
C  8.88400 3.13900 22.72900
C  9.62300 1.85700 23.01000
C  9.81900 1.89800 24.52800
C  7.76100 3.22500 21.64700
C  10.88200 1.46200 22.25200
C  10.99300 0.07800 21.47700
N  10.30900 2.20100 27.56600
C  10.72500 1.18200 26.69400
C  11.46900 0.17900 27.46300
C  11.42500 0.65100 28.76900
C  10.62500 1.84200 28.79800
C  12.20700 -1.03000 26.89400
C  11.87300 0.42100 30.09300
O  12.56700 -0.44400 30.60800
C  11.10700 1.46600 30.97500
C  10.14900 0.79400 31.88300
O  9.14600 0.15300 31.55200
O  10.70500 0.90600 33.21800
C  9.90500 0.41700 34.30600
H  6.54800 6.46900 29.63400
H  7.69400 5.34500 23.31700
H  10.85500 0.20000 24.70700
H  8.86500 3.15100 32.24500
H  8.10000 5.88500 31.85800
H  6.47500 3.46700 32.32800
H  5.74700 4.46000 31.11200
H  5.95300 5.08800 32.69400
H  11.09100 5.04800 31.72400
H  10.96600 3.64700 32.60600
H  9.23500 4.75900 34.10700
H  9.78300 6.26800 33.30100
H  4.23900 7.68300 27.10300
H  5.53600 8.93800 27.14600
H  5.30500 7.83000 28.56900
H  4.12300 8.16600 25.16800
H  4.34000 8.69900 23.55600
H  5.31200 9.47000 24.90800
H  9.65300 3.75000 22.25600
H  8.89900 1.04400 22.94200
H  6.88700 3.63100 22.15700
H  7.38400 2.29900 21.21400
H  8.06600 3.86900 20.82200
H  11.67700 1.47900 22.99700
H  11.24200 2.27000 21.61600
H  10.00000 -0.36500 21.41300
H  11.75900 -0.55200 21.93000
H  11.32500 0.19800 20.44600
H  13.29000 -0.97800 27.00200
H  12.02100 -1.13300 25.82500
H  11.84100 -1.90500 27.43300
H  11.81300 2.01000 31.60300
H  10.06700 1.04300 35.18400
H  10.41600 -0.45100 34.72300
H  8.84100 0.20900 34.19400
Mg 43.83200 3.84400 48.18400
C  41.59500 6.43500 47.38100
C  41.24300 1.56300 47.77100
C  46.06900 1.28400 48.62500
C  46.43400 6.13300 47.98100
N  41.63600 4.03300 47.61000
C  40.94500 5.20800 47.33600
C  39.54300 4.84800 46.99900
C  39.39000 3.31200 47.33400
C  40.81100 2.92200 47.50100
C  38.53700 3.02400 48.53200
C  39.21200 5.37700 45.53700
C  38.05200 6.40300 45.58400
H  37.26700 6.38500 44.21600
N  43.70000 1.76900 48.25300
C  42.52000 1.04300 48.12500
C  42.77700 -0.41400 48.25700
C  44.21400 -0.50800 48.42100
C  44.76700 0.88800 48.44100
C  41.69300 -1.49500 48.30100
C  44.87600 -1.80200 48.61400
O  44.14800 -2.79500 48.73800
C  46.44800 -1.92300 48.36100
N  46.02000 3.73800 48.19100
C  46.69400 2.58400 48.49200
C  48.23700 2.86900 48.47600
C  48.30800 4.41000 48.20600
C  46.79200 4.79600 47.99400
C  48.95900 2.41500 49.85700
C  49.13900 4.82500 46.97400
C  50.72100 4.65100 47.18200
N  44.06200 5.86600 47.85800
C  45.17800 6.70000 47.94600
C  44.79000 8.10200 47.76600
C  43.39900 8.00300 47.47000
C  42.98900 6.63200 47.59700
C  45.68500 9.26300 47.49500
C  42.25600 8.79100 47.10700
O  42.17500 10.01700 46.89600
C  41.04100 7.83400 47.06100
C  40.03200 8.45700 48.02800
O  39.85400 8.17100 49.20000
O  39.27100 9.37000 47.40200
C  38.40700 10.19300 48.21300
H  40.42000 0.84600 47.76000
H  46.83500 0.52300 48.78800
H  47.28100 6.81600 48.06900
H  38.90800 5.39200 47.69800
H  38.92200 2.82000 46.48100
H  39.24100 2.97100 49.36300
H  37.87200 2.16100 48.52000
H  37.86700 3.86700 48.70200
H  38.96400 4.54200 44.88200
H  39.99200 5.94600 45.03100
H  38.28000 7.45900 45.73200
H  37.37000 6.09200 46.37500
H  41.72100 -2.04000 47.35800
H  40.65500 -1.17300 48.38000
H  41.86700 -2.05700 49.21900
H  46.74000 -1.41000 47.44500
H  46.60800 -2.97400 48.12300
H  47.17400 -1.55700 49.08700
H  48.70300 2.37200 47.62500
H  48.86400 4.85100 49.03300
H  49.80700 3.05700 50.09800
H  49.35700 1.42000 49.66000
H  48.22500 2.41200 50.66200
H  49.03000 5.90200 46.84700
H  48.86000 4.25500 46.08800
H  51.18500 4.25500 46.27800
H  50.90100 4.09300 48.10100
H  51.27000 5.57100 47.38300
H  46.65600 8.91100 47.14800
H  45.92200 9.72000 48.45600
H  45.23600 9.95500 46.78200
H  40.56300 7.84600 46.08200
H  37.91900 9.71200 49.06100
H  37.57300 10.62200 47.65700
H  38.98400 11.01000 48.64600

