158

Mg 0.30300 42.44400 25.73700
C  2.12300 42.55200 28.86600
C  -2.42000 41.32000 27.50800
C  -1.10700 41.90300 22.85300
C  3.50700 43.13200 24.09400
N  -0.10000 42.12600 27.91300
C  0.72100 42.32600 28.92300
C  0.05900 42.18100 30.21200
C  -1.32400 41.55400 29.72800
C  -1.26900 41.59000 28.28000
C  -1.61300 40.08300 30.14500
C  -0.11700 43.43300 31.05900
C  -0.30400 43.25900 32.58100
H  -0.33400 41.93100 33.37700
N  -1.49600 41.74800 25.22400
C  -2.51300 41.39400 26.06700
C  -3.73500 41.14300 25.40200
C  -3.37300 41.27400 24.00800
C  -1.92700 41.62000 23.94900
C  -5.03400 40.82900 26.12000
C  -4.35100 41.18000 22.90200
O  -4.01700 41.35400 21.69700
C  -5.84400 40.97600 23.22500
N  1.19400 42.47900 23.79100
C  0.26700 42.38600 22.79800
C  0.89300 42.82500 21.43400
C  2.36400 43.12500 21.79600
C  2.37200 42.88900 23.33900
C  0.92400 41.64300 20.35500
C  2.82500 44.56100 21.32700
C  4.11800 44.51300 20.45800
N  2.42500 42.71200 26.29100
C  3.55000 43.02000 25.48100
C  4.63900 43.35300 26.41300
C  4.12400 43.11800 27.71900
C  2.82000 42.71600 27.61700
C  5.99200 43.84200 25.88900
C  4.44400 43.09800 29.13500
O  5.48400 43.32700 29.68600
C  3.11900 42.82700 29.96700
C  3.42800 41.61100 30.87300
O  3.74100 40.53400 30.37100
O  3.33400 41.89800 32.15600
C  4.04600 40.85800 33.05000
H  -3.25600 41.16700 28.19300
H  -1.68500 41.80900 21.93200
H  4.38600 43.46900 23.54100
H  0.62100 41.42600 30.76200
H  -2.15100 42.14900 30.11300
H  -1.11500 39.91600 31.10000
H  -1.23500 39.36300 29.42000
H  -2.66200 39.83000 30.30000
H  -1.06100 43.96000 30.92100
H  0.71200 44.12600 30.91800
H  -1.30100 43.67800 32.71700
H  0.46500 43.91700 32.98500
H  -5.55200 41.77800 26.25700
H  -4.91000 40.57000 27.17100
H  -5.59500 40.02500 25.64400
H  -6.27400 41.66900 23.94900
H  -6.07800 39.93900 23.46800
H  -6.51900 41.31900 22.44200
H  0.32100 43.64100 20.99400
H  3.03400 42.39500 21.34400
H  1.85700 41.57800 19.79500
H  0.07600 41.82300 19.69300
H  0.70400 40.71900 20.88900
H  3.04700 45.08900 22.25400
H  2.04800 45.04600 20.73600
H  5.02000 44.76900 21.01500
H  4.20200 45.00500 19.48900
H  4.33700 43.47500 20.20800
H  6.43300 44.43800 26.68800
H  5.85900 44.45200 24.99600
H  6.55800 42.91600 25.79400
H  2.90800 43.64600 30.65500
H  4.22600 41.32200 34.02000
H  4.97300 40.54800 32.56700
H  3.35400 40.01900 33.12700
Mg -5.81300 25.10500 25.31200
C  -4.14500 26.37900 28.24800
C  -7.61700 23.23100 27.16600
C  -6.77400 23.78700 22.48700
C  -3.29600 26.93400 23.52900
N  -5.79900 24.78100 27.49700
C  -5.19300 25.49100 28.51700
C  -5.71800 25.08500 29.86900
C  -6.72900 23.91100 29.55300
C  -6.74700 23.92700 28.00600
C  -6.37700 22.46400 30.10500
C  -6.52300 26.26600 30.45900
C  -7.14900 26.01700 31.86700
H  -6.60500 24.82100 32.67200
N  -7.07800 23.73600 24.87900
C  -7.86000 23.10500 25.82300
C  -8.79500 22.23600 25.13700
C  -8.61800 22.49200 23.79200
C  -7.41700 23.32600 23.67800
C  -9.77500 21.36000 25.80700
C  -9.36800 21.96500 22.63300
O  -9.08300 22.24700 21.46100
C  -10.43900 21.00700 22.83500
N  -4.86100 25.05400 23.30700
C  -5.58900 24.51000 22.33100
C  -4.88800 24.68800 20.93100
C  -3.91600 25.92900 21.24800
C  -4.00500 25.93800 22.77800
C  -4.18100 23.36800 20.45000
C  -4.31500 27.30800 20.53300
C  -3.12800 27.95600 19.77200
N  -4.15100 26.47400 25.77600
C  -3.28500 27.17600 24.89500
C  -2.44200 28.02200 25.62100
C  -2.68900 27.66400 26.95800
C  -3.67000 26.72700 26.98100
C  -1.63600 29.19700 25.15600
C  -2.33600 28.04300 28.34300
O  -1.50600 28.76100 28.90800
C  -3.27800 27.15700 29.23000
C  -2.64700 26.31700 30.27800
O  -1.91100 25.35600 30.17100
O  -3.06400 26.79600 31.50400
C  -2.69400 26.04400 32.73300
H  -8.28900 22.67100 27.81900
H  -7.03900 23.30900 21.54200
H  -2.68400 27.44700 22.78400
H  -4.95300 24.77700 30.58300
H  -7.72500 24.17800 29.90700
H  -7.29800 22.06000 30.52600
H  -5.60300 22.50200 30.87200
H  -6.14400 21.79000 29.28100
H  -7.43700 26.32800 29.86900
H  -5.90300 27.16000 30.39200
H  -8.23500 25.96600 31.78500
H  -6.85900 26.90400 32.42900
H  -10.76000 21.78700 25.62200
H  -9.52500 21.29200 26.86600
H  -9.72300 20.35200 25.39600
H  -10.74700 20.71900 21.83000
H  -11.32500 21.40300 23.33200
H  -10.19700 20.07500 23.34600
H  -5.69200 24.91400 20.23100
H  -2.94800 25.61500 20.85900
H  -4.23900 22.65500 21.27200
H  -3.15000 23.53900 20.13700
H  -4.82700 23.04200 19.63400
H  -4.80900 28.07600 21.12800
H  -5.18000 27.00900 19.94100
H  -2.91200 27.38400 18.87000
H  -2.27100 28.15900 20.41500
H  -3.52500 28.93100 19.49200
H  -2.22900 29.84200 24.50800
H  -0.89200 28.85200 24.43800
H  -1.24800 29.77000 25.99900
H  -3.82400 27.92900 29.77400
H  -2.80400 24.96200 32.66500
H  -3.29600 26.48400 33.52700
H  -1.62500 26.12600 32.92800

