158

Mg 35.19100 1.99100 29.90200
C  33.26300 3.42200 32.17900
C  37.95500 2.16000 32.18500
C  37.32400 1.01000 27.39500
C  32.67500 2.36500 27.38900
N  35.47800 2.58900 31.99800
C  34.47400 3.07700 32.78400
C  34.91800 3.19200 34.24100
C  36.46200 2.95400 34.22500
C  36.69300 2.51400 32.70700
C  37.45400 4.17900 34.68300
C  34.20600 2.16600 35.22800
C  33.54900 2.75900 36.48300
H  34.27200 3.82900 37.19000
N  37.29900 1.52800 29.85500
C  38.23300 1.69200 30.88500
C  39.50300 1.26200 30.38900
C  39.31200 0.83900 28.99300
C  37.94500 1.08000 28.68200
C  40.71700 1.23400 31.25200
C  40.41100 0.38100 28.00300
O  40.18800 0.03200 26.82800
C  41.80500 0.13000 28.55900
N  34.97200 1.58400 27.74000
C  36.03900 1.27000 26.97500
C  35.59500 1.27000 25.51100
C  34.07300 1.32000 25.52000
C  33.87100 1.76300 27.00500
C  36.33100 2.45500 24.73100
C  33.32600 0.05600 25.07900
C  32.38500 0.23300 23.88000
N  33.32200 2.65100 29.78500
C  32.37700 2.67900 28.72400
C  31.19100 3.29100 29.27600
C  31.49900 3.63200 30.57500
C  32.81300 3.15600 30.83200
C  29.95900 3.58900 28.47000
C  30.91700 4.15900 31.77500
O  29.76300 4.54800 31.97100
C  31.99100 3.98100 32.88800
C  32.32700 5.25100 33.52000
O  33.19200 6.12700 33.29100
O  31.33900 5.39400 34.49200
C  31.37300 6.56600 35.39500
H  38.79400 2.17700 32.88400
H  37.91300 0.79800 26.50000
H  31.95900 2.41800 26.56600
H  34.70000 4.23000 34.49000
H  36.84300 2.19200 34.90500
H  36.91000 5.06200 35.01600
H  37.92100 4.66900 33.82900
H  38.27900 3.94800 35.35700
H  34.87200 1.35200 35.51500
H  33.49300 1.62200 34.60800
H  33.28300 2.01400 37.23200
H  32.56900 3.12600 36.17800
H  41.13500 0.23100 31.34700
H  40.60700 1.57500 32.28100
H  41.49000 1.79900 30.73100
H  42.37200 1.05800 28.48300
H  42.34200 -0.55500 27.90300
H  41.87000 -0.40100 29.50800
H  35.93900 0.30100 25.14900
H  33.65100 2.01700 24.79600
H  37.10100 1.98800 24.11800
H  36.88700 3.14200 25.36900
H  35.70100 3.05500 24.07500
H  32.72100 -0.29400 25.91600
H  34.04700 -0.73000 24.85600
H  32.38100 -0.74100 23.39100
H  32.56900 1.02800 23.15800
H  31.39200 0.38800 24.30200
H  29.22800 2.78200 28.52000
H  30.18300 3.79600 27.42300
H  29.42000 4.42500 28.91600
H  31.51600 3.29200 33.58700
H  32.28600 6.62400 35.98900
H  30.64000 6.36700 36.17700
H  31.27500 7.51800 34.87400
Mg -2.07700 34.76500 27.22500
C  -3.55900 33.00400 30.00400
C  -0.57300 36.73500 29.24100
C  -0.75700 36.04300 24.44000
C  -3.98600 32.50500 25.17600
N  -2.21400 34.87700 29.29000
C  -2.81100 34.21700 30.28900
C  -2.50000 34.77100 31.70700
C  -1.72500 36.07700 31.38600
C  -1.51500 35.86100 29.88600
C  -2.30800 37.46200 31.74100
C  -1.64300 33.68700 32.49700
C  -2.35300 33.04800 33.68200
H  -1.77900 33.30100 35.13000
N  -0.88700 36.16600 26.90200
C  -0.21300 36.85300 27.88900
C  0.74100 37.75300 27.28400
C  0.74200 37.49900 25.92300
C  -0.34200 36.56200 25.68300
C  1.51800 38.69000 28.19200
C  1.55300 38.23800 24.78100
O  1.29800 38.17600 23.63600
C  2.58700 39.29200 25.22800
N  -2.49300 34.44100 25.05100
C  -1.69000 35.05300 24.13900
C  -2.21700 34.71100 22.74900
C  -2.98700 33.34500 23.02200
C  -3.17800 33.41000 24.53400
C  -3.08900 35.89500 22.23600
C  -2.38500 32.04600 22.50400
C  -1.02300 31.57900 23.08000
N  -3.48200 33.11100 27.45400
C  -4.15000 32.31800 26.53600
C  -4.94200 31.32300 27.13500
C  -4.68000 31.50500 28.48400
C  -3.83500 32.63500 28.68000
C  -5.74600 30.22200 26.46800
C  -4.84400 30.96800 29.83700
O  -5.40300 29.96400 30.19500
C  -4.23700 31.97500 30.84300
C  -5.36500 32.48300 31.67400
O  -6.05200 33.41800 31.31100
O  -5.55300 31.70600 32.75600
C  -6.52800 32.22600 33.68700
H  -0.07900 37.29700 30.03600
H  -0.40100 36.59900 23.57000
H  -4.33400 31.70500 24.52000
H  -3.41600 35.00200 32.24900
H  -0.75800 36.06700 31.88900
H  -2.75100 37.85700 30.82700
H  -1.50500 38.14600 32.01500
H  -3.03700 37.36600 32.54600
H  -0.69700 34.19200 32.69100
H  -1.49100 32.85200 31.81200
H  -2.49400 31.98000 33.52100
H  -3.35600 33.47100 33.62200
H  2.53500 38.47000 27.86500
H  1.36900 38.63300 29.27100
H  1.35300 39.70900 27.84200
H  3.40700 38.65000 25.55000
H  2.30100 39.92100 26.07200
H  2.98800 39.92200 24.43400
H  -1.37400 34.56900 22.07200
H  -4.01700 33.34700 22.66500
H  -2.86100 36.79100 22.81300
H  -4.15800 35.70500 22.32400
H  -2.75800 36.06800 21.21200
H  -2.18000 32.23500 21.45000
H  -3.10600 31.22800 22.51400
H  -0.89400 32.10100 24.02800
H  -0.29500 31.90500 22.33600
H  -1.05500 30.51000 23.29300
H  -5.33200 30.01200 25.48200
H  -6.77300 30.55800 26.32600
H  -5.70300 29.34700 27.11700
H  -3.61000 31.39900 31.52300
H  -6.25000 33.13800 34.21500
H  -6.80000 31.45000 34.40200
H  -7.45600 32.48500 33.17800

