158

Mg 46.89800 25.34100 27.90300
C  47.42600 27.44400 30.65400
C  46.40800 22.71400 30.13700
C  46.88100 23.22800 25.28500
C  47.94800 27.95600 25.86000
N  46.88000 25.11700 30.16500
C  46.99100 26.16300 31.05900
C  46.79800 25.65800 32.43000
C  46.77000 24.07700 32.28000
C  46.65200 23.95600 30.80000
C  48.05100 23.30900 32.75900
C  45.59100 26.36200 33.09900
C  44.92600 25.57000 34.20800
H  44.70600 26.19000 35.59800
N  46.49800 23.28500 27.71400
C  46.26400 22.39700 28.77200
C  45.93600 21.12100 28.17900
C  46.15900 21.20800 26.78600
C  46.49300 22.64400 26.53000
C  45.36600 19.90700 29.00100
C  46.06800 20.08900 25.75500
O  46.40800 20.27300 24.56900
C  45.68500 18.63000 26.07300
N  47.17000 25.64300 25.82800
C  47.20200 24.56200 24.98900
C  47.36400 25.06100 23.53300
C  47.36300 26.59900 23.75400
C  47.45300 26.81000 25.21700
C  48.74800 24.46100 23.02700
C  46.09700 27.33000 23.28000
C  44.77800 26.68400 23.71500
N  47.58300 27.26000 28.14200
C  48.00200 28.22100 27.25200
C  48.35200 29.44200 27.94200
C  48.10200 29.16900 29.30900
C  47.73300 27.82500 29.32900
C  48.99700 30.64600 27.31800
C  48.22000 29.71700 30.59200
O  48.67800 30.76500 30.92200
C  47.80000 28.64600 31.53400
C  48.85000 28.32500 32.59700
O  50.02600 28.13500 32.34300
O  48.23500 28.39000 33.81000
C  49.08200 28.14700 34.99800
H  46.21600 21.94100 30.88400
H  46.84100 22.54100 24.43800
H  48.18800 28.75300 25.15300
H  47.72700 25.90900 32.94100
H  45.87800 23.55300 32.62500
H  47.68000 22.43900 33.30200
H  48.67600 23.88100 33.44500
H  48.74100 22.89700 32.02400
H  44.88900 26.63300 32.31000
H  45.89900 27.24300 33.66000
H  45.46600 24.63600 34.36200
H  43.91700 25.32200 33.87800
H  44.35700 19.67700 28.66000
H  45.34600 20.22900 30.04200
H  46.01900 19.03600 28.93000
H  44.71800 18.73900 26.56400
H  46.40500 18.27200 26.80900
H  45.65000 17.91300 25.25200
H  46.60100 24.86300 22.78000
H  48.29800 27.03600 23.40400
H  48.79900 23.41900 23.34500
H  49.65000 25.03900 23.22800
H  48.57800 24.46200 21.95100
H  46.18400 27.50500 22.20800
H  46.07200 28.32800 23.71800
H  44.30000 26.33100 22.80100
H  44.08100 27.38200 24.18000
H  44.72300 25.88700 24.45600
H  48.34700 30.98000 26.50900
H  49.96800 30.57100 26.82800
H  49.02200 31.48300 28.01600
H  46.92200 28.95100 32.10400
H  49.51900 27.15500 34.87900
H  48.53500 28.19200 35.94000
H  49.92500 28.83500 35.05200
Mg -5.43500 24.49100 27.39300
C  -3.68300 26.14900 30.05700
C  -6.31500 22.19800 29.68900
C  -6.33800 22.49400 24.86500
C  -3.86200 26.63400 25.24600
N  -5.00800 24.25300 29.68200
C  -4.42000 25.06200 30.51000
C  -4.59700 24.63200 31.93100
C  -5.34100 23.28900 31.76900
C  -5.60600 23.24000 30.27700
C  -4.56200 22.01900 32.15800
C  -5.39800 25.70000 32.74900
C  -4.95800 25.93700 34.17600
H  -5.59100 25.00700 35.18500
N  -6.39700 22.64800 27.28000
C  -6.73300 21.88400 28.37000
C  -7.44200 20.74200 27.86600
C  -7.42800 20.81100 26.47700
C  -6.59900 21.94400 26.11000
C  -7.88300 19.63400 28.68900
C  -8.03100 19.86200 25.41900
O  -7.66000 19.81300 24.24800
C  -9.06900 18.73300 25.95100
N  -5.15500 24.58300 25.30400
C  -5.64700 23.67400 24.43100
C  -5.49400 24.13000 22.98400
C  -4.64800 25.43600 23.15500
C  -4.57600 25.62900 24.61100
C  -4.91500 22.99300 22.06500
C  -5.10200 26.74100 22.43100
C  -3.93100 27.43100 21.58900
N  -4.20100 26.07600 27.58300
C  -3.62300 26.89000 26.59500
C  -2.80600 27.93600 27.21100
C  -2.75700 27.67000 28.53900
C  -3.66000 26.58600 28.73600
C  -2.19200 29.03700 26.38400
C  -2.23300 28.13200 29.79000
O  -1.40600 28.98600 30.07400
C  -2.90300 27.16700 30.84200
C  -1.73400 26.44700 31.46200
O  -1.15500 25.40000 31.03700
O  -1.41500 26.97400 32.72000
C  -0.44300 26.21000 33.51800
H  -6.64200 21.47800 30.44200
H  -6.90800 22.14200 24.00200
H  -3.43500 27.34800 24.53900
H  -3.62200 24.42200 32.37100
H  -6.32000 23.18200 32.23800
H  -3.77200 22.24700 32.87400
H  -4.01200 21.65400 31.29100
H  -5.13600 21.22100 32.63000
H  -6.45300 25.44000 32.65800
H  -5.31300 26.60400 32.14600
H  -5.12200 26.98200 34.44200
H  -3.89600 25.69500 34.15700
H  -8.91600 19.35600 28.47600
H  -7.72800 19.91700 29.73000
H  -7.37400 18.69800 28.45700
H  -8.41100 17.97100 26.36800
H  -9.33100 18.21900 25.02600
H  -9.97000 19.11800 26.42700
H  -6.42700 24.29800 22.44600
H  -3.62500 25.20500 22.85700
H  -4.19600 22.48600 22.70800
H  -4.48800 23.19700 21.08300
H  -5.70100 22.26200 21.87700
H  -5.48500 27.48900 23.12600
H  -5.91900 26.60600 21.72200
H  -3.59300 28.31300 22.13200
H  -4.40500 27.73100 20.65500
H  -3.10900 26.79900 21.25100
H  -2.94900 29.63800 25.88100
H  -1.59900 28.62800 25.56500
H  -1.61300 29.76100 26.95700
H  -3.41800 27.79200 31.57100
H  0.56900 26.56500 33.32100
H  -0.39600 25.13700 33.33500
H  -0.72900 26.34600 34.56100

