158

Mg 42.62200 42.04900 26.84100
C  41.76200 44.17500 29.45000
C  43.52900 39.71200 29.23900
C  43.68100 40.07900 24.37400
C  41.80200 44.54900 24.53200
N  42.72900 42.09300 29.15800
C  42.31000 43.04400 29.97700
C  42.20400 42.54500 31.48700
C  43.07000 41.14800 31.31000
C  43.02300 40.87400 29.78700
C  44.52400 41.26500 31.85300
C  40.71200 42.31300 31.95500
C  40.47700 41.76300 33.41900
H  39.79000 42.58000 34.44300
N  43.65000 40.19400 26.83100
C  43.86100 39.38200 27.92800
C  44.34700 38.13900 27.49100
C  44.15700 38.15100 26.03300
C  43.85300 39.52700 25.68400
C  44.89400 37.10300 28.45500
C  44.22200 37.01400 25.02000
O  44.09300 37.17400 23.80800
C  44.59900 35.69600 25.40200
N  42.92900 42.29500 24.78300
C  43.23400 41.30000 23.94100
C  43.05500 41.58200 22.46800
C  42.39700 43.04100 22.54800
C  42.28300 43.27400 24.03900
C  44.51100 41.40900 21.77900
C  41.03900 43.14400 21.81600
C  39.97700 42.20600 22.49700
N  42.06500 44.01600 26.94600
C  41.79200 44.87800 25.88300
C  41.27800 46.09100 26.48600
C  41.17600 45.83100 27.86100
C  41.67700 44.57400 28.09900
C  40.96400 47.30400 25.79500
C  40.85200 46.42600 29.12600
O  40.35000 47.54000 29.42100
C  41.05700 45.31400 30.18300
C  41.80700 45.92800 31.30900
O  42.81700 46.59900 31.22100
O  41.03100 45.78300 32.48600
C  41.68100 46.21400 33.76200
H  43.67800 38.95300 30.01000
H  43.64700 39.37500 23.53900
H  41.41500 45.29600 23.83600
H  42.66400 43.21200 32.21600
H  42.51100 40.39100 31.86200
H  45.25700 40.90300 31.13200
H  44.60800 40.65600 32.75300
H  44.82200 42.29500 32.05100
H  40.36000 41.56200 31.24800
H  40.15600 43.24900 31.88500
H  41.43100 41.52400 33.88900
H  39.80900 40.90200 33.41100
H  45.16200 37.59600 29.39000
H  45.85600 36.71500 28.12200
H  44.25500 36.25100 28.68700
H  43.81400 35.14800 25.92400
H  45.41100 35.74000 26.12800
H  44.85400 35.11800 24.51400
H  42.31900 40.86300 22.10900
H  43.06000 43.74500 22.04500
H  44.77700 42.44900 21.59300
H  44.44100 40.87600 20.83100
H  45.19100 40.78500 22.36000
H  41.27900 42.70100 20.84900
H  40.60500 44.13800 21.71400
H  39.69900 41.44400 21.76900
H  39.13300 42.81600 22.81900
H  40.35400 41.62600 23.33900
H  40.24100 47.90400 26.34800
H  40.80100 47.19600 24.72200
H  41.84200 47.94600 25.86800
H  40.03100 45.13500 30.50600
H  42.75500 46.05700 33.65900
H  41.36900 45.49300 34.51800
H  41.37700 47.20900 34.08600
Mg -10.77800 38.23100 40.72000
C  -8.30700 35.80100 40.47400
C  -8.62400 40.54900 39.52900
C  -13.44400 40.33600 40.30800
C  -13.11800 35.63300 41.37500
N  -8.71800 38.15900 40.07500
C  -7.94300 37.07000 39.94700
C  -6.56300 37.33800 39.26100
C  -6.65000 38.90800 39.17200
C  -8.09500 39.26700 39.62800
C  -5.52600 39.69800 39.94500
C  -6.42600 36.51800 37.92000
C  -5.07900 35.84200 37.66200
H  -4.13200 36.31900 36.53800
N  -10.96600 40.22700 40.16600
C  -9.90900 41.03000 39.81000
C  -10.40200 42.30800 39.59100
C  -11.81300 42.34800 39.71100
C  -12.15300 40.91700 40.09100
C  -9.53500 43.54600 39.13700
C  -12.70000 43.52800 39.72300
O  -12.23500 44.67900 39.52700
C  -14.11700 43.48700 40.01300
N  -12.98400 38.03500 40.79000
C  -13.82000 39.06900 40.58400
C  -15.27200 38.65000 40.90100
C  -15.14900 37.10900 41.19300
C  -13.65000 36.86400 41.04100
C  -15.93400 39.46700 42.03300
C  -16.04700 36.18700 40.28900
C  -15.47300 35.54300 38.99200
N  -10.76600 36.11500 40.98900
C  -11.74300 35.24200 41.37900
C  -11.20300 33.95100 41.67900
C  -9.84300 34.11600 41.29000
C  -9.63600 35.45200 40.96400
C  -12.01100 32.66800 42.03600
C  -8.56100 33.46700 41.03200
O  -8.27500 32.26600 41.04300
C  -7.51100 34.49600 40.47800
C  -6.35900 34.47700 41.35800
O  -5.50300 33.64100 41.35800
O  -6.37100 35.62100 42.12900
C  -5.28500 35.86300 43.04100
H  -8.05200 41.37600 39.10300
H  -14.23700 41.07000 40.15700
H  -13.79400 34.86500 41.75700
H  -5.76500 37.12900 39.97400
H  -6.52700 39.19600 38.12800
H  -4.88800 40.12000 39.16800
H  -4.88100 39.15600 40.63600
H  -5.90100 40.57400 40.47400
H  -6.55500 37.28000 37.15300
H  -7.24500 35.80100 37.86100
H  -5.36900 34.81700 37.42900
H  -4.51300 35.74700 38.58800
H  -8.55800 43.33600 38.70200
H  -9.39200 44.34400 39.86500
H  -10.08500 43.94200 38.28300
H  -14.58200 42.83100 39.27800
H  -14.60800 44.46000 40.05500
H  -14.23800 42.99700 40.97900
H  -16.03900 38.71000 40.12900
H  -15.65900 36.98400 42.14800
H  -15.33500 40.33800 42.29900
H  -16.16300 38.87600 42.92000
H  -16.88000 39.88400 41.68600
H  -17.00500 36.62600 40.01100
H  -16.26800 35.34100 40.93800
H  -16.26400 35.39800 38.25700
H  -14.99700 34.59600 39.24800
H  -14.77300 36.23500 38.52300
H  -11.42500 31.75600 41.92800
H  -12.81700 32.71300 41.30300
H  -12.36500 32.53900 43.05900
H  -7.29000 34.11600 39.48000
H  -4.45100 36.12500 42.39000
H  -5.10800 34.97300 43.64500
H  -5.51300 36.67700 43.72900

