158

Mg 40.42400 10.23400 29.42000
C  42.18400 11.35300 32.13500
C  38.07100 8.99200 31.53300
C  38.82000 8.92900 26.71600
C  42.96500 11.35200 27.17700
N  40.25800 10.04600 31.56700
C  40.99600 10.75700 32.45400
C  40.39500 10.68400 33.87500
C  39.23000 9.73200 33.67100
C  39.09900 9.63000 32.15600
C  39.43600 8.29200 34.24000
C  39.93300 12.00400 34.57900
C  39.53800 12.07100 36.12300
H  40.44900 12.52200 37.27300
N  38.61100 9.16800 29.16000
C  37.78800 8.77400 30.19000
C  36.57400 8.20800 29.54200
C  36.82400 8.14800 28.17900
C  38.09300 8.79200 27.99000
C  35.32900 7.94400 30.34200
C  35.98000 7.40700 27.17000
O  36.40900 7.07400 26.07600
C  34.53300 7.07100 27.59000
N  40.83200 10.13700 27.17400
C  39.97300 9.61800 26.27000
C  40.47800 9.75800 24.81400
C  41.66000 10.83100 25.01400
C  41.93100 10.74100 26.52300
C  40.93100 8.44700 24.13700
C  41.37300 12.37200 24.75000
C  39.94000 12.89700 24.71800
N  42.22500 10.98000 29.57700
C  43.18800 11.39300 28.62800
C  44.32200 11.96200 29.33900
C  43.97300 12.00700 30.72200
C  42.68000 11.41300 30.82600
C  45.59600 12.45300 28.75100
C  44.50800 12.40700 31.99700
O  45.60200 12.91300 32.25300
C  43.30700 12.02300 32.99700
C  43.81600 11.08100 34.01500
O  43.89600 9.86400 33.89100
O  44.13500 11.74500 35.13200
C  44.69000 10.96700 36.21000
H  37.33800 8.61400 32.24900
H  38.37000 8.55700 25.79400
H  43.67800 11.91500 26.57200
H  41.20100 10.34800 34.52600
H  38.35000 10.13700 34.17200
H  38.97200 8.15700 35.21700
H  40.48000 7.98100 34.25400
H  39.03000 7.54900 33.55400
H  39.10300 12.48900 34.06400
H  40.76400 12.70900 34.56900
H  39.39600 11.01900 36.37000
H  38.59300 12.60900 36.18100
H  35.41600 8.04000 31.42400
H  35.18100 6.86600 30.28400
H  34.47500 8.56500 30.07200
H  34.18500 6.69800 26.62600
H  34.00800 8.00600 27.78400
H  34.41200 6.30700 28.35700
H  39.75400 10.27200 24.18100
H  42.58100 10.57800 24.48900
H  40.49500 8.35900 23.14200
H  40.74200 7.62600 24.82900
H  42.00300 8.64300 24.16800
H  41.74500 12.57400 23.74600
H  42.04900 12.97700 25.35600
H  39.46500 12.87200 23.73700
H  40.00800 13.90700 25.12400
H  39.41700 12.47500 25.57500
H  45.96000 13.17200 29.48500
H  45.51400 13.07800 27.86200
H  46.22700 11.58500 28.55800
H  42.91000 12.90300 33.50300
H  45.13700 10.02800 35.88400
H  43.84200 10.67000 36.82700
H  45.32000 11.67000 36.75600
Mg 30.26100 57.35700 39.52100
C  27.77300 55.13700 38.74300
C  32.67400 54.94200 38.82000
C  32.70400 59.67100 39.55500
C  27.82900 59.85100 40.29900
N  30.19100 55.27500 38.78500
C  29.07800 54.56900 38.54700
C  29.48600 53.16900 37.99700
C  31.02800 53.05800 38.18300
C  31.32200 54.50500 38.66500
C  31.48300 52.11300 39.23700
C  29.04000 52.98800 36.49900
C  29.33400 54.00000 35.49200
H  28.24000 54.52600 34.68300
N  32.44800 57.28400 39.20400
C  33.20200 56.23500 38.99000
C  34.53200 56.61900 38.86300
C  34.59800 57.99800 39.16100
C  33.26300 58.36600 39.36400
C  35.60000 55.63200 38.62900
C  35.83900 58.80500 39.30300
O  36.97100 58.33800 39.09600
C  35.91800 60.15200 39.73100
N  30.20100 59.46400 39.66800
C  31.35700 60.15600 39.78400
C  31.07800 61.60200 40.24300
C  29.66000 61.57200 40.64000
C  29.11000 60.25800 39.97200
C  32.08500 62.17700 41.26800
C  28.89600 62.87600 40.20300
C  28.15800 63.63400 41.31300
N  28.16500 57.49700 39.67400
C  27.34100 58.53200 40.02000
C  25.98300 58.06600 39.87200
C  26.13600 56.74400 39.32500
C  27.52300 56.45600 39.21600
C  24.87600 58.92200 40.08900
C  25.33100 55.60200 38.91800
O  24.17600 55.40000 38.93700
C  26.39000 54.55800 38.42900
C  26.21100 53.23600 39.11300
O  26.65800 52.98900 40.23300
O  25.29700 52.52300 38.35100
C  24.97500 51.17300 38.86600
H  33.33800 54.09300 38.64900
H  33.42900 60.48600 39.62400
H  27.08300 60.58700 40.60900
H  28.86100 52.43700 38.50800
H  31.57000 52.92400 37.24700
H  30.57600 51.68500 39.66500
H  32.12800 52.52800 40.01200
H  31.95500 51.27100 38.73100
H  27.98000 52.74100 36.56400
H  29.45700 52.04700 36.14200
H  30.01400 53.48200 34.81500
H  29.89600 54.85500 35.86800
H  36.10500 55.99100 37.73200
H  35.26900 54.60600 38.46900
H  36.28900 55.67000 39.47300
H  36.94700 60.40700 39.98300
H  35.22800 60.41000 40.53500
H  35.54000 60.84100 38.97500
H  31.12400 62.15600 39.30500
H  29.56800 61.39600 41.71200
H  32.90900 62.77900 40.88600
H  32.50300 61.28800 41.74100
H  31.60600 62.73400 42.07400
H  28.21500 62.50000 39.43900
H  29.62300 63.53400 39.72800
H  28.75100 64.51000 41.57700
H  27.99700 63.09300 42.24600
H  27.28200 64.08900 40.85200
H  24.53600 59.33400 39.13900
H  25.18800 59.74400 40.73400
H  24.03500 58.40900 40.55500
H  26.34900 54.39500 37.35100
H  24.76400 50.40000 38.12600
H  24.05000 51.40100 39.39500
H  25.65400 50.79600 39.63200

