158

Mg 1.87500 -2.18100 44.36300
C  5.26900 -0.96800 44.04100
C  0.98100 0.42400 42.46400
C  -1.03100 -3.65100 44.20300
C  3.25800 -5.15700 45.81200
N  3.01900 -0.55900 43.14100
C  4.38600 -0.28400 43.22700
C  4.65400 0.99200 42.48700
C  3.22500 1.63200 42.41400
C  2.35000 0.45000 42.80300
C  3.08300 2.94300 43.35100
C  5.45200 0.75600 41.17700
C  6.86000 1.37800 41.26800
H  7.93100 1.22300 40.20100
N  0.17600 -1.68400 43.42400
C  -0.07100 -0.50200 42.71400
C  -1.48900 -0.26100 42.48000
C  -2.08400 -1.50100 43.02600
C  -0.96500 -2.33600 43.57500
C  -2.06000 0.91200 41.75200
C  -3.55500 -1.79000 42.87500
O  -4.29600 -0.95600 42.36900
C  -4.16900 -3.05800 43.44800
N  1.21100 -4.13200 44.97700
C  -0.04500 -4.46700 44.69300
C  -0.41700 -5.89200 45.24000
C  0.99500 -6.36300 45.78600
C  1.90600 -5.19300 45.44700
C  -1.46300 -5.99300 46.37500
C  1.50700 -7.75800 45.30800
C  2.10600 -8.68500 46.42400
N  3.79500 -2.92000 44.92300
C  4.18400 -4.09600 45.55700
C  5.60300 -4.03300 45.91600
C  5.97200 -2.75200 45.43100
C  4.89100 -2.19800 44.72200
C  6.37100 -5.03900 46.65000
C  7.18000 -1.87200 45.26000
O  8.31700 -2.00200 45.62100
C  6.71300 -0.68600 44.33400
C  6.96600 0.49800 45.18100
O  6.31800 0.71500 46.18500
O  8.02200 1.31200 44.72600
C  8.13600 2.60200 45.49100
H  0.63500 1.36400 42.03000
H  -2.02900 -4.08200 44.31300
H  3.56400 -6.07500 46.31700
H  5.22800 1.58000 43.20400
H  3.11800 2.05500 41.41500
H  2.24400 3.04500 44.04000
H  3.00600 3.68500 42.55700
H  3.99900 3.16900 43.89800
H  4.96600 1.27400 40.35000
H  5.57500 -0.30500 40.95700
H  7.26900 1.21500 42.26500
H  6.58700 2.43300 41.25700
H  -3.00600 1.20900 42.20600
H  -2.19500 0.76400 40.68000
H  -1.49600 1.83400 41.89100
H  -4.04900 -3.98200 42.88300
H  -5.22700 -2.81600 43.35400
H  -3.87600 -3.04700 44.49800
H  -0.69100 -6.43800 44.33800
H  0.91000 -6.30700 46.87100
H  -1.51500 -4.98400 46.78300
H  -1.14900 -6.66500 47.17400
H  -2.40300 -6.27300 45.89800
H  2.33200 -7.52100 44.63700
H  0.82900 -8.36800 44.71100
H  1.72200 -9.68500 46.22200
H  1.84300 -8.31100 47.41300
H  3.18700 -8.58600 46.32400
H  6.08700 -5.05700 47.70200
H  7.43800 -4.86100 46.51600
H  6.23000 -5.99500 46.14500
H  7.39300 -0.73000 43.48300
H  7.27200 3.21500 45.23600
H  8.93100 3.21000 45.05900
H  8.17200 2.43500 46.56700
Mg 40.68700 10.01900 30.24900
C  42.58100 11.39200 32.98500
C  38.68300 8.50600 32.50000
C  39.09400 8.74900 27.65800
C  43.33700 11.03400 28.13700
N  40.56600 10.07400 32.49900
C  41.40000 10.64900 33.39300
C  40.96300 10.37900 34.83900
C  39.76200 9.38500 34.65200
C  39.73600 9.25200 33.13100
C  39.84900 8.03900 35.43200
C  40.62400 11.62100 35.74000
C  41.62200 11.88000 36.88500
H  41.15300 12.34800 38.26400
N  39.13800 8.70200 30.03700
C  38.40600 8.25300 31.10100
C  37.25700 7.51700 30.54500
C  37.36900 7.56400 29.12800
C  38.56700 8.42600 28.88700
C  36.28500 6.68100 31.35700
C  36.39300 7.06900 28.02100
O  36.65400 7.17900 26.78800
C  35.04800 6.29600 28.41200
N  41.21800 9.83300 28.14400
C  40.36100 9.25500 27.31500
C  40.81400 9.33700 25.83300
C  42.26600 9.99700 25.98400
C  42.24900 10.38000 27.49500
C  40.76700 7.95800 25.11200
C  42.46400 11.29700 25.17100
C  43.90100 11.40200 24.62800
N  42.44000 11.22400 30.40500
C  43.43500 11.46700 29.47700
C  44.55800 12.15900 30.15200
C  44.19300 12.23500 31.52200
C  42.94700 11.52900 31.61000
C  45.82800 12.72600 29.57400
C  44.69100 12.66400 32.79900
O  45.73800 13.27700 32.99700
C  43.57800 12.16800 33.81300
C  44.36700 11.25000 34.73300
O  44.68400 10.09400 34.47300
O  44.66700 11.94100 35.94700
C  45.37600 11.15900 36.95300
H  38.04100 7.97900 33.20900
H  38.53000 8.48800 26.76000
H  44.17500 11.27900 27.48100
H  41.79100 9.83700 35.29500
H  38.88500 9.92700 35.00800
H  40.76100 7.94900 36.02200
H  39.62500 7.10700 34.91200
H  39.05300 8.24900 36.14600
H  39.66400 11.45300 36.22900
H  40.71400 12.44800 35.03500
H  42.35800 12.58900 36.50700
H  42.17100 10.94800 37.02300
H  36.46500 6.67300 32.43200
H  36.26400 5.70300 30.87600
H  35.28000 7.07800 31.21800
H  34.57200 6.76600 29.27300
H  35.36600 5.28700 28.67400
H  34.42600 6.11700 27.53400
H  40.05000 9.94200 25.34400
H  43.09300 9.28800 25.97100
H  39.90900 7.86700 24.44600
H  40.49200 7.20100 25.84700
H  41.73600 7.66900 24.70400
H  42.50100 12.19400 25.78900
H  41.81200 11.43700 24.30900
H  44.57000 10.54500 24.54300
H  44.44500 12.07700 25.28800
H  44.00300 11.91700 23.67300
H  46.02700 12.49400 28.52800
H  46.67600 12.45900 30.20400
H  45.78100 13.81500 29.57100
H  43.09800 13.03200 34.27200
H  46.03000 10.41600 36.49600
H  44.72900 10.68700 37.69200
H  46.01200 11.90000 37.43700

