158

Mg 47.58300 16.38900 28.39600
C  45.90300 16.17800 31.55100
C  50.00800 18.15800 30.03800
C  48.93200 16.97300 25.40900
C  44.93400 14.68900 26.99100
N  47.73400 17.33200 30.52700
C  47.01200 17.02300 31.63000
C  47.58700 17.70300 32.90500
C  48.88500 18.44100 32.34600
C  48.89000 17.97500 30.86200
C  48.79100 20.03800 32.30500
C  47.92900 16.68300 33.98600
C  47.63900 17.00100 35.51100
H  47.53800 18.45900 35.89400
N  49.32900 17.33200 27.87800
C  50.24500 17.85200 28.70300
C  51.41600 18.19900 27.93500
C  51.19900 17.86900 26.56500
C  49.76100 17.40800 26.54600
C  52.63000 18.85100 28.63800
C  52.01600 18.05800 25.30600
O  51.57700 17.74900 24.20300
C  53.49800 18.53900 25.46900
N  46.94900 15.94200 26.47500
C  47.65000 16.34400 25.38900
C  46.97700 15.79900 24.12400
C  45.83100 14.83800 24.56100
C  45.90200 15.17700 26.13000
C  46.54600 16.98600 23.24000
C  46.11600 13.34800 24.19200
C  45.50900 12.78000 22.91400
N  45.69800 15.61200 29.09900
C  44.80600 14.93000 28.33100
C  43.83400 14.44700 29.21500
C  44.11900 14.97200 30.48600
C  45.35900 15.57200 30.38500
C  42.72300 13.66400 28.91500
C  43.63400 15.13900 31.80000
O  42.65600 14.77700 32.43600
C  44.87700 15.81900 32.58900
C  44.17000 17.01700 33.31200
O  43.88600 18.12200 32.79900
O  43.86900 16.65200 34.56200
C  43.02300 17.59600 35.21700
H  50.82300 18.68600 30.53900
H  49.40100 17.00500 24.42400
H  44.15200 14.14800 26.45400
H  46.88900 18.38900 33.38400
H  49.82400 18.08000 32.76600
H  49.59500 20.53300 32.85000
H  47.92100 20.40600 32.84900
H  48.70900 20.29600 31.24900
H  48.99500 16.45400 33.96100
H  47.54600 15.68000 33.79800
H  48.33000 16.46200 36.15900
H  46.67900 16.51400 35.68600
H  53.55000 18.46800 28.19500
H  52.74200 18.70300 29.71200
H  52.61900 19.89200 28.31500
H  53.52000 19.55500 25.86500
H  54.10000 18.56600 24.56100
H  54.00900 17.76900 26.04700
H  47.62700 15.18100 23.50400
H  44.85700 15.09400 24.14400
H  47.00400 16.87200 22.25700
H  46.77200 17.98700 23.60600
H  45.46200 17.01200 23.13300
H  45.79600 12.82100 25.09000
H  47.19300 13.28400 24.03300
H  46.27100 12.59500 22.15700
H  44.77700 13.45200 22.46500
H  45.03500 11.82000 23.11700
H  42.89800 12.75100 28.34600
H  41.96900 14.26700 28.41000
H  42.34900 13.29400 29.86900
H  45.35300 15.15700 33.31200
H  43.55400 18.45300 35.63200
H  42.57900 17.00800 36.02100
H  42.25100 17.85900 34.49400
Mg 47.60100 25.33800 29.06100
C  48.57600 27.52100 31.62900
C  46.60200 23.15100 31.48000
C  47.18900 23.18000 26.63100
C  48.93300 27.65800 26.72400
N  47.76100 25.34700 31.33500
C  48.11800 26.35000 32.16100
C  47.63300 26.14200 33.60900
C  47.24400 24.62000 33.51400
C  47.13900 24.39100 32.06500
C  48.24800 23.62200 34.11100
C  46.48600 27.10700 34.11800
C  46.84600 27.75900 35.45300
H  45.69700 27.78800 36.53400
N  46.83000 23.46900 29.06500
C  46.43100 22.65800 30.17900
C  45.84900 21.47200 29.63700
C  46.00000 21.47600 28.19800
C  46.72100 22.69500 27.89700
C  45.23200 20.41700 30.61000
C  45.63100 20.46300 27.20900
O  45.78600 20.59200 26.00800
C  44.93000 19.18200 27.60000
N  48.33400 25.37200 27.04100
C  47.87200 24.35800 26.22400
C  48.18100 24.65300 24.71600
C  48.52900 26.18800 24.70600
C  48.56700 26.43600 26.25200
C  49.23000 23.75200 23.99000
C  47.47900 27.13000 24.05900
C  48.09000 28.16700 23.10300
N  48.65500 27.15900 29.12600
C  49.04500 28.01700 28.11600
C  49.59100 29.28400 28.64500
C  49.39500 29.11400 30.03500
C  48.82100 27.78300 30.22600
C  50.16900 30.40900 27.86800
C  49.55200 29.78400 31.26200
O  49.92500 30.90900 31.44500
C  49.17600 28.71900 32.32300
C  50.32800 28.43500 33.17400
O  51.25400 27.69700 32.85200
O  50.24400 29.09200 34.41000
C  51.27400 28.86200 35.38600
H  46.02600 22.53600 32.17500
H  46.79100 22.71000 25.72900
H  49.26700 28.40300 25.99900
H  48.59200 26.22000 34.12200
H  46.33700 24.45300 34.09600
H  49.13900 24.11500 34.49800
H  48.69100 23.07100 33.28100
H  47.71600 22.95600 34.79000
H  45.59400 26.52300 34.34500
H  46.24100 27.87600 33.38600
H  47.03500 28.79500 35.17300
H  47.75600 27.36700 35.90600
H  44.31500 20.04200 30.15500
H  45.13500 20.72200 31.65200
H  45.86500 19.53500 30.70100
H  44.64700 18.60400 26.72100
H  44.00200 19.32000 28.15500
H  45.65900 18.62200 28.18600
H  47.16700 24.49300 24.34900
H  49.54500 26.16700 24.31200
H  50.04700 24.23500 23.45400
H  48.70300 23.14000 23.25800
H  49.67000 23.00300 24.64800
H  46.82400 27.52000 24.83900
H  46.84400 26.47300 23.46500
H  49.14800 27.99900 22.90200
H  47.96100 29.16800 23.51500
H  47.53400 28.16100 22.16600
H  49.73200 30.42500 26.86900
H  51.24500 30.33600 27.70900
H  49.86200 31.37900 28.25800
H  48.40400 29.22300 32.90400
H  50.78900 28.26800 36.16000
H  51.63400 29.79000 35.83100
H  52.17400 28.34300 35.05700

