158

Mg 36.00100 49.33500 25.69600
C  36.10000 47.60300 28.75100
C  35.01100 52.12400 27.24900
C  35.84300 50.76700 22.73100
C  36.90600 46.17000 24.04900
N  35.61200 49.71600 27.75800
C  35.76300 48.92100 28.89000
C  35.55400 49.72300 30.16000
C  34.99900 51.10700 29.65900
C  35.28400 50.99500 28.14400
C  33.53900 51.46700 30.09600
C  36.75400 49.73100 31.24400
C  36.42800 49.61000 32.73800
H  34.98400 49.45100 33.14200
N  35.53400 51.27400 25.07800
C  35.11100 52.26000 25.87900
C  34.87600 53.48900 25.08300
C  35.07500 53.05600 23.66900
C  35.54300 51.64200 23.77300
C  34.66400 54.90200 25.68800
C  34.86400 53.88300 22.41100
O  35.21700 53.35300 21.33600
C  34.19300 55.24100 22.36000
N  36.40400 48.56900 23.64400
C  36.21900 49.39900 22.57200
C  36.43100 48.64500 21.24800
C  37.06900 47.31300 21.76800
C  36.77100 47.33200 23.27000
C  35.16300 48.54200 20.31100
C  38.52900 47.14000 21.41300
C  39.22300 45.76400 21.23900
N  36.44100 47.29100 26.23300
C  36.91700 46.18600 25.46200
C  37.13800 45.13200 26.40800
C  36.84600 45.63100 27.71700
C  36.35400 46.90600 27.53200
C  37.53200 43.77000 26.01100
C  36.77700 45.29000 29.08200
O  36.95400 44.17700 29.61800
C  36.38200 46.55100 29.83500
C  35.17700 46.19200 30.59900
O  34.05300 46.44800 30.28800
O  35.63900 45.55400 31.71500
C  34.70900 45.00500 32.68800
H  34.98900 53.07400 27.78700
H  35.50000 51.00300 21.72200
H  37.32700 45.26700 23.60200
H  34.68800 49.29000 30.66000
H  35.72500 51.85000 29.99100
H  33.20000 50.89000 30.95600
H  32.87800 51.36900 29.23500
H  33.42700 52.51500 30.37200
H  37.29100 50.66500 31.07500
H  37.53200 49.05600 30.88700
H  36.85400 50.51700 33.16600
H  36.99800 48.75600 33.10300
H  33.73000 55.25200 25.24900
H  35.30400 55.70000 25.31300
H  34.72900 54.95400 26.77500
H  34.04400 55.48500 21.30800
H  34.82500 55.84300 23.01300
H  33.22200 55.07100 22.82400
H  37.23400 49.13300 20.69500
H  36.45400 46.51300 21.35500
H  34.27800 48.67000 20.93300
H  35.15100 47.51600 19.94300
H  35.24300 49.16800 19.42200
H  39.01300 47.57500 22.28800
H  38.71800 47.69100 20.49200
H  38.58100 44.91700 21.47800
H  40.09500 45.72800 21.89200
H  39.58600 45.44500 20.26200
H  38.50000 43.69600 25.51500
H  36.85700 43.28300 25.30700
H  37.62200 43.22300 26.94900
H  37.22900 46.81000 30.47000
H  34.59700 45.76900 33.45700
H  34.92000 44.03100 33.12900
H  33.70600 44.89100 32.27700
Mg 5.96400 54.82500 42.01200
C  5.80300 51.26800 41.57500
C  9.01400 54.76900 40.47700
C  5.76000 58.12800 41.82300
C  2.74900 54.63700 43.42700
N  7.08300 53.19900 40.91200
C  6.92900 51.78000 40.96600
C  8.12500 51.04900 40.33500
C  9.17800 52.23900 40.18700
C  8.43100 53.48500 40.61600
C  10.49700 51.97700 40.93100
C  7.84700 50.30000 39.04200
C  6.91000 50.96900 38.06400
H  7.02100 50.51600 36.58500
N  7.18900 56.31000 41.22800
C  8.45000 56.06100 40.67500
C  8.98800 57.38700 40.30100
C  8.04800 58.40300 40.64700
C  6.92800 57.60200 41.23300
C  10.28800 57.52900 39.62600
C  8.30800 59.88200 40.50200
O  9.43200 60.29100 40.19400
C  7.25900 60.96300 40.81500
N  4.44200 56.12100 42.50500
C  4.68200 57.49900 42.49800
C  3.64900 58.33300 43.28600
C  2.69300 57.17900 43.76900
C  3.32200 55.86700 43.15300
C  4.20200 59.27300 44.38700
C  1.12700 57.31100 43.57600
C  0.34300 56.76900 42.33800
N  4.54800 53.28000 42.49800
C  3.30000 53.38200 43.10500
C  2.91400 52.10400 43.46700
C  3.74600 51.15300 42.80600
C  4.74700 51.97900 42.22000
C  1.77800 51.74800 44.35900
C  4.17200 49.76400 42.65500
O  3.74000 48.68900 43.01800
C  5.41600 49.80300 41.78300
C  5.20800 49.05900 40.46200
O  4.30100 49.40400 39.68200
O  5.98800 47.91400 40.29300
C  5.83600 47.10900 39.07200
H  10.07500 54.63600 40.25500
H  5.69700 59.21800 41.83900
H  1.88600 54.71900 44.09100
H  8.45400 50.34000 41.09500
H  9.32700 52.35700 39.11300
H  11.36200 51.96000 40.26800
H  10.56500 50.99100 41.39000
H  10.65400 52.66700 41.76000
H  7.54500 49.29100 39.32200
H  8.79800 50.08700 38.55400
H  6.99800 52.05600 38.08500
H  5.95400 50.63300 38.46400
H  10.21600 57.87600 38.59500
H  10.80900 56.57300 39.58700
H  10.90600 58.19400 40.23000
H  6.46200 60.74200 40.10400
H  7.66800 61.96400 40.67300
H  7.05500 60.88200 41.88300
H  3.15500 59.05300 42.63400
H  2.89200 57.04100 44.83200
H  5.28600 59.16800 44.40700
H  3.81000 58.90100 45.33300
H  3.92300 60.30400 44.16700
H  0.98100 58.38700 43.47400
H  0.64600 56.98800 44.50000
H  -0.43400 56.10200 42.71000
H  1.02400 56.28000 41.64100
H  -0.17100 57.54500 41.77100
H  1.86400 52.39200 45.23400
H  1.86900 50.72900 44.73700
H  0.87500 51.89700 43.76700
H  6.20900 49.31500 42.35000
H  6.65600 46.39300 39.13000
H  5.83700 47.76400 38.20100
H  4.88000 46.58500 39.05200

