158

Mg 0.00800 7.64600 26.62800
C  0.84600 9.63600 29.39500
C  -0.00500 4.95400 28.88800
C  -0.57100 5.42800 24.13600
C  0.36600 10.29400 24.52200
N  0.61300 7.28000 28.77600
C  0.70700 8.30500 29.69000
C  0.57400 7.81000 31.11400
C  0.74600 6.28700 30.94800
C  0.40900 6.09800 29.43900
C  2.12400 5.64500 31.22400
C  -0.79100 8.12100 31.69800
C  -0.92100 8.27300 33.22800
H  0.12100 7.63900 34.06000
N  -0.14300 5.54900 26.49000
C  -0.13900 4.63000 27.52000
C  -0.29700 3.33000 26.96600
C  -0.56300 3.38500 25.60600
C  -0.43900 4.86900 25.38300
C  -0.17100 2.09400 27.82300
C  -0.67600 2.34300 24.59700
O  -0.82000 2.53200 23.39800
C  -0.73000 0.89300 25.02100
N  0.20700 7.81900 24.60500
C  -0.25400 6.79400 23.79600
C  -0.60700 7.37900 22.38600
C  -0.33200 8.92100 22.55400
C  0.09500 9.00200 23.99900
C  0.23700 6.74300 21.18700
C  -1.53100 9.86900 22.22200
C  -1.45800 10.65300 20.85700
N  0.45500 9.58800 26.89500
C  0.57100 10.58100 25.97700
C  0.77600 11.82700 26.65600
C  0.93000 11.47700 28.01500
C  0.71000 10.14900 28.08700
C  0.89100 13.25100 26.02900
C  1.30000 12.00800 29.26700
O  1.77000 13.09600 29.55200
C  1.11200 10.89700 30.29000
C  2.19200 11.03500 31.26300
O  3.35100 10.80000 31.00600
O  1.75100 11.26400 32.48300
C  2.72200 11.23900 33.57200
H  -0.29600 4.22500 29.64700
H  -1.10300 4.94800 23.31200
H  0.63700 11.03600 23.76700
H  1.42000 8.23500 31.65300
H  0.03000 5.77100 31.58900
H  2.70600 6.09900 32.02600
H  2.72400 5.67100 30.31400
H  2.00100 4.59800 31.50300
H  -1.57100 7.42000 31.40200
H  -0.96000 9.13000 31.32200
H  -1.85100 7.82200 33.57300
H  -0.94800 9.34700 33.41300
H  -1.11000 1.55500 27.69600
H  -0.00800 2.21400 28.89400
H  0.69300 1.53200 27.46600
H  0.15500 0.45300 25.48000
H  -0.92900 0.31100 24.12100
H  -1.65100 0.83300 25.60100
H  -1.66300 7.14200 22.26000
H  0.52000 9.29300 21.98600
H  -0.55300 6.43200 20.50300
H  0.77200 5.85700 21.52700
H  0.77000 7.47800 20.58400
H  -1.53000 10.60000 23.03100
H  -2.51600 9.41600 22.33300
H  -2.49300 10.89400 20.61600
H  -1.03400 10.12100 20.00500
H  -0.85200 11.53100 21.08000
H  0.90500 13.25900 24.93900
H  1.78400 13.58000 26.56100
H  0.09300 13.90800 26.37500
H  0.21700 11.19800 30.83500
H  3.41300 10.41500 33.39300
H  2.12500 11.10900 34.47400
H  3.10500 12.25800 33.53100
Mg 42.86900 4.16100 47.19700
C  41.14900 7.08700 47.10200
C  40.06000 2.36100 46.88100
C  44.77900 1.38200 46.68300
C  45.94800 6.25900 46.72900
N  40.82000 4.74800 46.87300
C  40.33500 5.92900 47.08400
C  38.75000 5.93800 47.07000
C  38.45800 4.40000 47.10100
C  39.89600 3.76400 46.91700
C  37.76500 3.88900 48.39500
C  38.16000 6.71800 45.90900
C  39.04500 6.69000 44.57400
H  38.31100 6.11600 43.33300
N  42.45400 2.06800 46.93300
C  41.23200 1.55900 46.75300
C  41.29900 0.18100 46.60400
C  42.69400 -0.17900 46.48100
C  43.39200 1.12400 46.71600
C  40.02500 -0.77100 46.38200
C  43.21700 -1.57500 46.24500
O  42.40600 -2.49700 46.30500
C  44.64400 -1.87000 46.26200
N  44.99000 3.89200 46.70600
C  45.46800 2.59000 46.68000
C  47.03500 2.65300 46.59700
C  47.35500 4.17200 46.52900
C  45.95900 4.83500 46.63400
C  47.69600 1.93600 47.72800
C  48.31300 4.65800 45.40600
C  49.53100 5.46800 45.78900
N  43.46100 6.29400 47.02000
C  44.68900 6.95300 46.87100
C  44.49800 8.33300 46.79400
C  43.10000 8.48500 46.96100
C  42.54200 7.19400 46.94800
C  45.57700 9.32600 46.38300
C  42.01900 9.39500 47.15200
O  42.08700 10.64700 47.25400
C  40.73300 8.56700 47.07500
C  39.77600 8.93900 48.21100
O  39.68300 8.43200 49.34400
O  38.93400 9.87200 47.69600
C  37.82700 10.14600 48.55500
H  39.16500 1.73700 46.84400
H  45.39900 0.50300 46.49200
H  46.93500 6.72200 46.65600
H  38.37800 6.43500 47.96600
H  37.84600 4.14400 46.23600
H  37.39600 4.73800 48.97000
H  38.52400 3.41800 49.02000
H  36.94400 3.18200 48.27400
H  38.01300 7.71500 46.32400
H  37.17400 6.34300 45.63200
H  39.95100 6.08700 44.63900
H  39.36000 7.71500 44.37600
H  39.67000 -0.75400 45.35100
H  39.21300 -0.34900 46.97400
H  40.26000 -1.77400 46.73900
H  45.16000 -1.45800 47.12900
H  45.05300 -1.64100 45.27800
H  44.62400 -2.95900 46.28000
H  47.33600 2.15000 45.67700
H  47.85900 4.38500 47.47200
H  48.00800 0.92800 47.45700
H  47.04800 1.85300 48.60100
H  48.61000 2.46500 47.99600
H  47.68700 5.21900 44.71300
H  48.61100 3.82000 44.77500
H  50.43500 4.90300 45.56100
H  49.52900 5.65900 46.86200
H  49.54100 6.37600 45.18700
H  46.00900 9.02000 45.43000
H  46.36700 9.32800 47.13400
H  45.27600 10.36800 46.27500
H  40.28900 8.65700 46.08300
H  37.04100 10.65300 47.99500
H  38.13300 10.64200 49.47600
H  37.43900 9.13800 48.70600

