158

Mg 10.48700 47.25900 26.25900
C  8.45000 47.79400 29.04800
C  13.06800 48.83700 27.95500
C  12.38400 46.89600 23.49700
C  7.55100 46.62300 24.30600
N  10.69400 48.28000 28.24700
C  9.79800 48.07700 29.28000
C  10.46200 48.56800 30.60200
C  11.57000 49.46600 30.04600
C  11.85600 48.85000 28.67000
C  11.28700 50.97500 29.96600
C  10.91600 47.45600 31.49600
C  11.09900 47.70500 33.02900
H  10.77000 46.50300 33.98900
N  12.49900 47.65700 25.85900
C  13.38000 48.29900 26.70300
C  14.74800 48.28500 26.04100
C  14.53700 47.65200 24.77500
C  13.09300 47.37700 24.61400
C  15.92600 48.84100 26.68800
C  15.51900 47.16400 23.79400
O  15.28600 46.41900 22.81100
C  16.88300 47.64400 23.93500
N  9.98500 46.94600 24.11900
C  11.01200 46.63600 23.26000
C  10.40400 46.11000 21.95100
C  8.96200 45.82300 22.34000
C  8.79800 46.52900 23.65300
C  10.54000 47.03600 20.70100
C  8.53800 44.35100 22.37300
C  9.26800 43.51700 23.36100
N  8.34800 47.18300 26.59600
C  7.32600 46.95000 25.75200
C  6.08300 47.16400 26.45500
C  6.47800 47.41800 27.84300
C  7.88900 47.47600 27.78500
C  4.59300 47.12600 25.95100
C  6.07500 47.61000 29.19200
O  4.93800 47.68400 29.62800
C  7.35100 47.77600 30.07000
C  7.45400 46.56700 30.92900
O  7.94400 45.47600 30.60000
O  6.94200 46.82200 32.14700
C  6.85400 45.71200 33.13200
H  13.85900 49.31000 28.54000
H  12.96600 46.59700 22.62300
H  6.67000 46.29300 23.75100
H  9.81900 49.29600 31.09700
H  12.54700 49.32600 30.50900
H  10.23100 51.22000 30.07900
H  11.51500 51.46800 29.02100
H  11.69100 51.49800 30.83300
H  11.84700 47.11300 31.04300
H  10.22300 46.62700 31.34900
H  10.39700 48.49800 33.28700
H  12.12300 47.94000 33.32200
H  15.77200 49.28500 27.67100
H  16.33000 49.61600 26.03600
H  16.69100 48.07900 26.83700
H  16.78500 48.72800 23.98400
H  17.52400 47.26600 23.13800
H  17.21800 47.25600 24.89700
H  10.96600 45.19200 21.78300
H  8.18200 46.25100 21.71100
H  10.35700 48.10000 20.84600
H  9.86100 46.70700 19.91400
H  11.55400 47.05200 20.30100
H  8.54900 43.91900 21.37200
H  7.46100 44.33300 22.54000
H  8.75600 43.30300 24.29800
H  10.24300 43.91200 23.64700
H  9.59000 42.62400 22.82500
H  4.42200 48.07000 25.43400
H  3.94900 46.97800 26.81800
H  4.47100 46.23600 25.33300
H  7.27500 48.61100 30.76600
H  7.57100 44.91800 32.92300
H  5.84000 45.32400 33.23300
H  7.12400 45.98300 34.15200
Mg 1.30700 42.65000 26.80800
C  2.63600 42.44400 30.07800
C  -1.73100 41.88300 28.14700
C  0.26300 42.36600 23.78200
C  4.64000 43.24800 25.66100
N  0.50200 42.42400 28.86300
C  1.22500 42.45300 30.00900
C  0.25000 42.26400 31.21200
C  -0.96700 41.66600 30.57100
C  -0.75100 42.06900 29.13200
C  -1.21900 40.16900 30.79600
C  0.06000 43.59300 31.92500
C  0.36200 43.72100 33.47200
H  0.14500 42.60000 34.44100
N  -0.52000 42.37000 26.02400
C  -1.68300 42.04300 26.73700
C  -2.77600 41.82100 25.80700
C  -2.20200 41.95300 24.51100
C  -0.77900 42.21400 24.74300
C  -4.19700 41.63900 26.20900
C  -2.78300 41.63600 23.12800
O  -2.11100 41.63200 22.09800
C  -4.20700 41.07800 23.02700
N  2.37000 42.65300 25.03800
C  1.66100 42.57300 23.85800
C  2.58300 42.53600 22.63700
C  3.88900 43.07000 23.22900
C  3.62600 43.05900 24.76700
C  2.60600 41.13200 22.00100
C  4.55800 44.44600 22.71100
C  3.65900 45.72200 22.54600
N  3.25700 42.91100 27.65900
C  4.55800 43.13400 27.04100
C  5.55900 43.17300 28.04800
C  4.87500 42.82100 29.28200
C  3.49900 42.66000 28.94900
C  6.98800 43.60500 27.97500
C  5.03300 42.62200 30.73300
O  6.07400 42.57000 31.41000
C  3.50400 42.50700 31.31300
C  3.53600 41.25000 32.20000
O  3.45100 40.08400 31.83500
O  3.62600 41.66000 33.48700
C  3.89000 40.63400 34.52100
H  -2.64300 41.49700 28.60600
H  -0.02000 42.33200 22.72800
H  5.58800 43.50700 25.18500
H  0.69200 41.57400 31.93000
H  -1.92600 42.12600 30.81100
H  -0.45500 39.69500 31.41300
H  -1.33000 39.62900 29.85600
H  -2.10500 40.12900 31.43000
H  -0.99100 43.88100 31.89600
H  0.45400 44.40100 31.30900
H  -0.24100 44.51500 33.91200
H  1.41800 43.98600 33.42200
H  -4.44400 40.57900 26.16200
H  -4.96500 42.18300 25.65800
H  -4.18400 41.95600 27.25200
H  -4.45700 40.67900 22.04400
H  -4.85400 41.92500 23.25700
H  -4.28000 40.38800 23.86700
H  2.15000 43.25800 21.94400
H  4.52900 42.18900 23.18000
H  1.84400 40.51800 22.48100
H  3.56700 40.61900 22.04200
H  2.39100 41.32200 20.95000
H  5.27700 44.28000 21.90800
H  5.19700 44.68500 23.56100
H  3.93600 46.36300 23.38400
H  2.60000 45.50300 22.68700
H  3.84000 46.22800 21.59800
H  7.16800 44.01300 26.98100
H  7.69800 42.84400 28.29800
H  7.05600 44.55400 28.50700
H  3.35000 43.47900 31.78100
H  4.67000 39.94600 34.19600
H  2.94600 40.09200 34.57200
H  4.09000 41.06200 35.50300

