158

Mg 41.82900 41.85200 26.99400
C  40.83200 44.21600 29.52800
C  42.49000 39.72600 29.27500
C  42.75100 39.90600 24.48900
C  41.19700 44.38300 24.70100
N  41.51200 42.01100 29.17200
C  41.18600 42.98300 30.05300
C  41.38100 42.58000 31.49300
C  41.96100 41.13200 31.39200
C  42.06300 40.90200 29.85900
C  43.36500 40.87500 32.12900
C  40.03200 42.71800 32.33700
C  39.90800 41.73300 33.51500
H  39.59000 42.32300 34.83800
N  42.57200 40.00500 26.92200
C  42.85100 39.23200 27.96000
C  43.36400 38.02800 27.54600
C  43.38100 38.02900 26.13800
C  42.87300 39.33600 25.76000
C  43.71900 36.97600 28.57600
C  43.69000 36.96200 25.05900
O  43.54200 37.12200 23.87400
C  44.17700 35.65800 25.46600
N  41.94200 42.12400 24.91800
C  42.37500 41.16200 24.10400
C  42.28800 41.63900 22.64500
C  41.52600 42.99400 22.68000
C  41.61800 43.24500 24.13600
C  43.72800 41.58500 22.00200
C  40.06400 43.07200 22.19900
C  39.09800 42.14200 22.92900
N  41.15900 43.94700 27.07200
C  41.01000 44.78600 26.00800
C  40.64000 46.07900 26.50900
C  40.52900 45.97500 27.84800
C  40.85200 44.59200 28.15700
C  40.33600 47.29200 25.63600
C  40.20500 46.62600 29.11700
O  39.84200 47.76500 29.39600
C  40.42100 45.49100 30.20600
C  41.34000 45.98500 31.33300
O  42.52900 46.26200 31.27600
O  40.52600 46.36000 32.30000
C  41.23300 46.93400 33.51000
H  42.72300 39.03800 30.09100
H  43.13300 39.35500 23.62700
H  41.06800 45.14500 23.93100
H  42.21400 43.20100 31.82200
H  41.25500 40.34500 31.65600
H  44.03100 41.61500 32.57200
H  44.01800 40.40500 31.39400
H  43.03500 40.13000 32.85400
H  39.16300 42.65700 31.68200
H  40.06400 43.67600 32.85700
H  40.79400 41.12800 33.71000
H  39.13200 41.04100 33.18700
H  44.80500 36.91400 28.64000
H  43.32800 36.01600 28.23800
H  43.24000 37.13200 29.54300
H  43.35100 35.21500 26.02200
H  45.15800 35.73000 25.93500
H  44.21700 35.04400 24.56500
H  41.69000 40.90900 22.09900
H  42.06200 43.86500 22.30300
H  44.51200 41.42200 22.74100
H  44.01100 42.48200 21.45300
H  43.58900 40.73900 21.32900
H  39.93900 42.90200 21.13000
H  39.72600 44.08300 22.42700
H  38.50900 42.64700 23.69400
H  39.61300 41.28100 23.35400
H  38.39000 41.66300 22.25200
H  41.11300 48.00500 25.91000
H  39.36700 47.75000 25.83500
H  40.33600 46.98600 24.59000
H  39.46600 45.38100 30.72000
H  41.80100 46.12500 33.97000
H  40.43900 47.21000 34.20500
H  41.96800 47.68600 33.22300
Mg 0.07700 42.52900 25.89800
C  2.51100 42.24200 28.33600
C  -2.31700 41.62900 28.21400
C  -2.25400 42.68100 23.39300
C  2.64800 42.86900 23.49200
N  0.18500 41.89000 27.98400
C  1.20900 42.04000 28.85200
C  0.85100 41.64500 30.35100
C  -0.71400 41.33400 30.19100
C  -0.96700 41.56200 28.64300
C  -1.22200 39.99300 30.78800
C  1.23200 42.77100 31.35800
C  1.53000 42.17200 32.74500
H  0.79700 40.85000 33.21800
N  -1.98300 42.14900 25.76200
C  -2.79400 41.83000 26.85400
C  -4.14200 41.60100 26.42600
C  -4.15300 41.98600 25.01100
C  -2.77900 42.33200 24.64800
C  -5.34800 41.24500 27.20800
C  -5.28800 41.95800 24.07100
O  -5.21200 42.39700 22.92900
C  -6.66100 41.53700 24.49100
N  0.20700 42.89000 23.80900
C  -0.94500 42.91500 23.01600
C  -0.55500 43.13600 21.52900
C  1.00800 43.52100 21.59200
C  1.34800 43.12700 23.04500
C  -0.92200 42.03100 20.58300
C  1.39200 45.03500 21.31300
C  0.52500 46.19900 21.85500
N  2.16000 42.53300 25.86700
C  3.03200 42.64600 24.85400
C  4.42400 42.56300 25.46500
C  4.22500 42.51400 26.76200
C  2.83400 42.43100 26.97900
C  5.74000 42.46500 24.70500
C  4.91300 42.40100 28.02800
O  6.12500 42.35600 28.34000
C  3.81600 42.18800 29.03600
C  4.08300 40.97400 29.84300
O  4.01500 39.85900 29.37100
O  4.42600 41.22500 31.15500
C  4.64500 40.02600 31.94200
H  -3.12600 41.27700 28.85800
H  -2.82200 42.79100 22.46700
H  3.40100 43.16300 22.75900
H  1.50100 40.79700 30.56900
H  -1.31200 42.08200 30.71200
H  -0.37100 39.39200 31.10700
H  -1.74700 39.34600 30.08600
H  -1.95800 40.11500 31.58300
H  0.47100 43.54400 31.46800
H  2.16300 43.29100 31.13200
H  1.25600 42.91600 33.49300
H  2.60100 42.02000 32.88100
H  -6.02100 42.09500 27.32100
H  -5.00200 40.89500 28.18100
H  -5.90300 40.39400 26.81300
H  -6.74500 40.46700 24.67700
H  -7.33500 41.72400 23.65500
H  -6.92700 42.23400 25.28600
H  -1.09700 44.03600 21.23800
H  1.64300 42.89900 20.96000
H  -1.41700 41.18600 21.06200
H  -0.02700 41.70300 20.05600
H  -1.64500 42.53200 19.93900
H  1.65900 45.22100 20.27300
H  2.35700 45.18200 21.79800
H  0.30500 46.95500 21.10200
H  1.00300 46.61800 22.74000
H  -0.40600 45.75900 22.21300
H  6.63400 42.50300 25.32700
H  5.81900 43.39400 24.14100
H  5.92100 41.52800 24.17900
H  3.91700 43.08800 29.64300
H  3.64100 39.63600 32.10700
H  5.18200 40.45700 32.78700
H  5.31400 39.27600 31.51900

