158

Mg -0.13400 7.04900 25.68200
C  0.79300 9.06000 28.55000
C  -0.15400 4.42000 27.78700
C  -0.57100 5.07200 23.08200
C  0.54000 9.75200 23.73000
N  0.58600 6.75600 27.88500
C  0.61100 7.70800 28.88300
C  0.63700 7.09800 30.31300
C  0.57500 5.63800 29.96300
C  0.36400 5.53700 28.47600
C  1.79600 4.76600 30.36100
C  -0.43300 7.59300 31.30200
C  0.10300 7.97700 32.73300
H  1.30500 7.23400 33.31300
N  -0.43700 5.01000 25.46600
C  -0.43900 4.07800 26.46900
C  -0.81100 2.79700 25.92500
C  -0.91300 2.92700 24.55300
C  -0.65100 4.34200 24.31200
C  -1.12000 1.64500 26.70700
C  -1.21800 1.87100 23.50700
O  -1.20100 2.21700 22.31500
C  -1.65200 0.38100 23.70500
N  0.15200 7.28000 23.74800
C  -0.32900 6.38300 22.87300
C  -0.38300 7.04400 21.45300
C  0.07700 8.49700 21.66900
C  0.19600 8.51800 23.18700
C  0.45800 6.36500 20.36400
C  -0.85400 9.54600 21.12300
C  -2.03000 9.96000 21.87600
N  0.51800 9.04600 26.03100
C  0.74800 10.03600 25.09100
C  1.04800 11.27200 25.74600
C  1.07300 10.97100 27.13500
C  0.82300 9.57700 27.25100
C  1.31000 12.67500 25.03800
C  1.30500 11.44100 28.47500
O  1.74100 12.51600 28.77800
C  0.98600 10.24600 29.47200
C  2.15900 10.12900 30.36000
O  3.09800 9.33800 30.23500
O  2.09100 11.05600 31.41900
C  3.33000 10.95400 32.25600
H  -0.21300 3.56000 28.45800
H  -0.58400 4.47400 22.16900
H  0.63500 10.59500 23.04100
H  1.62900 7.33600 30.69800
H  -0.28800 5.08900 30.34000
H  2.44200 4.69900 29.48500
H  1.57000 3.72600 30.59400
H  2.38400 5.23200 31.15200
H  -1.22900 6.85600 31.40900
H  -0.92800 8.43800 30.82300
H  -0.75400 7.94700 33.40600
H  0.49400 8.99400 32.71500
H  -2.13700 1.69000 27.09800
H  -0.33400 1.64400 27.46300
H  -0.98300 0.67100 26.23600
H  -1.05000 -0.14100 24.44900
H  -1.51500 -0.10600 22.74000
H  -2.67100 0.43400 24.08900
H  -1.40500 7.14500 21.08600
H  1.09100 8.67900 21.31100
H  0.67100 5.30800 20.52300
H  1.39000 6.93100 20.34900
H  0.00500 6.45900 19.37700
H  -1.20800 9.22100 20.14500
H  -0.29100 10.46200 20.94700
H  -1.96800 10.98100 22.25300
H  -2.22300 9.28500 22.71000
H  -2.91700 9.91600 21.24400
H  0.30300 13.06800 24.90200
H  1.89400 12.57000 24.12400
H  1.84300 13.37400 25.68200
H  0.05600 10.38000 30.02600
H  4.27000 11.23400 31.78100
H  3.35200 9.94500 32.66800
H  3.16500 11.71700 33.01700
Mg -1.80300 33.72300 25.45500
C  -3.46000 32.10700 28.20200
C  -0.44000 35.85400 27.84900
C  -0.36600 35.34600 23.01700
C  -3.22500 31.47100 23.33900
N  -1.96100 33.94000 27.81500
C  -2.60800 33.09400 28.69300
C  -2.40600 33.59300 30.13100
C  -1.53600 34.90600 29.95900
C  -1.30400 34.92800 28.42100
C  -2.15800 36.24900 30.51000
C  -1.89300 32.64200 31.23100
C  -2.75600 32.63300 32.52400
H  -2.03600 32.52400 33.88200
N  -0.49700 35.38000 25.42200
C  -0.08300 36.12500 26.47500
C  0.88300 37.21800 25.99300
C  0.96800 37.00200 24.52300
C  0.01800 35.90800 24.23700
C  1.73300 38.02000 26.93200
C  1.82300 37.65800 23.51300
O  1.75800 37.32900 22.31300
C  2.77000 38.84200 23.83600
N  -1.75200 33.39700 23.48900
C  -1.15800 34.25200 22.63700
C  -1.45700 33.95800 21.16200
C  -2.24300 32.61500 21.26100
C  -2.40600 32.44800 22.77900
C  -2.23800 35.10900 20.45000
C  -1.53500 31.36200 20.61700
C  -0.47200 30.65400 21.47800
N  -3.10300 32.13800 25.66700
C  -3.61500 31.30500 24.65300
C  -4.56000 30.40800 25.26800
C  -4.49200 30.64500 26.62000
C  -3.59700 31.75100 26.88500
C  -5.44300 29.41700 24.53000
C  -5.05200 30.29600 27.93800
O  -5.95600 29.50200 28.18400
C  -4.37100 31.25700 28.96500
C  -5.38700 31.95100 29.84200
O  -5.74200 33.14200 29.63800
O  -5.78500 31.15300 30.94500
C  -6.35200 31.89900 32.06000
H  -0.06700 36.50100 28.64600
H  0.04500 35.77300 22.10000
H  -3.89800 30.96100 22.64700
H  -3.35400 34.01400 30.46400
H  -0.56300 34.77500 30.43300
H  -1.40300 36.83200 31.03700
H  -3.08600 36.03700 31.04100
H  -2.49700 36.88700 29.69400
H  -0.85300 32.90400 31.42400
H  -1.85400 31.60000 30.91600
H  -3.12000 31.60900 32.44100
H  -3.53700 33.39300 32.56200
H  2.78100 37.91100 26.65400
H  1.56800 37.65700 27.94700
H  1.54500 39.09300 26.89200
H  3.04400 39.39500 22.93700
H  3.74800 38.47800 24.14900
H  2.32700 39.46300 24.61400
H  -0.44300 33.68100 20.87400
H  -3.26500 32.75200 20.90700
H  -2.19400 35.97400 21.11200
H  -3.27700 34.78800 20.38200
H  -1.73200 35.31500 19.50700
H  -1.09400 31.72300 19.68800
H  -2.42900 30.76400 20.44000
H  -0.08700 31.20300 22.33800
H  0.41900 30.62000 20.85000
H  -0.71800 29.61800 21.70800
H  -4.92300 28.87700 23.74000
H  -6.37800 29.94000 24.32900
H  -5.79000 28.69600 25.27100
H  -3.83800 30.59000 29.64100
H  -6.71500 31.27300 32.87500
H  -7.22000 32.36400 31.59300
H  -5.60700 32.62600 32.38300

