158

Mg 41.38800 8.39000 29.97700
C  43.21800 9.69500 32.75000
C  38.98600 7.51300 32.21100
C  39.87100 7.17900 27.41600
C  44.13300 9.36100 27.93300
N  41.22800 8.54800 32.22300
C  42.02100 9.09000 33.19700
C  41.53700 8.96400 34.62300
C  40.09800 8.31600 34.33200
C  40.11300 8.08400 32.81700
C  39.76200 7.10900 35.18400
C  41.57400 10.33200 35.40300
C  40.64600 10.56300 36.65600
H  41.30000 10.24100 38.03900
N  39.62300 7.39700 29.83100
C  38.77100 7.10800 30.86300
C  37.57100 6.49900 30.29900
C  37.78500 6.58300 28.86400
C  39.17600 6.99800 28.63200
C  36.40200 5.97500 31.10600
C  36.74300 6.31900 27.72600
O  37.01300 6.26800 26.49600
C  35.22900 6.29500 28.03900
N  42.04400 8.17600 27.89200
C  41.10500 7.71000 27.04400
C  41.69600 7.75600 25.61100
C  43.04500 8.61400 25.69900
C  43.06100 8.76500 27.23500
C  41.91800 6.30900 24.98800
C  43.07200 9.96000 24.85200
C  44.18900 10.06600 23.91800
N  43.26300 9.25700 30.19500
C  44.22300 9.77100 29.26300
C  45.34900 10.31600 29.99000
C  44.97400 10.33400 31.30000
C  43.69200 9.64500 31.41400
C  46.47200 10.98900 29.42500
C  45.44200 10.79400 32.59700
O  46.38700 11.47900 32.95100
C  44.35200 10.32600 33.61800
C  44.99600 9.46200 34.59400
O  45.00900 8.22300 34.51400
O  45.44400 10.10500 35.70500
C  45.58100 9.36300 36.99000
H  38.11800 7.42500 32.86800
H  39.36300 6.84700 26.50700
H  44.90700 9.75200 27.26900
H  42.17500 8.26200 35.15900
H  39.30700 9.04700 34.49600
H  39.36300 6.24600 34.65000
H  38.97000 7.50100 35.82300
H  40.58300 6.84500 35.85000
H  41.47700 11.22500 34.78600
H  42.60100 10.40400 35.76000
H  39.77700 9.90600 36.61500
H  40.30600 11.59700 36.71700
H  35.50100 6.58900 31.11200
H  36.87100 5.84000 32.08000
H  36.14000 5.00400 30.68400
H  34.83000 5.46700 28.62500
H  34.73100 6.37600 27.07300
H  34.98000 7.25400 28.49300
H  41.00100 8.36500 25.03200
H  43.94000 8.08200 25.37800
H  41.26700 5.65900 25.57200
H  42.96800 6.04600 25.12100
H  41.56300 6.42400 23.96400
H  43.18100 10.75300 25.59200
H  42.08200 10.09800 24.41600
H  44.68200 11.03400 23.82700
H  43.79500 9.95400 22.90800
H  44.97700 9.31200 23.93300
H  46.67200 12.04200 29.62400
H  46.46200 10.85100 28.34400
H  47.32700 10.34800 29.64100
H  44.04200 11.23900 34.12800
H  45.85400 8.32200 36.81300
H  44.65900 9.34600 37.57100
H  46.34700 9.82500 37.61200
Mg 48.47200 15.69900 29.35400
C  46.21900 15.40800 31.82200
C  50.47400 17.48200 31.37200
C  50.48600 16.35100 26.73900
C  46.03300 14.49400 27.08600
N  48.22400 16.55200 31.29400
C  47.34400 16.13500 32.19700
C  47.77600 16.39100 33.64400
C  48.96400 17.38300 33.41900
C  49.26200 17.13600 31.93500
C  48.68000 18.87000 33.64600
C  48.15500 15.07300 34.34700
C  47.86800 15.14100 35.89200
H  47.70500 16.54200 36.57800
N  50.26100 16.74900 29.09300
C  50.93200 17.34100 30.08500
C  52.27100 17.56900 29.62800
C  52.29300 17.42900 28.23500
C  50.95500 16.85600 27.96200
C  53.33900 18.21800 30.53000
C  53.33900 17.62500 27.22700
O  53.12300 17.43800 26.04000
C  54.78200 18.03600 27.65800
N  48.19300 15.69600 27.22100
C  49.26800 15.86900 26.36000
C  48.96800 15.50700 24.87800
C  47.63200 14.70700 25.09300
C  47.21900 14.97700 26.56300
C  48.81200 16.76500 24.08100
C  47.78800 13.25100 24.74500
C  48.46700 12.26800 25.73700
N  46.52200 15.00800 29.46400
C  45.64600 14.51700 28.55000
C  44.42300 14.09200 29.22000
C  44.62400 14.40100 30.52500
C  45.91600 14.96400 30.57200
C  43.25600 13.43000 28.65000
C  44.08400 14.32900 31.85000
O  42.98800 13.82400 32.10400
C  45.14600 14.93500 32.79400
C  44.47600 16.04100 33.55300
O  43.85900 16.92500 32.98900
O  44.49100 15.75200 34.91100
C  43.76600 16.79100 35.64700
H  51.15900 18.11700 31.93900
H  51.13500 16.46300 25.86700
H  45.33800 14.08300 26.35100
H  46.99800 16.90000 34.21400
H  49.88400 17.07800 33.91800
H  47.65700 19.13400 33.91500
H  48.85800 19.34400 32.68100
H  49.44000 19.30700 34.29400
H  49.23300 14.91500 34.32300
H  47.57800 14.24400 33.93800
H  48.62300 14.70600 36.54700
H  46.99000 14.49800 35.95600
H  53.53700 19.22900 30.17500
H  54.24700 17.65400 30.31400
H  53.10000 18.21500 31.59400
H  54.74900 19.07700 27.97700
H  55.51000 17.99500 26.84800
H  55.26400 17.41600 28.41400
H  49.80100 14.88200 24.55700
H  46.82100 15.08200 24.46900
H  49.66500 16.70800 23.40500
H  48.70600 17.71600 24.60300
H  47.93500 16.78600 23.43400
H  48.41700 13.20800 23.85600
H  46.80900 12.88400 24.44000
H  49.29200 11.84500 25.16200
H  47.81500 11.47100 26.09300
H  48.87700 12.80300 26.59400
H  42.43200 13.94300 29.14600
H  43.27900 12.38300 28.95200
H  43.17300 13.45000 27.56300
H  45.39500 14.19800 33.55700
H  42.70000 16.58300 35.55200
H  44.03900 17.81900 35.41300
H  43.89600 16.63300 36.71800

