158

Mg 16.08600 -2.48500 27.45500
C  15.06600 -0.44800 30.11700
C  17.64400 -4.50600 29.73500
C  17.38900 -4.20900 24.84600
C  14.90000 -0.09100 25.22300
N  16.50000 -2.38200 29.68200
C  15.92500 -1.47600 30.59400
C  16.28700 -1.78700 32.06800
C  17.36000 -3.02900 31.80200
C  17.16300 -3.37300 30.34000
C  18.88300 -2.82900 32.12700
C  14.98300 -2.18300 32.84300
C  14.88700 -1.55600 34.29600
H  16.09300 -0.80600 34.94400
N  17.32700 -4.08200 27.30200
C  17.83300 -4.85800 28.41900
C  18.66100 -5.91900 27.91200
C  18.57200 -5.84300 26.54000
C  17.75400 -4.64800 26.14200
C  19.23500 -7.06200 28.82400
C  19.16400 -6.77500 25.55600
O  18.97100 -6.76900 24.33200
C  20.13900 -7.91400 26.01200
N  16.21300 -2.23300 25.38000
C  16.66000 -3.10000 24.47900
C  16.47900 -2.56500 22.99500
C  15.54400 -1.36600 23.18400
C  15.60100 -1.18800 24.68800
C  17.85600 -2.21800 22.27800
C  14.05000 -1.45300 22.72400
C  12.91400 -1.89800 23.65600
N  15.21900 -0.63600 27.57800
C  14.59900 0.14800 26.57500
C  13.76200 1.15000 27.16600
C  13.98900 1.02600 28.57000
C  14.82600 -0.09500 28.74400
C  12.98600 2.29100 26.43700
C  13.64500 1.58200 29.88800
O  12.98500 2.58000 30.20100
C  14.34200 0.65900 30.96800
C  15.29300 1.45200 31.83000
O  16.53700 1.40100 31.77300
O  14.54200 2.32100 32.63800
C  15.27200 3.22500 33.50900
H  18.18800 -5.16000 30.42000
H  17.59400 -4.86600 23.99800
H  14.37000 0.65600 24.62800
H  16.90600 -1.03500 32.55700
H  16.99500 -3.93700 32.28000
H  19.14200 -3.68500 32.74900
H  18.96200 -1.88500 32.66700
H  19.48200 -2.92000 31.22100
H  14.93200 -3.27100 32.88000
H  14.07200 -1.87400 32.33000
H  14.67300 -2.31200 35.05200
H  14.11900 -0.78300 34.33200
H  18.83200 -7.98800 28.41500
H  18.89500 -7.02800 29.85800
H  20.32400 -7.06100 28.86500
H  19.58800 -8.59300 26.66300
H  20.99800 -7.42300 26.46900
H  20.45300 -8.43600 25.10800
H  16.01800 -3.33200 22.37300
H  16.04200 -0.52400 22.70300
H  18.15100 -1.16900 22.30800
H  17.87800 -2.61600 21.26300
H  18.61400 -2.73200 22.86900
H  13.98200 -2.13200 21.87400
H  13.80100 -0.44200 22.40000
H  13.28000 -2.46800 24.51000
H  12.24100 -2.56700 23.12000
H  12.39300 -1.03100 24.06100
H  12.69100 1.91900 25.45600
H  13.68900 3.12100 26.36400
H  12.06600 2.59500 26.93600
H  13.63200 0.27300 31.69900
H  15.05600 4.26000 33.24600
H  16.31700 2.93700 33.61700
H  14.79500 2.97500 34.45600
Mg 48.53400 35.98900 28.79800
C  46.32600 34.55600 31.10900
C  48.89900 38.64500 30.86200
C  50.07900 37.65800 26.23700
C  47.71100 33.31400 26.58000
N  47.81200 36.44800 30.74200
C  47.06500 35.67100 31.56500
C  47.27900 36.06800 32.97600
C  47.49300 37.60000 32.70900
C  48.15900 37.59100 31.35600
C  46.22100 38.59700 32.90800
C  48.53900 35.37700 33.58800
C  48.68700 35.33200 35.07100
H  47.87800 36.13700 36.04100
N  49.45400 37.90200 28.61100
C  49.53700 38.77700 29.60000
C  50.27300 39.93800 29.12900
C  50.78900 39.52300 27.83600
C  50.08900 38.34100 27.47200
C  50.45400 41.22300 29.90200
C  51.83400 40.23700 26.98300
O  52.22000 39.86800 25.88200
C  52.51300 41.52100 27.51000
N  48.98100 35.43200 26.81400
C  49.48200 36.33800 25.92100
C  49.55100 35.89100 24.52300
C  49.00200 34.40500 24.60500
C  48.54300 34.33500 26.05600
C  48.71700 36.75100 23.47300
C  50.00800 33.17700 24.29000
C  50.00800 32.79400 22.76400
N  47.30500 34.21200 28.77200
C  47.01400 33.30100 27.78800
C  46.14500 32.37800 28.26600
C  45.82200 32.80800 29.55100
C  46.55800 33.94500 29.84000
C  45.70300 31.06800 27.57900
C  45.01700 32.50500 30.74400
O  44.14600 31.64600 30.89300
C  45.32200 33.62300 31.75900
C  45.70200 33.06700 33.13000
O  46.77200 32.53400 33.40000
O  44.66000 33.33600 34.05100
C  44.83100 32.79600 35.34600
H  49.01800 39.50400 31.52600
H  50.66500 38.14400 25.45500
H  47.52000 32.58100 25.79300
H  46.41100 35.96500 33.62800
H  48.23400 37.96800 33.41800
H  46.36200 39.28000 33.74600
H  45.35100 38.00900 33.20300
H  45.91000 39.11600 32.00200
H  49.39000 35.90300 33.15500
H  48.61200 34.46400 32.99700
H  49.70300 35.69900 35.21800
H  48.65700 34.26000 35.26800
H  50.23600 41.95100 29.12000
H  51.47100 41.27700 30.29200
H  49.69000 41.42600 30.65100
H  51.80200 42.28800 27.81500
H  53.06900 41.85800 26.63500
H  53.12300 41.38400 28.40300
H  50.62200 35.96700 24.33600
H  48.15100 34.34600 23.92600
H  48.72200 37.80000 23.76800
H  47.67400 36.44200 23.55100
H  48.97600 36.67300 22.41700
H  49.82500 32.29800 24.90900
H  51.03200 33.45200 24.54200
H  49.49000 31.85100 22.59100
H  50.98000 32.60900 22.30800
H  49.44200 33.58300 22.26700
H  44.92900 30.55300 28.14900
H  46.65900 30.54400 27.55600
H  45.29800 31.08100 26.56700
H  44.42900 34.15000 32.09600
H  45.22800 33.63700 35.91500
H  45.49200 31.93100 35.38400
H  43.87900 32.41000 35.71100

