158

Mg 50.73000 46.12900 43.25200
C  47.91200 47.44800 41.67900
C  49.94500 43.14400 41.66900
C  53.83600 45.04200 43.95300
C  51.52100 49.37800 44.31300
N  49.10000 45.39700 41.84700
C  47.99800 46.09000 41.42700
C  47.09100 45.21700 40.58200
C  47.62000 43.76000 40.98000
C  48.93900 44.06200 41.58400
C  46.63600 42.98800 41.87500
C  47.23200 45.55500 39.05300
C  46.01500 46.04400 38.22900
H  45.47200 45.03300 37.20500
N  51.77700 44.30300 42.91000
C  51.21500 43.14000 42.27100
C  52.20200 42.04100 42.38200
C  53.39100 42.63500 42.95100
C  53.05500 44.07200 43.25400
C  51.92900 40.53700 42.05700
C  54.73700 41.88600 43.24000
O  54.84700 40.70300 42.88300
C  55.92200 42.53900 43.86200
N  52.42000 47.05500 43.96200
C  53.55900 46.33500 44.29000
C  54.60000 47.33800 44.84600
C  53.86200 48.68800 45.04100
C  52.52400 48.36400 44.34800
C  55.47300 46.83600 46.06800
C  54.67000 49.88000 44.47200
C  54.92200 51.00700 45.52200
N  49.91200 48.09500 43.04000
C  50.29200 49.29800 43.57800
C  49.34300 50.27900 43.16800
C  48.35400 49.63600 42.50100
C  48.82800 48.30400 42.37600
C  49.52600 51.79600 43.40800
C  47.05200 49.78600 41.86000
O  46.25900 50.71200 41.80100
C  46.72600 48.38000 41.31100
C  45.36100 47.92600 41.76000
O  45.03500 47.49000 42.85500
O  44.51600 48.07300 40.67800
C  43.16400 47.48700 40.98900
H  49.59100 42.25200 41.14700
H  54.86700 44.75300 44.17000
H  51.76600 50.29900 44.84600
H  46.05600 45.31000 40.91200
H  47.78300 43.12500 40.10900
H  45.72700 43.56900 42.03000
H  47.00900 42.93100 42.89700
H  46.53900 42.00700 41.40900
H  47.73200 44.82000 38.42200
H  48.00000 46.31900 38.94000
H  46.15400 46.94300 37.62900
H  45.26800 46.31200 38.97700
H  51.11400 40.38300 41.35000
H  51.71600 39.94000 42.94400
H  52.74100 40.01100 41.55300
H  55.54600 42.90700 44.81700
H  56.37700 43.31500 43.24700
H  56.78000 41.87500 43.96900
H  55.33600 47.54900 44.07100
H  53.60000 48.93100 46.07100
H  55.30300 45.76300 46.15600
H  55.31600 47.27800 47.05200
H  56.52300 46.90300 45.78400
H  54.06800 50.27100 43.65200
H  55.66300 49.54900 44.16900
H  55.99800 51.04700 45.69400
H  54.29700 50.88200 46.40600
H  54.64900 51.97400 45.10000
H  50.05700 52.26300 42.57800
H  49.90600 52.02600 44.40400
H  48.53400 52.24300 43.34800
H  46.68900 48.47200 40.22500
H  43.21600 46.39900 40.94700
H  42.51000 47.80500 40.17800
H  42.83800 47.86700 41.95800
Mg 9.51900 48.54000 25.26400
C  7.58100 48.93500 28.07200
C  12.11600 49.95100 27.04700
C  11.46300 48.25800 22.58200
C  6.73700 47.99900 23.34500
N  9.74500 49.30600 27.26800
C  8.89700 49.26400 28.27800
C  9.43600 49.88100 29.61900
C  10.64000 50.63800 29.00400
C  10.84100 49.94000 27.68400
C  10.49200 52.18100 28.92100
C  9.79600 48.82900 30.69700
C  9.25500 49.14600 32.19400
H  9.97900 50.09500 33.12900
N  11.55700 48.89700 24.93700
C  12.43100 49.48200 25.81200
C  13.72300 49.43000 25.21400
C  13.62000 48.95400 23.94900
C  12.18800 48.65700 23.74500
C  15.00400 49.74600 25.96600
C  14.67100 48.81000 22.85000
O  14.38600 48.44600 21.70200
C  16.20200 49.17500 23.04300
N  9.11300 48.40200 23.22200
C  10.11300 48.07900 22.35600
C  9.54500 47.78700 20.92000
C  8.00600 47.62800 21.16800
C  7.91000 48.09400 22.67200
C  10.13800 48.76200 19.83300
C  7.40000 46.20900 20.93000
C  6.78300 46.12300 19.48400
N  7.48800 48.46900 25.59800
C  6.46100 48.21800 24.74300
C  5.19200 48.15600 25.50600
C  5.62200 48.36800 26.80600
C  6.99100 48.63000 26.78400
C  3.83400 47.92400 24.94100
C  5.16900 48.58000 28.18000
O  4.02900 48.54400 28.70200
C  6.42700 48.94000 28.99700
C  6.54300 47.89300 30.00900
O  7.01800 46.78300 29.74300
O  6.16500 48.22000 31.29300
C  6.18000 47.10400 32.21800
H  12.86700 50.37200 27.71900
H  11.98200 48.04100 21.64600
H  5.92400 47.64800 22.70600
H  8.67000 50.56200 29.99000
H  11.55000 50.42200 29.56400
H  9.77800 52.54000 29.66300
H  9.87300 52.40300 28.05200
H  11.45900 52.68100 28.97400
H  10.85800 48.58200 30.68900
H  9.36700 47.92400 30.26700
H  9.06700 48.22500 32.74600
H  8.27700 49.59800 32.02400
H  15.00300 50.15700 26.97600
H  15.41900 50.57000 25.38500
H  15.67900 48.89000 25.96600
H  16.81500 48.64600 23.77300
H  16.05500 50.23400 23.25200
H  16.71700 49.01700 22.09500
H  9.89300 46.76300 20.78600
H  7.49300 48.30900 20.49000
H  9.37500 49.54000 19.82400
H  10.20400 48.32000 18.83800
H  11.13700 49.16600 19.99300
H  6.58300 46.08200 21.64000
H  8.15100 45.43100 21.07400
H  7.52100 45.72600 18.78700
H  6.22200 46.95400 19.05600
H  6.13300 45.24900 19.46400
H  3.75800 46.91200 24.54400
H  3.70800 48.60900 24.10200
H  3.03300 47.92300 25.68000
H  6.26700 49.91000 29.46800
H  7.18200 46.67800 32.26400
H  5.39500 46.43000 31.87600
H  5.83700 47.49600 33.17600

