158

Mg 16.73400 51.68100 26.27400
C  18.79700 50.06900 28.43600
C  14.82200 52.55600 29.02700
C  14.69700 53.34600 24.16200
C  18.72000 50.59900 23.49100
N  16.97800 51.53200 28.51100
C  17.94500 50.82100 29.16800
C  17.78600 50.85300 30.68200
C  16.26600 51.28100 30.73100
C  15.97500 51.83800 29.33800
C  15.26200 50.18100 31.21600
C  18.74500 51.91200 31.28000
C  19.02800 51.76300 32.81300
H  18.19500 50.92500 33.74000
N  14.88900 52.66100 26.55700
C  14.31600 53.00200 27.76600
C  13.23100 53.76700 27.49200
C  13.09800 53.93900 26.07700
C  14.24900 53.26500 25.51500
C  12.19800 54.17800 28.56200
C  11.94500 54.61700 25.30600
O  11.84000 54.63500 24.11200
C  10.98800 55.44800 25.98900
N  16.79200 51.93600 24.16200
C  15.84100 52.67900 23.58100
C  16.00100 52.75900 22.01900
C  17.41100 52.04600 21.82800
C  17.69700 51.56100 23.24600
C  14.92500 52.00300 21.15600
C  18.44500 53.10000 21.40200
C  18.45500 53.46700 19.85000
N  18.43800 50.56300 25.97000
C  19.03700 50.08000 24.76200
C  19.95900 49.05700 25.06100
C  19.89400 48.98800 26.52400
C  19.03400 50.01000 27.02300
C  20.82600 48.35300 24.06300
C  20.49800 48.44400 27.69900
O  21.36500 47.60500 27.83400
C  19.78200 49.11200 29.03400
C  19.10200 48.10500 29.84000
O  18.02500 47.63400 29.57800
O  19.97200 47.76200 30.84600
C  19.38300 46.80700 31.83700
H  14.19400 52.76700 29.89600
H  14.00900 53.77900 23.43300
H  19.26600 50.21300 22.62800
H  18.02300 49.93300 31.21500
H  16.20100 52.08600 31.46300
H  14.54700 49.87900 30.45100
H  14.68500 50.59200 32.04400
H  15.87900 49.30800 31.43000
H  18.35500 52.91700 31.11700
H  19.72700 51.85700 30.81200
H  19.05500 52.73600 33.30400
H  20.08000 51.48700 32.88900
H  11.17400 53.86500 28.35600
H  12.29100 55.25200 28.72700
H  12.49400 53.69600 29.49400
H  10.76200 56.32400 25.38000
H  11.49300 55.87600 26.85500
H  10.11500 54.83300 26.20500
H  15.94100 53.80500 21.71900
H  17.44600 51.41500 20.93900
H  14.28300 51.46000 21.84800
H  15.45200 51.26400 20.55200
H  14.43400 52.80000 20.59800
H  19.45100 52.74500 21.62400
H  18.28600 53.97300 22.03600
H  19.47200 53.20000 19.56300
H  18.37300 54.53500 19.64700
H  17.67200 52.98000 19.27000
H  21.35700 47.55700 24.58500
H  21.46500 49.10500 23.60000
H  20.09000 47.93300 23.37600
H  20.57300 49.59000 29.61300
H  18.42900 46.34200 31.58700
H  19.38800 47.42500 32.73600
H  20.11500 46.00800 31.95000
Mg -11.97100 37.83800 42.13500
C  -10.07400 35.17900 41.04100
C  -9.60800 40.01200 40.60600
C  -14.12100 40.59300 42.51500
C  -14.27700 35.74000 43.37200
N  -10.14900 37.59300 40.82100
C  -9.53700 36.33300 40.61000
C  -8.22000 36.55000 39.86200
C  -8.01700 38.10000 40.04100
C  -9.31300 38.63700 40.59300
C  -6.81500 38.62600 40.85000
C  -8.33800 35.92700 38.39000
C  -7.23200 34.90300 37.89800
H  -6.46400 35.32400 36.61200
N  -11.82200 40.05400 41.74900
C  -10.71400 40.67300 41.16900
C  -11.07400 42.08700 41.00500
C  -12.39900 42.29800 41.69400
C  -12.88400 40.93000 42.00300
C  -10.08400 43.16400 40.36400
C  -13.00300 43.65600 41.89600
O  -12.50800 44.67100 41.37300
C  -14.24700 43.77100 42.65000
N  -13.91600 38.16500 42.74100
C  -14.57500 39.30200 42.96400
C  -16.01200 39.01500 43.52400
C  -15.85800 37.60200 44.10300
C  -14.63500 37.07000 43.32100
C  -16.52900 40.00000 44.48000
C  -17.07600 36.70300 44.01500
C  -17.40100 36.02600 45.40600
N  -12.23500 35.82400 42.26300
C  -13.17100 35.07700 42.82200
C  -12.86000 33.64100 42.81200
C  -11.65700 33.66500 42.04500
C  -11.36600 34.94600 41.76000
C  -13.67200 32.53500 43.30700
C  -10.67200 32.82000 41.45200
O  -10.51800 31.60300 41.42800
C  -9.65000 33.77800 40.75600
C  -8.29400 33.52400 41.36500
O  -7.33300 33.03600 40.82300
O  -8.40300 33.80600 42.76800
C  -7.14400 33.79500 43.50000
H  -8.84400 40.66800 40.18400
H  -14.87400 41.38100 42.58000
H  -14.86700 35.10200 44.03400
H  -7.47400 35.98500 40.42000
H  -7.80600 38.58800 39.09000
H  -6.10300 37.80000 40.86300
H  -7.18300 38.86400 41.84800
H  -6.33300 39.46800 40.35200
H  -8.46400 36.71000 37.64200
H  -9.26800 35.37400 38.26300
H  -7.74000 33.96700 37.66700
H  -6.49000 34.71800 38.67500
H  -9.37300 42.67400 39.69800
H  -9.67300 43.72500 41.20300
H  -10.71800 43.85900 39.81400
H  -15.00200 43.25400 42.05800
H  -14.58400 44.80500 42.71600
H  -14.17000 43.25000 43.60500
H  -16.71500 39.05500 42.69200
H  -15.66900 37.78300 45.16100
H  -17.41300 40.42700 44.00700
H  -15.78600 40.73200 44.79900
H  -16.86400 39.55200 45.41600
H  -16.99400 35.89200 43.29000
H  -17.99300 37.24100 43.77500
H  -18.45600 36.22000 45.60000
H  -16.76700 36.42600 46.19700
H  -17.13200 34.98000 45.25400
H  -13.05200 31.64800 43.43500
H  -14.45000 32.22500 42.60900
H  -14.07500 32.84600 44.27100
H  -9.53600 33.48000 39.71400
H  -6.61200 34.70500 43.22200
H  -6.58200 32.92100 43.16900
H  -7.46900 33.61700 44.52500

