158

Mg 31.07000 59.21000 40.27900
C  28.46900 57.19500 39.24900
C  33.21300 56.63200 39.46600
C  33.74000 61.52800 40.12400
C  28.96500 61.90000 40.69900
N  30.83600 57.12800 39.44400
C  29.70100 56.50900 39.12600
C  29.95200 55.05700 38.67300
C  31.38800 54.81500 39.11700
C  31.88800 56.26000 39.41300
C  31.67400 53.79300 40.25600
C  29.57000 54.80100 37.23200
C  28.42600 53.74100 36.95800
H  27.79500 53.73700 35.56300
N  33.16700 59.09500 39.90300
C  33.79700 57.91300 39.59200
C  35.26700 58.16600 39.49400
C  35.42600 59.59500 39.39400
C  34.10700 60.18600 39.84300
C  36.25400 57.14200 39.24600
C  36.67700 60.36500 38.97500
O  37.71800 59.75800 38.68300
C  36.61400 61.86100 38.78300
N  31.39800 61.38800 40.48400
C  32.48300 62.10200 40.47000
C  32.35400 63.49400 41.02100
C  30.78200 63.67300 41.14600
C  30.31500 62.22900 40.74800
C  33.15200 63.90900 42.23400
C  30.18400 64.88300 40.32100
C  29.49000 65.85500 41.23400
N  29.07500 59.52700 40.07400
C  28.28400 60.63200 40.41600
C  26.95000 60.24100 40.23900
C  26.96200 58.92300 39.81000
C  28.30300 58.49000 39.67100
C  25.74400 61.08900 40.41400
C  26.11100 57.79800 39.47200
O  24.92100 57.65400 39.38900
C  27.07100 56.63800 39.08400
C  26.66300 55.43100 39.97300
O  27.30800 54.96700 40.93400
O  25.46600 54.98000 39.61600
C  24.91600 53.89600 40.38600
H  33.90700 55.81200 39.27200
H  34.50500 62.30500 40.18600
H  28.17600 62.64600 40.81300
H  29.27900 54.57700 39.38300
H  31.91900 54.54200 38.20500
H  31.86900 52.75700 39.98000
H  30.84600 53.89900 40.95600
H  32.61900 54.05000 40.73500
H  30.46200 54.45200 36.71100
H  29.29300 55.72400 36.72300
H  27.56600 53.77000 37.62700
H  28.98500 52.84200 37.21600
H  36.54200 57.11100 38.19500
H  36.02600 56.15900 39.65800
H  37.13000 57.49700 39.78800
H  36.70000 62.24500 39.79900
H  35.72900 62.15200 38.21600
H  37.40800 62.15400 38.09500
H  32.71400 64.17200 40.24800
H  30.48600 63.70700 42.19400
H  33.37900 62.93900 42.67700
H  32.56400 64.64400 42.78400
H  34.04500 64.40900 41.85700
H  29.47300 64.50800 39.58400
H  30.98300 65.37100 39.76300
H  28.51600 66.23600 40.92700
H  30.10900 66.71000 41.50600
H  29.10800 65.26500 42.06700
H  25.42700 61.12200 39.37200
H  25.97400 62.12000 40.68500
H  25.08500 60.59100 41.12500
H  26.72800 56.32100 38.09900
H  23.84500 53.71100 40.30800
H  25.07800 54.05400 41.45300
H  25.25100 52.88600 40.15400
Mg 7.54300 54.49800 41.36200
C  6.92700 51.10500 40.43800
C  10.78800 54.19200 40.35000
C  7.74700 57.83800 41.54300
C  4.00900 54.69700 41.98300
N  8.60500 52.87800 40.31400
C  8.21400 51.60700 40.10700
C  9.30400 50.89400 39.28000
C  10.63800 51.61300 39.68200
C  10.01200 52.98300 40.22800
C  11.50400 50.93300 40.74300
C  9.00500 51.06300 37.74500
C  9.29900 49.78600 36.86800
H  8.77400 49.76400 35.43200
N  9.12200 55.83200 41.18100
C  10.38700 55.53000 40.72100
C  11.16600 56.71300 40.76400
C  10.36000 57.78200 41.18600
C  9.00500 57.20300 41.38300
C  12.66100 56.67400 40.35300
C  10.79200 59.13000 41.41300
O  11.99200 59.36200 41.29400
C  10.00400 60.26900 41.94400
N  6.03200 56.00100 41.71700
C  6.45700 57.33100 41.68400
C  5.18500 58.21400 41.77300
C  4.00600 57.21900 41.85700
C  4.68700 55.95000 41.83500
C  5.28000 59.41700 42.79500
C  2.99500 57.29800 40.66400
C  1.48600 57.35400 40.97900
N  5.81200 53.15200 41.46000
C  4.53600 53.39900 41.74100
C  3.84300 52.18400 41.71200
C  4.72300 51.23800 41.31500
C  5.93900 51.90900 40.98900
C  2.48000 51.98000 42.29800
C  4.96200 49.82400 41.02900
O  4.28100 48.80200 41.18100
C  6.35800 49.72100 40.28600
C  6.24800 49.32800 38.92300
O  5.68200 49.98600 38.07300
O  6.72200 48.02700 38.81100
C  6.41300 47.46600 37.45300
H  11.86200 54.19600 40.15500
H  7.81800 58.92700 41.58700
H  2.93400 54.60400 42.15100
H  9.16600 49.89200 39.68700
H  11.26000 51.77600 38.80100
H  11.71500 51.63000 41.55300
H  12.41300 50.46200 40.36800
H  10.81800 50.20700 41.17900
H  9.52300 51.92900 37.33300
H  7.94700 51.22500 37.53600
H  8.88100 48.94400 37.42000
H  10.37800 49.64300 36.81200
H  12.99800 57.61400 39.91600
H  12.94100 55.88400 39.65500
H  13.22300 56.44800 41.25900
H  9.61600 59.96200 42.91600
H  9.14000 60.59700 41.36700
H  10.60500 61.16200 42.11800
H  5.03000 58.74400 40.83300
H  3.46100 57.26500 42.79900
H  4.96900 60.29100 42.22400
H  6.27900 59.40600 43.23200
H  4.48300 59.38800 43.53800
H  3.18600 56.37200 40.12200
H  3.26700 58.09100 39.96800
H  1.06900 56.40500 40.64300
H  0.90800 58.09000 40.42000
H  1.34200 57.61200 42.02800
H  2.27600 50.91100 42.34600
H  1.77000 52.49100 41.64600
H  2.32000 52.48700 43.25000
H  6.95200 48.95600 40.78500
H  6.26900 46.44200 37.79800
H  7.25600 47.60200 36.77500
H  5.50600 47.83600 36.97500

