158

Mg 48.05400 15.90400 29.16600
C  45.76000 15.55900 31.71100
C  50.05900 17.71600 31.29600
C  50.08700 16.54100 26.54400
C  45.54200 14.56600 26.94000
N  47.88600 16.62100 31.29700
C  46.90000 16.26800 32.15600
C  47.35700 16.46600 33.61600
C  48.46400 17.53500 33.40000
C  48.88000 17.32100 31.95100
C  47.89800 18.97200 33.57400
C  47.93000 15.11800 34.18700
C  47.95900 14.89200 35.74500
H  48.01500 16.16200 36.68200
N  49.82300 16.90000 28.92000
C  50.50800 17.56100 29.93700
C  51.84900 17.96500 29.47800
C  51.89100 17.64500 28.07500
C  50.53400 17.00200 27.78800
C  52.88000 18.67800 30.23100
C  52.99900 17.84000 27.04300
O  52.94300 17.43800 25.91800
C  54.23000 18.71400 27.36700
N  47.77200 15.76400 27.06300
C  48.78400 16.06300 26.21300
C  48.27400 15.76400 24.76700
C  47.03400 14.90500 24.88400
C  46.75700 15.09100 26.40800
C  48.05900 17.09400 24.01700
C  47.27900 13.38400 24.50600
C  46.22100 12.82400 23.50500
N  46.11300 15.10900 29.24400
C  45.25400 14.60000 28.31600
C  44.04600 14.20200 28.94900
C  44.20400 14.50800 30.30800
C  45.46600 15.06200 30.45300
C  42.86800 13.59900 28.23000
C  43.59100 14.46400 31.59800
O  42.44800 14.07200 31.86000
C  44.59200 15.19100 32.58300
C  43.90900 16.35600 33.25900
O  43.24900 17.23200 32.76100
O  44.18100 16.20300 34.61300
C  43.41700 17.18800 35.42900
H  50.84600 18.12300 31.93500
H  50.77600 16.64900 25.70500
H  44.91100 14.01300 26.24100
H  46.50000 16.80300 34.19900
H  49.22000 17.45100 34.18100
H  48.59700 19.53600 34.19100
H  46.85100 18.96400 33.87700
H  47.91700 19.48100 32.61000
H  48.96600 15.05700 33.85500
H  47.51300 14.25500 33.66600
H  48.85700 14.32100 35.97800
H  47.15800 14.27000 36.14600
H  53.79900 18.10600 30.10500
H  52.75900 18.70800 31.31400
H  52.94400 19.74500 30.01500
H  53.74800 19.67000 27.56900
H  54.77900 18.77100 26.42700
H  54.84400 18.23300 28.12900
H  49.04300 15.20300 24.23600
H  46.21300 15.35600 24.32600
H  47.07800 17.09900 23.54300
H  48.76400 17.10800 23.18600
H  48.21100 17.87500 24.76300
H  47.26300 12.74000 25.38500
H  48.24700 13.41300 24.00600
H  45.30300 13.40700 23.42200
H  45.85400 11.88300 23.91500
H  46.72100 12.77700 22.53700
H  42.88600 12.51500 28.33800
H  42.80300 13.64800 27.14300
H  41.93000 13.97000 28.64300
H  45.02900 14.45900 33.26200
H  42.52600 16.63100 35.71800
H  43.27600 18.17900 34.99800
H  43.89300 17.36300 36.39300
Mg 28.43500 56.17200 40.14300
C  26.18500 53.58800 40.04700
C  30.95700 53.94000 39.17900
C  30.50600 58.67100 39.85300
C  25.64100 58.52000 40.24100
N  28.53400 53.95300 39.79000
C  27.45500 53.12400 39.67800
C  27.79500 51.79300 38.93900
C  29.36700 51.77600 39.16900
C  29.70600 53.28100 39.36700
C  29.79100 50.79800 40.23500
C  27.32900 51.85400 37.45600
C  27.11300 53.29000 36.85100
H  26.51800 53.26800 35.46000
N  30.38700 56.31000 39.58700
C  31.29300 55.27900 39.30500
C  32.61800 55.84700 39.04200
C  32.50700 57.25300 39.16500
C  31.11000 57.44100 39.68700
C  33.90100 55.04100 38.61900
C  33.67300 58.29400 38.89900
O  34.79200 57.91500 38.68100
C  33.47700 59.79800 38.96600
N  28.05100 58.30200 40.16500
C  29.22000 59.11100 40.06000
C  28.87600 60.63500 40.13300
C  27.31300 60.53800 40.17300
C  26.94200 59.04500 40.13700
C  29.58000 61.43500 41.17900
C  26.60700 61.20800 38.95000
C  25.38200 62.11000 39.37000
N  26.32500 56.13100 40.09500
C  25.32300 57.09100 40.19500
C  24.03700 56.44300 40.30100
C  24.34600 55.05700 40.30400
C  25.71800 54.90500 40.07500
C  22.73700 57.05000 40.46400
C  23.78300 53.76000 40.41400
O  22.61100 53.43800 40.69000
C  24.90800 52.77700 40.07100
C  24.99900 51.62600 41.08200
O  24.12800 50.76500 41.27700
O  26.06100 51.70500 41.91600
C  26.23000 50.63500 42.89700
H  31.69700 53.19200 38.88800
H  31.18900 59.51700 39.95000
H  24.75500 59.15800 40.24500
H  27.28900 50.92800 39.37000
H  29.80000 51.44300 38.22600
H  30.30400 51.34400 41.02700
H  30.25600 50.02100 39.63000
H  28.90000 50.35400 40.68000
H  26.49700 51.15600 37.36900
H  28.12400 51.40000 36.86400
H  28.02100 53.87200 36.68900
H  26.35700 53.85300 37.39900
H  33.88200 53.99300 38.91800
H  34.67700 55.42500 39.28100
H  34.13200 55.22900 37.57000
H  33.34200 60.17800 39.97900
H  32.65400 60.09700 38.31800
H  34.33500 60.29600 38.51300
H  29.13100 61.03300 39.15100
H  26.93700 60.91600 41.12300
H  30.10900 60.73000 41.81900
H  28.92200 61.99100 41.84700
H  30.20200 62.16300 40.65800
H  26.22100 60.42300 38.30000
H  27.24000 61.88000 38.36900
H  24.46100 61.66500 38.99400
H  25.51300 63.13900 39.03600
H  25.11400 62.08000 40.42700
H  22.70300 58.13800 40.51700
H  22.27900 56.71000 41.39200
H  22.07900 56.70700 39.66500
H  24.47300 52.42000 39.13800
H  26.00700 50.92200 43.92500
H  27.29700 50.41800 42.84900
H  25.82700 49.66400 42.61000

