158

Mg 46.68800 16.84700 28.72900
C  44.64900 16.66600 31.48900
C  48.79400 18.91500 30.56900
C  48.40300 17.52300 25.97500
C  44.19400 15.27500 26.82500
N  46.66100 17.71500 30.78800
C  45.76100 17.47800 31.72100
C  46.11800 17.91500 33.11300
C  47.41600 18.81800 32.75100
C  47.62300 18.56800 31.22100
C  47.46400 20.32000 33.12300
C  46.38800 16.77700 34.07200
C  46.55400 17.06100 35.54000
H  46.29500 18.45300 36.02600
N  48.39300 18.02900 28.36000
C  49.08100 18.75000 29.21100
C  50.24400 19.33100 28.52500
C  50.13600 19.00000 27.15100
C  48.94300 18.12200 27.12700
C  51.35000 20.12700 29.20500
C  50.95300 19.34400 25.95200
O  50.70600 18.97600 24.78200
C  52.23300 20.10800 26.20700
N  46.36800 16.47600 26.73500
C  47.23900 16.79000 25.80800
C  46.89200 16.40000 24.43300
C  45.61100 15.49100 24.66200
C  45.36600 15.74800 26.16400
C  46.72300 17.67200 23.54300
C  45.74400 13.97500 24.21800
C  44.83400 13.63800 22.97000
N  44.75500 16.03100 29.01800
C  43.82800 15.49300 28.17200
C  42.70800 15.06300 28.87400
C  42.90900 15.52100 30.24500
C  44.23700 16.04100 30.22600
C  41.54500 14.40800 28.32600
C  42.43700 15.66200 31.54600
O  41.32600 15.48400 31.97000
C  43.52000 16.31900 32.47100
C  42.86000 17.47000 33.21800
O  42.64600 18.59500 32.76800
O  42.45000 17.07800 34.46500
C  42.02300 18.04900 35.42600
H  49.53100 19.41600 31.20100
H  49.01800 17.58000 25.07400
H  43.38900 14.77400 26.28300
H  45.21600 18.46500 33.38200
H  48.28900 18.41900 33.26800
H  47.44800 20.89300 32.19600
H  48.37300 20.31500 33.72400
H  46.56200 20.48900 33.71200
H  47.29900 16.28600 33.72900
H  45.59100 16.03400 34.07800
H  47.48500 16.62900 35.90600
H  45.79000 16.53900 36.11600
H  51.23000 21.14300 28.82900
H  52.28000 19.57000 29.08700
H  51.17600 20.20800 30.27800
H  51.95500 21.12500 26.48500
H  52.78700 20.03400 25.27200
H  52.76400 19.61700 27.02200
H  47.71500 15.75300 24.12700
H  44.76500 16.00000 24.20100
H  46.78800 18.44900 24.30500
H  45.71400 17.79400 23.14900
H  47.38400 17.73200 22.67900
H  45.27900 13.38300 25.00600
H  46.76200 13.73200 23.91400
H  45.45100 13.01100 22.32700
H  44.43300 14.49100 22.42200
H  44.04400 12.95300 23.27700
H  41.71400 13.33200 28.29700
H  41.38600 14.79100 27.31800
H  40.58400 14.59300 28.80500
H  43.73800 15.54500 33.20600
H  41.11300 18.49600 35.02600
H  42.79400 18.78500 35.65400
H  41.61400 17.75500 36.39300
Mg 1.64000 41.14600 24.87300
C  3.92800 41.62400 27.71500
C  -0.61100 39.97300 27.04300
C  -0.19200 40.48700 22.22500
C  4.35800 42.04400 22.78100
N  1.67700 40.84900 27.19700
C  2.64300 41.24400 28.12200
C  2.23200 41.07200 29.54600
C  0.75700 40.32000 29.28400
C  0.58100 40.40400 27.76400
C  0.63300 38.88600 29.84100
C  2.15700 42.49300 30.27000
C  1.93000 42.45900 31.76200
H  1.65600 41.09800 32.42900
N  -0.15100 40.34600 24.67000
C  -0.99900 39.97600 25.67100
C  -2.20900 39.45800 25.01400
C  -2.04700 39.51700 23.61000
C  -0.74100 40.17800 23.45700
C  -3.26600 38.94600 25.88800
C  -2.97300 38.95100 22.48600
O  -2.57400 38.90900 21.33100
C  -4.33600 38.35100 22.88700
N  1.99900 41.30500 22.81700
C  1.06600 41.00000 21.90800
C  1.52800 41.29000 20.51800
C  2.85600 42.17500 20.74400
C  3.15200 41.77600 22.19100
C  1.61000 40.11000 19.47100
C  2.73500 43.68300 20.66500
C  3.19500 44.40400 19.36900
N  3.74200 41.67300 25.12400
C  4.73200 41.93600 24.19100
C  6.02500 42.13300 24.86000
C  5.74900 42.04500 26.21800
C  4.37200 41.75200 26.35100
C  7.28800 42.34100 24.17100
C  6.36800 42.14000 27.51100
O  7.51100 42.30700 27.90800
C  5.15900 41.96300 28.53700
C  5.41000 40.89900 29.61700
O  5.44700 39.72500 29.46100
O  5.48800 41.47500 30.91000
C  5.50800 40.53400 32.03600
H  -1.33900 39.63800 27.78400
H  -0.88700 40.49900 21.38300
H  5.12000 42.36800 22.07000
H  2.92500 40.42100 30.08000
H  -0.00600 40.96500 29.72000
H  1.61000 38.49900 30.12900
H  0.20300 38.24200 29.07300
H  -0.03800 38.87300 30.70000
H  1.40800 43.06100 29.71800
H  3.10800 43.01300 30.15600
H  1.07600 43.07000 32.05300
H  2.82700 42.81800 32.26500
H  -2.95300 37.94400 26.18300
H  -4.29000 38.94100 25.51400
H  -3.37900 39.55800 26.78200
H  -4.88900 39.05600 23.50700
H  -4.15200 37.40200 23.39000
H  -5.00100 38.21100 22.03400
H  0.72500 41.98400 20.27000
H  3.61000 41.77000 20.06900
H  0.99900 40.47900 18.64700
H  1.25800 39.21700 19.98800
H  2.67600 40.01600 19.26500
H  3.39800 44.07000 21.43800
H  1.71600 43.95900 20.93500
H  2.29400 44.86100 18.95800
H  3.65800 43.69400 18.68300
H  3.92500 45.12700 19.73200
H  7.98400 41.54700 24.44300
H  7.66900 43.32600 24.44200
H  7.11500 42.14400 23.11300
H  4.96100 42.93300 28.99400
H  6.55800 40.38500 32.28600
H  5.03500 39.59800 31.73800
H  4.86200 40.85700 32.85300

