158

Mg 29.98600 58.31500 41.03100
C  27.23800 56.67600 39.89400
C  31.94700 55.73700 39.69800
C  32.66400 60.32700 41.16900
C  27.93600 61.31800 41.66000
N  29.61900 56.50600 39.72800
C  28.39800 55.92500 39.61000
C  28.43700 54.52300 39.15600
C  29.97700 54.20400 39.18300
C  30.57300 55.55800 39.51300
C  30.32500 53.07400 40.24200
C  27.71100 54.26800 37.82600
C  27.08500 55.34000 36.86300
H  27.33200 55.18000 35.40600
N  32.02300 58.03700 40.63100
C  32.59600 56.90300 40.09000
C  34.02800 57.19800 39.90800
C  34.28200 58.51500 40.33800
C  32.94300 59.03300 40.74100
C  34.98600 56.33100 39.15800
C  35.61200 59.19500 40.24600
O  36.65400 58.58600 39.84900
C  35.81100 60.63800 40.54300
N  30.20400 60.56100 41.34000
C  31.48500 60.99000 41.51400
C  31.49100 62.48100 41.93800
C  30.02300 62.76100 42.24100
C  29.29100 61.49400 41.67000
C  32.46000 62.92000 43.03500
C  29.34600 64.08600 41.63200
C  28.59700 65.04400 42.61300
N  27.99600 58.94500 40.97100
C  27.26500 60.15300 41.18800
C  25.83300 59.81500 41.20100
C  25.81200 58.48700 40.63800
C  27.16100 57.98500 40.49300
C  24.62600 60.78300 41.36800
C  24.92000 57.40100 40.29300
O  23.72000 57.38100 40.34000
C  25.78900 56.23700 39.77100
C  25.46400 54.92800 40.51900
O  25.87900 54.51400 41.62700
O  24.69700 54.22200 39.67800
C  24.09700 53.08500 40.31200
H  32.51200 54.81800 39.52700
H  33.39000 61.13900 41.25300
H  27.30300 62.07800 42.12300
H  27.93400 53.93800 39.92600
H  30.41600 53.94400 38.22000
H  29.53600 52.93800 40.98100
H  31.25000 53.20300 40.80300
H  30.38600 52.05800 39.85300
H  26.85500 53.67400 38.14500
H  28.34200 53.55700 37.29300
H  27.39800 56.35300 37.11600
H  26.04300 55.10900 37.08400
H  35.21700 56.69300 38.15600
H  34.58100 55.32400 39.05600
H  35.88100 56.20400 39.76800
H  35.07500 61.25600 40.02900
H  36.71400 60.99400 40.04700
H  35.82300 60.93600 41.59100
H  31.81700 62.97000 41.02000
H  29.73000 62.77700 43.29100
H  31.93000 63.39300 43.86300
H  33.08100 63.66300 42.53400
H  32.97500 62.03000 43.39600
H  28.64100 63.75400 40.87000
H  30.20000 64.63300 41.23100
H  27.92300 64.58000 43.33200
H  28.11600 65.67100 41.86100
H  29.30600 65.63700 43.19100
H  23.69900 60.21100 41.41900
H  24.45100 61.58900 40.65500
H  24.71400 61.25400 42.34700
H  25.37400 56.13900 38.76800
H  23.62300 53.30100 41.26900
H  24.75600 52.22000 40.39000
H  23.25200 52.73800 39.71700
Mg -12.10800 37.47900 41.94600
C  -9.65100 35.08900 41.62000
C  -9.56800 39.85400 40.63400
C  -14.50200 39.83600 41.63500
C  -14.39600 35.17500 42.92200
N  -9.97200 37.39900 40.98900
C  -9.18100 36.35100 41.15200
C  -7.83100 36.61500 40.57000
C  -7.72300 38.13200 40.54000
C  -9.23900 38.51400 40.64200
C  -6.96000 38.80100 41.66800
C  -7.72700 36.00400 39.12200
C  -6.65000 35.02900 38.73600
H  -5.67900 35.43200 37.64400
N  -12.07300 39.52500 41.13200
C  -10.94700 40.34000 40.81100
C  -11.35400 41.73700 40.73700
C  -12.76700 41.71100 40.82300
C  -13.18200 40.29800 41.25000
C  -10.52400 42.96700 40.43400
C  -13.64300 42.98100 40.70300
O  -13.15300 44.11000 40.55000
C  -15.14500 42.84300 40.66700
N  -14.26800 37.40400 42.01100
C  -14.98200 38.52300 41.98600
C  -16.40900 38.28000 42.52400
C  -16.33900 36.82300 43.07000
C  -14.92000 36.41200 42.64200
C  -16.88600 39.40300 43.55700
C  -17.41400 35.81600 42.58600
C  -18.40800 35.40600 43.78600
N  -12.04900 35.50000 42.12900
C  -13.05200 34.67600 42.69400
C  -12.46400 33.39600 42.95100
C  -11.14300 33.50100 42.48000
C  -10.91900 34.76500 42.07000
C  -13.23800 32.22000 43.60800
C  -9.89200 32.80100 42.33200
O  -9.62900 31.68200 42.66900
C  -8.77900 33.87300 41.92500
C  -7.81500 34.10200 43.05800
O  -6.69900 33.55500 43.11600
O  -8.32900 34.87700 44.15500
C  -7.53400 34.83600 45.39600
H  -8.76600 40.56800 40.43300
H  -15.33400 40.54300 41.65500
H  -15.06000 34.46000 43.41100
H  -7.02300 36.14200 41.12800
H  -7.44800 38.60200 39.59600
H  -7.66200 39.29700 42.33800
H  -6.25700 39.53400 41.27500
H  -6.42000 38.02400 42.20900
H  -7.68900 36.76900 38.34600
H  -8.64300 35.43200 38.97300
H  -7.14000 34.11000 38.41500
H  -6.09100 34.85500 39.65500
H  -10.84900 43.74000 41.13100
H  -10.59600 43.22900 39.37900
H  -9.47700 42.69500 40.56300
H  -15.69500 43.63700 40.16200
H  -15.28800 42.69800 41.73800
H  -15.51800 41.93300 40.19600
H  -17.00400 38.27500 41.61100
H  -16.44900 36.93100 44.14900
H  -15.98400 39.93500 43.85600
H  -17.42400 39.06800 44.44400
H  -17.56300 40.07500 43.02900
H  -16.96100 34.92300 42.15600
H  -17.97700 36.31200 41.79600
H  -18.17100 34.45400 44.26000
H  -19.39000 35.23200 43.34500
H  -18.44900 36.15400 44.57700
H  -13.77400 32.56100 44.49300
H  -12.58900 31.54600 44.16600
H  -13.95500 31.80400 42.89900
H  -8.10800 33.62800 41.10200
H  -7.72100 35.77500 45.91600
H  -6.44800 34.76200 45.33200
H  -7.91300 34.04400 46.04300

