158

Mg 40.80500 40.67900 27.57600
C  39.99200 43.09800 29.92500
C  41.80400 38.65500 30.00500
C  41.85200 38.50400 25.17300
C  40.36600 43.10600 25.04300
N  40.84100 40.90400 29.68600
C  40.42100 41.89300 30.49900
C  40.50800 41.52600 31.96500
C  41.17900 40.15400 31.93700
C  41.40800 39.92000 30.42400
C  42.46000 39.96100 32.77500
C  39.14300 41.73900 32.66100
C  39.02000 42.71100 33.83300
H  38.34200 42.27200 35.13300
N  41.53200 38.81400 27.54100
C  41.85600 38.12800 28.69000
C  42.29600 36.77200 28.35500
C  42.28100 36.66200 26.93800
C  41.86200 38.02900 26.45000
C  42.67800 35.70400 29.30800
C  42.68300 35.51100 25.96900
O  42.54900 35.54700 24.75200
C  43.13100 34.10000 26.57400
N  41.18100 40.84000 25.44100
C  41.51500 39.75400 24.64000
C  41.62100 40.13500 23.14300
C  40.82800 41.45000 23.10800
C  40.78200 41.84800 24.63600
C  43.11800 40.25400 22.65500
C  39.45500 41.45200 22.43200
C  38.30900 40.73200 23.08500
N  40.35400 42.72000 27.45500
C  40.16600 43.57300 26.34000
C  39.67900 44.83100 26.77600
C  39.65000 44.75200 28.22000
C  40.05100 43.42400 28.56300
C  39.28700 45.96400 25.90200
C  39.24500 45.37600 29.49000
O  38.78200 46.46300 29.72200
C  39.50600 44.38600 30.62500
C  40.58700 44.94400 31.42400
O  41.77600 44.96100 31.08300
O  40.05600 45.49500 32.51900
C  41.07600 45.98200 33.45300
H  41.93900 38.05600 30.90800
H  42.14700 37.78700 24.40400
H  40.08400 43.75900 24.21400
H  41.08600 42.38200 32.31300
H  40.46300 39.41600 32.29700
H  43.40700 39.85000 32.24600
H  42.35000 39.05100 33.36400
H  42.70400 40.76900 33.46400
H  38.65500 40.79200 32.89100
H  38.51700 42.20800 31.90200
H  38.32100 43.49800 33.55200
H  40.02000 43.10100 34.02500
H  43.74600 35.48600 29.33300
H  42.12100 34.80300 29.05400
H  42.33100 35.99100 30.30100
H  43.40700 33.45600 25.73900
H  42.24700 33.79400 27.13500
H  44.00000 34.17300 27.22700
H  41.17600 39.31400 22.58200
H  41.31200 42.24800 22.54600
H  43.25000 39.54700 21.83500
H  43.73600 39.77400 23.41400
H  43.36300 41.28000 22.38100
H  39.56500 41.04200 21.42800
H  39.18300 42.49000 22.23900
H  38.59700 40.08300 23.91100
H  37.69800 40.10300 22.43800
H  37.64500 41.47100 23.53300
H  38.75400 45.58900 25.02800
H  40.05800 46.59100 25.45400
H  38.56000 46.54700 26.46600
H  38.54000 44.26700 31.11400
H  41.65500 45.14000 33.83300
H  40.51400 46.54100 34.20100
H  41.65400 46.79800 33.01800
Mg 34.96400 49.04700 25.41800
C  34.89000 47.37400 28.47000
C  33.81800 51.88500 27.00800
C  34.53700 50.35100 22.40000
C  36.08800 46.11500 23.88200
N  34.61200 49.56600 27.54800
C  34.65400 48.78100 28.60900
C  34.50600 49.51200 29.98800
C  33.98000 50.89200 29.41200
C  34.13800 50.78100 27.84600
C  32.56400 51.34400 29.90500
C  35.81700 49.63500 30.82800
C  35.66600 49.90700 32.32400
H  34.32200 49.95900 33.01300
N  34.35500 50.88800 24.81900
C  33.94200 51.93400 25.60100
C  33.48500 53.04500 24.80300
C  33.72100 52.67800 23.43700
C  34.26000 51.22700 23.49100
C  32.88500 54.35000 25.33000
C  33.63700 53.53800 22.15500
O  34.05100 53.06300 21.07300
C  33.12000 54.93400 22.07800
N  35.08200 48.22200 23.48300
C  35.01400 49.04100 22.39700
C  35.18500 48.32300 21.02900
C  35.86700 47.05900 21.52700
C  35.74500 47.13700 23.05600
C  33.86000 48.06800 20.15200
C  37.29000 46.79300 20.93700
C  38.47300 47.34600 21.78800
N  35.48800 47.16000 26.01700
C  35.96200 46.01300 25.26000
C  36.18900 44.93000 26.14500
C  35.77600 45.42200 27.41900
C  35.32000 46.73800 27.30300
C  36.64600 43.50700 25.78600
C  35.52900 44.96600 28.78600
O  35.77300 43.95700 29.48000
C  34.97300 46.27700 29.51900
C  33.74600 45.87500 30.27100
O  32.64000 45.80200 29.78400
O  34.03000 45.59800 31.63100
C  32.92800 45.04700 32.44800
H  33.46800 52.76600 27.55000
H  34.35100 50.85100 21.44700
H  36.45700 45.25800 23.31500
H  33.71700 49.06700 30.59400
H  34.59200 51.73600 29.73200
H  32.23500 50.51900 30.53700
H  31.89600 51.52500 29.06300
H  32.58700 52.24000 30.52600
H  36.54100 50.36200 30.46200
H  36.40800 48.72700 30.70800
H  36.21800 50.82600 32.52200
H  36.24000 49.16300 32.87700
H  32.67700 54.52700 26.38500
H  31.96900 54.44400 24.74600
H  33.53600 55.15900 24.99700
H  33.73200 55.59400 22.69500
H  32.05800 54.89400 22.31900
H  33.10200 55.36400 21.07700
H  35.79300 48.86100 20.30100
H  35.22400 46.21100 21.29200
H  33.48500 47.04900 20.05600
H  34.02700 48.37300 19.11900
H  33.03000 48.51100 20.70300
H  37.38600 47.32900 19.99200
H  37.44700 45.73000 20.75500
H  39.07900 46.50500 22.12600
H  38.30100 47.92200 22.69700
H  39.06900 47.91200 21.07200
H  37.30600 43.52000 24.91900
H  35.78600 42.87500 25.56700
H  37.27100 43.13500 26.59800
H  35.69200 46.59600 30.27300
H  32.18900 44.47600 31.88700
H  32.41300 45.95100 32.77300
H  33.23100 44.38300 33.25800

