158

Mg 48.21600 16.46200 28.18900
C  46.57700 16.49300 31.18100
C  50.73500 18.41400 29.83200
C  50.04000 17.09800 25.22500
C  45.61100 15.39800 26.56700
N  48.48300 17.56400 30.36100
C  47.80300 17.15600 31.42500
C  48.48200 17.53400 32.75800
C  49.60000 18.58100 32.19600
C  49.67300 18.12300 30.72100
C  49.37400 20.09400 32.34900
C  48.93400 16.37000 33.69000
C  48.29500 16.50300 35.12000
H  48.70400 17.64400 36.06600
N  50.12700 17.46700 27.65100
C  51.00200 18.09600 28.45600
C  52.23300 18.54400 27.73100
C  52.08800 18.15400 26.40200
C  50.73100 17.57900 26.39300
C  53.44100 18.97100 28.46600
C  53.01000 18.16100 25.20600
O  52.60200 18.00600 24.05700
C  54.53500 18.49000 25.27800
N  47.95700 16.08400 26.19900
C  48.76600 16.41300 25.11400
C  48.12800 15.83700 23.76400
C  46.77700 15.18400 24.32500
C  46.79500 15.52900 25.78000
C  48.02700 16.92800 22.66600
C  46.43400 13.74200 23.99900
C  45.75800 13.51500 22.66600
N  46.47900 15.97300 28.67300
C  45.43200 15.54000 27.92600
C  44.33800 15.14300 28.77000
C  44.79500 15.46600 30.04500
C  46.04200 16.05700 29.94600
C  42.94400 14.69200 28.29300
C  44.37200 15.46300 31.45800
O  43.34300 15.17200 32.04600
C  45.46100 16.12500 32.29500
C  44.96500 17.34300 33.01500
O  45.00600 18.48500 32.55400
O  44.46900 16.91900 34.23700
C  43.74300 17.87100 35.11700
H  51.48100 19.00100 30.37200
H  50.45400 17.08500 24.21500
H  44.68900 15.18800 26.02100
H  47.76500 18.19000 33.25100
H  50.53800 18.27400 32.65900
H  50.05800 20.44000 33.12400
H  48.33900 20.32800 32.60000
H  49.71900 20.59600 31.44500
H  50.00000 16.46800 33.89500
H  48.85000 15.37400 33.25600
H  48.40400 15.54600 35.63100
H  47.21000 16.48600 35.01700
H  53.14400 19.85200 29.03400
H  54.31500 19.28300 27.89300
H  53.74100 18.20800 29.18400
H  55.06700 18.22100 24.36500
H  54.99500 17.90600 26.07500
H  54.72800 19.54300 25.48100
H  48.77400 15.02100 23.44200
H  46.06400 15.84600 23.83400
H  48.22900 16.52600 21.67300
H  48.76600 17.72200 22.78000
H  47.04400 17.39700 22.63100
H  45.67300 13.43800 24.71900
H  47.34200 13.15600 24.13600
H  46.02400 12.54300 22.25100
H  45.89500 14.33200 21.95700
H  44.69400 13.54400 22.90100
H  42.75200 15.26600 27.38700
H  42.19500 15.06400 28.99300
H  42.70800 13.65300 28.06300
H  45.92900 15.45300 33.01400
H  44.37300 18.15000 35.96200
H  42.76500 17.46100 35.36500
H  43.56300 18.82600 34.62300
Mg 42.56700 41.19500 26.39500
C  41.48400 43.38400 28.95500
C  43.81900 39.02100 28.87300
C  43.92600 39.31400 23.91000
C  41.50700 43.57600 24.06500
N  42.86800 41.35400 28.67300
C  42.10200 42.19400 29.42900
C  42.07000 41.78900 30.91700
C  42.89000 40.39000 30.84200
C  43.29400 40.27100 29.39700
C  44.00500 40.25000 31.88200
C  40.67400 41.61600 31.55100
C  40.38400 42.19900 32.95000
H  39.83300 41.19800 34.02400
N  43.75400 39.52900 26.36300
C  44.11700 38.76500 27.45200
C  44.81900 37.60000 26.98500
C  44.89700 37.70800 25.54800
C  44.10400 38.94600 25.17200
C  45.48600 36.56200 27.90800
C  45.60900 36.67800 24.64700
O  45.59300 36.77900 23.43400
C  46.34100 35.51500 25.16800
N  42.85700 41.50900 24.36100
C  43.31100 40.49500 23.55000
C  43.13700 40.82900 22.08000
C  42.12300 42.01400 22.11600
C  42.09100 42.35700 23.62300
C  44.40300 41.16700 21.28900
C  40.75900 41.56500 21.46800
C  39.97500 40.38800 22.07200
N  41.69500 43.11700 26.39900
C  41.35800 43.96400 25.39800
C  40.98600 45.24200 25.96900
C  40.85600 45.01900 27.36500
C  41.40800 43.72700 27.57500
C  40.56400 46.43400 25.25300
C  40.48900 45.62700 28.63100
O  40.02400 46.74500 28.88900
C  40.84300 44.57600 29.68700
C  41.61500 45.25700 30.78400
O  42.65500 45.81600 30.72000
O  40.73100 45.37200 31.84700
C  41.28400 46.08500 33.06500
H  44.21000 38.34400 29.63500
H  44.14100 38.69600 23.03600
H  41.04600 44.21400 23.30800
H  42.64800 42.56600 31.41800
H  42.20200 39.59400 31.12600
H  44.99300 40.42800 31.45600
H  43.93100 39.28800 32.38800
H  43.83300 41.08800 32.55800
H  40.29300 40.59500 31.57100
H  39.95600 42.05000 30.85600
H  39.58900 42.91700 32.75000
H  41.28900 42.70800 33.28300
H  44.81400 35.70500 27.87200
H  45.48300 36.79400 28.97300
H  46.48200 36.51500 27.46700
H  47.25300 35.86300 25.65300
H  46.64300 34.84300 24.36500
H  45.75800 34.83500 25.78900
H  42.75100 39.99500 21.49400
H  42.46700 42.93600 21.64800
H  45.31200 40.94900 21.84900
H  44.43900 42.19400 20.92500
H  44.56100 40.41800 20.51400
H  40.92100 41.41400 20.40100
H  40.11700 42.43900 21.35800
H  39.53600 39.79900 21.26700
H  39.15500 40.85300 22.61900
H  40.63200 39.79700 22.71100
H  40.52200 47.31000 25.90000
H  39.69100 46.42900 24.60100
H  41.42600 46.59500 24.60600
H  39.83900 44.32700 30.03200
H  42.09500 46.78900 32.87700
H  41.57000 45.43700 33.89300
H  40.52300 46.82600 33.31000

