158

Mg 8.07600 2.91000 27.45300
C  9.49200 1.35500 30.26500
C  6.27100 5.01900 29.45900
C  6.73800 4.11100 24.71900
C  9.70400 0.34000 25.49500
N  7.66200 2.96600 29.70900
C  8.59500 2.42900 30.58700
C  8.37100 3.08800 32.00000
C  7.01000 3.95900 31.77300
C  7.00800 4.06300 30.19500
C  5.72700 3.53700 32.48100
C  9.51200 3.84800 32.67500
C  9.93100 3.36300 34.09900
H  10.40900 4.39000 35.17800
N  6.80800 4.50700 27.11000
C  6.15000 5.30600 28.07900
C  5.42800 6.35300 27.42100
C  5.44100 6.03100 26.05800
C  6.40100 4.86700 25.88900
C  4.80200 7.57000 28.11100
C  4.80600 6.67100 24.91300
O  4.92900 6.19200 23.80900
C  4.00800 7.95700 25.06600
N  8.09700 2.13400 25.48400
C  7.43900 2.90300 24.51300
C  7.68600 2.40300 23.10600
C  8.86000 1.30200 23.36500
C  8.88000 1.29000 24.89800
C  6.38300 1.88800 22.47100
C  10.24500 1.60700 22.73200
C  10.85700 0.51400 21.84400
N  9.11800 1.01700 27.78000
C  9.79800 0.18500 26.88200
C  10.65900 -0.74800 27.66000
C  10.59400 -0.28700 28.97400
C  9.61400 0.73500 28.98900
C  11.53400 -1.79000 27.14200
C  11.12600 -0.35700 30.32400
O  12.01400 -1.07300 30.69900
C  10.43400 0.70800 31.23700
C  9.78100 -0.16700 32.29400
O  9.09200 -1.13700 32.00900
O  10.29500 0.23600 33.50400
C  9.86000 -0.56200 34.71000
H  5.79900 5.74600 30.12300
H  6.38000 4.42200 23.73500
H  10.37200 -0.30300 24.91800
H  8.14800 2.24600 32.65500
H  7.19600 4.99800 32.04400
H  5.24100 4.40300 32.93100
H  5.96800 2.72200 33.16300
H  4.97300 3.21500 31.76200
H  9.31300 4.91400 32.78300
H  10.36000 3.74500 31.99700
H  10.78600 2.70200 33.95500
H  9.09300 2.87400 34.59400
H  5.38800 8.39300 27.70300
H  4.85000 7.46700 29.19600
H  3.73700 7.55900 27.87900
H  3.51800 8.04700 24.09600
H  4.75300 8.71500 25.30900
H  3.27600 7.75000 25.84600
H  7.92200 3.29500 22.52600
H  8.50900 0.33100 23.01500
H  6.38800 2.32100 21.47100
H  5.48400 2.27300 22.95200
H  6.55100 0.81200 22.42700
H  10.93800 1.82200 23.54500
H  10.23700 2.51100 22.12300
H  11.93300 0.39900 21.97700
H  10.63700 0.70400 20.79300
H  10.40200 -0.45000 22.07000
H  12.60000 -1.69900 27.35100
H  11.49200 -1.90900 26.06000
H  11.22700 -2.74500 27.56700
H  11.25900 1.31600 31.60900
H  9.45800 -1.56400 34.55600
H  9.44700 0.21500 35.35300
H  10.80900 -0.76800 35.20500
Mg 46.93700 25.80400 28.76800
C  47.95200 27.80600 31.61200
C  46.01500 23.41900 31.08700
C  46.39500 23.68600 26.27500
C  48.32000 28.17700 26.77100
N  46.82600 25.71400 31.15900
C  47.24800 26.66900 32.00900
C  46.76200 26.32200 33.46100
C  46.30400 24.82500 33.27000
C  46.39200 24.59500 31.75400
C  47.18700 23.77500 34.09500
C  45.63500 27.28800 34.02500
C  45.85200 27.99900 35.36300
H  44.95600 27.67000 36.47800
N  46.29900 23.86400 28.70200
C  45.95200 23.03100 29.77600
C  45.45500 21.78900 29.27500
C  45.61400 21.80000 27.82900
C  46.19700 23.12400 27.52000
C  44.86600 20.74800 30.20400
C  45.27500 20.72100 26.86700
O  45.39200 20.77700 25.62200
C  44.64200 19.49100 27.31900
N  47.30000 25.87800 26.86600
C  46.96800 24.92200 25.91900
C  47.33000 25.36200 24.50900
C  47.72900 26.88500 24.77600
C  47.72200 27.02500 26.25400
C  48.50500 24.57100 23.86900
C  46.68800 27.89300 24.17100
C  47.29600 29.22600 23.64700
N  47.89900 27.70300 29.07100
C  48.38800 28.54500 28.11400
C  48.99800 29.71400 28.72700
C  48.79800 29.45800 30.15000
C  48.20600 28.21300 30.29400
C  49.72800 30.82400 28.03600
C  49.00200 30.02100 31.48300
O  49.59600 31.02800 31.92100
C  48.29300 28.93700 32.53700
C  49.20700 28.80400 33.66800
O  50.33900 28.44600 33.58700
O  48.58700 29.09200 34.84300
C  49.37700 28.78400 36.04100
H  45.51500 22.74300 31.78500
H  45.98300 23.06500 25.47600
H  48.75300 28.72000 25.92900
H  47.66500 26.51400 34.04100
H  45.25400 24.68800 33.52900
H  47.73900 24.12500 34.96700
H  47.78100 23.35700 33.28200
H  46.54600 22.99300 34.50300
H  44.76300 26.64600 34.14600
H  45.39000 28.03400 33.26900
H  45.75000 29.05500 35.11400
H  46.86200 27.87200 35.75400
H  45.10900 19.74300 29.85800
H  43.78700 20.90100 30.19600
H  45.24400 20.80100 31.22600
H  45.23900 18.89300 28.00900
H  44.22000 18.93500 26.48200
H  43.77300 19.84100 27.87600
H  46.43200 25.41700 23.89300
H  48.71200 27.15200 24.38900
H  49.26600 25.04200 23.24900
H  47.93700 23.92800 23.19600
H  48.95200 24.04100 24.71100
H  45.88700 28.13400 24.87100
H  46.13200 27.32800 23.42200
H  47.23900 29.38100 22.57000
H  48.35500 29.30300 23.89000
H  46.77100 29.99900 24.20900
H  49.89300 31.63000 28.75100
H  49.32700 31.21700 27.10200
H  50.67700 30.34700 27.79000
H  47.36300 29.41400 32.84600
H  49.84800 27.80100 36.02500
H  48.86600 28.86400 37.00000
H  50.13500 29.56300 36.11900

