158

Mg 25.64700 1.80600 29.30200
C  27.66900 1.42200 32.23500
C  22.95000 2.11300 31.41900
C  23.81900 2.02300 26.68200
C  28.40400 0.75500 27.39300
N  25.37600 2.01200 31.67600
C  26.32100 1.79200 32.57800
C  25.73600 1.93400 34.03100
C  24.19900 2.01800 33.70400
C  24.15500 1.94500 32.16600
C  23.39200 0.93800 34.40600
C  26.36100 3.20900 34.77500
C  26.77600 2.99400 36.31100
H  26.47800 4.04700 37.36200
N  23.63200 2.05900 29.03500
C  22.71700 2.26900 30.02200
C  21.39300 2.47400 29.38100
C  21.55700 2.39100 27.99900
C  23.04700 2.07800 27.87000
C  20.10500 2.76300 30.10300
C  20.53700 2.55000 26.84400
O  20.85900 2.54900 25.65200
C  19.10400 2.61000 27.12500
N  26.12600 1.51000 27.32600
C  25.16500 1.77900 26.42300
C  25.67900 1.63600 24.97800
C  27.21600 1.28500 25.16500
C  27.24700 1.20100 26.70300
C  24.86700 0.57800 24.15400
C  28.24300 2.35900 24.71300
C  29.66900 1.77700 24.27100
N  27.58200 1.13200 29.71300
C  28.60000 0.68100 28.77700
C  29.75700 0.43100 29.58700
C  29.44000 0.76100 30.93300
C  28.08500 1.08200 30.93600
C  30.98800 -0.13700 29.06600
C  29.94300 0.79200 32.31800
O  31.07800 0.56500 32.65400
C  28.80400 1.21900 33.21400
C  28.55200 0.06400 34.05700
O  28.00400 -0.97200 33.81600
O  28.99500 0.34200 35.31500
C  28.75000 -0.63700 36.40300
H  22.07900 2.33000 32.04100
H  23.21600 2.26100 25.80300
H  29.21300 0.24900 26.86300
H  26.03900 1.06100 34.61000
H  23.78300 2.96000 34.06000
H  23.95300 0.13100 34.87900
H  22.76600 0.46800 33.64800
H  22.74700 1.30100 35.20700
H  25.66900 4.03700 34.62600
H  27.25700 3.44800 34.20300
H  27.86300 2.92900 36.26500
H  26.34300 2.08200 36.72300
H  19.75000 3.69000 29.65100
H  20.18500 2.86700 31.18500
H  19.46400 1.89800 29.93000
H  18.76600 1.88900 27.86900
H  18.74100 2.34000 26.13300
H  18.80900 3.62400 27.39200
H  25.70800 2.61000 24.49000
H  27.48300 0.31400 24.74700
H  25.42500 -0.33400 23.94200
H  24.51800 1.03100 23.22600
H  24.04000 0.21900 24.76600
H  28.31700 3.16400 25.44500
H  27.89500 2.79500 23.77600
H  29.74800 2.04800 23.21800
H  29.79200 0.70700 24.43400
H  30.39600 2.28500 24.90400
H  31.39900 0.55000 28.32600
H  30.68700 -1.04500 28.54300
H  31.64500 -0.30900 29.91800
H  29.11500 2.09700 33.78100
H  29.61400 -0.69000 37.06500
H  28.54600 -1.67100 36.12500
H  27.80000 -0.40700 36.88600
Mg 35.54900 48.48500 25.00300
C  36.14600 46.76600 27.93100
C  34.42100 51.23700 26.78200
C  35.00100 50.03400 22.16700
C  36.64700 45.54400 23.29700
N  34.95700 48.84700 27.08800
C  35.46100 47.97300 28.08800
C  35.33800 48.70600 29.45800
C  34.60900 49.99800 29.03000
C  34.64100 50.07500 27.53700
C  33.16300 50.08000 29.61200
C  36.68600 48.86300 30.24200
C  36.65100 48.57300 31.76100
H  35.21100 48.54800 32.38400
N  34.91100 50.43200 24.55500
C  34.55500 51.42100 25.37000
C  34.31100 52.61300 24.59200
C  34.46800 52.24500 23.21100
C  34.77600 50.85200 23.29700
C  34.15900 53.99100 25.27800
C  34.32700 53.08900 21.98700
O  34.37300 52.68800 20.81700
C  34.36700 54.61400 22.25500
N  35.61700 47.78300 23.08700
C  35.42400 48.72900 22.07200
C  35.64700 48.05400 20.68900
C  36.21400 46.66800 21.06200
C  36.18900 46.69200 22.58600
C  34.35400 48.00700 19.80900
C  37.57600 46.44600 20.47300
C  37.72000 45.90300 19.06500
N  36.22000 46.48000 25.45200
C  36.69400 45.46700 24.68800
C  37.08100 44.33600 25.52100
C  36.90000 44.80100 26.85100
C  36.39600 46.14500 26.73500
C  37.52900 42.99900 25.17400
C  36.95600 44.44400 28.27300
O  37.31000 43.46100 28.97800
C  36.57000 45.74500 28.99400
C  35.47300 45.38300 29.96500
O  34.31200 45.19900 29.66800
O  36.08200 45.22200 31.18000
C  35.29800 44.34800 32.12500
H  34.00800 52.00100 27.44300
H  34.93800 50.56800 21.21600
H  36.98900 44.66800 22.74100
H  34.68000 48.08000 30.06100
H  35.09000 50.84800 29.51500
H  33.29900 50.53800 30.59200
H  32.81100 49.07600 29.84800
H  32.45100 50.55200 28.93500
H  37.06800 49.87100 30.08100
H  37.45100 48.24800 29.76900
H  37.19300 49.28200 32.38600
H  37.18600 47.66000 32.02200
H  35.10300 54.53600 25.27800
H  34.05800 54.02300 26.36300
H  33.37100 54.57300 24.80100
H  33.48300 55.00000 22.76200
H  34.35200 55.14800 21.30500
H  35.24800 54.69900 22.89000
H  36.37600 48.63400 20.12400
H  35.65000 45.80200 20.71900
H  34.06800 47.06700 19.33700
H  34.27700 48.75500 19.02000
H  33.49300 48.14100 20.46400
H  38.17100 45.71600 21.02200
H  38.11900 47.38100 20.60700
H  38.04700 44.86500 19.01100
H  38.40400 46.50200 18.46400
H  36.78800 46.04200 18.51700
H  38.48800 42.99600 24.65600
H  36.69600 42.56500 24.62000
H  37.70300 42.30000 25.99200
H  37.49900 45.92600 29.53400
H  35.84200 44.05600 33.02300
H  34.92300 43.41500 31.70500
H  34.39600 44.92800 32.32300

