158

Mg 24.38000 -5.75500 45.50800
C  26.51500 -3.26700 44.30700
C  21.79800 -4.33400 43.87400
C  22.53400 -8.53600 46.10300
C  27.23800 -7.37800 46.87200
N  24.27500 -4.12400 44.06000
C  25.22400 -3.19200 43.75100
C  24.62100 -2.01600 43.02000
C  23.06600 -2.21900 43.23600
C  23.02700 -3.68200 43.70300
C  22.36800 -1.28300 44.30300
C  24.96600 -1.87100 41.50500
C  24.96900 -0.46400 40.93600
H  25.70700 -0.49100 39.53300
N  22.41800 -6.32800 45.08200
C  21.50500 -5.51600 44.43100
C  20.20300 -6.24000 44.49800
C  20.37900 -7.49100 45.11800
C  21.79600 -7.47400 45.52800
C  18.89600 -5.57500 43.93900
C  19.26800 -8.48500 45.24000
O  18.15000 -8.30200 44.80800
C  19.45200 -9.69900 46.15200
N  24.82600 -7.71400 46.27100
C  23.92000 -8.69100 46.38600
C  24.51100 -9.98800 46.94300
C  25.92700 -9.52000 47.42200
C  26.03300 -8.11500 46.75900
C  23.76100 -10.61700 48.13900
C  27.15200 -10.31700 47.01100
C  28.04100 -10.67300 48.21300
N  26.52100 -5.42400 45.64200
C  27.53700 -6.16900 46.29000
C  28.77900 -5.43500 46.21200
C  28.43600 -4.22800 45.45800
C  27.05100 -4.34300 45.09700
C  29.98000 -5.92000 46.79400
C  28.93700 -2.92100 44.89700
O  30.04600 -2.31500 44.94900
C  27.72500 -2.30200 44.03500
C  27.42700 -0.91200 44.59200
O  26.71100 -0.58900 45.50800
O  27.88000 -0.00900 43.67700
C  27.31000 1.36700 43.75000
H  20.89700 -3.83700 43.50900
H  22.01100 -9.40700 46.50300
H  28.02500 -7.89400 47.42600
H  24.88200 -1.13100 43.60000
H  22.41100 -2.14500 42.36800
H  21.48100 -0.87500 43.81600
H  22.92500 -0.46100 44.75200
H  21.98800 -1.78400 45.19300
H  24.19400 -2.34700 40.90000
H  25.89300 -2.37200 41.22600
H  25.54700 0.15000 41.62600
H  23.99300 0.00100 40.79700
H  18.55300 -5.97200 42.98300
H  18.82000 -4.48700 43.92100
H  18.03800 -5.78700 44.57600
H  18.41900 -9.97600 46.36200
H  20.01400 -9.33900 47.01400
H  19.99800 -10.55400 45.75300
H  24.58100 -10.73900 46.15600
H  25.97200 -9.30200 48.48900
H  23.08300 -9.82700 48.46000
H  24.50300 -11.01500 48.83200
H  23.13300 -11.41600 47.74400
H  27.82900 -9.80200 46.32900
H  26.93500 -11.18800 46.39200
H  27.44200 -10.61800 49.12200
H  28.95700 -10.09100 48.10800
H  28.44800 -11.68300 48.16200
H  29.74000 -6.51700 47.67400
H  30.63500 -5.14000 47.18300
H  30.49400 -6.53400 46.05500
H  27.96600 -2.24300 42.97300
H  27.43200 1.94600 42.83400
H  27.72500 1.88400 44.61400
H  26.23200 1.24000 43.85200
Mg 37.02600 50.16700 25.17600
C  37.32400 47.96000 27.88900
C  35.40000 52.35100 27.22300
C  36.58700 52.13900 22.54100
C  38.18700 47.58300 23.10600
N  36.19900 50.12500 27.34600
C  36.66900 49.19100 28.23800
C  36.37800 49.74700 29.70100
C  35.53500 51.05100 29.39400
C  35.67800 51.16100 27.91000
C  34.04900 51.03300 29.94400
C  37.68300 50.03800 30.48900
C  37.69100 49.54700 31.91800
H  36.25300 49.56400 32.76300
N  36.26500 52.11100 24.92900
C  35.62200 52.81600 25.87000
C  35.20400 54.06700 25.36800
C  35.52100 54.04900 23.95400
C  36.17000 52.74500 23.70200
C  34.63500 55.21600 26.21200
C  35.32300 55.09600 22.90300
O  35.72700 55.00100 21.76100
C  34.48200 56.33000 23.19200
N  37.28600 49.87600 23.11900
C  37.12600 50.88800 22.18600
C  37.48100 50.42100 20.72200
C  37.90400 48.93800 20.96600
C  37.78200 48.75900 22.47800
C  36.30000 50.51200 19.72500
C  39.32400 48.57700 20.41400
C  40.49500 49.20200 21.19400
N  37.60000 48.21300 25.38000
C  38.07100 47.29400 24.45100
C  38.38700 46.04600 25.08400
C  38.11100 46.25300 26.44300
C  37.64500 47.57600 26.55500
C  38.95200 44.82400 24.38600
C  38.11800 45.62400 27.74000
O  38.49800 44.51200 28.06400
C  37.69900 46.72300 28.75700
C  36.53000 46.28000 29.51600
O  35.46600 45.96200 29.02600
O  36.86500 46.36900 30.85100
C  35.81000 45.87300 31.79200
H  34.93300 53.07700 27.89300
H  36.46900 52.75900 21.65000
H  38.52000 46.74900 22.48500
H  35.76100 48.99900 30.20100
H  36.04000 51.89700 29.86100
H  33.84800 51.98100 30.44400
H  33.88100 50.21000 30.63800
H  33.36600 51.12500 29.09900
H  38.03900 51.06200 30.38000
H  38.48100 49.54600 29.93200
H  38.39000 50.16200 32.48400
H  38.12800 48.55000 31.98300
H  35.12600 56.16600 26.42300
H  34.29900 54.86900 27.18900
H  33.66700 55.50800 25.80600
H  33.51600 56.06900 23.62400
H  34.33500 56.87800 22.26100
H  34.87400 57.03100 23.93000
H  38.37900 50.93500 20.37800
H  37.21700 48.26300 20.45500
H  36.27900 51.56700 19.45200
H  35.37700 50.35800 20.28300
H  36.23600 49.73100 18.96700
H  39.35800 49.02700 19.42200
H  39.43300 47.49400 20.47300
H  40.92300 48.35300 21.72700
H  40.11500 49.78700 22.03100
H  41.16200 49.83500 20.60900
H  39.90600 45.06500 23.91900
H  38.31500 44.42500 23.59700
H  39.05200 43.97800 25.06600
H  38.50900 46.99600 29.43300
H  35.61900 44.84400 31.48700
H  34.90300 46.47100 31.69400
H  36.22200 45.76500 32.79500

