158

Mg 6.70100 56.63600 40.98300
C  5.50400 53.53900 40.96900
C  9.60400 55.59600 39.41100
C  7.54600 59.90700 40.25500
C  3.64700 57.78200 42.39900
N  7.50900 54.79000 40.42500
C  6.81700 53.57600 40.45200
C  7.61600 52.45600 39.86400
C  9.04600 53.06700 39.84900
C  8.73100 54.58200 39.86600
C  10.01700 52.72100 41.14200
C  7.04600 52.09500 38.41900
C  7.43400 50.66100 38.06400
H  7.61600 50.31500 36.52800
N  8.34200 57.61000 39.98600
C  9.48600 56.99700 39.46800
C  10.32900 57.94700 38.85400
C  9.80900 59.25100 39.17400
C  8.49300 58.95200 39.80300
C  11.62300 57.62300 38.19100
C  10.47900 60.63900 39.01500
O  11.53600 60.74400 38.40900
C  9.89500 61.88500 39.52200
N  5.57600 58.50200 41.09100
C  6.27300 59.73500 40.87200
C  5.45300 60.95300 41.27500
C  4.18500 60.25800 41.94900
C  4.46100 58.75400 41.79600
C  6.17700 62.07100 42.10800
C  2.84000 60.79600 41.46300
C  1.76800 60.94900 42.67200
N  4.93600 55.79800 41.71800
C  3.82500 56.37400 42.23400
C  2.89600 55.38300 42.63900
C  3.56600 54.20200 42.24000
C  4.70000 54.54400 41.53700
C  1.50300 55.63300 43.19000
C  3.48200 52.72400 42.11800
O  2.57800 51.94100 42.47000
C  4.68800 52.25100 41.26200
C  4.18700 51.64600 40.04900
O  3.40000 52.18500 39.34200
O  4.64800 50.40300 39.89300
C  4.09700 49.82500 38.68200
H  10.47900 55.11900 38.96400
H  7.77900 60.95500 40.05200
H  2.76800 58.22900 42.86700
H  7.48200 51.53500 40.43100
H  9.53800 52.80700 38.91100
H  9.59000 51.85900 41.65500
H  10.15000 53.58800 41.78800
H  11.00800 52.57600 40.71300
H  7.45600 52.73600 37.63800
H  5.95900 52.17300 38.41000
H  6.64800 49.99400 38.41900
H  8.32200 50.31100 38.59000
H  12.48900 58.16200 38.57500
H  11.55600 58.01400 37.17600
H  11.77200 56.55200 38.06200
H  9.54800 61.79800 40.55100
H  9.07100 62.14900 38.85800
H  10.65300 62.66800 39.48900
H  5.16500 61.40700 40.32700
H  4.36100 60.38600 43.01700
H  7.22800 61.89500 42.33500
H  5.62700 62.24500 43.03400
H  6.10800 63.05800 41.65100
H  2.47000 60.14900 40.66800
H  2.83200 61.80900 41.06000
H  1.42300 61.95500 42.91000
H  2.18200 60.51600 43.58300
H  0.92900 60.27300 42.50600
H  1.00500 56.42500 42.63000
H  1.52100 55.97600 44.22400
H  0.91000 54.71800 43.18200
H  5.35600 51.49600 41.67600
H  4.64300 48.89400 38.52800
H  4.17500 50.43000 37.77900
H  3.05000 49.60000 38.88500
Mg 8.93900 47.37000 24.41300
C  6.84800 47.56600 27.19300
C  11.54600 48.49000 26.26700
C  10.72900 47.26200 21.62700
C  5.98200 47.15500 22.40200
N  9.15400 47.78800 26.48200
C  8.21200 47.86800 27.44100
C  8.74200 48.40700 28.78200
C  10.11100 48.97900 28.29800
C  10.29800 48.41100 26.89800
C  10.05500 50.55400 28.24100
C  8.88600 47.33900 29.87100
C  8.03900 47.61100 31.11200
H  8.04100 46.40100 32.12500
N  10.94600 47.78800 24.03300
C  11.87100 48.14300 24.93400
C  13.15400 48.25300 24.25900
C  12.93100 47.82800 22.94100
C  11.48700 47.60400 22.82000
C  14.45700 48.61700 24.90000
C  13.85000 47.65700 21.81100
O  13.49200 47.17200 20.75400
C  15.35200 47.85700 22.08000
N  8.37400 47.39100 22.27000
C  9.30500 47.17100 21.36200
C  8.71800 46.78300 19.99600
C  7.16900 46.68700 20.29400
C  7.17000 47.06700 21.74200
C  9.11500 47.80700 18.82800
C  6.58500 45.27900 19.94300
C  5.24800 45.24000 19.21800
N  6.87200 47.24300 24.71400
C  5.82600 47.24800 23.79300
C  4.52200 47.12600 24.46900
C  4.88700 47.30200 25.86000
C  6.28200 47.41400 25.93600
C  3.23100 46.92400 23.82800
C  4.35100 47.28800 27.21000
O  3.20600 47.28000 27.61400
C  5.63400 47.53600 28.10900
C  5.58600 46.36000 29.02400
O  6.27600 45.38400 29.01600
O  4.65400 46.62300 29.99900
C  4.70200 45.72000 31.21000
H  12.42300 48.85200 26.80800
H  11.24100 46.90900 20.73000
H  5.03600 46.93900 21.90200
H  8.01500 49.17000 29.06100
H  10.86000 48.60900 28.99800
H  10.73100 50.96900 28.98900
H  9.06900 50.96200 28.46000
H  10.32300 50.84400 27.22500
H  9.90000 47.18400 30.24000
H  8.52600 46.40400 29.44100
H  7.00600 47.64600 30.76500
H  8.35200 48.58900 31.47800
H  14.41400 49.04500 25.90100
H  14.86700 49.43500 24.30700
H  15.20600 47.82600 24.95200
H  15.49400 48.91400 22.30600
H  15.82400 47.65800 21.11800
H  15.82600 47.15100 22.76000
H  9.16300 45.82700 19.72100
H  6.63100 47.44500 19.72400
H  9.80300 48.55800 19.21500
H  8.31900 48.32700 18.29400
H  9.70000 47.30600 18.05700
H  6.34900 44.71000 20.84300
H  7.28300 44.67200 19.36600
H  4.55900 44.69600 19.86400
H  5.44600 44.71300 18.28500
H  4.92500 46.21900 18.86400
H  2.37100 47.14000 24.46200
H  3.22300 45.94000 23.35900
H  3.20800 47.61000 22.98100
H  5.57400 48.45300 28.69500
H  5.24400 46.31100 31.94800
H  5.07200 44.71900 30.98600
H  3.70000 45.77400 31.63500

