158

Mg 49.65400 45.95200 42.73200
C  46.20500 46.68400 41.99100
C  49.24200 42.94700 41.31400
C  52.98900 45.56700 43.10300
C  49.77000 49.24000 44.04700
N  47.86400 44.99500 41.81400
C  46.65200 45.38200 41.54700
C  45.77600 44.34000 40.90200
C  46.70300 43.17200 40.61800
C  48.03800 43.75600 41.28200
C  46.37800 41.79900 41.20800
C  44.94100 44.77200 39.66100
C  43.81900 43.81100 39.10900
H  43.98000 43.03500 37.81000
N  50.94000 44.49500 42.18700
C  50.59500 43.22600 41.74000
C  51.76600 42.45100 41.78300
C  52.83700 43.16300 42.40000
C  52.28800 44.48900 42.54500
C  51.71600 40.93400 41.38200
C  54.23000 42.64800 42.73900
O  54.39400 41.47500 42.56600
C  55.42100 43.53800 43.08600
N  51.25600 47.25600 43.31200
C  52.56600 46.88900 43.39500
C  53.46900 48.10800 43.85400
C  52.39700 49.15300 44.33900
C  50.99900 48.52300 43.91000
C  54.61500 47.75500 44.86400
C  52.67900 50.65300 43.85700
C  52.72500 51.87000 44.85500
N  48.36400 47.63100 42.97800
C  48.55000 48.78700 43.64300
C  47.33700 49.51900 43.77000
C  46.35600 48.66300 43.16900
C  47.05800 47.54600 42.66900
C  47.01600 50.96700 44.25000
C  44.95900 48.59400 42.82400
O  44.03800 49.33800 42.92100
C  44.85700 47.27600 41.97900
C  43.76000 46.50400 42.64900
O  43.85300 45.87000 43.66600
O  42.63500 46.57900 41.81200
C  41.33600 46.21000 42.40600
H  49.10600 41.90700 41.00800
H  54.06000 45.54000 43.31400
H  49.71100 50.20700 44.55000
H  45.09800 43.99500 41.68300
H  47.01800 43.16000 39.57400
H  46.76700 41.67500 42.21800
H  46.97300 41.06400 40.66600
H  45.36500 41.40500 41.11700
H  45.61600 44.77500 38.80400
H  44.52000 45.76600 39.81400
H  42.96700 44.45100 38.87800
H  43.45000 43.13400 39.87900
H  52.60800 40.64800 40.82300
H  50.84600 40.97900 40.72700
H  51.51900 40.33000 42.26700
H  55.36700 43.91600 44.10700
H  55.60000 44.22100 42.25500
H  56.36300 42.99100 43.08600
H  53.84400 48.51100 42.91400
H  52.20900 49.15200 45.41300
H  55.48400 47.95900 44.23700
H  54.66400 46.73100 45.23300
H  54.70300 48.42400 45.72000
H  51.95600 50.86600 43.06900
H  53.67900 50.69500 43.42700
H  52.27100 52.75600 44.41000
H  53.75400 52.13100 45.10400
H  52.10500 51.57800 45.70200
H  47.68100 51.07400 45.10600
H  45.99600 51.26800 44.49000
H  47.41600 51.58500 43.44600
H  44.51100 47.67700 41.02600
H  41.25200 46.75100 43.34900
H  41.23900 45.14300 42.60600
H  40.53800 46.47700 41.71300
Mg 6.26300 54.89400 39.56400
C  5.78000 51.38200 39.23600
C  9.63200 54.37900 39.34000
C  6.70000 58.28300 39.32200
C  2.76200 55.36700 39.29300
N  7.51500 53.07800 39.30100
C  7.13800 51.73800 39.25900
C  8.40500 50.88300 39.10400
C  9.59400 51.88100 39.43500
C  8.89300 53.22400 39.29300
C  10.34700 51.72600 40.75900
C  8.59300 50.26400 37.67100
C  8.40000 51.17900 36.51900
H  7.72400 50.53400 35.27000
N  7.97100 56.16100 39.34700
C  9.28500 55.71200 39.22000
C  10.15400 56.92200 39.09500
C  9.35000 58.03900 39.31100
C  7.90700 57.53400 39.35200
C  11.60300 56.78700 38.81000
C  9.84700 59.44500 39.45700
O  10.99500 59.69700 39.55200
C  8.92800 60.65300 39.47400
N  4.92100 56.58400 39.35100
C  5.34100 57.87300 39.36900
C  4.14800 58.89000 39.34900
C  2.90100 57.94800 39.24500
C  3.52700 56.53600 39.23300
C  3.87600 59.82100 40.55800
C  1.96000 58.19400 38.04600
C  0.36600 58.24300 38.31000
N  4.53400 53.69500 39.52600
C  3.22100 53.98000 39.41200
C  2.49700 52.73600 39.52200
C  3.41000 51.68500 39.49000
C  4.67600 52.32300 39.41700
C  1.04800 52.82600 39.61300
C  3.63500 50.20700 39.50300
O  2.91000 49.23400 39.61800
C  5.19800 50.01400 39.32000
C  5.56600 49.03900 38.24000
O  5.42700 49.27500 37.03100
O  6.10400 47.85200 38.71200
C  6.21800 46.78900 37.63900
H  10.72300 54.32000 39.33800
H  6.69000 59.36700 39.18700
H  1.71000 55.65900 39.33100
H  8.37200 50.10300 39.86400
H  10.32300 51.89000 38.62500
H  10.43000 52.56500 41.45000
H  11.36800 51.51800 40.44200
H  9.93200 50.85700 41.26900
H  8.16600 49.26200 37.65300
H  9.67500 50.13200 37.69700
H  9.40100 51.46500 36.19500
H  7.89800 52.13900 36.63500
H  11.73600 55.86200 38.24900
H  12.09500 56.69400 39.77900
H  11.94100 57.56500 38.12500
H  9.58900 61.49800 39.66800
H  8.13200 60.51400 40.20600
H  8.49700 60.68400 38.47300
H  4.07300 59.50300 38.45100
H  2.34500 57.86900 40.17900
H  4.63200 60.60600 40.54100
H  3.97900 59.27600 41.49600
H  2.89700 60.27800 40.41500
H  2.21200 57.37100 37.37700
H  2.24900 59.09500 37.50600
H  0.25700 58.23500 39.39500
H  -0.11600 57.35100 37.91000
H  -0.00000 59.17000 37.86900
H  0.62300 52.42000 38.69500
H  0.61500 53.82500 39.66200
H  0.79300 52.27200 40.51600
H  5.48900 49.66100 40.30900
H  6.95900 47.15400 36.92700
H  5.21900 46.72900 37.20800
H  6.43800 45.78900 38.01300

