158

Mg 41.38800 8.39000 29.97700
C  43.21800 9.69500 32.75000
C  38.98600 7.51300 32.21100
C  39.87100 7.17900 27.41600
C  44.13300 9.36100 27.93300
N  41.22800 8.54800 32.22300
C  42.02100 9.09000 33.19700
C  41.53700 8.96400 34.62300
C  40.09800 8.31600 34.33200
C  40.11300 8.08400 32.81700
C  39.76200 7.10900 35.18400
C  41.57400 10.33200 35.40300
C  40.64600 10.56300 36.65600
H  41.30000 10.24100 38.03900
N  39.62300 7.39700 29.83100
C  38.77100 7.10800 30.86300
C  37.57100 6.49900 30.29900
C  37.78500 6.58300 28.86400
C  39.17600 6.99800 28.63200
C  36.40200 5.97500 31.10600
C  36.74300 6.31900 27.72600
O  37.01300 6.26800 26.49600
C  35.22900 6.29500 28.03900
N  42.04400 8.17600 27.89200
C  41.10500 7.71000 27.04400
C  41.69600 7.75600 25.61100
C  43.04500 8.61400 25.69900
C  43.06100 8.76500 27.23500
C  41.91800 6.30900 24.98800
C  43.07200 9.96000 24.85200
C  44.18900 10.06600 23.91800
N  43.26300 9.25700 30.19500
C  44.22300 9.77100 29.26300
C  45.34900 10.31600 29.99000
C  44.97400 10.33400 31.30000
C  43.69200 9.64500 31.41400
C  46.47200 10.98900 29.42500
C  45.44200 10.79400 32.59700
O  46.38700 11.47900 32.95100
C  44.35200 10.32600 33.61800
C  44.99600 9.46200 34.59400
O  45.00900 8.22300 34.51400
O  45.44400 10.10500 35.70500
C  45.58100 9.36300 36.99000
H  38.11800 7.42500 32.86800
H  39.36300 6.84700 26.50700
H  44.90700 9.75200 27.26900
H  42.17500 8.26200 35.15900
H  39.30700 9.04700 34.49600
H  39.36300 6.24600 34.65000
H  38.97000 7.50100 35.82300
H  40.58300 6.84500 35.85000
H  41.47700 11.22500 34.78600
H  42.60100 10.40400 35.76000
H  39.77700 9.90600 36.61500
H  40.30600 11.59700 36.71700
H  35.50100 6.58900 31.11200
H  36.87100 5.84000 32.08000
H  36.14000 5.00400 30.68400
H  34.83000 5.46700 28.62500
H  34.73100 6.37600 27.07300
H  34.98000 7.25400 28.49300
H  41.00100 8.36500 25.03200
H  43.94000 8.08200 25.37800
H  41.26700 5.65900 25.57200
H  42.96800 6.04600 25.12100
H  41.56300 6.42400 23.96400
H  43.18100 10.75300 25.59200
H  42.08200 10.09800 24.41600
H  44.68200 11.03400 23.82700
H  43.79500 9.95400 22.90800
H  44.97700 9.31200 23.93300
H  46.67200 12.04200 29.62400
H  46.46200 10.85100 28.34400
H  47.32700 10.34800 29.64100
H  44.04200 11.23900 34.12800
H  45.85400 8.32200 36.81300
H  44.65900 9.34600 37.57100
H  46.34700 9.82500 37.61200
Mg 48.07400 34.12400 25.24200
C  46.16200 32.67200 27.80100
C  48.58200 36.75300 27.27100
C  48.95400 35.77700 22.53900
C  47.29000 31.36200 23.21000
N  47.47900 34.63500 27.25900
C  46.79900 33.84100 28.18200
C  47.04400 34.31000 29.62600
C  47.37600 35.79100 29.34800
C  47.84400 35.73900 27.87200
C  46.22600 36.91400 29.60100
C  48.20100 33.60400 30.45000
C  47.93100 33.42400 31.94500
H  46.91200 34.30900 32.66000
N  48.83100 35.92000 24.95900
C  48.97500 36.93800 25.90900
C  49.79900 38.02200 25.37200
C  49.91400 37.78000 23.93400
C  49.11000 36.48700 23.73100
C  50.43000 39.08300 26.18000
C  50.62800 38.60600 22.87000
O  50.62300 38.38500 21.68300
C  51.48400 39.85000 23.29400
N  48.19200 33.65700 23.20100
C  48.55000 34.48900 22.24000
C  48.57800 33.84800 20.80700
C  48.40100 32.36100 21.14400
C  47.91600 32.48600 22.60600
C  47.62300 34.50700 19.77700
C  49.61000 31.33000 20.98300
C  49.80300 30.82000 19.52000
N  46.83000 32.30900 25.37800
C  46.61200 31.30900 24.43400
C  45.64300 30.39500 25.03400
C  45.44200 30.80400 26.37000
C  46.15200 32.03200 26.48100
C  45.12900 29.12100 24.35700
C  44.78600 30.57500 27.64900
O  44.03300 29.66200 27.98200
C  45.28200 31.66100 28.60000
C  45.98000 30.94800 29.71300
O  46.96100 30.16700 29.64900
O  45.25700 31.11000 30.82800
C  45.57800 30.35200 32.10900
H  49.01100 37.64700 27.73000
H  49.35900 36.19400 21.61500
H  47.29800 30.41000 22.67600
H  46.13600 34.36500 30.22700
H  48.19800 36.09600 29.99600
H  45.82600 37.29900 28.66300
H  46.54000 37.78400 30.17800
H  45.43600 36.40200 30.15100
H  49.14900 34.13600 30.36800
H  48.16000 32.53900 30.22300
H  48.86700 33.58800 32.47900
H  47.53900 32.41700 32.08800
H  50.58200 38.87900 27.24000
H  49.87300 40.01600 26.09400
H  51.41500 39.18600 25.72500
H  52.25400 39.47100 23.96600
H  50.71000 40.40800 23.82100
H  51.89200 40.42300 22.46100
H  49.56600 33.85500 20.34700
H  47.63500 31.99800 20.45900
H  47.07800 35.31500 20.26500
H  46.88500 33.87400 19.28500
H  48.29500 34.88900 19.00900
H  49.50300 30.42900 21.58700
H  50.53600 31.78800 21.33000
H  49.23400 31.38200 18.77900
H  49.60000 29.75100 19.57000
H  50.87200 30.92100 19.33200
H  45.82500 28.28800 24.44900
H  44.83000 29.41800 23.35200
H  44.29800 28.74500 24.95400
H  44.40200 32.14100 29.03000
H  46.66200 30.34200 32.22900
H  45.14800 29.37300 31.89800
H  44.98100 30.77200 32.91800

