158

Mg -1.41600 16.73000 26.12400
C  -1.85400 14.64000 28.84600
C  -2.43600 19.31400 27.96400
C  -1.63800 18.57400 23.33700
C  -1.46400 13.80900 23.99500
N  -2.14000 16.89000 28.11300
C  -2.15100 15.96700 29.11300
C  -2.48600 16.55300 30.50000
C  -3.01100 17.98400 30.09100
C  -2.62300 18.10600 28.59500
C  -4.50700 18.17300 30.35600
C  -1.27400 16.45500 31.52700
C  -1.12600 17.41700 32.66000
H  -0.65500 16.71400 33.92300
N  -1.59000 18.73700 25.70600
C  -1.98100 19.67400 26.65600
C  -1.83200 21.00300 26.02800
C  -1.54400 20.78000 24.62500
C  -1.58300 19.30600 24.51100
C  -1.92600 22.37600 26.84600
C  -1.30500 21.77300 23.50300
O  -1.06700 21.37200 22.34300
C  -1.22200 23.28600 23.70700
N  -1.61500 16.27500 24.05800
C  -1.52500 17.26200 23.09400
C  -1.51500 16.67900 21.67400
C  -1.28600 15.16700 21.92300
C  -1.50000 15.02300 23.42100
C  -2.92700 16.95500 20.90200
C  0.20700 14.64000 21.57800
C  1.37000 15.50300 22.17600
N  -1.53200 14.63900 26.33400
C  -1.55500 13.60500 25.39700
C  -1.47500 12.40700 26.06100
C  -1.52400 12.72700 27.43400
C  -1.64000 14.11000 27.55900
C  -1.48400 11.05400 25.55400
C  -1.69000 12.19500 28.78300
O  -1.74800 11.07100 29.17800
C  -1.74600 13.42400 29.80900
C  -0.56700 13.47300 30.71500
O  0.46100 14.00500 30.42400
O  -0.90700 12.87100 31.93700
C  0.04600 12.91000 33.04500
H  -2.70000 20.17200 28.58600
H  -1.64800 19.03300 22.34600
H  -1.24200 12.87300 23.47900
H  -3.27900 15.90500 30.87300
H  -2.35000 18.73200 30.52800
H  -4.98400 17.19400 30.40700
H  -4.87400 18.83000 29.56700
H  -4.68700 18.52000 31.37300
H  -0.38100 16.46500 30.90200
H  -1.36300 15.47800 32.00200
H  -2.02000 18.00900 32.85800
H  -0.34800 18.15900 32.48000
H  -0.98600 22.92400 26.78100
H  -2.17900 22.21000 27.89300
H  -2.60800 23.01400 26.28400
H  -2.11600 23.70400 24.17000
H  -1.09700 23.80400 22.75600
H  -0.34000 23.55100 24.28900
H  -0.67800 17.17200 21.18000
H  -1.95000 14.43600 21.46100
H  -3.43000 15.99300 20.79600
H  -2.68000 17.42400 19.95000
H  -3.45900 17.67200 21.52700
H  0.21900 14.74600 20.49300
H  0.27500 13.57700 21.80900
H  1.65600 16.13400 21.33500
H  2.23600 14.94200 22.52700
H  1.14800 16.13400 23.03600
H  -2.37200 10.58200 25.97400
H  -0.72800 10.50200 26.11100
H  -1.42800 10.98600 24.46700
H  -2.72500 13.40000 30.28800
H  0.28900 13.95000 33.26000
H  1.02300 12.51500 32.76500
H  -0.38300 12.48300 33.95100
Mg 26.11300 -0.91500 29.36600
C  27.74000 -0.76700 32.55200
C  23.19200 -0.81000 31.15900
C  24.49200 -1.16700 26.50500
C  29.17100 -1.63600 27.95600
N  25.57000 -0.74600 31.61200
C  26.42000 -0.69800 32.70900
C  25.65800 -0.52400 34.08300
C  24.15800 -0.59800 33.58600
C  24.25500 -0.70900 32.06400
C  23.19800 -1.73300 34.16100
C  26.05700 0.87900 34.76300
C  26.37200 0.85400 36.22400
H  26.22400 2.08100 37.08200
N  24.11000 -0.98200 28.88900
C  23.06600 -0.98900 29.75000
C  21.76800 -0.85100 28.98400
C  22.15100 -0.80800 27.59600
C  23.60000 -1.07100 27.62100
C  20.36900 -0.65800 29.50700
C  21.24200 -0.50600 26.41800
O  21.62900 -0.75000 25.25100
C  19.83100 0.08400 26.64300
N  26.78700 -1.29300 27.47700
C  25.87100 -1.31000 26.46200
C  26.58800 -1.62800 25.14200
C  28.08500 -1.83400 25.57400
C  28.06600 -1.60100 27.11200
C  26.06200 -2.75600 24.29300
C  29.13700 -0.94600 24.79700
C  29.27200 0.58900 25.14600
N  27.99400 -1.04000 30.03500
C  29.12600 -1.39400 29.32400
C  30.22300 -1.54100 30.20400
C  29.73100 -1.21400 31.47800
C  28.43200 -0.99800 31.33700
C  31.60000 -1.87700 29.84000
C  30.15000 -1.02000 32.90600
O  31.20400 -1.13200 33.49300
C  28.82000 -0.73500 33.63800
C  28.66600 -1.74300 34.71800
O  27.94900 -2.68400 34.55600
O  29.37900 -1.43600 35.86800
C  29.45800 -2.49600 36.89400
H  22.18300 -0.76800 31.57300
H  23.96200 -1.08300 25.55400
H  30.14600 -1.87900 27.52800
H  25.79000 -1.38800 34.73500
H  23.62200 0.33700 33.75100
H  23.56300 -2.03700 35.14200
H  23.18800 -2.58600 33.48300
H  22.15400 -1.45300 34.30200
H  25.26100 1.61700 34.66200
H  26.86000 1.37800 34.22100
H  27.38400 0.48800 36.39900
H  25.73600 0.07400 36.64200
H  20.07700 0.39000 29.57500
H  20.21100 -1.01500 30.52500
H  19.60800 -1.05600 28.83600
H  19.20900 -0.77700 26.88700
H  19.59700 0.65500 25.74500
H  19.83500 0.84200 27.42700
H  26.51100 -0.71400 24.55200
H  28.45000 -2.84400 25.38300
H  25.11000 -3.15200 24.64700
H  26.80400 -3.54500 24.17500
H  25.77800 -2.36200 23.31700
H  28.71200 -0.77600 23.80800
H  30.12200 -1.39300 24.65800
H  28.48300 0.91400 25.82500
H  29.25000 1.22400 24.26100
H  30.21100 0.77900 25.66600
H  31.69200 -2.38800 28.88100
H  31.89100 -2.62200 30.58100
H  32.36800 -1.11500 29.97100
H  28.84500 0.27100 34.05500
H  28.58800 -2.35500 37.53400
H  30.28700 -2.24100 37.55400
H  29.48000 -3.55100 36.62100

