158

Mg 39.49500 10.31900 29.70400
C  41.45500 11.75200 32.23900
C  37.37800 9.12600 32.04100
C  37.72600 8.81000 27.09900
C  42.19300 10.66700 27.58300
N  39.48500 10.34600 31.96600
C  40.33600 11.05600 32.74600
C  39.78400 11.08500 34.22900
C  38.64300 9.99500 34.15900
C  38.46400 9.77300 32.59500
C  38.85000 8.62300 34.85300
C  39.42400 12.52500 34.78600
C  40.14700 12.96200 36.05000
H  39.33300 13.57300 37.21600
N  37.73900 9.24800 29.57700
C  37.05300 8.75500 30.70700
C  35.77700 8.25600 30.23600
C  35.87200 8.11500 28.79500
C  37.19000 8.68800 28.44600
C  34.74800 7.87800 31.27100
C  34.84900 7.67300 27.78500
O  34.98700 7.61000 26.58000
C  33.58700 7.22500 28.35700
N  39.91000 9.77600 27.64100
C  38.95600 9.39000 26.71500
C  39.50600 9.44800 25.28800
C  40.98300 9.70600 25.57800
C  41.05300 10.11700 27.01500
C  39.27600 8.15600 24.43200
C  41.61200 10.71000 24.54400
C  41.36000 12.19700 24.73400
N  41.43600 11.05600 29.80500
C  42.41800 11.14800 28.87900
C  43.55100 11.81800 29.32100
C  43.25700 12.05200 30.66700
C  41.95300 11.52900 30.94400
C  44.69200 12.12100 28.56300
C  43.73400 12.61800 31.88300
O  44.79200 13.23200 31.98000
C  42.69000 12.35900 32.99700
C  43.20000 11.30400 33.93100
O  43.55900 10.17200 33.64300
O  43.29100 11.73000 35.25300
C  43.72100 10.76900 36.30200
H  36.67300 8.69100 32.75300
H  37.12800 8.39700 26.28400
H  43.03000 10.77500 26.88900
H  40.50300 10.74000 34.97200
H  37.68100 10.27700 34.58800
H  39.77100 8.62600 35.43700
H  38.92400 7.85000 34.08900
H  37.98800 8.30200 35.43700
H  38.35800 12.57600 35.00700
H  39.55900 13.23300 33.96800
H  41.01300 13.55800 35.76200
H  40.45500 12.01000 36.48200
H  34.91000 6.82600 31.50600
H  33.74900 8.04100 30.86600
H  34.75500 8.54200 32.13400
H  32.99400 7.91100 28.96100
H  33.78500 6.38200 29.01900
H  32.88600 6.82100 27.62600
H  39.11100 10.30000 24.73500
H  41.49900 8.74800 25.64900
H  39.15200 8.28800 23.35700
H  38.29300 7.77100 24.70200
H  39.90800 7.28400 24.60500
H  41.21000 10.37200 23.58900
H  42.68300 10.52300 24.46600
H  40.46100 12.46500 25.28900
H  41.26100 12.64400 23.74400
H  42.20600 12.65200 25.24800
H  45.47200 12.45700 29.24600
H  44.49700 12.99000 27.93400
H  44.93500 11.23900 27.97100
H  42.38400 13.24100 33.56100
H  44.73800 10.50200 36.01500
H  43.03200 9.92600 36.23700
H  43.73300 11.17700 37.31200
Mg 10.75000 47.80900 25.82200
C  8.92900 47.66900 28.79800
C  13.30600 49.21300 27.45300
C  12.46700 47.91800 22.80700
C  7.81100 47.02600 24.01600
N  10.99800 48.34700 27.83300
C  10.19100 48.27400 28.91500
C  10.74400 48.90900 30.22000
C  11.90600 49.70900 29.57300
C  12.17500 48.97000 28.25900
C  11.76100 51.18100 29.45000
C  11.12200 47.82000 31.30900
C  10.22500 47.81300 32.51900
H  10.27300 46.59900 33.48700
N  12.64200 48.41100 25.24700
C  13.58700 48.93300 26.06500
C  14.85500 49.07400 25.36100
C  14.60700 48.57100 24.06200
C  13.18900 48.33000 23.94800
C  16.13500 49.59700 26.08000
C  15.61000 48.18300 22.93500
O  15.36000 47.77100 21.84500
C  17.07900 48.33300 23.27800
N  10.22000 47.44300 23.72600
C  11.12100 47.48400 22.64400
C  10.47800 47.16100 21.27000
C  9.14800 46.63400 21.82900
C  8.99000 47.11200 23.28900
C  10.40000 48.26800 20.26700
C  8.80700 45.09100 21.63400
C  9.90900 44.15200 22.28700
N  8.81200 47.43700 26.21800
C  7.69700 47.12700 25.41800
C  6.55100 46.86300 26.25700
C  6.99100 47.06500 27.54400
C  8.35900 47.44300 27.47000
C  5.22200 46.47300 25.64000
C  6.50100 47.00800 28.94100
O  5.40400 46.60800 29.39500
C  7.85600 47.38700 29.77500
C  8.16800 46.08200 30.56600
O  9.02000 45.23400 30.29300
O  7.38200 46.07800 31.67600
C  7.24700 44.91200 32.57300
H  14.11200 49.60500 28.07600
H  13.04600 47.88200 21.88100
H  6.99300 46.67800 23.38200
H  10.04800 49.64300 30.62500
H  12.78700 49.63100 30.21000
H  10.78100 51.55000 29.75200
H  11.93100 51.30900 28.38100
H  12.51600 51.76800 29.97300
H  12.13000 48.02800 31.66800
H  11.26700 46.82600 30.88500
H  9.20300 47.98500 32.18100
H  10.50500 48.63800 33.17400
H  15.98100 49.52100 27.15600
H  16.42500 50.63700 25.93200
H  17.00200 48.96900 25.87300
H  17.34200 49.36400 23.51300
H  17.62200 47.89700 22.44000
H  17.35500 47.66600 24.09500
H  11.01600 46.31700 20.83700
H  8.28700 47.05000 21.30500
H  10.93400 47.98200 19.36200
H  10.91800 49.19000 20.52900
H  9.35900 48.57700 20.16500
H  8.47800 44.88400 20.61600
H  7.93600 44.86400 22.24900
H  9.52300 43.55700 23.11500
H  10.73400 44.73200 22.70200
H  10.47900 43.67300 21.49100
H  5.08500 46.79500 24.60700
H  4.46600 47.04300 26.18000
H  5.06100 45.39600 25.68200
H  7.82800 48.19900 30.50100
H  7.94100 44.11700 32.29700
H  6.20700 44.64900 32.76200
H  7.72500 45.26200 33.48800

