158

Mg -2.22800 17.41000 26.42900
C  -2.27200 15.12800 29.09600
C  -2.76600 19.93300 28.70600
C  -2.50900 19.64800 23.85400
C  -1.94100 14.89500 24.18800
N  -2.68900 17.59300 28.62300
C  -2.35100 16.51000 29.49300
C  -2.38600 16.94200 30.97800
C  -2.74300 18.46200 30.84600
C  -2.69200 18.75400 29.31900
C  -4.08800 18.84900 31.50800
C  -1.14300 16.56800 31.80300
C  -1.00000 17.28500 33.18100
H  -0.92100 16.37700 34.48300
N  -2.61200 19.44500 26.34100
C  -2.79600 20.35800 27.39700
C  -2.92400 21.68400 26.89500
C  -2.96500 21.63200 25.46200
C  -2.70600 20.16800 25.15800
C  -3.15300 22.87400 27.68400
C  -3.20400 22.66300 24.38800
O  -3.10800 22.44800 23.15100
C  -3.42300 24.11900 24.71300
N  -2.16600 17.34500 24.30900
C  -2.27700 18.31600 23.42300
C  -2.27400 17.90500 21.94400
C  -2.02000 16.43100 22.10000
C  -1.96400 16.21300 23.60000
C  -3.55500 18.25500 21.17000
C  -0.86200 15.77600 21.33300
C  -0.96200 14.38500 20.81400
N  -2.23300 15.39500 26.51100
C  -1.93200 14.48700 25.52400
C  -1.93700 13.13600 26.06400
C  -1.98200 13.39200 27.44800
C  -2.20000 14.75200 27.69100
C  -1.92700 11.88300 25.27500
C  -2.09100 12.71700 28.68000
O  -2.11100 11.48600 28.91900
C  -2.22700 13.78500 29.85000
C  -1.06600 13.49100 30.77700
O  0.11900 13.82300 30.69200
O  -1.62100 12.76600 31.81100
C  -0.75900 12.39900 32.98300
H  -2.57500 20.70200 29.45800
H  -2.70500 20.28300 22.98800
H  -1.73200 14.14500 23.42200
H  -3.22300 16.40800 31.42700
H  -1.93600 18.98500 31.35900
H  -4.06600 18.82400 32.59700
H  -4.99500 18.38700 31.11600
H  -4.29000 19.90200 31.30900
H  -0.25200 16.70700 31.19100
H  -1.14200 15.49500 31.99200
H  -1.82400 17.98800 33.30300
H  -0.08200 17.86800 33.25200
H  -3.10400 22.70000 28.75900
H  -4.12700 23.30400 27.44900
H  -2.35700 23.58300 27.45900
H  -3.81600 24.72100 23.89300
H  -2.49000 24.62700 24.95600
H  -4.04900 24.25700 25.59500
H  -1.39800 18.37000 21.49300
H  -2.93800 15.91900 21.81200
H  -4.14100 17.42300 20.77800
H  -3.25400 18.78000 20.26300
H  -4.20800 18.79300 21.85700
H  0.04500 15.86600 21.93100
H  -0.67900 16.39700 20.45600
H  -0.30100 13.69600 21.33900
H  -0.84900 14.38200 19.72900
H  -1.99900 14.06100 20.90700
H  -1.60100 11.96900 24.23800
H  -2.93600 11.47500 25.22700
H  -1.33000 11.09000 25.72400
H  -3.19100 13.55300 30.30300
H  -0.38300 11.38100 32.87500
H  -1.34900 12.43400 33.89900
H  0.07900 13.06600 33.18100
Mg 41.54800 41.20100 26.75000
C  40.79400 43.38800 29.47400
C  42.61800 38.90400 29.05000
C  42.65600 39.28800 24.21800
C  40.77300 43.82600 24.55600
N  41.70500 41.13900 29.06700
C  41.16800 42.13900 29.89700
C  41.36900 41.57500 31.37300
C  42.11300 40.15100 31.29700
C  42.17500 40.04100 29.73100
C  43.37900 39.99300 32.03700
C  40.06500 41.59900 32.13000
C  40.20400 41.40400 33.63600
H  39.54600 42.50600 34.52300
N  42.45900 39.31800 26.61400
C  42.81900 38.52900 27.67100
C  43.43400 37.27600 27.14600
C  43.45700 37.34100 25.72400
C  42.80300 38.70900 25.45000
C  43.96100 36.18600 28.07500
C  44.04600 36.32300 24.75000
O  44.04600 36.55300 23.50100
C  44.89100 35.14000 25.17200
N  41.80300 41.58900 24.71700
C  42.14900 40.55900 23.87900
C  41.97400 40.99900 22.46100
C  41.11700 42.31500 22.50000
C  41.23000 42.58300 24.01900
C  43.32000 41.37100 21.61900
C  39.63700 42.27400 22.02000
C  38.81700 41.06400 22.45600
N  40.95000 43.19500 26.93000
C  40.74300 44.21100 25.89000
C  40.44600 45.45800 26.49900
C  40.28500 45.13200 27.91000
C  40.72700 43.76900 28.11600
C  40.13100 46.72900 25.84100
C  39.84100 45.73200 29.22300
O  39.44100 46.86800 29.53000
C  40.14000 44.54600 30.24500
C  41.16200 45.22200 31.13900
O  42.20000 45.65700 30.70200
O  40.80000 45.31700 32.46300
C  41.85400 45.97200 33.38600
H  42.97000 38.19800 29.80600
H  43.08800 38.73900 23.37900
H  40.37700 44.63500 23.93800
H  42.09300 42.27100 31.79600
H  41.43500 39.33200 31.54100
H  43.87500 40.94400 32.23200
H  43.99900 39.36200 31.39900
H  43.28000 39.44900 32.97700
H  39.48500 40.74400 31.78300
H  39.59300 42.58000 32.08400
H  41.27000 41.25000 33.80900
H  39.75000 40.45600 33.92300
H  44.97600 35.90900 27.78900
H  43.35600 35.30400 27.86100
H  43.95300 36.36800 29.14900
H  44.97400 34.39200 24.38400
H  44.33100 34.70400 25.99900
H  45.86700 35.58800 25.35900
H  41.57200 40.18500 21.85600
H  41.56200 43.14600 21.95100
H  44.15400 40.93100 22.16700
H  43.46600 42.44500 21.50400
H  43.35100 41.04500 20.57900
H  39.65300 42.26500 20.93000
H  39.05800 43.15900 22.28300
H  38.63400 40.51200 21.53400
H  37.87600 41.31000 22.94700
H  39.43600 40.40100 23.06200
H  40.31100 46.70600 24.76600
H  40.74200 47.53400 26.24900
H  39.08800 46.96000 26.05700
H  39.22300 44.45000 30.82500
H  42.02100 45.30200 34.22900
H  41.52400 46.94900 33.73900
H  42.81500 46.06300 32.88000

