158

Mg 41.78100 40.98700 26.03500
C  41.21600 43.25700 28.77200
C  43.27000 38.88100 28.22800
C  42.21100 38.91500 23.51400
C  40.55800 43.46400 23.91700
N  42.08600 41.13500 28.19200
C  41.81900 42.10200 29.14800
C  42.20300 41.73400 30.60600
C  42.97400 40.42600 30.36100
C  42.77400 40.08100 28.78300
C  44.52900 40.62500 30.63300
C  40.96700 41.53100 31.60700
C  41.50800 41.23300 33.01900
H  40.52000 41.47100 34.12300
N  42.63600 39.09600 25.89000
C  43.23900 38.33400 26.89100
C  43.65000 37.08200 26.34400
C  43.23000 37.06100 25.01400
C  42.68500 38.40400 24.72700
C  44.37200 36.10900 27.16900
C  43.34400 35.88900 24.01300
O  42.99000 35.99000 22.84500
C  43.76200 34.57400 24.45800
N  41.51900 41.19700 24.07600
C  41.65400 40.14600 23.19600
C  41.30800 40.53800 21.73700
C  40.61100 41.87900 21.98700
C  40.91000 42.21800 23.42800
C  42.48400 40.48900 20.69000
C  39.15600 41.90700 21.76200
C  38.24400 40.99300 22.51200
N  41.03800 42.99900 26.21500
C  40.58000 43.84300 25.23700
C  40.16600 45.07400 25.86200
C  40.39300 44.90000 27.27800
C  40.89000 43.59300 27.39600
C  39.72200 46.31600 25.24300
C  40.35100 45.56600 28.59600
O  39.97200 46.64100 29.00400
C  40.81900 44.47500 29.59500
C  41.87500 44.99300 30.45800
O  43.02500 44.97900 30.12400
O  41.37900 45.50300 31.62400
C  42.27700 45.80700 32.74400
H  43.80200 38.26300 28.95500
H  42.37200 38.26700 22.65100
H  40.14900 44.24700 23.27500
H  42.80200 42.51200 31.07900
H  42.57900 39.57700 30.91900
H  44.88300 41.65600 30.60100
H  45.14000 40.01200 29.97000
H  44.77200 40.23700 31.62200
H  40.30000 40.72800 31.29400
H  40.27900 42.37600 31.65400
H  42.46100 41.72300 33.21600
H  41.72800 40.16500 33.03300
H  44.57000 36.62100 28.11100
H  45.23900 35.76700 26.60400
H  43.75000 35.24100 27.38700
H  43.68400 33.89000 23.61300
H  43.11000 34.24200 25.26600
H  44.78600 34.41900 24.79700
H  40.59200 39.75600 21.48900
H  41.16800 42.58500 21.37200
H  43.38400 40.07600 21.14500
H  42.72100 41.50800 20.38300
H  42.24400 39.94000 19.77900
H  39.07200 41.84100 20.67800
H  38.88100 42.94400 21.95300
H  37.30700 41.47900 22.78200
H  38.59400 40.40200 23.35900
H  37.89000 40.30400 21.74500
H  40.00100 46.25400 24.19200
H  40.25900 47.11600 25.75300
H  38.69400 46.62400 25.43400
H  39.96000 44.22600 30.21900
H  42.60700 44.82800 33.09100
H  41.80200 46.31600 33.58300
H  43.08700 46.40600 32.32800
Mg -11.07700 38.98200 42.37500
C  -8.79700 36.23100 41.63400
C  -9.02200 41.09700 40.74900
C  -13.55400 41.13200 42.55500
C  -13.34500 36.44600 43.58500
N  -9.18500 38.59200 41.25600
C  -8.46600 37.44100 40.97700
C  -7.31900 37.74800 39.97300
C  -7.33200 39.34200 39.84500
C  -8.60400 39.72800 40.62900
C  -6.12900 40.01500 40.58000
C  -7.41900 36.95600 38.66500
C  -6.14600 36.32900 38.13500
H  -5.47200 37.20400 37.10600
N  -11.18200 40.82900 41.93400
C  -10.20400 41.58600 41.34300
C  -10.57700 42.94000 41.35500
C  -11.87400 43.01700 41.83900
C  -12.26700 41.64600 42.18500
C  -9.68700 44.03800 40.89700
C  -12.68800 44.24700 42.08500
O  -12.14900 45.34000 41.89800
C  -14.16200 44.31400 42.54700
N  -13.18800 38.74100 42.94400
C  -14.03900 39.86700 42.87700
C  -15.48600 39.50500 43.15800
C  -15.46300 37.95400 43.50700
C  -13.90800 37.73200 43.45400
C  -16.02200 40.40000 44.29400
C  -16.24000 37.07800 42.40600
C  -16.75000 35.76300 42.87500
N  -11.10200 36.88200 42.80900
C  -12.00600 36.08400 43.36100
C  -11.47100 34.75900 43.54900
C  -10.22700 34.76800 42.89400
C  -9.99700 36.09100 42.45000
C  -12.06800 33.53300 44.23600
C  -9.00200 33.95300 42.59200
O  -8.75900 32.79400 42.89900
C  -8.17100 34.88300 41.63500
C  -6.74300 34.81300 42.16200
O  -5.94300 33.83100 41.89900
O  -6.52100 35.98100 42.84600
C  -5.12700 36.01800 43.45400
H  -8.57200 41.91900 40.18900
H  -14.39100 41.83200 42.58200
H  -13.95000 35.57700 43.85200
H  -6.42200 37.48900 40.53500
H  -7.43600 39.72800 38.83100
H  -5.39900 39.23800 40.80400
H  -6.29600 40.46000 41.56100
H  -5.78800 40.86600 39.99000
H  -7.68500 37.70000 37.91400
H  -8.11900 36.12100 38.70500
H  -6.38100 35.33800 37.74600
H  -5.51300 36.13200 39.00000
H  -9.87600 44.94200 41.47600
H  -9.81800 44.30700 39.84900
H  -8.62000 43.81700 40.93600
H  -14.41300 45.37300 42.61800
H  -14.29100 44.03200 43.59200
H  -14.73700 43.76300 41.80300
H  -16.01800 39.55000 42.20800
H  -15.98300 37.78900 44.45100
H  -16.00100 39.83800 45.22700
H  -17.04100 40.74900 44.12500
H  -15.39100 41.26400 44.50200
H  -15.63300 36.93800 41.51200
H  -17.04700 37.70200 42.02200
H  -16.33000 35.62500 43.87100
H  -16.26900 35.02000 42.23900
H  -17.83800 35.72200 42.81700
H  -12.30800 33.99600 45.19300
H  -11.48900 32.62100 44.38500
H  -13.02900 33.33000 43.76500
H  -8.23500 34.54400 40.60100
H  -4.43100 36.66100 42.91600
H  -4.69400 35.01800 43.48200
H  -5.26800 36.33200 44.48800

