158

Mg 54.35800 23.99700 44.08300
C  51.37700 25.99300 43.81200
C  52.32200 21.22100 43.80400
C  57.07400 22.03200 44.12800
C  56.10300 26.76000 44.81500
N  52.13200 23.68700 43.78800
C  51.07200 24.60400 43.69400
C  49.73600 23.94900 43.73800
C  50.08600 22.49100 44.15200
C  51.63200 22.43900 43.90200
C  49.75100 22.07700 45.61000
C  48.94100 24.05400 42.38500
C  49.62300 23.77700 41.06700
H  49.49500 24.58200 39.78100
N  54.66500 21.85900 43.73900
C  53.69400 20.88300 43.73400
C  54.32100 19.56500 43.63800
C  55.73600 19.79800 43.87300
C  55.93600 21.24600 43.90800
C  53.58900 18.23600 43.50900
C  56.83000 18.68700 44.10100
O  56.49900 17.52900 44.00900
C  58.26300 19.00900 44.42400
N  56.32300 24.39400 44.16300
C  57.23300 23.41800 44.34400
C  58.62400 23.93500 44.72500
C  58.32500 25.45100 45.01400
C  56.81400 25.54300 44.69800
C  59.44100 23.24500 45.84200
C  59.18900 26.39700 44.10800
C  59.44900 27.77900 44.73400
N  53.94400 26.03800 44.24800
C  54.77400 27.03300 44.49800
C  53.96700 28.25400 44.65400
C  52.68600 27.96600 44.37300
C  52.72400 26.57200 44.08100
C  54.50900 29.55800 45.09300
C  51.36700 28.44200 44.23200
O  50.94900 29.53500 44.46100
C  50.43400 27.23000 43.81900
C  49.95700 27.47300 42.41800
O  50.45700 27.04500 41.39900
O  48.81700 28.21500 42.60700
C  48.07900 28.51300 41.38700
H  51.64100 20.36800 43.78400
H  57.92000 21.34700 44.03100
H  56.54200 27.69400 45.17300
H  49.17200 24.50100 44.49000
H  49.59400 21.76900 43.50000
H  50.63900 22.27500 46.21000
H  49.52000 21.01100 45.61900
H  48.92800 22.64800 46.03900
H  48.47500 25.03900 42.36300
H  48.22000 23.24800 42.52600
H  49.38500 22.72700 40.89700
H  50.67500 23.62600 41.31000
H  52.53300 18.46400 43.36900
H  53.77200 17.67900 44.42800
H  54.03700 17.70900 42.66600
H  58.83400 18.16300 44.80700
H  58.19200 19.79500 45.17500
H  58.73200 19.35700 43.50400
H  59.14000 23.75200 43.78200
H  58.49700 25.70900 46.05900
H  59.23100 23.90600 46.68300
H  60.47400 23.34800 45.51100
H  59.07600 22.21800 45.86700
H  58.50000 26.53100 43.27400
H  60.05300 25.87300 43.70000
H  59.16000 28.57700 44.05100
H  60.48700 27.85700 45.05800
H  58.87400 27.96300 45.64100
H  53.68700 30.17400 45.45800
H  55.01500 30.00100 44.23500
H  55.23000 29.38400 45.89200
H  49.63100 27.12800 44.55000
H  47.16700 29.04100 41.66300
H  47.73500 27.60600 40.89000
H  48.65600 29.22600 40.79900
Mg 30.73800 56.67800 39.79300
C  28.16400 54.41100 38.77200
C  33.02000 54.16700 38.79800
C  33.19200 58.95500 39.71800
C  28.36600 59.21900 40.00400
N  30.53500 54.50000 38.81100
C  29.38700 53.81300 38.61400
C  29.67900 52.39000 38.20200
C  31.25700 52.29400 38.20900
C  31.63200 53.71700 38.66800
C  31.94100 51.07800 38.91900
C  29.03400 51.94800 36.94000
C  29.36700 52.70600 35.62700
H  28.31500 53.45800 34.93200
N  32.79400 56.62100 39.34400
C  33.54000 55.47400 39.08500
C  34.93100 55.85600 38.99800
C  35.04600 57.23000 39.30800
C  33.67900 57.62800 39.48700
C  36.04900 55.00100 38.54700
C  36.38500 57.96800 39.34200
O  37.42900 57.53400 38.86400
C  36.42100 59.23900 40.15000
N  30.77400 58.80500 39.89600
C  31.90100 59.48800 39.89300
C  31.62200 60.97300 39.99100
C  30.09700 61.07700 40.28300
C  29.70800 59.61800 40.08500
C  32.50400 61.67200 41.07300
C  29.31800 62.07200 39.37300
C  29.81300 63.54700 39.18000
N  28.67200 56.86100 39.62000
C  27.83000 57.93700 39.76200
C  26.51800 57.53100 39.53300
C  26.55300 56.14100 39.21200
C  27.97600 55.83400 39.16800
C  25.27400 58.35100 39.75700
C  25.78100 55.02200 39.00200
O  24.52300 54.93500 39.04600
C  26.69400 53.88200 38.64100
C  26.28400 52.78000 39.61100
O  26.78900 52.61800 40.71200
O  25.28500 52.05800 39.04600
C  24.88500 50.80200 39.66600
H  33.77600 53.40700 38.58800
H  33.94000 59.74100 39.59500
H  27.65000 60.01600 40.21100
H  29.24400 51.76300 38.98000
H  31.67000 52.18500 37.20600
H  32.54300 50.49200 38.22500
H  31.16700 50.44800 39.35800
H  32.58800 51.51400 39.68100
H  27.98300 51.75600 37.15400
H  29.49500 50.98300 36.72500
H  29.63500 51.89500 34.95000
H  30.18300 53.39600 35.84500
H  35.68500 54.02500 38.22700
H  36.71700 54.92700 39.40500
H  36.66000 55.46700 37.77400
H  37.40600 59.35800 40.60100
H  35.68900 58.99000 40.91800
H  36.08500 60.21200 39.79200
H  31.84200 61.35400 38.99300
H  29.89000 61.34600 41.31800
H  33.35200 61.10900 41.46300
H  31.87900 61.98900 41.90800
H  32.92900 62.58600 40.65800
H  28.30100 62.08600 39.76700
H  29.30900 61.55300 38.41500
H  30.22300 63.79000 38.19900
H  30.58200 63.73600 39.92900
H  28.99800 64.25300 39.34200
H  25.29300 59.42100 39.54900
H  25.07500 58.45800 40.82400
H  24.40700 57.76100 39.45900
H  26.52700 53.42300 37.66700
H  23.81700 50.77700 39.88200
H  25.38600 50.65000 40.62200
H  25.17600 50.11000 38.87700

