158

Mg 9.26700 3.79600 26.72400
C  10.49500 2.32300 29.58400
C  7.14100 5.68200 28.61800
C  7.99900 5.07300 23.85000
C  10.82500 1.26000 24.80300
N  8.76700 3.82100 28.82600
C  9.50600 3.26600 29.86900
C  9.05800 3.75000 31.28500
C  7.96400 4.82500 30.95800
C  7.90400 4.71500 29.38800
C  6.65200 4.61300 31.71300
C  10.31100 4.14800 32.14900
C  10.24700 5.16700 33.24800
H  11.02400 4.77600 34.54000
N  7.87400 5.22400 26.30500
C  7.14700 5.94600 27.21300
C  6.38000 6.95900 26.57800
C  6.60400 6.76100 25.13900
C  7.54500 5.64600 25.07700
C  5.39800 7.88300 27.22600
C  5.88800 7.43100 23.94000
O  6.06100 7.12600 22.81100
C  4.88400 8.52500 24.10700
N  9.32000 3.16500 24.66500
C  8.81200 3.94800 23.67300
C  9.19900 3.43800 22.26300
C  10.06000 2.20400 22.59700
C  10.07700 2.20000 24.10000
C  8.00600 3.27400 21.31100
C  11.48300 2.04700 22.03800
C  11.91700 3.05100 20.92700
N  10.52100 2.13400 27.07900
C  11.03200 1.14800 26.15700
C  11.77100 0.13000 26.96300
C  11.72500 0.63400 28.30600
C  10.90600 1.74300 28.33700
C  12.41200 -1.12900 26.45700
C  12.16600 0.57900 29.72000
O  13.04300 -0.11400 30.18500
C  11.28400 1.56400 30.56400
C  10.40400 0.75000 31.49000
O  9.25200 0.48200 31.23700
O  11.06600 0.49800 32.68400
C  10.20100 -0.17500 33.67000
H  6.63900 6.43500 29.22800
H  7.63200 5.35000 22.86000
H  11.35800 0.46500 24.27800
H  8.73200 2.86100 31.82500
H  8.29400 5.85000 31.13000
H  5.87100 4.11900 31.13600
H  6.29000 5.61400 31.94600
H  6.86000 4.10900 32.65600
H  11.23600 4.32300 31.60100
H  10.51700 3.18100 32.60800
H  9.20000 5.27700 33.53000
H  10.63300 6.11700 32.88000
H  5.62200 8.12900 28.26400
H  4.41200 7.43000 27.33000
H  5.16500 8.81300 26.70600
H  4.72500 9.07500 23.18000
H  5.10600 9.38000 24.74700
H  3.96800 8.00900 24.39300
H  9.87400 4.20500 21.88400
H  9.49000 1.30400 22.36800
H  7.92200 2.21200 21.07800
H  8.21100 3.97200 20.49900
H  7.10600 3.41000 21.91000
H  11.65000 0.99000 21.83100
H  12.26300 2.22800 22.77800
H  11.13600 3.08900 20.16800
H  12.81500 2.73000 20.39900
H  12.11500 4.06100 21.28400
H  12.22500 -1.99700 27.08900
H  13.49700 -1.03100 26.41500
H  12.13200 -1.32900 25.42200
H  11.95700 2.18200 31.15800
H  9.35600 0.35900 34.10400
H  10.72700 -0.52100 34.56000
H  9.72500 -1.07800 33.28700
Mg 8.73100 48.06900 26.54200
C  6.82200 47.75400 29.38900
C  11.49200 48.93200 28.53100
C  10.70800 48.43300 23.75200
C  5.98200 47.81400 24.52400
N  8.95900 48.64600 28.72100
C  8.12700 48.25800 29.69100
C  8.77800 48.45000 31.05200
C  10.15200 49.18700 30.74900
C  10.26700 48.84100 29.26900
C  10.04900 50.70000 30.98500
C  8.94100 47.19600 31.99600
C  8.54400 47.52100 33.45900
H  8.78900 46.38300 34.50400
N  10.91000 48.49000 26.23900
C  11.83400 48.79400 27.22400
C  13.09400 48.81200 26.59700
C  12.88500 48.61900 25.20000
C  11.44600 48.56900 24.98500
C  14.38500 48.93100 27.32100
C  13.89400 48.57900 24.12000
O  13.60100 48.55600 22.94700
C  15.39600 48.46600 24.47900
N  8.40600 48.26200 24.39800
C  9.32700 48.36900 23.43300
C  8.70700 47.91900 22.03300
C  7.20800 47.80600 22.34600
C  7.18100 47.97200 23.83600
C  9.06200 48.90700 20.92000
C  6.62100 46.44100 21.85100
C  5.49700 46.47800 20.79900
N  6.82900 47.88600 26.87900
C  5.83700 47.68200 25.93400
C  4.56800 47.31300 26.63100
C  4.95200 47.28000 27.95500
C  6.31100 47.67200 28.09200
C  3.23600 47.10600 25.97200
C  4.47300 46.99100 29.33400
O  3.40000 46.53000 29.66800
C  5.72800 47.22700 30.27300
C  5.97300 45.98800 30.99500
O  6.47000 44.97500 30.50500
O  5.50600 46.13300 32.29100
C  5.66000 44.94400 33.13900
H  12.37200 49.06500 29.16400
H  11.30100 48.41600 22.83500
H  5.12700 47.63500 23.87000
H  8.17800 49.16200 31.61800
H  11.00100 48.80500 31.31600
H  9.03000 51.07700 31.07300
H  10.54800 51.34500 30.26200
H  10.55300 50.81500 31.94500
H  10.01500 47.00800 32.02600
H  8.52800 46.21500 31.76200
H  7.45900 47.59100 33.38000
H  8.91300 48.46900 33.85100
H  15.05800 48.08700 27.17200
H  14.24900 49.10500 28.38900
H  15.04900 49.70200 26.92900
H  15.48300 47.60400 25.14000
H  15.81000 49.29400 25.05400
H  15.96100 48.33300 23.55600
H  9.13400 46.95400 21.76100
H  6.62500 48.61500 21.90400
H  8.17300 49.14200 20.33400
H  9.71800 48.44400 20.18300
H  9.52000 49.77600 21.39100
H  6.11000 45.98600 22.70000
H  7.37000 45.70600 21.55600
H  4.61400 45.99500 21.21800
H  5.83200 45.80500 20.00900
H  5.17600 47.42400 20.36400
H  3.22100 46.73700 24.94600
H  2.87800 48.12900 25.86400
H  2.55700 46.55100 26.62000
H  5.54600 48.00600 31.01300
H  6.61400 44.65400 33.57900
H  5.32200 44.08900 32.55300
H  4.97700 44.99900 33.98800

