158

Mg 26.51100 0.43000 29.71700
C  28.17200 0.16300 32.77900
C  23.63500 1.07800 31.49900
C  24.66700 0.40900 26.73700
C  29.19600 -0.99600 28.00400
N  25.99400 0.62600 31.90700
C  26.86900 0.58900 32.98500
C  26.21100 0.94100 34.27500
C  24.76600 1.35200 33.81200
C  24.78800 0.98900 32.31400
C  23.64300 0.42500 34.47800
C  26.94700 2.04800 35.10700
C  27.45700 1.80000 36.50000
H  27.21500 2.90300 37.48700
N  24.46500 0.78500 29.15400
C  23.47600 0.96700 30.06500
C  22.22800 1.16600 29.38200
C  22.53800 1.09700 28.01200
C  23.96100 0.75100 27.94100
C  20.92900 1.50700 29.98100
C  21.62300 1.29600 26.76500
O  22.00100 1.01900 25.64600
C  20.31000 1.85900 26.91000
N  26.85600 -0.21600 27.65900
C  25.99400 -0.06500 26.64800
C  26.59600 -0.27400 25.22300
C  28.06000 -0.79900 25.70200
C  28.06100 -0.70400 27.17700
C  25.87100 -1.23500 24.25400
C  29.30300 -0.10800 25.11400
C  29.28900 1.37000 25.06100
N  28.37200 -0.30900 30.26100
C  29.33800 -0.80600 29.44300
C  30.44700 -1.14500 30.26600
C  30.09000 -0.67800 31.55800
C  28.74500 -0.20000 31.52000
C  31.65000 -1.79400 29.71900
C  30.53300 -0.50900 32.92700
O  31.59300 -0.89800 33.35300
C  29.32700 0.04600 33.81200
C  29.09300 -0.95600 34.88400
O  28.37600 -1.93500 34.85300
O  29.84700 -0.61700 35.94800
C  29.94100 -1.68500 36.94000
H  22.78100 1.49200 32.03800
H  24.35000 0.42100 25.69200
H  30.03900 -1.43400 27.46500
H  26.38400 0.02000 34.83100
H  24.39400 2.36800 33.94200
H  24.09200 -0.11200 35.31400
H  23.22000 -0.33100 33.81800
H  22.81100 1.05500 34.79200
H  26.23700 2.87500 35.08200
H  27.81800 2.44800 34.58800
H  28.54400 1.75600 36.42000
H  26.85500 0.95600 36.83600
H  20.88700 1.30000 31.05000
H  20.12100 0.94800 29.50900
H  20.72200 2.55500 29.76300
H  20.03400 2.34600 25.97500
H  20.30100 2.60300 27.70700
H  19.69600 1.00700 27.20400
H  26.67800 0.71800 24.78000
H  28.18600 -1.85600 25.46500
H  24.91100 -1.47600 24.71100
H  26.44300 -2.15100 24.11000
H  25.61700 -0.82600 23.27600
H  29.25500 -0.42000 24.07100
H  30.15400 -0.59000 25.59500
H  28.60200 1.82600 25.77400
H  29.40600 1.73200 24.03900
H  30.28800 1.51100 25.47200
H  32.08500 -2.46800 30.45700
H  32.43600 -1.07500 29.48600
H  31.42100 -2.24400 28.75300
H  29.58400 0.96400 34.34100
H  29.33100 -1.53500 37.83100
H  30.93300 -1.63700 37.38800
H  29.78100 -2.67900 36.52100
Mg -10.89800 15.98300 41.45800
C  -7.39900 15.78000 41.05000
C  -10.74400 19.19000 40.33100
C  -14.14800 15.82500 41.12900
C  -10.86600 12.51500 42.38500
N  -9.24800 17.26100 40.58900
C  -7.86100 17.02600 40.65100
C  -7.09300 18.25200 40.20200
C  -8.17500 19.37900 40.59100
C  -9.46100 18.59500 40.50400
C  -7.91900 20.06900 41.93900
C  -6.64000 18.13300 38.70600
C  -5.09900 18.09200 38.50300
H  -4.67800 18.65500 37.19000
N  -12.24000 17.29100 40.86000
C  -11.96000 18.60500 40.45000
C  -13.22100 19.24100 40.03900
C  -14.25300 18.34400 40.41100
C  -13.58600 17.09000 40.78900
C  -13.43200 20.63300 39.44000
C  -15.72800 18.68300 40.34700
O  -16.12100 19.71000 39.84200
C  -16.74500 17.68500 40.93700
N  -12.35000 14.39300 41.66200
C  -13.63000 14.60800 41.50600
C  -14.56400 13.39700 41.88600
C  -13.47700 12.32300 42.23000
C  -12.12800 13.11200 42.18200
C  -15.64400 13.71700 42.89900
C  -13.50700 11.05300 41.27000
C  -12.62900 11.20700 39.94400
N  -9.46900 14.45800 41.64600
C  -9.58000 13.15600 42.08900
C  -8.24000 12.50400 42.11800
C  -7.36200 13.55200 41.79400
C  -8.15400 14.70600 41.49200
C  -7.95000 11.04400 42.60500
C  -5.93800 13.93400 41.67900
O  -4.93000 13.30700 41.82900
C  -5.96100 15.36400 41.14200
C  -5.29000 16.10600 42.20300
O  -5.73800 16.22300 43.33000
O  -4.00500 16.43000 41.79000
C  -3.27300 17.32900 42.70800
H  -10.67900 20.26300 40.13400
H  -15.23500 15.74600 41.05800
H  -10.96700 11.53200 42.84900
H  -6.17000 18.15900 40.77400
H  -8.22300 20.17100 39.84300
H  -7.37900 19.42000 42.62900
H  -8.87000 20.43900 42.32200
H  -7.28700 20.94800 41.81100
H  -7.18200 18.96200 38.25100
H  -7.04500 17.18900 38.34200
H  -4.78300 17.05300 38.41100
H  -4.60800 18.57000 39.35000
H  -14.13100 20.54400 38.60900
H  -12.54200 21.07800 38.99500
H  -13.95300 21.32800 40.09800
H  -17.65800 18.26600 41.06600
H  -16.46900 17.47700 41.97100
H  -16.99600 16.83800 40.29900
H  -15.02400 13.12000 40.93700
H  -13.66100 12.08600 43.27800
H  -15.82100 14.79200 42.88600
H  -15.18800 13.62800 43.88500
H  -16.52200 13.07800 42.80400
H  -14.46400 10.75000 40.84700
H  -13.08900 10.24700 41.87300
H  -11.61200 10.99200 40.27100
H  -12.61800 12.21300 39.52400
H  -12.97100 10.54100 39.15300
H  -6.90800 10.76500 42.44900
H  -8.45100 10.30600 41.97800
H  -8.22500 10.87700 43.64600
H  -5.52400 15.41000 40.14400
H  -3.68500 18.33700 42.75400
H  -2.29000 17.60200 42.32400
H  -3.14800 17.04200 43.75200

