158

Mg 15.92300 -1.26800 27.85600
C  14.69800 0.92300 30.39500
C  18.19600 -2.38200 30.17600
C  17.51600 -2.95300 25.36100
C  14.51500 0.88300 25.55100
N  16.41500 -0.68800 29.99700
C  15.73500 0.15300 30.84400
C  16.22900 0.00200 32.31800
C  17.50700 -0.90900 32.15400
C  17.39900 -1.33900 30.73800
C  18.84400 -0.24200 32.48000
C  15.16800 -0.51000 33.33600
C  15.09000 0.41500 34.57400
H  16.39400 1.05100 35.17100
N  17.29100 -2.75800 27.80400
C  18.13400 -3.09600 28.89900
C  18.91900 -4.25800 28.55900
C  18.70600 -4.48700 27.16500
C  17.75500 -3.34800 26.73300
C  19.85500 -4.97700 29.51100
C  19.31400 -5.41000 26.17300
O  18.99300 -5.43300 24.95800
C  20.40400 -6.37600 26.64900
N  16.09000 -1.04200 25.73000
C  16.70200 -1.93100 24.87600
C  16.45400 -1.64100 23.40700
C  15.40100 -0.43300 23.46500
C  15.27800 -0.19800 25.00400
C  17.78900 -1.31700 22.56000
C  14.06600 -0.79000 22.94900
C  13.27900 0.38200 22.32400
N  14.69700 0.49200 27.90800
C  14.19200 1.16800 26.90300
C  13.35200 2.28200 27.40900
C  13.43300 2.14400 28.82000
C  14.36000 1.10400 29.02600
C  12.59200 3.27700 26.52800
C  13.02900 2.84100 29.97100
O  12.36000 3.83400 30.19900
C  13.75500 1.95300 31.14000
C  14.48000 2.91500 31.92500
O  15.50400 3.47900 31.57700
O  13.81200 3.23300 33.08100
C  14.29400 4.50400 33.66400
H  18.84700 -2.76900 30.96200
H  17.86600 -3.60400 24.55700
H  14.09600 1.49300 24.74800
H  16.57300 0.99100 32.62000
H  17.41000 -1.85200 32.69100
H  18.65400 0.68500 33.02200
H  19.37500 0.00400 31.56100
H  19.36200 -0.89500 33.18200
H  15.38000 -1.55200 33.57700
H  14.23000 -0.53000 32.78000
H  14.60100 -0.08200 35.41200
H  14.43200 1.22700 34.26300
H  19.47100 -5.98000 29.69500
H  19.90600 -4.40900 30.43900
H  20.87700 -4.95500 29.13200
H  21.12300 -6.01500 27.38400
H  20.96800 -6.59700 25.74300
H  19.83200 -7.19300 27.08900
H  15.99900 -2.51200 22.93500
H  15.83500 0.51400 23.14600
H  17.89400 -0.24500 22.39500
H  17.86100 -1.74800 21.56200
H  18.65700 -1.43800 23.20800
H  13.50900 -1.35800 23.69300
H  14.29500 -1.45700 22.11700
H  12.81100 0.10100 21.38100
H  13.92700 1.24400 22.16400
H  12.45600 0.68500 22.97100
H  13.34300 3.98200 26.17300
H  11.84400 3.84200 27.08500
H  12.11100 2.85100 25.64800
H  13.05000 1.42000 31.77800
H  13.51500 4.81800 34.35800
H  14.48900 5.34300 32.99500
H  15.16600 4.16900 34.22500
Mg 40.35000 10.29700 29.75700
C  42.52100 10.82600 32.44900
C  38.24600 8.63200 31.98600
C  38.43200 9.35100 27.21300
C  42.95200 10.98300 27.52900
N  40.40400 9.75200 31.90500
C  41.33100 10.21900 32.86800
C  40.95600 9.97600 34.29400
C  39.67400 9.08400 34.05500
C  39.41000 9.10100 32.51700
C  39.88500 7.67200 34.58900
C  40.63200 11.35100 34.97200
C  40.04400 11.16900 36.35100
H  40.83500 11.82500 37.57200
N  38.56800 9.23500 29.60500
C  37.78700 8.65400 30.61700
C  36.49300 8.27000 30.11100
C  36.52500 8.58600 28.74200
C  37.88400 9.06400 28.44500
C  35.34400 7.69600 31.04100
C  35.35100 8.45600 27.67100
O  35.48600 8.75900 26.48300
C  34.01900 7.98200 28.22600
N  40.76100 9.90100 27.66000
C  39.73900 9.65500 26.86000
C  39.94600 9.99800 25.35600
C  41.47500 10.53900 25.45100
C  41.80000 10.45800 26.96200
C  39.71200 8.97200 24.24800
C  41.58400 12.06400 24.98700
C  41.05300 13.20200 25.78100
N  42.28300 10.88200 29.86100
C  43.21800 11.21500 28.90300
C  44.53600 11.62700 29.54700
C  44.20300 11.54800 30.94900
C  42.89400 11.06300 31.11300
C  45.82400 11.99500 28.78900
C  44.70300 11.87500 32.25000
O  45.81600 12.31500 32.58500
C  43.64400 11.45000 33.33100
C  44.32500 10.54700 34.25400
O  44.99000 9.49900 34.02500
O  44.05700 11.00200 35.49000
C  44.64000 10.29700 36.66600
H  37.52300 8.25500 32.71200
H  37.77400 9.34900 26.34200
H  43.69300 11.31900 26.80100
H  41.84100 9.49300 34.70800
H  38.86700 9.51700 34.64600
H  39.17000 7.43300 35.37600
H  40.89200 7.63000 35.00400
H  39.61200 6.84100 33.93900
H  39.96200 11.97700 34.38400
H  41.63500 11.77200 35.05000
H  40.05900 10.10100 36.56900
H  39.05200 11.60600 36.23600
H  35.61900 7.96900 32.05900
H  35.09000 6.65500 30.83700
H  34.41300 8.25000 30.92600
H  33.80000 8.76400 28.95400
H  34.10800 7.00700 28.70500
H  33.23100 8.01600 27.47400
H  39.37800 10.90900 25.17000
H  42.19300 9.92000 24.91300
H  38.85200 9.16400 23.60600
H  39.59000 7.96100 24.63800
H  40.59100 8.88700 23.60800
H  41.24200 12.23800 23.96700
H  42.65100 12.17900 24.79600
H  40.85500 12.93000 26.81700
H  40.23200 13.68700 25.25300
H  41.87800 13.91400 25.75200
H  46.50000 12.41900 29.53100
H  45.60300 12.46300 27.83000
H  46.33900 11.10500 28.42800
H  43.26100 12.29300 33.90600
H  43.89400 10.25400 37.46000
H  45.54600 10.86700 36.87100
H  44.77500 9.23600 36.45600

