158

Mg 26.16100 1.37600 29.37800
C  27.98700 0.94700 32.35800
C  23.24400 1.80900 31.26800
C  24.47500 1.51900 26.59100
C  29.22900 0.69100 27.67500
N  25.72300 1.37500 31.56300
C  26.63700 1.30700 32.58700
C  25.93100 1.55700 33.92900
C  24.40700 1.64500 33.56600
C  24.43300 1.57400 32.04400
C  23.55900 0.53100 34.15400
C  26.48900 2.83100 34.74200
C  26.72500 2.54400 36.22500
H  26.47600 3.53600 37.35300
N  24.13300 1.53900 29.00000
C  23.13200 1.78000 29.88800
C  21.87300 1.99200 29.12400
C  22.19300 1.89800 27.70600
C  23.67800 1.65800 27.70200
C  20.52300 2.11100 29.76400
C  21.31500 1.91900 26.45800
O  21.76700 2.02300 25.30600
C  19.71000 1.91300 26.46500
N  26.78300 1.27300 27.46500
C  25.84100 1.28100 26.44300
C  26.55000 1.03600 25.00800
C  28.07000 1.10500 25.39500
C  28.03800 0.97700 26.91500
C  26.16100 -0.36900 24.38700
C  28.86400 2.41700 24.95900
C  30.01100 2.37900 23.94700
N  28.14900 0.87000 29.83700
C  29.33200 0.62900 29.05700
C  30.46100 0.31700 29.96700
C  29.95000 0.46600 31.27800
C  28.53500 0.74700 31.15600
C  31.81400 0.05000 29.51200
C  30.41600 0.39200 32.64300
O  31.51200 0.09500 33.10700
C  29.16500 0.82300 33.36400
C  28.82800 -0.34400 34.25000
O  28.14600 -1.34500 33.96800
O  29.42100 -0.10100 35.50300
C  29.43400 -1.31100 36.39900
H  22.43000 2.00300 31.97000
H  23.99300 1.43600 25.61400
H  30.09200 0.64500 27.00800
H  26.17200 0.68700 34.54000
H  23.84000 2.54100 33.82100
H  23.21000 -0.23400 33.46000
H  22.74000 0.98300 34.71300
H  24.10100 -0.03900 34.90800
H  25.80300 3.67700 34.70900
H  27.39800 3.21100 34.27500
H  27.76600 2.22000 36.22000
H  26.20900 1.60400 36.41800
H  19.99000 1.16700 29.65300
H  19.94800 2.96300 29.40300
H  20.71000 2.26900 30.82600
H  19.19200 1.25700 27.16500
H  19.32900 1.64000 25.48100
H  19.32600 2.93100 26.53000
H  26.21700 1.69600 24.20700
H  28.54500 0.17600 25.08100
H  25.57200 -0.93800 25.10600
H  27.06700 -0.92800 24.15500
H  25.55300 -0.28900 23.48600
H  29.20700 2.73700 25.94300
H  28.09500 3.14200 24.69400
H  30.90500 2.84900 24.35600
H  29.68800 2.82000 23.00400
H  30.25700 1.32200 23.84200
H  32.01400 0.47800 28.52900
H  31.98100 -1.02700 29.46400
H  32.54100 0.44300 30.22200
H  29.35400 1.60900 34.09500
H  29.80400 -2.22800 35.94100
H  28.46500 -1.38600 36.89300
H  30.13700 -0.98600 37.16600
Mg 42.29900 41.62200 25.76800
C  41.26200 43.90800 28.18400
C  43.51200 39.68900 28.34500
C  43.55100 39.50000 23.44100
C  41.64900 44.05100 23.25800
N  42.20900 41.67600 28.02900
C  41.72500 42.70500 28.81800
C  41.91300 42.44600 30.35000
C  42.95200 41.27000 30.23700
C  42.89800 40.84500 28.82500
C  44.38700 41.70800 30.68900
C  40.58500 42.18700 31.05600
C  40.33400 43.00400 32.35900
H  41.27600 42.74300 33.51100
N  43.21000 39.82600 25.89000
C  43.65000 39.21000 27.01400
C  44.41700 38.03700 26.63900
C  44.34600 37.85600 25.23100
C  43.68800 39.10500 24.78900
C  45.17000 37.18600 27.65700
C  44.84500 36.71500 24.34700
O  44.88000 36.82000 23.09900
C  45.21800 35.33700 24.98700
N  42.50900 41.72900 23.62100
C  43.02000 40.68600 22.93400
C  42.93600 40.96600 21.43800
C  42.31400 42.38600 21.39800
C  42.13600 42.79300 22.84800
C  44.21400 40.79400 20.66100
C  40.93100 42.34200 20.79800
C  39.80800 41.55600 21.42000
N  41.51500 43.51300 25.66300
C  41.31400 44.43700 24.61000
C  40.86000 45.64000 25.13500
C  40.64800 45.49900 26.51800
C  41.21100 44.17800 26.82200
C  40.67600 46.96000 24.37800
C  40.31000 46.15800 27.73700
O  39.85200 47.31100 27.90900
C  40.72900 45.13800 28.88000
C  41.66900 45.75600 29.85500
O  42.86700 45.68900 29.86500
O  40.87100 46.34000 30.82000
C  41.75600 46.86800 31.93200
H  44.06200 39.11600 29.09400
H  44.04400 38.92400 22.65500
H  41.51700 44.84800 22.52400
H  42.34600 43.26500 30.92400
H  42.61600 40.48800 30.91900
H  45.03800 41.70500 29.81400
H  44.67900 40.93700 31.40300
H  44.43900 42.68100 31.17700
H  40.48700 41.12600 31.28900
H  39.78200 42.55500 30.41700
H  39.31600 42.74000 32.64300
H  40.28300 44.08100 32.20000
H  44.45300 36.43900 27.99800
H  45.57800 37.80500 28.45500
H  46.01300 36.66100 27.20800
H  44.56300 35.12900 25.83400
H  46.28500 35.37800 25.20700
H  44.98700 34.53900 24.28200
H  42.29800 40.19400 21.00800
H  42.89700 43.21700 21.00000
H  44.93400 41.58600 20.86400
H  44.00900 40.83300 19.59100
H  44.60500 39.80900 20.91800
H  41.06500 42.04500 19.75800
H  40.46800 43.32800 20.77000
H  39.46000 40.77200 20.74800
H  38.94200 42.20400 21.55900
H  40.11300 41.16500 22.39100
H  40.45700 47.76300 25.08200
H  39.78000 47.01300 23.76000
H  41.55300 47.09500 23.74500
H  39.80100 44.88000 29.38900
H  41.99000 45.89500 32.36400
H  41.08100 47.36900 32.62600
H  42.49100 47.54700 31.49900

