158

Mg -1.48600 16.90300 26.02200
C  -1.74900 14.68000 28.73900
C  -1.89600 19.55000 28.25600
C  -1.71800 19.06100 23.35700
C  -1.66200 14.20900 23.80700
N  -1.77700 17.07900 28.28000
C  -1.74000 16.02200 29.15900
C  -1.63600 16.55500 30.54800
C  -1.97500 18.06600 30.43900
C  -1.93900 18.28200 28.90100
C  -3.37100 18.47000 30.94700
C  -0.22100 16.35400 31.20800
C  -0.07000 15.93500 32.71900
H  -1.11800 16.20200 33.83500
N  -1.62900 19.01100 25.83900
C  -1.85900 19.92600 26.87600
C  -1.91000 21.28100 26.32600
C  -1.70800 21.17100 24.85800
C  -1.68800 19.65500 24.63700
C  -2.07800 22.55400 27.13700
C  -1.51100 22.19600 23.79900
O  -1.33400 21.91500 22.66500
C  -1.48900 23.68000 24.10900
N  -1.78400 16.69300 23.87800
C  -1.72600 17.76700 22.99500
C  -1.88900 17.22000 21.53600
C  -1.58700 15.66500 21.74800
C  -1.70100 15.47100 23.22100
C  -3.31900 17.49200 20.93700
C  -0.18300 15.07000 21.23700
C  1.12100 15.45100 22.01600
N  -1.55200 14.88400 26.21000
C  -1.64800 13.91000 25.19200
C  -1.66400 12.63800 25.88000
C  -1.58300 12.84600 27.19600
C  -1.66000 14.22700 27.39700
C  -1.81800 11.30000 25.18500
C  -1.55300 12.22800 28.52300
O  -1.57200 11.05400 28.82800
C  -1.95200 13.39100 29.49100
C  -1.23300 13.17100 30.79000
O  -0.04500 13.15000 30.92700
O  -2.15800 12.84800 31.74200
C  -1.69300 12.34000 33.02200
H  -1.76300 20.48300 28.80800
H  -1.96300 19.75800 22.55200
H  -1.89100 13.44000 23.06600
H  -2.35800 16.01500 31.16100
H  -1.24500 18.66500 30.98400
H  -3.82200 19.34600 30.48100
H  -3.17500 18.71800 31.99000
H  -4.07400 17.63900 31.00100
H  0.38900 17.24500 31.05900
H  0.36000 15.60300 30.67400
H  0.80500 16.44200 33.12600
H  -0.03300 14.84600 32.75600
H  -2.42900 22.30800 28.13900
H  -2.87400 23.11400 26.64800
H  -1.10600 23.04200 27.07400
H  -0.61500 23.79000 24.75000
H  -2.39600 24.06200 24.57900
H  -1.28500 24.38400 23.30200
H  -1.12600 17.61700 20.86700
H  -2.35700 15.05800 21.27200
H  -4.06000 17.80500 21.67300
H  -3.63800 16.56700 20.45700
H  -3.19800 18.28200 20.19700
H  -0.13000 15.57700 20.27300
H  -0.27900 13.98800 21.14600
H  1.46700 14.50900 22.44100
H  0.79500 16.16500 22.77200
H  1.94500 15.76200 21.37300
H  -2.73500 11.24200 24.59900
H  -1.86900 10.60000 26.02000
H  -0.93400 11.05300 24.59600
H  -3.01300 13.34200 29.73900
H  -1.41800 11.29100 32.91100
H  -2.41700 12.31300 33.83600
H  -0.85200 12.92900 33.38900
Mg 16.88800 -2.84200 27.55500
C  16.23900 -0.46100 30.02000
C  19.19200 -4.31400 29.58200
C  18.51200 -4.03000 24.87400
C  15.38400 -0.47200 25.34700
N  17.59300 -2.45000 29.57100
C  17.09200 -1.52400 30.50600
C  17.74700 -1.76800 31.90900
C  18.68900 -2.97700 31.66800
C  18.55900 -3.20400 30.18500
C  20.18500 -2.86700 32.00100
C  16.54900 -2.11700 32.88200
C  16.57500 -1.25100 34.14500
H  17.93600 -0.78500 34.74200
N  18.28500 -4.27500 27.23200
C  19.15300 -4.74200 28.26700
C  19.88900 -5.88300 27.69400
C  19.61600 -5.87300 26.32900
C  18.73600 -4.71900 26.03400
C  20.63700 -6.87800 28.61500
C  20.21200 -6.79500 25.26100
O  19.80700 -6.77000 24.10500
C  21.25900 -7.70600 25.72800
N  16.75100 -2.50000 25.37800
C  17.56100 -3.06900 24.50900
C  17.43500 -2.53200 23.04500
C  16.16700 -1.66100 23.21600
C  16.09700 -1.49600 24.72700
C  18.63800 -1.84000 22.39900
C  14.85600 -2.30400 22.73600
C  13.84900 -1.22000 22.28300
N  15.76600 -1.05800 27.68300
C  15.18700 -0.28700 26.74800
C  14.53300 0.84300 27.27200
C  14.84400 0.79700 28.59500
C  15.68200 -0.35500 28.76600
C  13.84000 1.94200 26.56000
C  14.73800 1.57500 29.83300
O  14.27200 2.63400 30.09800
C  15.53900 0.62200 30.89600
C  16.46600 1.49100 31.65500
O  17.61900 1.67100 31.41200
O  15.72600 2.04400 32.69300
C  16.49500 3.06800 33.43700
H  19.99000 -4.73100 30.19900
H  19.01200 -4.49300 24.02000
H  14.88500 0.24900 24.69600
H  18.35300 -0.96200 32.32400
H  18.27700 -3.85400 32.16700
H  20.77000 -2.64600 31.10900
H  20.48100 -3.80100 32.48000
H  20.16800 -2.05500 32.72900
H  16.53700 -3.13600 33.26800
H  15.64200 -1.84400 32.34200
H  16.04900 -1.76900 34.94700
H  16.04800 -0.31000 33.98300
H  20.33000 -6.75700 29.65400
H  21.70000 -6.65900 28.51200
H  20.50600 -7.91000 28.29200
H  21.89400 -7.09400 26.36900
H  21.90900 -8.11700 24.95600
H  20.86100 -8.53000 26.32000
H  17.14200 -3.37200 22.41400
H  16.23100 -0.69200 22.72300
H  19.45500 -1.86200 23.12000
H  18.44800 -0.79100 22.16800
H  18.92500 -2.50200 21.58300
H  14.39500 -2.85100 23.55800
H  15.02100 -2.97300 21.89100
H  13.27500 -1.65700 21.46600
H  14.26600 -0.33700 21.80000
H  13.04800 -1.03000 22.99700
H  13.08500 2.33500 27.24200
H  13.40300 1.71200 25.58900
H  14.67300 2.64100 26.48400
H  14.81900 0.14200 31.55800
H  17.42100 2.61300 33.79000
H  15.83900 3.22100 34.29400
H  16.62200 3.93200 32.78600

