158

Mg 8.23300 47.70300 26.11800
C  5.93300 47.61000 28.79200
C  10.68200 48.44200 28.37500
C  10.37200 48.45900 23.56800
C  5.51600 47.85100 23.92600
N  8.25800 48.11600 28.39300
C  7.22900 47.96900 29.28700
C  7.77600 48.11600 30.71900
C  9.29800 48.69900 30.53500
C  9.45400 48.47500 29.02500
C  9.52900 50.23600 31.00500
C  7.56300 46.93300 31.74300
C  8.69600 46.66100 32.82300
H  8.18700 45.95200 34.10800
N  10.28900 48.08100 25.98300
C  11.08300 48.29900 27.03100
C  12.50200 48.32500 26.51100
C  12.41300 48.22500 25.05400
C  10.97500 48.29700 24.82000
C  13.71400 48.61500 27.35300
C  13.47100 48.13000 23.98500
O  13.33500 48.20300 22.71400
C  14.89200 48.02400 24.46100
N  7.98300 48.25700 24.07600
C  9.04200 48.46100 23.28400
C  8.59400 48.53200 21.88400
C  7.03900 48.30200 21.93700
C  6.79800 48.04300 23.39000
C  9.08700 49.78200 21.18000
C  6.50900 47.25700 20.93500
C  6.53100 47.64200 19.49600
N  6.07500 47.77200 26.30100
C  5.16700 47.71200 25.29200
C  3.88900 47.51400 25.91200
C  4.14000 47.47200 27.31100
C  5.49900 47.63600 27.47100
C  2.62500 47.45200 25.18500
C  3.48600 47.25700 28.56400
O  2.28900 46.99300 28.91900
C  4.65500 47.47900 29.66700
C  4.69100 46.26900 30.43800
O  5.09100 45.15800 30.12700
O  4.25600 46.66700 31.66200
C  4.22100 45.54100 32.68900
H  11.44100 48.76900 29.08800
H  11.04500 48.79900 22.77800
H  4.72600 47.91100 23.17500
H  7.11300 48.91100 31.05800
H  10.15400 48.11500 30.87300
H  8.64900 50.61400 31.52500
H  9.77200 50.75800 30.07900
H  10.45100 50.23900 31.58600
H  7.38000 46.00000 31.20900
H  6.63900 47.05600 32.30800
H  9.34600 47.52600 32.95400
H  9.30800 45.86400 32.40000
H  14.24400 49.51800 27.05100
H  14.40300 47.77100 27.31500
H  13.53100 48.76300 28.41700
H  15.52100 47.80200 23.59900
H  14.96900 47.21700 25.18900
H  15.18700 49.00800 24.82400
H  9.03500 47.65400 21.41400
H  6.60300 49.25800 21.64600
H  8.24600 50.22800 20.64900
H  9.85600 49.48800 20.46600
H  9.63000 50.47500 21.82400
H  5.54100 46.88300 21.27100
H  7.21100 46.44200 21.11200
H  7.39000 47.21700 18.97700
H  6.62700 48.72300 19.39600
H  5.58900 47.38100 19.01400
H  2.23400 48.46600 25.27100
H  2.01800 46.66500 25.63100
H  2.72000 47.32600 24.10600
H  4.41500 48.38400 30.22300
H  4.76400 45.95700 33.53800
H  4.67500 44.60500 32.36400
H  3.18500 45.31400 32.94100
Mg -0.68500 43.30600 24.84100
C  1.52400 43.18100 27.69100
C  -3.15800 42.20900 26.92400
C  -2.61400 43.41000 22.13700
C  2.04700 44.30900 22.87500
N  -0.76600 42.82900 27.03300
C  0.18400 42.89500 27.99500
C  -0.36800 42.64400 29.36600
C  -1.80600 42.18100 29.05900
C  -1.94800 42.37700 27.58100
C  -2.23700 40.79700 29.57000
C  -0.13900 43.93100 30.24400
C  0.46600 43.85700 31.68100
H  0.05700 42.67700 32.58600
N  -2.66400 42.74100 24.53300
C  -3.46400 42.29000 25.53700
C  -4.79500 41.96600 24.88800
C  -4.64700 42.30200 23.47800
C  -3.23400 42.84200 23.29100
C  -5.90700 41.31300 25.62500
C  -5.68600 42.18700 22.24600
O  -5.36000 42.48200 21.09400
C  -7.05000 41.70200 22.52500
N  -0.29900 43.56000 22.74100
C  -1.33200 43.73400 21.82100
C  -0.88200 44.45300 20.49700
C  0.56000 44.96600 20.91500
C  0.75200 44.25700 22.24200
C  -0.92100 43.42800 19.27900
C  0.56000 46.55300 21.14800
C  0.72300 47.38100 19.90100
N  1.31600 43.64200 25.19800
C  2.32200 43.90000 24.21100
C  3.62000 43.83400 24.90700
C  3.33800 43.54300 26.25900
C  1.99400 43.47800 26.40100
C  4.96500 44.26700 24.37300
C  3.99600 43.26600 27.52900
O  5.20100 43.19900 27.80400
C  2.74000 43.02900 28.54700
C  2.96700 41.79200 29.29500
O  2.95200 40.65400 28.82600
O  3.31800 42.12500 30.63500
C  3.52500 40.96500 31.55900
H  -3.99800 42.08200 27.61000
H  -3.21600 43.64100 21.25600
H  2.79300 44.83800 22.27900
H  0.12900 41.80000 29.84500
H  -2.55500 42.85500 29.47500
H  -3.19900 40.88700 30.07300
H  -1.56100 40.35700 30.30300
H  -2.42600 40.08100 28.77000
H  -1.03400 44.55300 30.27900
H  0.63700 44.56900 29.82000
H  0.18600 44.84900 32.03600
H  1.55300 43.88200 31.60300
H  -5.91200 41.35800 26.71400
H  -5.93600 40.27100 25.30600
H  -6.87500 41.73100 25.34800
H  -7.15100 40.68800 22.91200
H  -7.43100 41.70600 21.50400
H  -7.57200 42.41800 23.16000
H  -1.47500 45.34900 20.31600
H  1.26600 44.66400 20.14200
H  -1.58200 42.58600 19.48300
H  0.12700 43.13700 19.20900
H  -1.18700 43.91100 18.33900
H  1.38300 46.84400 21.80100
H  -0.41800 46.77600 21.57500
H  1.00000 46.74900 19.05700
H  1.49100 48.07900 20.23300
H  -0.21400 47.90000 19.69600
H  4.76700 45.02100 23.61200
H  5.53100 43.45500 23.91400
H  5.56000 44.55500 25.24000
H  2.89100 43.85700 29.24000
H  3.09000 40.04800 31.16300
H  3.07000 41.32800 32.48100
H  4.56400 40.79800 31.84300

