158

Mg 54.65100 24.22800 44.89900
C  52.00800 26.46500 43.87000
C  52.50200 21.58500 44.16600
C  57.37000 22.24500 44.61700
C  56.76400 27.03100 45.30700
N  52.51500 24.10100 43.98500
C  51.65300 25.13600 43.63200
C  50.31800 24.49000 43.07000
C  50.34600 23.03200 43.71500
C  51.84500 22.87500 44.02000
C  49.46900 22.86700 45.00000
C  50.19800 24.63100 41.57400
C  48.76900 24.59100 41.02400
H  48.64000 23.87400 39.63200
N  54.91700 22.21500 44.50600
C  53.92700 21.25500 44.35600
C  54.48600 19.95900 44.31700
C  55.86300 20.14200 44.29700
C  56.09800 21.55800 44.43400
C  53.75100 18.72500 43.90700
C  56.92500 19.04300 44.02800
O  56.58100 17.86300 44.02800
C  58.37900 19.30300 43.61700
N  56.78100 24.63000 44.77200
C  57.60700 23.61000 44.79400
C  59.07100 24.01700 45.18500
C  58.84400 25.56800 45.37600
C  57.39000 25.79400 45.13000
C  59.67800 23.28000 46.38800
C  59.72200 26.47100 44.30100
C  60.59200 27.63800 44.87400
N  54.42700 26.31300 44.84400
C  55.39900 27.30400 45.07100
C  54.72400 28.52500 45.04800
C  53.41400 28.28500 44.57700
C  53.27800 26.90800 44.46200
C  55.30000 29.82000 45.41400
C  52.14600 28.86800 44.18400
O  51.83900 30.03500 44.10300
C  51.19900 27.74400 43.58000
C  51.02700 28.04600 42.17300
O  51.91800 28.01700 41.33200
O  49.68200 28.25200 41.92500
C  49.37500 28.49000 40.50600
H  51.81800 20.77900 43.89400
H  58.35400 21.77500 44.67800
H  57.45400 27.83500 45.57000
H  49.53800 25.09100 43.53700
H  50.07400 22.33900 42.92000
H  50.01800 22.54500 45.88500
H  48.72700 22.10800 44.75200
H  48.90000 23.77700 45.18900
H  50.79800 23.81400 41.17500
H  50.59400 25.59800 41.26300
H  48.50300 25.64600 40.96200
H  48.15300 24.09700 41.77600
H  53.88800 18.68800 42.82700
H  52.66900 18.78000 44.01900
H  54.19000 17.85700 44.39900
H  58.59600 18.57100 42.84000
H  58.97800 19.35900 44.52600
H  58.36600 20.20300 43.00200
H  59.64600 23.79300 44.28700
H  58.98800 25.86600 46.41500
H  59.01200 22.57700 46.88800
H  60.11600 23.96300 47.11600
H  60.55700 22.74200 46.03400
H  59.03100 26.89000 43.56900
H  60.37800 25.79400 43.75400
H  60.12200 28.61900 44.80200
H  61.55900 27.72600 44.37900
H  60.86200 27.59300 45.92900
H  55.68600 29.81600 46.43300
H  54.46000 30.51300 45.44600
H  56.07800 30.15400 44.72800
H  50.33400 27.77300 44.24200
H  49.14700 29.52200 40.23900
H  48.37900 28.07100 40.36600
H  50.12700 28.19300 39.77500
Mg 48.53700 35.16700 26.50900
C  46.87100 33.68400 29.08400
C  48.78600 37.87800 28.34300
C  50.07600 36.55500 23.78900
C  47.93800 32.21600 24.60500
N  47.93800 35.65800 28.54500
C  47.41900 34.87000 29.43700
C  47.46100 35.46000 30.85600
C  47.79700 36.98700 30.53400
C  48.19100 36.81900 29.04100
C  46.72800 38.06500 30.83700
C  48.50200 34.75300 31.80600
C  48.24300 34.66200 33.35000
H  47.23500 35.64700 33.94600
N  49.33500 36.96200 26.13200
C  49.35900 38.00700 27.05400
C  50.02900 39.12500 26.52100
C  50.35400 38.78400 25.15300
C  49.94800 37.38800 24.96900
C  50.22500 40.28700 27.45300
C  51.10700 39.68200 24.14400
O  51.42100 39.25000 23.03300
C  51.46500 41.18100 24.45300
N  48.80800 34.51000 24.39300
C  49.59200 35.25900 23.55900
C  50.00300 34.36700 22.32800
C  49.22900 33.06700 22.51600
C  48.64600 33.21100 23.93100
C  49.93900 34.89600 20.95700
C  50.08000 31.71100 22.34300
C  49.96900 31.12700 20.94500
N  47.52900 33.32400 26.70700
C  47.39600 32.28800 25.84800
C  46.50800 31.28800 26.45200
C  46.25000 31.80900 27.71500
C  46.97000 33.08300 27.84100
C  46.15500 29.96100 25.79500
C  45.59500 31.57400 28.96600
O  44.89900 30.62000 29.26900
C  45.86300 32.86200 29.90600
C  46.26800 32.37500 31.25700
O  47.26600 31.68300 31.38600
O  45.38300 32.64300 32.25100
C  45.52100 31.98500 33.51700
H  48.83200 38.75100 28.99600
H  50.71700 36.90200 22.97600
H  47.76600 31.33000 23.99100
H  46.44000 35.40300 31.23200
H  48.70200 37.24900 31.08200
H  45.90100 37.55500 31.33200
H  46.38100 38.66300 29.99500
H  47.11500 38.72200 31.61600
H  49.50700 35.13000 31.61300
H  48.59400 33.72600 31.45400
H  49.25000 34.71700 33.76200
H  47.88500 33.65600 33.56800
H  49.27000 40.66500 27.82000
H  50.91300 41.05000 27.08900
H  50.70100 39.98500 28.38600
H  52.16300 41.19200 25.29100
H  50.50400 41.62900 24.70500
H  51.86100 41.58500 23.52200
H  51.05900 34.20600 22.54700
H  48.38400 33.09600 21.82800
H  49.22000 35.71400 20.90800
H  49.65000 34.12600 20.24200
H  50.92600 35.31200 20.75300
H  49.90600 31.01800 23.16600
H  51.14600 31.79300 22.55800
H  49.44600 31.70900 20.18600
H  49.47200 30.18800 21.19100
H  50.97900 30.88000 20.61900
H  47.05800 29.42600 25.50000
H  45.39100 29.94400 25.01800
H  45.72900 29.44300 26.65400
H  44.90700 33.38200 29.96000
H  44.51000 31.72700 33.83300
H  45.94500 32.74200 34.17700
H  46.10100 31.06300 33.55000

