158

Mg 42.75600 3.32300 46.19000
C  40.91000 6.27200 46.49400
C  39.92700 1.61100 46.27000
C  44.55800 0.70100 45.18900
C  45.54900 5.43500 45.61200
N  40.64200 3.94100 46.30600
C  40.12100 5.18400 46.57000
C  38.56500 5.08200 46.88900
C  38.40500 3.54500 46.97600
C  39.73600 2.98000 46.47800
C  37.97000 3.05100 48.35100
C  37.63000 5.85500 45.81500
C  38.02400 5.53900 44.45500
H  38.44200 6.56400 43.40400
N  42.30200 1.38000 45.92500
C  41.05000 0.89200 46.07600
C  41.07500 -0.53000 45.78800
C  42.36100 -0.78100 45.18500
C  43.14600 0.45000 45.43700
C  39.92600 -1.43500 46.03700
C  42.81700 -2.06000 44.56100
O  41.92200 -2.92300 44.51800
C  44.13200 -2.17800 43.79500
N  44.72400 3.11300 45.10900
C  45.28100 1.91800 45.11000
C  46.80700 2.06400 45.05300
C  47.05700 3.57900 44.90000
C  45.66800 4.12800 45.14900
C  47.64900 1.30400 46.20300
C  47.46200 4.00500 43.40500
C  48.86600 4.00700 43.04200
N  43.20700 5.40200 45.99900
C  44.37400 6.09200 45.93300
C  44.14800 7.52200 46.16100
C  42.81300 7.60500 46.33800
C  42.27400 6.32200 46.21800
C  45.13500 8.58500 46.07600
C  41.77200 8.51500 46.69000
O  41.78600 9.70300 46.95500
C  40.51100 7.71700 46.74600
C  39.86300 7.88300 48.10200
O  40.27100 7.74700 49.24100
O  38.56600 8.28700 47.81400
C  37.64900 8.41800 48.90700
H  39.02600 0.99400 46.28400
H  45.31500 -0.07400 45.04900
H  46.40500 6.11200 45.63900
H  38.42300 5.63300 47.81900
H  37.64200 3.33400 46.22700
H  37.15800 2.32900 48.26600
H  37.66700 3.94200 48.90100
H  38.74500 2.47900 48.86100
H  37.68700 6.94200 45.88700
H  36.57400 5.65600 46.00000
H  37.04000 5.26400 44.07400
H  38.52900 4.59500 44.25400
H  39.26400 -1.14800 46.85400
H  40.08600 -2.50600 46.16600
H  39.44900 -1.31900 45.06400
H  44.84000 -2.36500 44.60300
H  44.25500 -1.18400 43.36600
H  44.06700 -2.95600 43.03500
H  47.01900 1.65000 44.06700
H  47.68000 4.03200 45.67100
H  47.14900 0.96300 47.11000
H  48.32500 2.05400 46.61300
H  48.15900 0.40400 45.85900
H  47.13800 5.03600 43.26700
H  46.95100 3.36300 42.68700
H  49.32800 3.46900 43.87000
H  49.17100 5.05300 43.06600
H  49.12600 3.43600 42.15100
H  44.76500 9.22000 45.27100
H  46.05000 8.19700 45.62900
H  45.20300 9.12000 47.02300
H  39.84500 7.98200 45.92500
H  38.04300 8.97800 49.75600
H  37.38900 7.43300 49.29300
H  36.79600 8.91100 48.44200
Mg 30.46900 57.86500 40.56000
C  27.47100 56.30300 39.69600
C  32.18300 55.37800 38.95800
C  33.11600 59.89600 40.51900
C  28.43900 60.70000 41.47800
N  29.82300 56.08700 39.45300
C  28.57400 55.49400 39.35300
C  28.68300 54.15800 38.65400
C  30.18000 53.84200 38.68200
C  30.83000 55.18300 39.07000
C  30.54600 52.60600 39.54200
C  28.13600 53.99200 37.24600
C  28.15900 55.20100 36.34700
H  28.23600 54.88600 34.81500
N  32.43500 57.55400 39.98400
C  33.01300 56.49900 39.35000
C  34.41000 56.74900 39.17100
C  34.74500 58.05800 39.60800
C  33.41000 58.54900 40.07700
C  35.30400 55.70400 38.39600
C  36.15000 58.69100 39.54300
O  37.09000 58.01400 39.08200
C  36.41700 60.07500 40.10100
N  30.78800 59.98000 41.00600
C  32.00400 60.45200 41.03200
C  31.95500 61.96000 41.47000
C  30.46800 62.19900 41.88300
C  29.84900 60.86500 41.46100
C  33.04200 62.39100 42.56000
C  29.75500 63.41000 41.19900
C  30.50000 64.70300 40.81800
N  28.32500 58.48700 40.58000
C  27.68500 59.56000 41.06000
C  26.27400 59.34600 40.83800
C  26.19400 58.03900 40.37200
C  27.44300 57.57000 40.19700
C  25.24700 60.37300 41.03200
C  25.22500 57.10500 39.88600
O  24.02300 57.23100 39.73400
C  26.08800 55.90400 39.31100
C  25.52700 54.69300 39.97900
O  25.25400 54.55600 41.16700
O  25.28000 53.73100 39.02300
C  24.44800 52.58800 39.50500
H  32.74300 54.48500 38.67200
H  33.88000 60.66100 40.36100
H  27.84400 61.54500 41.83300
H  28.00000 53.56400 39.26100
H  30.41100 53.80800 37.61800
H  30.47800 51.80000 38.81100
H  29.68200 52.37200 40.16500
H  31.47400 52.70900 40.10400
H  27.09300 53.74000 37.43700
H  28.47200 53.06000 36.79300
H  28.86300 55.99600 36.59500
H  27.16600 55.64500 36.42100
H  36.19100 56.08600 37.89100
H  34.68500 55.09700 37.73600
H  35.76800 55.12100 39.19200
H  36.36200 59.95300 41.18200
H  35.76000 60.89000 39.79700
H  37.39500 60.48500 39.84600
H  32.08600 62.46400 40.51300
H  30.27700 62.25200 42.95500
H  32.62000 62.94800 43.39600
H  33.78400 63.08000 42.15600
H  33.53500 61.44900 42.80200
H  29.01400 63.76700 41.91500
H  29.30000 63.09500 40.26000
H  30.11800 64.83000 39.80500
H  31.57600 64.56900 40.92600
H  30.11700 65.53700 41.40600
H  24.92900 60.74400 40.05700
H  25.69700 61.14500 41.65600
H  24.42200 59.81200 41.47100
H  25.82300 55.82200 38.25700
H  24.94500 51.81500 40.09100
H  24.23600 52.02300 38.59800
H  23.55800 52.96900 40.00600

