158

Mg 45.28200 2.95500 47.04100
C  43.03700 5.72300 46.56500
C  42.57200 0.83100 46.94900
C  47.43200 0.39800 46.86400
C  47.97700 5.22600 46.59400
N  43.07700 3.30300 46.70400
C  42.39200 4.51600 46.66300
C  40.90200 4.22700 46.91000
C  40.78800 2.75700 47.28800
C  42.25200 2.24500 46.96600
C  40.25400 2.41800 48.66400
C  40.06000 4.58700 45.71600
C  40.58500 4.22200 44.27500
H  40.74800 5.48900 43.34900
N  45.03100 0.85400 46.82700
C  43.86500 0.20500 46.87900
C  44.09100 -1.22500 46.79400
C  45.52500 -1.38800 46.85000
C  46.07700 -0.02600 46.82300
C  43.05900 -2.25900 46.77400
C  46.30700 -2.67900 46.65300
O  45.63900 -3.76100 46.68500
C  47.82600 -2.78900 46.41700
N  47.35400 2.83300 46.64000
C  47.97900 1.66200 46.86600
C  49.48500 1.83700 47.00100
C  49.71500 3.37200 46.74200
C  48.29900 3.85800 46.60200
C  50.05000 1.31300 48.32300
C  50.51700 3.81900 45.43900
C  51.87400 3.01600 45.29800
N  45.56000 5.10500 46.86200
C  46.71100 5.88600 46.64700
C  46.38400 7.24400 46.65700
C  44.95800 7.23300 46.61400
C  44.51400 5.95500 46.75000
C  47.33100 8.36100 46.50300
C  43.78800 8.11500 46.71100
O  43.76300 9.33900 46.94900
C  42.51700 7.17600 46.60900
C  41.63100 7.47000 47.76000
O  41.70500 6.95900 48.89800
O  40.82200 8.50200 47.43700
C  39.80400 8.95600 48.42700
H  41.67700 0.20700 46.98300
H  48.18600 -0.39100 46.89100
H  48.88200 5.83100 46.68400
H  40.60300 4.82500 47.77100
H  40.16000 2.25000 46.55500
H  40.05100 3.29300 49.28000
H  41.06600 1.83900 49.10400
H  39.34700 1.81600 48.60300
H  40.06200 5.67200 45.81100
H  39.02900 4.23700 45.76700
H  39.92300 3.49700 43.80200
H  41.55100 3.76400 44.48700
H  43.38000 -3.06300 46.11200
H  42.04500 -1.90900 46.58300
H  43.05100 -2.67400 47.78200
H  48.14400 -2.12400 45.61500
H  48.04000 -3.82800 46.16800
H  48.39400 -2.59500 47.32700
H  50.05300 1.32700 46.22300
H  50.16300 3.87200 47.60000
H  49.26900 0.90700 48.96700
H  50.59200 2.10100 48.84500
H  50.67700 0.43900 48.14800
H  50.69200 4.85300 45.73900
H  49.85900 3.65800 44.58600
H  52.62700 3.74000 44.98700
H  51.82800 2.27500 44.50000
H  52.13400 2.62300 46.28100
H  48.05000 7.94100 45.79900
H  47.88400 8.55400 47.42200
H  46.86100 9.31300 46.25700
H  41.95400 7.48300 45.72800
H  39.68700 8.40200 49.35900
H  38.83400 8.87000 47.93700
H  39.84700 10.02800 48.61800
Mg 41.49900 7.35300 29.59100
C  43.38100 8.99000 31.96900
C  39.45600 6.22300 32.04500
C  39.71700 5.72100 27.28400
C  44.17800 7.66700 27.36100
N  41.55600 7.52500 31.78300
C  42.25700 8.39700 32.53600
C  41.80300 8.39800 33.97700
C  40.71300 7.29500 34.00000
C  40.56200 6.95200 32.56500
C  41.15200 6.04700 34.83400
C  41.41400 9.78200 34.52700
C  40.68800 9.81600 35.91300
H  41.25900 10.75600 36.92900
N  39.79400 6.20000 29.62000
C  39.03100 5.84500 30.72800
C  37.91700 5.14600 30.31900
C  37.86000 5.27500 28.93100
C  39.13000 5.75000 28.59000
C  37.03700 4.33000 31.26500
C  36.82100 4.84500 27.96800
O  36.96300 4.80200 26.75300
C  35.48500 4.31700 28.49300
N  41.95400 6.67600 27.61300
C  41.02500 6.11900 26.84700
C  41.53900 5.93900 25.39200
C  42.97700 6.62100 25.38700
C  43.06700 6.98100 26.89400
C  41.54900 4.52600 24.79000
C  43.17200 7.83200 24.42600
C  42.61500 9.16300 24.77900
N  43.39000 8.21700 29.60400
C  44.36500 8.28700 28.65100
C  45.45800 9.11200 29.09500
C  45.11300 9.44800 30.42500
C  43.88700 8.80700 30.71000
C  46.63200 9.45200 28.26200
C  45.60800 10.10200 31.58100
O  46.67900 10.72400 31.76800
C  44.47100 9.82500 32.66000
C  45.06600 9.11400 33.76200
O  45.03000 7.92200 33.96700
O  45.76800 10.00200 34.57100
C  46.25900 9.39100 35.79500
H  38.72300 5.92000 32.79600
H  39.20400 5.26900 26.43300
H  44.72100 7.99200 26.47100
H  42.73700 8.19600 34.50100
H  39.72000 7.64000 34.28600
H  41.28200 5.24600 34.10600
H  40.33500 5.75000 35.49100
H  42.09300 6.20200 35.36300
H  40.79800 10.30900 33.79900
H  42.32300 10.38200 34.57100
H  40.55700 8.83700 36.37300
H  39.64300 10.11200 35.82900
H  37.51700 4.38100 32.24200
H  37.00200 3.27200 31.00600
H  36.02100 4.71000 31.37300
H  35.59400 3.34600 28.97700
H  34.87700 4.09100 27.61700
H  34.86200 4.88700 29.18200
H  40.84400 6.48200 24.75100
H  43.74900 5.86200 25.25400
H  41.99100 4.54800 23.79400
H  40.63700 3.92800 24.80100
H  42.20400 3.94000 25.43600
H  42.92500 7.50900 23.41500
H  44.24700 8.00900 24.38900
H  41.83800 8.95000 25.51400
H  42.07700 9.61100 23.94400
H  43.35100 9.85700 25.18600
H  47.20200 8.52500 28.20200
H  47.28200 10.14800 28.79300
H  46.33000 9.89300 27.31200
H  44.05100 10.76400 33.01900
H  47.01700 8.66100 35.51200
H  45.53500 9.08700 36.55100
H  46.87400 10.13800 36.29600

