158

Mg 40.29400 9.58800 28.43600
C  41.82600 10.41100 31.41300
C  37.89800 7.81500 30.31700
C  38.92300 8.47500 25.58000
C  42.95900 10.74300 26.67500
N  39.86800 9.30800 30.61800
C  40.62500 9.78100 31.64700
C  39.89100 9.51900 32.99000
C  38.71300 8.47700 32.59300
C  38.84000 8.50100 31.11200
C  38.94000 7.01600 33.17600
C  39.40000 10.84900 33.68500
C  39.66900 10.87200 35.28800
H  40.05000 12.17800 35.83300
N  38.59600 8.38000 27.96100
C  37.78900 7.73800 28.86200
C  36.73300 7.02200 28.16400
C  36.97900 7.27600 26.79500
C  38.19100 8.04700 26.69200
C  35.59300 6.24100 28.81600
C  36.19200 6.78500 25.58400
O  36.49300 7.11800 24.45300
C  34.82500 6.20900 25.76800
N  40.90300 9.59300 26.43200
C  40.11500 9.07100 25.45900
C  40.84800 9.31900 24.05400
C  42.00800 10.41100 24.43400
C  41.94100 10.24600 25.93300
C  41.48600 8.04000 23.39500
C  41.75000 11.92900 23.97300
C  40.65800 12.71100 24.73800
N  42.11500 10.26900 28.92600
C  43.05400 10.79700 28.10700
C  44.12200 11.31700 28.96500
C  43.60500 11.19300 30.22500
C  42.43300 10.60900 30.16300
C  45.36000 11.90500 28.43600
C  43.89900 11.55800 31.58900
O  44.82400 12.15000 32.15500
C  42.73700 11.06900 32.42400
C  43.13300 10.04800 33.45200
O  43.81100 9.04300 33.22800
O  42.80900 10.47600 34.73400
C  43.11000 9.37600 35.67600
H  37.20600 7.31000 30.99500
H  38.60800 8.11500 24.59900
H  43.80100 11.25100 26.20000
H  40.61800 9.00800 33.62100
H  37.71200 8.79000 32.89000
H  37.95300 6.76600 33.56600
H  39.62300 6.94700 34.02300
H  39.24900 6.28700 32.42700
H  38.33400 10.90800 33.46600
H  39.86000 11.69500 33.17300
H  40.42200 10.15700 35.62100
H  38.69200 10.62800 35.70600
H  35.60200 5.18500 28.54700
H  34.59000 6.61400 28.60800
H  35.64200 6.21000 29.90500
H  34.44800 6.06600 24.75500
H  34.20700 6.92900 26.30400
H  34.69000 5.35000 26.42400
H  40.18100 9.71800 23.29000
H  43.00300 10.10400 24.11000
H  41.17800 7.13000 23.91000
H  42.57600 8.03700 23.41000
H  41.26100 8.02000 22.32900
H  41.45200 11.76300 22.93800
H  42.68900 12.47600 24.06500
H  40.49300 12.27900 25.72500
H  39.69200 12.75500 24.23400
H  41.05900 13.69000 24.99900
H  45.30800 12.27900 27.41400
H  46.12100 11.13000 28.52500
H  45.59000 12.71200 29.13200
H  42.15900 11.87300 32.87800
H  44.15800 9.07700 35.67500
H  42.52100 8.48200 35.47300
H  42.91600 9.66600 36.70900
Mg 16.54700 52.55600 26.80700
C  18.39100 50.71400 29.27200
C  14.34700 53.44100 29.19800
C  14.47900 53.43800 24.37100
C  18.83100 51.24200 24.38000
N  16.27300 51.81400 29.00800
C  17.24500 51.31100 29.79300
C  17.04400 51.64800 31.34300
C  15.60000 52.29200 31.22000
C  15.39500 52.56900 29.72700
C  14.51300 51.36300 31.84300
C  18.15400 52.49700 31.89800
C  18.82000 52.11500 33.22700
H  18.27200 52.64800 34.60700
N  14.70100 53.37900 26.74100
C  13.98300 53.76100 27.83100
C  12.77500 54.39100 27.35900
C  12.79000 54.44600 25.95100
C  14.04700 53.73900 25.61700
C  11.70500 54.90700 28.30300
C  11.80400 54.94300 24.93900
O  11.85600 54.65200 23.72000
C  10.62200 55.63400 25.41100
N  16.58600 52.23200 24.69700
C  15.66900 52.79700 23.88600
C  16.12000 52.89500 22.43700
C  17.55400 52.25300 22.50200
C  17.70200 51.84800 23.91400
C  15.10800 52.26600 21.40500
C  18.73400 53.19800 22.02100
C  19.17800 54.33400 23.00300
N  18.23900 51.17100 26.75600
C  19.03700 50.82400 25.72300
C  20.21900 50.16000 26.26400
C  20.01200 50.07500 27.66400
C  18.76700 50.65200 27.88600
C  21.41300 49.63600 25.44100
C  20.53900 49.63800 28.93600
O  21.63100 49.08500 29.12500
C  19.46800 50.13300 30.00100
C  18.90400 48.95500 30.76600
O  18.02000 48.20400 30.30800
O  19.47800 48.86300 31.93800
C  18.77400 48.02900 32.93000
H  13.76800 53.77900 30.06000
H  14.00400 54.02300 23.58100
H  19.71800 51.13700 23.75000
H  16.92000 50.75700 31.95800
H  15.60100 53.19500 31.83100
H  14.17400 51.90500 32.72600
H  14.77400 50.38200 32.24200
H  13.72700 51.23500 31.09900
H  17.79600 53.51100 32.07300
H  18.90500 52.60100 31.11400
H  19.87700 52.34800 33.09900
H  18.81100 51.03200 33.35400
H  11.53300 55.98100 28.23000
H  11.83500 54.60700 29.34300
H  10.71000 54.55900 28.02500
H  10.11000 54.88800 26.02000
H  10.01000 55.95300 24.56800
H  11.08800 56.42600 25.99600
H  16.38400 53.92300 22.18900
H  17.54100 51.28100 22.00800
H  15.11300 51.18200 21.51500
H  15.37500 52.68600 20.43500
H  14.18200 52.65500 21.82900
H  18.32000 53.70400 21.14900
H  19.61500 52.59000 21.81500
H  18.40700 55.10400 22.98500
H  20.08900 54.81200 22.64400
H  19.26100 53.90000 23.99900
H  22.16700 49.22900 26.11400
H  21.89000 50.40100 24.82900
H  21.12400 48.83100 24.76500
H  20.01000 50.74100 30.72500
H  18.66800 48.48700 33.91400
H  19.29700 47.09300 33.12400
H  17.71600 47.78600 32.83000

