158

Mg 40.69900 8.15300 30.13300
C  42.42300 9.25800 32.82500
C  38.28900 6.70000 32.33200
C  39.02600 6.83300 27.47900
C  43.19900 9.03600 27.99800
N  40.63000 7.65900 32.35200
C  41.31700 8.52500 33.25100
C  40.79100 8.45800 34.66100
C  39.71000 7.27300 34.52500
C  39.45400 7.23900 32.97400
C  40.23100 5.90800 34.92000
C  40.15000 9.85700 34.98000
C  39.70000 9.92100 36.41700
H  40.09800 11.09700 37.24700
N  38.88300 7.03200 29.87100
C  38.06700 6.64900 30.91200
C  36.82600 6.10200 30.26000
C  37.06600 6.14000 28.86100
C  38.37700 6.63000 28.67200
C  35.76400 5.38500 30.99600
C  36.21700 5.62000 27.74700
O  36.60900 5.41200 26.61100
C  34.80800 5.45900 27.92900
N  41.07100 7.79400 28.06600
C  40.20800 7.35700 27.13800
C  40.64600 7.54200 25.66300
C  42.08100 8.16400 25.90900
C  42.13000 8.32700 27.43100
C  40.59600 6.27700 24.76000
C  42.28100 9.49200 25.10700
C  41.89500 10.89000 25.82900
N  42.47200 8.94900 30.36400
C  43.35000 9.39800 29.36000
C  44.37000 10.24300 30.06100
C  44.04500 10.10700 31.41300
C  42.90900 9.33000 31.55300
C  45.49600 10.99400 29.44600
C  44.51600 10.52200 32.70400
O  45.47500 11.25900 32.90800
C  43.42900 10.07300 33.70900
C  44.17100 9.22900 34.63700
O  44.74800 8.22200 34.31300
O  44.19900 9.82800 35.88700
C  45.10400 9.08800 36.78500
H  37.44600 6.49300 32.99400
H  38.39300 6.54300 26.63800
H  43.96300 9.57700 27.43600
H  41.65400 8.29000 35.30600
H  38.81800 7.40600 35.13800
H  39.63700 5.59200 35.77800
H  41.30000 5.97500 35.11900
H  40.11900 5.20800 34.09200
H  39.29700 9.97400 34.31200
H  40.81500 10.70600 34.82400
H  40.11200 9.03800 36.90500
H  38.62100 9.78100 36.48100
H  35.93900 5.27400 32.06600
H  35.42500 4.40700 30.65700
H  34.88300 6.01900 31.09600
H  34.35300 6.44400 28.02600
H  34.63500 4.82200 28.79700
H  34.33600 5.04400 27.03900
H  40.04600 8.30600 25.16800
H  42.83300 7.43800 25.59800
H  41.58100 6.29700 24.29200
H  39.78100 6.31400 24.03700
H  40.60900 5.37600 25.37200
H  41.59400 9.44800 24.26200
H  43.30300 9.57400 24.73600
H  42.85400 11.31800 26.12200
H  41.40600 10.81200 26.80000
H  41.43800 11.56900 25.10900
H  45.31900 11.10600 28.37700
H  46.41800 10.51000 29.76900
H  45.44300 11.96000 29.94800
H  43.02500 11.03000 34.04000
H  45.12200 7.99800 36.78500
H  44.73100 9.23500 37.79800
H  46.15300 9.33400 36.62200
Mg 9.21000 49.00700 25.62700
C  6.83300 49.39000 28.15100
C  11.54500 50.60300 27.63800
C  11.34300 48.54600 23.26100
C  6.49500 48.60500 23.33400
N  9.22000 49.60400 27.74400
C  8.18600 49.54200 28.60700
C  8.66700 49.75900 30.02800
C  10.07000 50.40600 29.81800
C  10.36100 50.18400 28.26800
C  10.13800 51.92400 30.15200
C  8.57700 48.43300 30.82200
C  9.45300 48.26400 32.15900
H  8.92800 47.51200 33.38000
N  11.22400 49.53300 25.45300
C  12.04500 50.17500 26.34700
C  13.39700 50.09500 25.91200
C  13.37300 49.44100 24.57500
C  11.94400 49.17200 24.37000
C  14.63500 50.39900 26.80800
C  14.49400 49.03200 23.72100
O  14.41800 48.40600 22.63800
C  15.85100 49.18800 24.36400
N  8.94500 48.83300 23.53800
C  10.05500 48.49700 22.82700
C  9.70400 47.91900 21.45300
C  8.21500 48.21000 21.39900
C  7.80800 48.60000 22.82900
C  10.55400 48.46500 20.27100
C  7.35300 46.99200 20.86700
C  6.07700 47.24400 19.93500
N  7.08300 48.80500 25.71300
C  6.12800 48.76500 24.65400
C  4.80500 48.89100 25.17500
C  5.02600 49.07500 26.59000
C  6.47500 49.07400 26.82000
C  3.51100 48.98200 24.48200
C  4.33800 49.32500 27.81600
O  3.13600 49.36900 28.05700
C  5.44300 49.60800 28.91700
C  5.30100 48.63400 30.04000
O  5.60900 47.47000 29.96200
O  4.94900 49.27100 31.19000
C  4.84100 48.47200 32.43500
H  12.30300 50.94800 28.34400
H  12.08800 48.20200 22.53900
H  5.76300 48.51100 22.52900
H  7.93800 50.49000 30.37900
H  10.87400 49.92300 30.37400
H  9.41000 52.15200 30.93100
H  9.97200 52.41000 29.19100
H  11.08300 52.31000 30.53700
H  8.52500 47.62300 30.09500
H  7.63200 48.50100 31.36100
H  9.82700 49.25800 32.40500
H  10.35000 47.72500 31.85500
H  14.31600 50.82900 27.75700
H  15.32700 51.15500 26.43700
H  15.22800 49.53200 27.09900
H  15.98000 48.36600 25.06800
H  15.93000 50.22000 24.70400
H  16.61000 49.17500 23.58100
H  9.88900 46.85100 21.56700
H  8.14500 49.02700 20.68100
H  9.98300 49.09700 19.59100
H  10.77800 47.60100 19.64500
H  11.36500 49.10400 20.62200
H  6.92600 46.45300 21.71300
H  8.03600 46.29700 20.37900
H  5.92700 46.31800 19.37900
H  6.30700 48.07900 19.27300
H  5.24900 47.51800 20.59000
H  3.47100 48.03800 23.93800
H  3.54700 49.90500 23.90300
H  2.80000 48.94500 25.30800
H  5.29900 50.65300 29.19100
H  4.40600 47.49800 32.21200
H  4.31600 49.08400 33.16900
H  5.86500 48.44400 32.80700

