158

Mg 10.27400 48.78900 25.05900
C  8.24900 48.83000 27.84300
C  12.63600 50.29100 26.79900
C  12.27400 48.59000 22.26700
C  7.46600 48.01500 22.97000
N  10.39300 49.54000 27.09400
C  9.54100 49.28700 28.11300
C  10.11600 49.75700 29.42300
C  11.34900 50.56200 28.97800
C  11.48000 50.16500 27.50100
C  11.28900 52.11100 29.23100
C  10.31700 48.50500 30.43100
C  9.67600 48.58500 31.87400
H  10.37700 49.43500 32.93100
N  12.15600 49.43500 24.59200
C  12.98600 49.91200 25.53700
C  14.39900 49.85600 25.03400
C  14.35300 49.32600 23.72500
C  12.93700 49.15200 23.49300
C  15.54400 50.26000 25.95000
C  15.42000 49.01700 22.76500
O  15.16000 48.72000 21.60000
C  16.88200 49.11800 23.15500
N  9.87100 48.58100 22.86000
C  10.91500 48.39400 21.96500
C  10.40900 47.77900 20.63400
C  8.91000 47.40900 20.98800
C  8.68500 48.11400 22.33100
C  10.72700 48.61500 19.39800
C  8.65400 45.80900 21.06200
C  9.37100 45.03400 22.23300
N  8.23300 48.58600 25.26900
C  7.25500 48.20300 24.34800
C  5.99000 48.05400 25.10200
C  6.39100 48.32500 26.45700
C  7.72500 48.66600 26.53900
C  4.66600 47.64100 24.66200
C  5.82300 48.35800 27.81100
O  4.69700 48.15500 28.24000
C  7.10500 48.70000 28.80300
C  7.15800 47.51100 29.72800
O  7.38100 46.34300 29.40600
O  6.74000 47.81300 30.99800
C  6.62800 46.59700 31.87500
H  13.46600 50.62800 27.42400
H  12.97400 48.23900 21.50500
H  6.74500 47.50200 22.33000
H  9.31900 50.39500 29.80400
H  12.18500 50.09500 29.49700
H  10.25300 52.32500 29.49300
H  11.48400 52.60100 28.27700
H  11.96000 52.36600 30.05200
H  11.32400 48.48600 30.84900
H  10.22000 47.51900 29.97700
H  9.34700 47.60300 32.21400
H  8.84800 49.21900 31.55800
H  16.40200 49.59900 25.83200
H  15.39700 50.24100 27.03000
H  15.88100 51.27700 25.74700
H  17.05400 50.05000 23.69500
H  17.41400 48.94000 22.22100
H  17.09200 48.25300 23.78300
H  11.00100 46.86500 20.58500
H  8.25900 47.82000 20.21700
H  9.80000 48.82700 18.86600
H  11.40800 48.12000 18.70500
H  11.23000 49.50100 19.78400
H  9.08000 45.27800 20.21200
H  7.58100 45.64900 20.96000
H  8.56600 44.78800 22.92600
H  10.14200 45.62300 22.72900
H  9.86700 44.16000 21.81000
H  4.06000 47.20800 25.45800
H  4.93200 46.87800 23.93000
H  4.04100 48.40700 24.20300
H  7.02200 49.58100 29.44000
H  5.80800 45.96600 31.53400
H  6.38000 46.94700 32.87700
H  7.54500 46.02100 32.00100
Mg -0.74100 34.83000 26.84200
C  -2.77900 33.13000 29.35300
C  0.42300 36.85700 29.29100
C  0.71300 36.68200 24.40900
C  -2.29900 32.89900 24.39800
N  -1.30400 35.07400 29.02900
C  -1.95500 34.15600 29.87400
C  -1.86100 34.54500 31.37600
C  -0.90800 35.79200 31.18900
C  -0.50100 35.91000 29.69000
C  -1.54000 37.11100 31.72600
C  -1.23900 33.39300 32.29500
C  -1.83600 33.18100 33.67700
H  -1.00600 32.96600 34.96000
N  0.47100 36.49500 26.84900
C  0.93500 37.07500 27.99000
C  1.94300 37.99200 27.65700
C  2.01000 38.09100 26.21200
C  1.05200 37.00800 25.75400
C  2.69000 38.77400 28.72400
C  2.91200 38.89900 25.41500
O  2.92100 38.69500 24.20500
C  3.85300 39.93000 25.98800
N  -0.88300 34.89600 24.74700
C  -0.16400 35.69500 23.96700
C  -0.36300 35.44300 22.39400
C  -1.16400 34.14400 22.42600
C  -1.46800 33.93300 23.91800
C  -1.10000 36.60200 21.64700
C  -0.50500 32.84600 21.82800
C  0.54600 32.04900 22.65100
N  -2.16900 33.28600 26.80300
C  -2.65300 32.57500 25.71200
C  -3.53800 31.52700 26.23600
C  -3.57700 31.63700 27.64500
C  -2.81300 32.81500 27.91500
C  -4.12200 30.40200 25.44500
C  -4.14000 31.16000 28.93500
O  -4.82400 30.19200 29.26000
C  -3.56400 32.07100 30.10200
C  -4.69500 32.56400 30.94200
O  -5.52800 33.41900 30.58000
O  -4.56100 31.99900 32.13200
C  -5.56600 32.42000 33.12800
H  0.80400 37.34900 30.18900
H  1.28200 37.10700 23.58000
H  -2.63500 32.16100 23.66800
H  -2.81700 34.76400 31.85200
H  -0.04800 35.56500 31.82000
H  -2.57500 36.93000 31.43600
H  -1.24300 38.04900 31.25700
H  -1.49200 37.30800 32.79700
H  -0.21200 33.71400 32.47200
H  -1.13700 32.47900 31.71000
H  -2.41400 32.25800 33.64500
H  -2.57000 33.96900 33.84500
H  2.95100 38.15700 29.58300
H  2.11100 39.65700 28.99600
H  3.64400 39.12200 28.32800
H  4.34000 40.49900 25.19600
H  4.66200 39.45600 26.54300
H  3.31800 40.64900 26.60800
H  0.57800 35.19800 21.90100
H  -2.11900 34.28300 21.92000
H  -0.46500 36.93500 20.82700
H  -1.14200 37.36100 22.42900
H  -2.10500 36.33600 21.31800
H  -0.10600 33.00200 20.82600
H  -1.27200 32.11900 21.56300
H  0.65200 32.46800 23.65100
H  1.54700 31.99900 22.22100
H  0.14500 31.04800 22.81300
H  -3.57100 30.32100 24.50900
H  -5.16600 30.58000 25.18800
H  -4.02300 29.42200 25.91400
H  -2.89100 31.45500 30.69800
H  -5.76800 31.50000 33.67700
H  -6.45800 32.77900 32.61400
H  -5.08600 33.07900 33.85100

