158

Mg 44.16200 4.78000 46.53500
C  42.37600 7.81300 46.46200
C  41.17100 3.24900 45.47900
C  45.89500 2.01100 45.52300
C  47.09100 6.56400 46.64400
N  42.05400 5.46200 46.14500
C  41.61400 6.72800 46.11000
C  40.26300 6.83100 45.42400
C  39.75700 5.35700 45.65400
C  41.06700 4.60600 45.81200
C  38.51700 5.01400 46.68200
C  40.32200 7.47000 43.90800
C  39.39700 6.90300 42.84000
H  39.03700 7.83700 41.62800
N  43.62300 2.87800 45.73500
C  42.35600 2.41600 45.42400
C  42.48500 1.01900 45.02200
C  43.82800 0.66600 45.06200
C  44.54500 1.84300 45.45800
C  41.26500 0.20800 44.59000
C  44.38500 -0.74400 44.76400
O  43.52800 -1.62600 44.50500
C  45.78200 -1.11600 44.60600
N  46.18400 4.33800 46.04500
C  46.67700 3.09100 45.90000
C  48.20500 3.00400 45.80400
C  48.56500 4.48100 46.12000
C  47.23500 5.19500 46.31600
C  48.75200 1.91100 46.71400
C  49.43500 5.14900 45.06600
C  50.89700 5.32400 45.49600
N  44.68200 6.70900 46.82500
C  45.88400 7.29800 46.81700
C  45.67500 8.73300 47.15100
C  44.33000 8.90600 47.05800
C  43.76000 7.69000 46.75100
C  46.68500 9.81100 47.11400
C  43.35500 9.97100 46.94100
O  43.47300 11.21800 47.10800
C  42.03100 9.32200 46.58900
C  41.07700 9.53100 47.76500
O  40.67600 8.62700 48.49600
O  40.68500 10.82900 47.75900
C  39.33300 11.07200 48.28500
H  40.20300 2.81300 45.22400
H  46.56800 1.16500 45.37100
H  48.03000 7.11100 46.75200
H  39.55600 7.38600 46.04200
H  39.38400 4.95400 44.71300
H  37.66000 4.75000 46.06200
H  38.36600 5.95400 47.21300
H  38.69900 4.14000 47.30700
H  41.36300 7.35500 43.60500
H  40.01400 8.51600 43.88100
H  38.54200 6.36700 43.25300
H  39.89800 6.12200 42.26800
H  41.39900 -0.04600 43.53900
H  40.29900 0.70300 44.68600
H  41.21600 -0.66600 45.24000
H  45.73400 -2.14000 44.23500
H  46.30600 -1.09500 45.56200
H  46.15800 -0.43700 43.84100
H  48.50400 2.77200 44.78100
H  49.14300 4.44700 47.04400
H  48.96300 2.26700 47.72200
H  49.58800 1.39200 46.24600
H  47.96300 1.20300 46.96800
H  49.02100 6.13700 44.86700
H  49.40700 4.51500 44.17900
H  51.13600 4.83200 46.43900
H  50.98700 6.40900 45.55300
H  51.64200 5.01900 44.76100
H  47.70500 9.42900 47.09200
H  46.51600 10.55600 47.89100
H  46.56900 10.28300 46.13900
H  41.47300 9.74400 45.75300
H  39.19000 12.09300 48.63700
H  39.17400 10.44600 49.16300
H  38.67900 10.66500 47.51400
Mg 49.51800 35.56600 27.50300
C  47.58800 34.46200 30.17300
C  50.30300 38.35200 29.22900
C  51.21100 36.45000 24.86100
C  48.43600 32.77600 25.64800
N  48.78000 36.44700 29.38000
C  48.10600 35.73600 30.36500
C  48.29800 36.43100 31.74100
C  48.89000 37.85500 31.33500
C  49.35500 37.55700 29.87800
C  47.83100 39.01200 31.27300
C  49.15500 35.74500 32.78600
C  48.83700 35.81000 34.22900
H  48.47000 37.25300 34.56800
N  50.55300 37.17700 27.10100
C  50.84500 38.20800 27.95900
C  51.85800 39.08600 27.34100
C  52.14600 38.52700 26.03600
C  51.25100 37.37900 25.90100
C  52.42400 40.36000 27.99100
C  53.30600 38.96600 25.05400
O  53.46900 38.42800 23.94100
C  54.10700 40.19500 25.37300
N  49.82100 34.64200 25.51100
C  50.53000 35.29700 24.64500
C  50.56200 34.65200 23.30600
C  49.89400 33.28800 23.52700
C  49.33100 33.55300 24.95400
C  49.90800 35.46100 22.09100
C  50.73800 32.03700 23.46100
C  50.04200 30.88900 22.76000
N  48.32300 33.93500 27.78500
C  47.96100 32.86100 27.02200
C  47.05200 31.95700 27.68700
C  46.85000 32.60100 28.92300
C  47.65800 33.77700 28.97000
C  46.49600 30.73200 27.09300
C  46.04400 32.53000 30.12500
O  45.13900 31.81500 30.53100
C  46.47000 33.77800 30.99600
C  46.79200 33.35400 32.38000
O  47.77000 32.65400 32.68100
O  45.73300 33.62300 33.17200
C  45.49200 32.94100 34.50100
H  50.63800 39.20800 29.81900
H  51.73000 36.93500 24.03200
H  48.03900 31.91500 25.10700
H  47.29700 36.61100 32.13300
H  49.81200 38.18400 31.81500
H  48.07700 39.48100 30.32100
H  48.04100 39.70700 32.08600
H  46.87000 38.49700 31.25800
H  50.16600 36.12000 32.62300
H  49.30100 34.71600 32.45800
H  49.56800 35.33900 34.88600
H  47.89600 35.26100 34.27800
H  53.49800 40.22800 28.12500
H  51.95200 40.64800 28.93000
H  52.30000 41.26000 27.38900
H  54.99200 40.23600 24.73800
H  54.49000 39.97700 26.37000
H  53.56000 41.13100 25.26200
H  51.62000 34.44700 23.14600
H  49.10200 33.17600 22.78700
H  49.34900 34.81200 21.41800
H  50.64400 35.91200 21.42600
H  49.31800 36.31000 22.43700
H  51.01000 31.56000 24.40300
H  51.62300 32.26400 22.86600
H  50.07600 30.00300 23.39300
H  50.51200 30.67000 21.80100
H  48.98400 30.97800 22.51300
H  47.18600 30.19500 26.44300
H  45.68600 31.07200 26.44800
H  46.02800 30.04400 27.79800
H  45.68900 34.49100 31.25800
H  46.33700 32.30200 34.76000
H  44.72800 32.16300 34.53700
H  45.15400 33.57500 35.32100

