158

Mg 35.73000 2.15300 30.13600
C  33.18800 3.51000 32.19200
C  37.84800 2.00500 32.81700
C  38.26700 1.49300 28.04100
C  33.55500 2.62100 27.37600
N  35.59000 2.85400 32.27500
C  34.44000 3.28800 32.95500
C  34.70400 3.28500 34.38900
C  36.30500 3.19400 34.52900
C  36.62200 2.60400 33.13900
C  37.02400 4.56700 34.75100
C  33.98100 2.13600 35.08600
C  33.39900 2.38300 36.54900
H  33.99600 3.59000 37.39500
N  37.69700 1.59900 30.43100
C  38.34600 1.53800 31.63100
C  39.62500 1.02400 31.41200
C  39.89300 0.97100 30.01500
C  38.62400 1.39000 29.43800
C  40.55700 0.70600 32.52300
C  41.14700 0.56400 29.22300
O  41.25500 0.77700 27.98800
C  42.22600 -0.13700 29.96700
N  35.94100 2.19100 28.01300
C  37.07100 1.85200 27.40600
C  36.79800 1.68800 25.85600
C  35.31000 2.08400 25.70900
C  34.87300 2.24100 27.16600
C  37.77800 2.48000 24.96000
C  34.37600 1.06600 24.83000
C  33.67000 -0.08600 25.47300
N  33.76000 2.95800 29.78500
C  33.02500 2.97000 28.59200
C  31.65300 3.35100 28.90700
C  31.64200 3.57600 30.35300
C  32.91700 3.32800 30.80300
C  30.54600 3.44200 27.95600
C  30.82200 3.96700 31.52100
O  29.60800 4.26000 31.62500
C  31.82800 3.81700 32.78100
C  31.86200 5.10000 33.48100
O  32.07700 6.17400 32.99700
O  31.64700 4.92700 34.83100
C  31.71200 6.08300 35.68000
H  38.47000 1.79800 33.69100
H  39.09300 1.27500 27.36100
H  32.83900 2.42000 26.57600
H  34.36300 4.26800 34.71500
H  36.71800 2.49300 35.25400
H  37.67600 4.68100 33.88500
H  37.68700 4.49700 35.61300
H  36.32200 5.38000 34.93700
H  34.58700 1.26300 35.33000
H  33.13300 1.81100 34.48500
H  33.57100 1.47800 37.13300
H  32.33700 2.57700 36.40000
H  41.33200 1.47100 32.48800
H  41.00700 -0.28600 32.48800
H  39.99900 0.64100 33.45800
H  42.91100 -0.37100 29.15200
H  41.91200 -1.03300 30.50200
H  42.57700 0.69400 30.58000
H  36.87100 0.63300 25.59300
H  35.18400 3.08500 25.29900
H  38.36700 3.16900 25.56600
H  37.25200 3.12200 24.25300
H  38.42700 1.87800 24.32500
H  35.06400 0.56200 24.15000
H  33.62200 1.64400 24.29700
H  33.81100 -0.92900 24.79600
H  32.58300 -0.08500 25.55300
H  34.19600 -0.30500 26.40300
H  30.79200 3.40700 26.89500
H  29.95200 4.34400 28.10800
H  29.74200 2.74100 28.17900
H  31.44200 2.94800 33.31300
H  30.90200 6.75100 35.39000
H  32.68500 6.53700 35.49000
H  31.61400 5.79500 36.72700
Mg 36.17400 48.91200 26.61800
C  36.56300 46.76700 29.44500
C  35.09100 51.31700 28.72000
C  35.31500 50.55400 23.97300
C  37.12300 46.11000 24.63400
N  35.75700 49.02100 28.80600
C  36.07200 48.06200 29.78100
C  35.92000 48.67900 31.20100
C  34.99700 49.93300 30.90600
C  35.27600 50.14800 29.38200
C  33.46500 49.78200 31.13200
C  37.27200 49.10500 31.83300
C  37.55300 48.61300 33.30500
H  36.43600 48.61900 34.28700
N  35.46000 50.75300 26.38700
C  35.08500 51.60800 27.36500
C  34.81500 52.89500 26.66000
C  34.90300 52.73700 25.29500
C  35.20700 51.30700 25.16600
C  34.57800 54.19000 27.44500
C  34.77900 53.79600 24.20000
O  35.06900 53.56600 23.02200
C  34.06300 55.13400 24.54600
N  36.39000 48.39000 24.62300
C  35.78500 49.26300 23.65300
C  35.94100 48.63900 22.24000
C  36.66300 47.29700 22.41100
C  36.74700 47.26900 23.97800
C  34.63600 48.54000 21.42700
C  38.03000 47.06800 21.68200
C  39.26000 47.72200 22.26900
N  36.83600 46.86100 26.94500
C  37.23400 45.91900 26.06300
C  37.56100 44.67900 26.68700
C  37.38900 44.99500 28.06200
C  36.82500 46.29300 28.11400
C  38.00100 43.43000 25.96500
C  37.40700 44.50600 29.40100
O  37.63000 43.36800 29.75500
C  36.90300 45.57600 30.41400
C  35.70000 45.10500 31.12600
O  34.88200 44.38200 30.65400
O  35.77200 45.35200 32.48900
C  34.63600 44.80000 33.28500
H  34.78500 52.22100 29.25100
H  35.12400 51.04700 23.01800
H  37.25100 45.27000 23.94900
H  35.38600 47.96700 31.83100
H  35.34900 50.85600 31.36700
H  32.87300 50.37300 30.43400
H  33.20900 50.34300 32.03100
H  33.15600 48.73900 31.20700
H  37.38600 50.17200 32.02300
H  37.96300 48.62700 31.13800
H  38.34700 49.24800 33.70000
H  37.97300 47.61300 33.19900
H  35.22700 54.98500 27.07800
H  34.90700 53.97300 28.46200
H  33.50800 54.38700 27.50100
H  33.49700 55.56200 23.71900
H  34.62900 55.88600 25.09600
H  33.33900 54.85600 25.31300
H  36.47100 49.36900 21.62800
H  36.09600 46.39900 22.16300
H  34.20800 47.54500 21.31000
H  34.74300 49.08000 20.48600
H  33.85000 49.06600 21.96900
H  37.99100 47.13400 20.59500
H  38.25800 46.01400 21.84400
H  39.69800 48.37200 21.51100
H  39.92400 46.95400 22.66700
H  39.01600 48.42400 23.06600
H  38.36200 43.70500 24.97400
H  37.18000 42.71300 26.00300
H  38.82700 43.01700 26.54400
H  37.65800 45.91700 31.12200
H  34.52600 45.53900 34.07900
H  34.81500 43.82800 33.74500
H  33.71500 44.74900 32.70400

