158

Mg 40.25600 9.36200 29.59500
C  42.35300 10.47900 32.27500
C  38.31900 7.94200 32.00000
C  38.56400 8.06200 27.13200
C  42.88800 10.14800 27.41600
N  40.39300 9.16200 32.00800
C  41.21400 9.82000 32.79400
C  40.67100 9.69900 34.28000
C  39.46700 8.68000 34.13400
C  39.32700 8.62600 32.67300
C  39.71000 7.31300 34.74500
C  40.29700 11.04600 34.99100
C  39.71000 10.96300 36.35800
H  40.36100 11.79300 37.53500
N  38.53900 8.25600 29.53700
C  37.87300 7.76700 30.63600
C  36.72000 7.06700 30.17100
C  36.75700 7.05500 28.71600
C  37.96300 7.77600 28.40900
C  35.77200 6.45900 31.13400
C  35.83500 6.34000 27.74000
O  36.16700 6.21600 26.55200
C  34.70700 5.65300 28.23000
N  40.63200 9.23500 27.54200
C  39.79300 8.52600 26.71500
C  40.07700 8.74500 25.24000
C  41.35100 9.62200 25.38600
C  41.73200 9.59600 26.82900
C  40.20600 7.56300 24.30000
C  41.04900 11.09300 25.06000
C  42.31200 11.93200 24.62300
N  42.25600 10.27900 29.70400
C  43.15700 10.53500 28.71200
C  44.26000 11.25400 29.24700
C  43.97600 11.28000 30.63100
C  42.76900 10.60000 30.88500
C  45.42300 11.76600 28.55800
C  44.36200 11.79000 31.96200
O  45.21700 12.53700 32.39500
C  43.34300 11.31100 33.02700
C  43.97200 10.54900 34.08200
O  44.37900 9.35700 33.96600
O  44.00000 11.28700 35.25600
C  44.53900 10.67200 36.49500
H  37.59500 7.57900 32.73300
H  37.92200 7.72200 26.31700
H  43.70200 10.50900 26.78400
H  41.54700 9.28000 34.77600
H  38.54900 9.06600 34.57700
H  39.76800 6.49200 34.03000
H  38.96000 7.01100 35.47600
H  40.70800 7.35500 35.18300
H  39.77400 11.67200 34.26700
H  41.19500 11.63900 35.16200
H  39.55400 9.89200 36.48600
H  38.67700 11.28000 36.22000
H  35.86900 6.99800 32.07600
H  35.95700 5.40900 31.36400
H  34.74000 6.64600 30.83700
H  34.13700 5.20900 27.41500
H  33.98300 6.33200 28.68000
H  35.04000 4.83500 28.87000
H  39.28800 9.35600 24.80100
H  42.23900 9.25200 24.87400
H  39.77900 6.70000 24.81100
H  41.23400 7.36000 23.99900
H  39.59500 7.72600 23.41200
H  40.51600 11.60800 25.85900
H  40.34500 11.13100 24.22800
H  42.05300 12.33800 23.64600
H  43.17200 11.26500 24.67500
H  42.48200 12.77900 25.28900
H  45.30800 12.31000 27.62100
H  46.07300 10.90500 28.40400
H  45.87100 12.45800 29.27000
H  42.89000 12.18700 33.49000
H  43.79500 10.29100 37.19500
H  45.15500 11.34600 37.09100
H  45.13200 9.81400 36.18100
Mg 47.42500 16.68500 29.05100
C  45.17600 16.29300 31.66900
C  49.28000 18.78100 30.94300
C  49.34700 17.48200 26.31500
C  45.20000 15.05600 26.92800
N  47.20100 17.43200 31.10000
C  46.28500 17.03000 32.04600
C  46.87200 17.37500 33.41000
C  47.87000 18.51700 33.07900
C  48.14200 18.18600 31.61300
C  47.28100 19.91700 33.35300
C  47.50700 16.11800 34.03900
C  47.74700 16.13700 35.54000
H  47.67500 17.43800 36.36100
N  49.21100 17.78900 28.70800
C  49.87000 18.48000 29.70500
C  51.14900 18.97000 29.19600
C  51.14700 18.76300 27.76500
C  49.83400 17.96000 27.53300
C  52.05600 19.73500 30.13900
C  52.08900 19.12200 26.69800
O  51.94300 18.88100 25.51900
C  53.30700 19.85200 27.15000
N  47.26800 16.38400 26.97100
C  48.18200 16.75500 26.09200
C  47.78100 16.38400 24.64300
C  46.59200 15.43700 24.84200
C  46.31500 15.64100 26.34800
C  47.36700 17.63600 23.76500
C  46.80200 13.89900 24.38300
C  45.62400 13.26200 23.63600
N  45.62000 15.86300 29.23000
C  44.81500 15.24500 28.25600
C  43.56900 14.78800 28.79100
C  43.71900 15.17100 30.16000
C  44.93400 15.88600 30.30300
C  42.37300 14.19100 28.21700
C  43.02100 15.10700 31.46800
O  41.87200 14.74300 31.76900
C  44.11000 15.70100 32.59800
C  43.46700 16.60700 33.53600
O  43.00900 17.70100 33.10700
O  43.54600 16.25800 34.87400
C  42.94000 17.06800 35.87600
H  49.94800 19.42800 31.51600
H  49.80900 17.77900 25.37100
H  44.59200 14.39900 26.30200
H  46.06900 17.77300 34.03100
H  48.70400 18.38800 33.76900
H  46.20100 19.86800 33.49500
H  47.48200 20.53600 32.47900
H  47.74400 20.41100 34.20600
H  48.44600 15.88900 33.53400
H  46.81500 15.29000 33.88700
H  48.79200 15.83700 35.61600
H  47.27400 15.27700 36.01400
H  53.10100 19.59100 29.86400
H  51.91000 19.30800 31.13100
H  51.81500 20.79500 30.21900
H  53.18600 20.92900 27.26400
H  54.01500 19.64100 26.34900
H  53.75200 19.34300 28.00400
H  48.62300 15.90800 24.14200
H  45.70700 15.74400 24.28400
H  47.62100 18.55300 24.29600
H  46.33700 17.75400 23.42800
H  47.98600 17.47600 22.88200
H  46.92900 13.36900 25.32600
H  47.70700 13.90500 23.77600
H  45.26700 12.37400 24.15700
H  45.98600 12.89400 22.67600
H  44.90600 14.06400 23.46600
H  42.58100 14.01400 27.16100
H  41.56800 14.92500 28.26300
H  42.20600 13.31000 28.83700
H  44.65900 14.93800 33.14900
H  43.70600 17.75000 36.24800
H  42.75000 16.36600 36.68700
H  42.07000 17.67800 35.63100

