158

Mg 2.00000 -1.74900 43.35200
C  5.37300 -0.62400 42.68300
C  0.76500 0.84700 41.57800
C  -1.05200 -3.36300 43.26800
C  3.53700 -4.87000 44.24200
N  2.98300 -0.23500 42.08200
C  4.31000 0.15400 42.10000
C  4.51500 1.44900 41.28600
C  3.08800 2.08700 41.34600
C  2.21000 0.82000 41.51400
C  2.88400 3.11200 42.49900
C  4.87900 1.11500 39.81800
C  6.09200 1.88400 39.26400
H  6.07800 2.15500 37.79300
N  0.08800 -1.24600 42.65800
C  -0.20900 -0.08800 42.00100
C  -1.63100 -0.07300 41.75400
C  -2.27300 -1.24100 42.28200
C  -1.07900 -2.03800 42.73400
C  -2.36000 1.12700 40.93700
C  -3.74000 -1.56400 42.31700
O  -4.48600 -0.77600 41.69500
C  -4.28800 -2.72200 43.11300
N  1.36100 -3.70700 43.65300
C  0.02600 -4.14600 43.63300
C  -0.07500 -5.63900 43.88500
C  1.37500 -6.12400 43.88600
C  2.14900 -4.80300 43.92700
C  -0.97800 -6.18300 45.03300
C  1.61500 -7.11000 42.75500
C  2.18400 -8.50800 43.09700
N  4.05500 -2.52800 43.73900
C  4.44500 -3.86300 44.04400
C  5.87300 -3.89100 44.19000
C  6.29900 -2.62400 43.57900
C  5.13500 -1.87700 43.32600
C  6.73100 -4.95100 44.83000
C  7.42000 -1.78200 43.25200
O  8.59600 -2.06500 43.25200
C  6.83200 -0.37700 42.82500
C  7.15500 0.56100 43.90300
O  7.16900 0.23400 45.09000
O  7.21600 1.85900 43.45700
C  7.48900 2.85600 44.56900
H  0.37900 1.71900 41.04500
H  -2.01400 -3.87100 43.17400
H  3.94400 -5.82600 44.57900
H  5.19100 2.15000 41.77600
H  2.73100 2.55300 40.42800
H  3.77900 3.73400 42.51200
H  2.88300 2.53100 43.42200
H  2.02000 3.77300 42.43900
H  4.03500 1.39200 39.18600
H  5.16000 0.06200 39.82600
H  6.97200 1.25700 39.40300
H  6.25900 2.86400 39.71100
H  -1.82300 1.31200 40.00700
H  -2.12800 2.06800 41.43400
H  -3.37900 0.94400 40.59700
H  -5.28400 -2.55400 43.52300
H  -3.61400 -2.89100 43.95300
H  -4.34800 -3.65600 42.55500
H  -0.52100 -6.03200 42.97100
H  1.69000 -6.60400 44.81300
H  -1.81900 -6.70700 44.57900
H  -1.39900 -5.48600 45.75700
H  -0.56000 -6.98400 45.64200
H  2.46400 -6.73100 42.18700
H  0.83700 -7.31200 42.01900
H  3.18500 -8.55200 42.66600
H  1.48700 -9.21400 42.64600
H  2.17200 -8.70300 44.16900
H  6.13800 -5.37900 45.63800
H  7.59200 -4.40100 45.20900
H  6.94400 -5.82100 44.21000
H  7.24300 0.01700 41.89600
H  7.46300 3.87100 44.17300
H  8.53500 2.78400 44.87000
H  6.69300 2.67000 45.29000
Mg 44.95600 4.45400 48.53800
C  42.88500 7.11700 47.63700
C  42.52000 2.25800 47.69700
C  47.38400 2.00900 48.53000
C  47.68000 6.85600 48.48000
N  42.96600 4.69700 47.73900
C  42.27700 5.84900 47.54400
C  40.81200 5.60100 47.02500
C  40.66100 4.03600 47.32400
C  42.13000 3.64800 47.67400
C  39.67300 3.73400 48.41600
C  40.67000 5.89600 45.50700
C  39.63500 6.94200 45.05400
H  40.01500 8.08600 44.04100
N  44.90000 2.31300 48.22500
C  43.79300 1.61700 47.78600
C  44.14800 0.27300 47.60100
C  45.56900 0.16400 47.95300
C  46.02200 1.55700 48.22300
C  43.20000 -0.85600 47.27800
C  46.30900 -1.15000 48.02700
O  45.69200 -2.14900 47.79100
C  47.80200 -1.44600 48.39000
N  47.18500 4.43400 48.47700
C  47.82500 3.30000 48.64200
C  49.35600 3.58600 48.85100
C  49.45800 5.14800 48.89300
C  48.03800 5.50400 48.51900
C  49.96500 2.94300 50.10300
C  50.60800 5.82600 48.03700
C  51.38500 6.87800 48.82000
N  45.30900 6.53900 48.22000
C  46.42800 7.38600 48.20300
C  46.04200 8.74400 48.01200
C  44.65400 8.68300 47.71000
C  44.24900 7.29400 47.91500
C  47.00900 9.86700 48.28600
C  43.53100 9.44600 47.39600
O  43.36000 10.65100 47.18400
C  42.31200 8.43100 47.22700
C  41.25800 8.87600 48.14800
O  41.11900 8.54500 49.29600
O  40.31800 9.60900 47.42800
C  39.06800 9.76100 48.16500
H  41.72500 1.51800 47.58500
H  48.17400 1.25700 48.58900
H  48.47700 7.59700 48.56500
H  40.10400 6.16800 47.63100
H  40.28700 3.47900 46.46500
H  40.12200 2.90800 48.96700
H  38.65200 3.47400 48.13600
H  39.67400 4.62000 49.05100
H  40.46700 4.99800 44.92400
H  41.62800 6.24500 45.12200
H  39.30100 7.50000 45.92900
H  38.81800 6.31900 44.69000
H  42.88500 -1.49900 48.10100
H  43.55300 -1.44600 46.43200
H  42.24400 -0.54000 46.86100
H  47.92900 -2.52300 48.50000
H  48.12500 -0.98600 49.32400
H  48.51800 -1.12500 47.63400
H  49.88100 3.21400 47.97100
H  49.50000 5.58000 49.89300
H  50.82600 2.30000 49.92300
H  49.16900 2.44100 50.65300
H  50.26400 3.76700 50.75100
H  50.16900 6.41500 47.23100
H  51.19800 5.13600 47.43400
H  52.36700 6.44700 49.01100
H  50.87900 7.35400 49.66000
H  51.61500 7.71400 48.15900
H  46.59500 10.87500 48.25300
H  47.71900 9.68600 47.47900
H  47.47800 9.78500 49.26600
H  42.00600 8.50900 46.18400
H  39.17400 10.59300 48.86100
H  38.68500 8.94600 48.77900
H  38.26800 9.92800 47.44300

