158

Mg 36.05500 2.48700 30.28600
C  33.41300 3.44900 32.34800
C  38.22500 2.48100 32.99900
C  38.56400 1.34900 28.26900
C  33.80200 2.31800 27.59200
N  35.82900 2.88000 32.39700
C  34.62500 3.21300 33.01400
C  34.86300 3.31300 34.53800
C  36.40300 3.40300 34.63800
C  36.90200 2.88000 33.21300
C  36.74400 4.89100 34.74100
C  34.19500 2.03000 35.20400
C  33.69100 2.05100 36.65100
H  34.34100 3.07500 37.66200
N  38.11300 2.00800 30.54400
C  38.78800 2.08500 31.73700
C  40.14700 1.72900 31.55700
C  40.24800 1.40300 30.19900
C  38.96700 1.57600 29.59300
C  41.12400 1.57300 32.70900
C  41.45300 0.91200 29.44000
O  41.43000 0.64300 28.23400
C  42.77900 0.76400 30.13100
N  36.21600 2.12500 28.15800
C  37.27900 1.51200 27.63800
C  37.02000 1.07100 26.17400
C  35.48100 1.09900 26.09200
C  35.16400 1.92200 27.35700
C  37.68000 2.03700 25.10800
C  34.78100 -0.25400 26.17800
C  33.95000 -0.57900 24.89700
N  34.10700 3.05700 29.89300
C  33.32000 2.92300 28.80200
C  31.90600 3.23300 29.17300
C  31.94700 3.47700 30.57500
C  33.29200 3.37600 30.91400
C  30.70800 3.13300 28.30100
C  31.15000 3.88700 31.71900
O  29.99200 4.23900 31.85200
C  32.11400 3.80000 32.91400
C  31.98100 5.14300 33.58600
O  32.38900 6.16300 33.21500
O  31.55100 4.91900 34.84600
C  31.79500 6.01500 35.79800
H  38.83100 2.61400 33.89800
H  39.23700 0.87000 27.55500
H  32.99400 2.04300 26.91100
H  34.35800 4.18600 34.95300
H  36.69800 2.88400 35.55100
H  37.54500 5.16100 34.05200
H  36.97800 5.17100 35.76800
H  35.89300 5.54100 34.53600
H  34.88200 1.20600 35.01500
H  33.36800 1.70800 34.57000
H  33.58100 1.06300 37.09600
H  32.69000 2.41800 36.42200
H  40.61700 1.36100 33.65100
H  41.53100 2.55900 32.93100
H  42.02400 0.98100 32.54900
H  43.08700 1.63500 30.70800
H  43.53000 0.59600 29.36000
H  42.81000 -0.18600 30.66500
H  37.38400 0.05400 26.03300
H  35.11800 1.71400 25.26800
H  37.08500 2.09800 24.19700
H  38.64500 1.67300 24.75600
H  37.61500 3.06100 25.47700
H  33.95900 -0.19700 26.89300
H  35.47400 -1.04000 26.47700
H  33.82000 -1.64400 24.70600
H  34.52800 -0.17600 24.06500
H  33.03300 -0.00000 24.77700
H  30.68900 2.18600 27.76200
H  30.81300 3.93200 27.56700
H  29.76700 3.17700 28.85000
H  31.68000 2.93500 33.41500
H  30.94000 6.68700 35.86200
H  32.70400 6.56000 35.54500
H  31.94500 5.55900 36.77700
Mg 8.94100 48.43100 25.88700
C  6.83600 49.11700 28.75600
C  11.53900 49.80500 27.77500
C  10.81400 48.14700 23.30200
C  5.91500 48.21400 24.03000
N  9.14900 49.24000 28.00100
C  8.17300 49.26300 28.99300
C  8.81100 49.62700 30.34900
C  10.14300 50.34700 29.91000
C  10.29900 49.73700 28.47800
C  9.98300 51.89400 29.82100
C  9.10800 48.41600 31.28600
C  9.38400 48.81800 32.80800
H  8.89200 47.90300 33.88200
N  10.91100 48.65800 25.66000
C  11.82300 49.24900 26.54000
C  13.10200 49.22700 26.00700
C  12.99000 48.66500 24.67700
C  11.51600 48.43700 24.49000
C  14.37500 49.49900 26.83900
C  14.00500 48.30700 23.62400
O  13.77600 47.70400 22.54700
C  15.45000 48.74800 23.83900
N  8.42300 48.35400 23.91000
C  9.42000 48.11600 23.11500
C  8.85700 47.80900 21.67100
C  7.33700 47.66400 21.92500
C  7.22000 48.14300 23.35600
C  9.18100 48.84800 20.58100
C  6.71000 46.21500 21.77800
C  5.51400 46.26900 20.81700
N  6.70200 48.57000 26.26600
C  5.64900 48.40100 25.39500
C  4.42600 48.71800 26.13800
C  4.89800 48.89100 27.49400
C  6.27100 48.81000 27.49300
C  3.03100 48.61200 25.58300
C  4.43300 49.17800 28.86200
O  3.28800 49.21600 29.28500
C  5.70600 49.45000 29.70500
C  5.65300 48.57100 30.83100
O  5.57100 47.36200 30.85300
O  5.56200 49.38300 31.94200
C  4.94200 48.74400 33.16700
H  12.26900 50.26800 28.44300
H  11.45800 48.22300 22.42400
H  5.12200 48.14800 23.28300
H  8.19000 50.33000 30.90400
H  11.01100 50.01100 30.47800
H  9.06000 52.24100 30.28400
H  10.08000 52.13300 28.76200
H  10.83800 52.29700 30.36400
H  9.95000 47.90000 30.82600
H  8.27600 47.71500 31.22300
H  8.78700 49.72500 32.90000
H  10.44200 48.90600 33.05500
H  14.21100 49.87800 27.84800
H  14.99000 50.12000 26.18700
H  14.91600 48.56100 26.96400
H  15.54500 49.71600 23.34700
H  16.20800 48.21000 23.27100
H  15.79500 48.87800 24.86500
H  9.22800 46.90500 21.19000
H  6.81500 48.40200 21.31600
H  9.52400 49.72300 21.13300
H  8.43100 49.04200 19.81300
H  10.07500 48.60200 20.00800
H  6.37500 45.92000 22.77200
H  7.52900 45.62700 21.36400
H  4.76200 45.72300 21.38600
H  5.78100 45.84000 19.85100
H  5.07800 47.25800 20.67500
H  2.90900 47.57800 25.26000
H  2.88600 49.39100 24.83500
H  2.35600 48.88800 26.39300
H  5.77000 50.46200 30.10300
H  4.40900 49.37000 33.88300
H  5.79900 48.22800 33.60000
H  4.19300 47.99400 32.91300

