158

Mg 46.10200 24.83200 28.87500
C  46.83500 26.99100 31.48600
C  44.91000 22.62100 31.35900
C  45.71200 22.49000 26.52100
C  47.88200 26.90500 26.70800
N  45.80900 24.87000 31.11000
C  46.14800 25.85800 31.89900
C  45.72100 25.59300 33.41900
C  45.32100 24.11600 33.42900
C  45.38700 23.86300 31.86600
C  46.02400 23.06500 34.35900
C  44.68800 26.55400 33.98200
C  45.03300 27.20700 35.25000
H  45.51200 26.34800 36.45900
N  45.35100 22.80200 28.93300
C  44.88400 22.11000 30.07900
C  44.47100 20.71400 29.62800
C  44.69600 20.67400 28.23700
C  45.27500 22.02900 27.82300
C  43.99100 19.64300 30.62800
C  44.57600 19.44700 27.33700
O  44.81400 19.58800 26.15000
C  43.94500 18.21300 27.83800
N  46.80900 24.63100 26.84400
C  46.49500 23.60400 26.07300
C  46.95800 23.83800 24.69800
C  47.59500 25.28700 24.71600
C  47.41600 25.62000 26.17600
C  47.85400 22.69500 24.15300
C  46.90700 26.28900 23.72700
C  45.74900 27.17900 24.15800
N  47.15200 26.60100 28.95900
C  47.81200 27.31400 28.00700
C  48.31500 28.48600 28.62700
C  48.02100 28.42000 29.96700
C  47.24100 27.26700 30.14100
C  49.11800 29.54200 28.10400
C  48.08800 29.09100 31.17500
O  48.58700 30.20100 31.49500
C  47.25200 28.22800 32.27500
C  48.21300 27.96100 33.42800
O  48.87000 26.98600 33.58500
O  48.19600 28.96800 34.35600
C  48.64600 28.65100 35.72000
H  44.51900 22.06300 32.21300
H  45.51300 21.80200 25.69700
H  48.51900 27.49800 26.04800
H  46.64200 25.85000 33.94100
H  44.27200 24.06900 33.72300
H  45.29600 22.42300 34.85400
H  46.69100 23.52600 35.08800
H  46.69800 22.34200 33.90000
H  43.71700 26.09600 34.16700
H  44.59200 27.28900 33.18200
H  44.07700 27.60600 35.58800
H  45.69600 28.06700 35.15600
H  44.41000 18.64300 30.52000
H  42.91300 19.78100 30.71700
H  44.29700 20.01500 31.60600
H  42.96200 18.45200 28.24500
H  44.54100 17.78700 28.64500
H  43.78300 17.63000 26.93100
H  46.09000 23.87000 24.04000
H  48.66600 25.27500 24.51400
H  47.38800 22.15000 23.33200
H  47.97600 21.88100 24.86800
H  48.87100 23.02600 23.94300
H  46.47700 25.76700 22.87200
H  47.57100 27.01100 23.25200
H  45.50900 26.98100 25.20300
H  44.81000 26.84700 23.71600
H  45.86700 28.26100 24.09000
H  49.94500 29.10800 27.54200
H  49.48600 30.16900 28.91600
H  48.55500 30.13200 27.38100
H  46.41300 28.79600 32.67600
H  47.80300 28.45500 36.38300
H  49.16300 29.55800 36.03600
H  49.36900 27.83500 35.72900
Mg -5.33000 25.20100 25.60700
C  -3.69400 26.68400 28.27100
C  -6.95900 23.07100 27.96200
C  -6.70800 23.52800 22.99200
C  -3.39700 27.12400 23.38100
N  -5.20900 24.82400 27.93300
C  -4.59100 25.66100 28.80900
C  -5.10900 25.48200 30.24200
C  -5.89500 24.12400 30.13500
C  -6.03600 23.96900 28.57200
C  -5.05900 22.98300 30.73600
C  -5.78100 26.68200 30.96300
C  -6.09500 26.45700 32.50900
H  -5.47600 25.30300 33.31500
N  -6.58800 23.49300 25.51900
C  -7.17100 22.85900 26.62200
C  -8.19200 21.95700 26.08100
C  -8.21200 22.17200 24.66300
C  -7.04800 23.02300 24.31900
C  -9.11100 21.22400 27.03400
C  -9.29000 21.67700 23.69900
O  -9.12600 21.72900 22.49700
C  -10.56800 21.09200 24.25100
N  -5.01000 25.20600 23.46000
C  -5.79700 24.50600 22.58800
C  -5.34500 24.74700 21.14100
C  -4.46400 26.01000 21.29800
C  -4.27500 26.10900 22.80900
C  -4.59200 23.52500 20.55800
C  -5.00000 27.33500 20.67600
C  -4.10400 28.19500 19.73400
N  -3.91600 26.61700 25.76300
C  -3.27500 27.36200 24.79900
C  -2.43700 28.34200 25.40800
C  -2.54700 28.04300 26.79100
C  -3.46700 27.02200 26.96100
C  -1.55600 29.32100 24.71300
C  -2.00400 28.48500 28.07900
O  -1.11000 29.34100 28.29500
C  -2.76900 27.60500 29.08900
C  -1.85100 27.02000 30.09600
O  -0.76200 26.47300 29.82100
O  -2.17600 27.44300 31.35300
C  -1.44300 26.87900 32.45300
H  -7.44800 22.51200 28.76200
H  -7.15800 23.09600 22.09600
H  -3.02500 27.80800 22.61600
H  -4.23500 25.46200 30.89400
H  -6.85900 24.18200 30.64100
H  -4.29900 23.34600 31.42800
H  -4.49000 22.46100 29.96700
H  -5.68600 22.22500 31.20500
H  -6.73800 26.73600 30.44400
H  -5.17500 27.56700 30.77100
H  -7.15800 26.41500 32.74500
H  -5.62700 27.30300 33.01100
H  -8.40500 20.81800 27.75800
H  -9.45100 20.32800 26.51400
H  -9.98300 21.80500 27.33500
H  -10.95200 21.69500 25.07400
H  -10.48600 20.05000 24.56000
H  -11.27700 21.02300 23.42600
H  -6.19900 24.88800 20.47800
H  -3.52800 25.70600 20.83100
H  -3.58200 23.83300 20.29000
H  -5.05500 23.11300 19.66100
H  -4.39300 22.87200 21.40800
H  -5.16700 27.96700 21.54800
H  -5.90800 26.98200 20.18700
H  -4.63000 28.38600 18.79800
H  -3.22200 27.56600 19.61400
H  -3.80200 29.15900 20.14300
H  -2.09300 30.24600 24.50500
H  -1.25300 28.73200 23.84700
H  -0.63600 29.53300 25.25800
H  -3.27400 28.45900 29.54000
H  -0.37200 27.08500 32.45100
H  -1.72100 25.82700 32.51200
H  -1.75700 27.13000 33.46600

