158

Mg 7.26600 2.33700 27.86000
C  8.70700 1.19300 30.79500
C  5.02700 4.24900 29.78200
C  5.83400 3.35600 25.01000
C  9.24500 0.10900 25.92600
N  6.96000 2.73500 30.03100
C  7.75900 2.16800 31.07800
C  7.27600 2.65600 32.48200
C  6.14200 3.76500 32.04500
C  5.94800 3.53100 30.54800
C  4.84200 3.91800 32.86400
C  8.41800 3.29000 33.37700
C  7.99500 4.10000 34.58200
H  8.59300 3.70600 35.90400
N  5.70800 3.71600 27.39600
C  4.85800 4.34500 28.39100
C  3.95000 5.13500 27.64900
C  4.23400 5.01900 26.23000
C  5.28100 3.94700 26.13800
C  3.08200 6.18700 28.35000
C  3.61700 5.87200 25.10900
O  4.08100 5.81900 23.98900
C  2.54500 6.81200 25.32200
N  7.28200 1.60100 25.78700
C  6.73100 2.29500 24.83000
C  7.14300 1.74500 23.44400
C  8.46000 1.02600 23.77800
C  8.38500 0.91500 25.25400
C  6.07100 0.80200 22.81700
C  9.82700 1.58200 23.21600
C  10.61000 2.64400 23.98900
N  8.59500 0.88300 28.21800
C  9.35400 0.02000 27.33700
C  10.27800 -0.64200 28.14300
C  10.09300 -0.22500 29.49000
C  8.99200 0.64500 29.52300
C  11.24200 -1.72900 27.64900
C  10.51700 -0.47900 30.87400
O  11.36700 -1.28900 31.20700
C  9.62000 0.48000 31.81400
C  8.78600 -0.33100 32.81200
O  7.74600 -0.89900 32.46400
O  9.22000 -0.29600 34.10400
C  8.26100 -0.67300 35.19000
H  4.43900 4.83800 30.48800
H  5.50000 3.71500 24.03400
H  9.99300 -0.35300 25.27900
H  6.83400 1.79000 32.97400
H  6.62400 4.73600 32.15300
H  4.86900 4.84000 33.44500
H  4.79900 3.04800 33.52100
H  3.92500 3.76800 32.29400
H  8.90200 4.07700 32.79900
H  9.12700 2.56700 33.78000
H  6.93100 4.01500 34.80500
H  8.08200 5.16500 34.36700
H  3.51200 7.18700 28.30400
H  3.06100 6.03800 29.43000
H  2.06300 6.16500 27.96500
H  1.73200 6.44100 25.94600
H  2.08900 6.91900 24.33700
H  2.97900 7.72300 25.73200
H  7.44200 2.56600 22.79300
H  8.47800 0.03000 23.33600
H  5.27800 0.65200 23.55000
H  6.59300 -0.11900 22.55900
H  5.77200 1.29100 21.89000
H  9.70400 1.94500 22.19500
H  10.48800 0.71500 23.21200
H  10.07400 2.99900 24.87000
H  10.82600 3.42300 23.25800
H  11.51700 2.24800 24.44700
H  11.57200 -1.64500 26.61300
H  10.89900 -2.75400 27.78700
H  12.14000 -1.58700 28.25100
H  10.27400 1.17000 32.34900
H  7.91700 -1.70600 35.13600
H  7.39800 -0.07200 34.90200
H  8.58800 -0.24800 36.13900
Mg -12.19800 17.24500 40.85700
C  -8.81600 16.22600 40.66600
C  -11.09600 20.51400 40.06700
C  -15.26100 18.16400 39.58800
C  -13.17400 13.92000 40.85300
N  -10.18300 18.26500 40.38000
C  -8.93900 17.64500 40.44200
C  -7.79800 18.60900 40.36100
C  -8.54400 19.98700 40.47900
C  -10.02400 19.60300 40.36300
C  -8.25500 20.83400 41.76700
C  -7.08100 18.36900 38.99800
C  -5.57300 18.15200 39.19800
H  -4.82700 17.08500 38.43800
N  -13.15600 19.10000 40.26900
C  -12.47000 20.32600 39.96100
C  -13.48600 21.29800 39.58500
C  -14.75500 20.61100 39.52600
C  -14.43000 19.24800 39.80600
C  -13.11900 22.66500 39.16700
C  -16.06900 21.26800 39.20100
O  -16.07500 22.47400 39.00100
C  -17.40000 20.55900 39.07900
N  -13.94500 16.17600 40.28700
C  -15.06800 16.82100 39.81300
C  -16.19000 15.77600 39.52600
C  -15.55100 14.45900 40.09100
C  -14.12600 14.84500 40.46100
C  -17.54600 16.26100 40.08400
C  -15.63200 13.26700 39.10700
C  -14.77700 13.16400 37.79300
N  -11.25900 15.41300 40.87000
C  -11.76200 14.15500 40.85700
C  -10.63500 13.16200 41.08600
C  -9.50300 13.93800 40.98700
C  -9.93300 15.25300 40.81200
C  -10.67000 11.62500 41.29800
C  -8.04800 13.86800 40.96400
O  -7.26400 12.87700 41.01700
C  -7.54900 15.36000 40.75800
C  -6.60000 15.64700 41.81700
O  -6.85400 16.25800 42.84300
O  -5.29100 15.31500 41.50100
C  -4.31800 15.42600 42.60900
H  -10.76000 21.55200 40.00800
H  -16.21400 18.41100 39.11500
H  -13.49100 12.87500 40.85300
H  -7.10300 18.44100 41.18400
H  -8.34300 20.57500 39.58300
H  -7.84300 20.10500 42.46500
H  -9.07300 21.43400 42.16700
H  -7.48500 21.59300 41.62500
H  -7.07500 19.26300 38.37400
H  -7.46300 17.46000 38.53500
H  -5.36200 17.91800 40.24200
H  -5.08600 19.12000 39.07400
H  -13.63400 22.97800 38.25900
H  -12.05900 22.78900 38.94400
H  -13.38100 23.36800 39.95900
H  -17.53900 20.29900 38.03000
H  -18.15400 21.31800 39.28700
H  -17.62000 19.69200 39.70100
H  -16.30200 15.56000 38.46300
H  -16.09700 14.25100 41.01200
H  -18.36400 15.54400 40.15300
H  -17.92400 17.06900 39.45700
H  -17.31800 16.42100 41.13800
H  -16.58600 13.44800 38.61100
H  -15.71400 12.32400 39.64800
H  -15.36200 12.78500 36.95500
H  -14.05500 12.36300 37.95800
H  -14.24600 14.07800 37.52800
H  -11.72300 11.41000 41.47600
H  -10.13100 11.21200 42.15000
H  -10.26900 11.12900 40.41300
H  -7.09400 15.36500 39.76700
H  -4.76400 15.42500 43.60300
H  -3.54700 16.14200 42.32200
H  -3.83700 14.45200 42.52100

