158

Mg 25.05400 1.96600 30.72900
C  27.29400 1.70100 33.33800
C  22.36900 2.19600 32.92200
C  22.92000 1.93000 28.02700
C  27.67700 1.24000 28.48900
N  24.90900 1.79700 32.93400
C  26.00100 1.98000 33.73700
C  25.58200 2.53000 35.19300
C  23.95400 2.53000 35.03800
C  23.70500 2.09300 33.54100
C  23.16200 1.64500 36.07100
C  26.23000 3.90100 35.53700
C  27.28600 3.93100 36.75400
H  26.86400 4.79800 37.95000
N  22.97300 2.02500 30.55500
C  22.03100 2.11300 31.55600
C  20.70400 2.15700 30.94500
C  20.85300 1.96900 29.55300
C  22.28000 1.97400 29.35900
C  19.41600 2.10400 31.85000
C  19.75000 1.98800 28.47400
O  19.99900 2.00300 27.22300
C  18.31600 1.97100 28.85600
N  25.31300 1.70400 28.61000
C  24.25400 1.74900 27.73600
C  24.67400 1.64000 26.31300
C  26.21600 1.31400 26.41300
C  26.44500 1.41700 27.90800
C  23.91200 0.55900 25.48000
C  27.08200 2.24400 25.45500
C  27.20600 3.71100 25.89600
N  27.09600 1.50800 30.85000
C  27.99700 1.25400 29.85300
C  29.30200 1.03700 30.48700
C  29.07300 1.20700 31.86100
C  27.71200 1.44000 32.06200
C  30.53900 0.71500 29.84800
C  29.68200 1.18500 33.17300
O  30.83600 0.82900 33.50300
C  28.60900 1.68700 34.19500
C  28.57300 0.80800 35.32300
O  27.83400 -0.14500 35.54000
O  29.38900 1.29000 36.26700
C  29.29800 0.72800 37.56100
H  21.53900 2.40000 33.60100
H  22.19400 2.13700 27.23800
H  28.51500 0.99800 27.83200
H  25.92000 1.83400 35.96100
H  23.50900 3.52400 35.08500
H  22.69500 0.80800 35.55200
H  22.39000 2.36000 36.35500
H  23.85000 1.35900 36.86600
H  25.40500 4.56700 35.79200
H  26.78000 4.23500 34.65800
H  28.27300 4.30200 36.47700
H  27.18300 2.93000 37.17400
H  18.86700 1.16300 31.90400
H  18.74000 2.84800 31.42800
H  19.63000 2.45400 32.86000
H  18.11600 1.00300 29.31500
H  17.78100 2.05500 27.91000
H  18.07000 2.81400 29.50200
H  24.63800 2.64100 25.88300
H  26.44600 0.28200 26.14700
H  23.32000 0.04400 26.23700
H  24.59400 -0.13200 24.98500
H  23.27800 1.07900 24.76300
H  26.77400 2.18900 24.41100
H  28.10400 1.86700 25.49900
H  28.23700 3.98000 26.12500
H  26.48200 3.96300 26.67000
H  26.78100 4.31800 25.09700
H  30.24600 -0.18400 29.30600
H  31.30500 0.53900 30.60300
H  30.73400 1.45700 29.07300
H  28.96100 2.65500 34.55200
H  28.27300 0.92700 37.87200
H  30.12600 1.14500 38.13400
H  29.44300 -0.34700 37.44700
Mg 47.65700 25.81700 29.91500
C  48.73500 28.19100 32.12100
C  46.42400 23.86400 32.39600
C  47.05900 23.34200 27.70600
C  49.27900 27.56100 27.32800
N  47.56300 26.08900 31.95200
C  47.98100 27.16200 32.67500
C  47.46000 27.16300 34.13100
C  46.94200 25.65400 34.24200
C  46.95700 25.15800 32.76200
C  47.82800 24.71200 35.17700
C  46.26500 28.08300 34.48100
C  45.77700 28.18300 35.94400
H  46.70500 27.66100 37.06800
N  46.78900 23.83800 30.03100
C  46.32200 23.22700 31.17700
C  45.90200 21.86900 30.86600
C  45.80300 21.83100 29.49200
C  46.52000 23.06200 28.95100
C  45.21200 21.05100 31.91200
C  45.23600 20.75100 28.62100
O  45.31100 20.71900 27.35800
C  44.58100 19.58800 29.26700
N  48.06500 25.54000 27.80700
C  47.71100 24.45000 27.14900
C  47.94700 24.55000 25.66500
C  48.59700 25.93700 25.46900
C  48.59100 26.39800 26.94700
C  48.81000 23.35400 25.10500
C  47.85600 26.86900 24.43200
C  48.71900 27.34500 23.29900
N  48.77400 27.56100 29.71100
C  49.39900 28.13600 28.59600
C  50.01300 29.40500 29.07600
C  49.69200 29.49900 30.40100
C  49.06100 28.30900 30.74600
C  50.68500 30.45100 28.20900
C  49.78700 30.37800 31.58500
O  50.24200 31.52900 31.79700
C  49.26000 29.50600 32.81600
C  50.34500 29.31300 33.82900
O  51.24000 28.54000 33.68000
O  50.01400 30.01200 34.93700
C  50.74600 29.66400 36.20700
H  46.03000 23.20100 33.16900
H  46.93900 22.52000 26.99700
H  49.66000 28.11900 26.47000
H  48.23300 27.30900 34.88500
H  45.94600 25.68000 34.68300
H  48.26300 23.86400 34.64900
H  47.06300 24.17000 35.73400
H  48.61600 25.15200 35.78800
H  45.41300 27.76800 33.87800
H  46.56500 29.11900 34.32500
H  44.86700 27.59300 36.06100
H  45.53700 29.24500 35.97600
H  44.13700 20.97500 31.74700
H  45.21400 21.39400 32.94700
H  45.70700 20.08400 31.99400
H  45.18600 19.10000 30.03200
H  44.18800 18.88800 28.52900
H  43.73900 19.98700 29.83300
H  46.92300 24.54300 25.29100
H  49.65300 25.78300 25.24500
H  48.35100 22.39600 25.34800
H  49.78400 23.38800 25.59200
H  48.93600 23.57000 24.04400
H  47.50300 27.80100 24.87300
H  46.94800 26.31200 24.20000
H  48.19400 27.08200 22.38100
H  49.70800 26.89500 23.38900
H  48.75600 28.43400 23.30500
H  51.03900 29.98300 27.29000
H  51.55900 30.88400 28.69500
H  50.07400 31.26800 27.82600
H  48.38100 29.97100 33.26200
H  51.38800 30.47900 36.54100
H  51.46400 28.85000 36.10200
H  50.00900 29.37100 36.95500

