158

Mg 44.49600 5.08500 46.85500
C  42.49700 7.89500 46.29800
C  41.76300 3.09500 46.46700
C  46.61700 2.51500 46.60500
C  47.36300 7.31100 46.77000
N  42.32500 5.49600 46.50600
C  41.75000 6.68100 46.33000
C  40.21100 6.49300 46.17000
C  39.99400 4.92700 46.46700
C  41.45800 4.45000 46.63700
C  39.02000 4.68100 47.72800
C  39.69300 6.93900 44.68500
C  38.56600 7.96400 44.50800
H  38.81400 8.93100 43.35100
N  44.25800 3.08400 46.65000
C  43.02200 2.48000 46.39200
C  43.28200 1.09900 46.29800
C  44.65800 0.84200 46.49300
C  45.27500 2.17500 46.60100
C  42.22600 0.10700 45.97100
C  45.33200 -0.50300 46.54500
O  44.70100 -1.46600 46.29300
C  46.77100 -0.63600 46.82400
N  46.68700 4.92900 46.37500
C  47.31600 3.77200 46.57400
C  48.80200 3.84900 46.77000
C  49.03200 5.36900 46.85500
C  47.61300 5.94000 46.61900
C  49.32900 3.14000 48.01000
C  50.12200 5.92500 45.90500
C  51.30100 6.62800 46.57000
N  44.91200 7.10900 46.58200
C  46.06800 7.87100 46.61500
C  45.69700 9.23600 46.45200
C  44.30700 9.27100 46.39700
C  43.89300 7.98200 46.43200
C  46.53700 10.50100 46.37900
C  43.22600 10.12800 46.33100
O  43.20400 11.35900 46.37700
C  41.93100 9.30100 46.24900
C  41.17100 9.60800 47.45800
O  41.28800 9.02500 48.53000
O  40.27000 10.62200 47.25000
C  39.23500 10.65700 48.29100
H  40.89500 2.43300 46.48900
H  47.31800 1.68000 46.64700
H  48.29500 7.87400 46.85700
H  39.75900 7.07100 46.97600
H  39.43600 4.43500 45.67000
H  38.66600 5.57800 48.23700
H  39.63700 4.34700 48.56200
H  38.13500 4.07200 47.54000
H  39.27400 6.10700 44.11800
H  40.51800 7.40300 44.14600
H  38.41800 8.50600 45.44200
H  37.65000 7.39800 44.33900
H  41.22600 0.48000 45.75000
H  42.08100 -0.74900 46.63000
H  42.51100 -0.27700 44.99100
H  47.08800 -0.00500 47.65500
H  47.33500 -0.51200 45.89900
H  46.93400 -1.65200 47.18300
H  49.38800 3.41000 45.96300
H  49.20800 5.73100 47.86800
H  49.21200 2.05900 47.94100
H  48.71000 3.50900 48.82800
H  50.38700 3.40500 48.00100
H  49.59600 6.57800 45.20800
H  50.57600 5.23300 45.19700
H  51.68200 7.38000 45.88000
H  52.06500 5.89900 46.84000
H  50.98900 7.20100 47.44300
H  45.84500 11.33900 46.45800
H  46.98700 10.46400 45.38700
H  47.24300 10.61100 47.20100
H  41.53800 9.65600 45.29600
H  39.53000 10.48600 49.32600
H  38.62900 9.79200 48.02000
H  38.78600 11.64600 48.38500
Mg -10.74400 37.84300 41.61200
C  -8.69500 35.02800 41.33300
C  -8.31700 39.67400 39.84600
C  -12.82400 40.51600 41.32700
C  -13.21200 35.84500 42.88400
N  -8.72000 37.37700 40.64600
C  -8.14000 36.13100 40.59800
C  -6.81400 36.22400 39.90600
C  -6.62800 37.77900 39.69700
C  -8.00600 38.28300 39.99100
C  -5.34200 38.41800 40.39800
C  -6.80500 35.44600 38.57500
C  -5.49800 34.59300 38.32600
H  -4.44200 35.15300 37.29000
N  -10.53200 39.82800 40.90400
C  -9.45300 40.33700 40.21400
C  -9.58000 41.73700 39.99300
C  -10.86800 42.10000 40.45200
C  -11.52300 40.78800 40.92600
C  -8.53900 42.56100 39.19700
C  -11.53500 43.46600 40.44800
O  -10.81000 44.45000 40.04600
C  -12.84500 43.76400 41.01900
N  -12.76400 38.13200 41.90500
C  -13.36900 39.33500 41.88600
C  -14.88100 39.23200 42.27800
C  -14.98800 37.73400 42.84300
C  -13.56900 37.15200 42.46000
C  -15.32500 40.36700 43.32900
C  -16.24300 37.00600 42.32900
C  -16.23000 36.04500 41.16800
N  -10.94500 35.84400 42.14500
C  -11.97900 35.21100 42.68900
C  -11.57000 33.78100 43.01300
C  -10.27100 33.68200 42.46700
C  -9.95100 34.97200 41.92600
C  -12.47400 32.77800 43.68000
C  -9.18900 32.80900 42.24800
O  -9.13000 31.65700 42.56800
C  -8.11400 33.64500 41.46300
C  -6.79300 33.56300 42.08700
O  -6.31800 32.49500 42.34100
O  -6.33200 34.74500 42.59400
C  -5.26000 34.73200 43.56900
H  -7.49200 40.20200 39.36200
H  -13.49100 41.37800 41.40100
H  -14.05600 35.19100 43.11500
H  -6.00200 35.95900 40.58300
H  -6.43300 38.07500 38.66600
H  -4.80800 37.73800 41.06200
H  -5.68800 39.18000 41.09700
H  -4.72500 38.97900 39.69600
H  -6.84200 36.10900 37.71100
H  -7.65200 34.76100 38.52900
H  -5.88300 33.64900 37.94100
H  -4.92700 34.35100 39.22200
H  -8.12700 43.17700 39.99700
H  -8.99600 43.13300 38.39000
H  -7.78900 41.93700 38.70900
H  -13.01100 43.36300 42.01900
H  -13.59400 43.43900 40.29700
H  -13.00300 44.84200 41.07000
H  -15.33500 39.31000 41.29000
H  -15.12500 37.76200 43.92400
H  -15.87800 41.14000 42.79600
H  -14.46900 40.84000 43.81100
H  -15.93600 39.99500 44.15100
H  -16.98000 37.76000 42.05200
H  -16.64000 36.42500 43.16100
H  -16.97200 36.38300 40.44500
H  -16.43500 35.00900 41.43800
H  -15.22600 36.07800 40.74300
H  -12.76500 32.01600 42.95700
H  -13.31300 33.32200 44.11600
H  -11.98300 32.19500 44.45900
H  -8.01800 33.23600 40.45700
H  -5.62900 34.82200 44.59100
H  -4.58400 35.57100 43.40500
H  -4.64200 33.83400 43.55700

