158

Mg -10.73400 16.85500 41.08400
C  -7.27300 16.41400 41.24400
C  -10.23400 20.14600 40.47400
C  -13.95800 16.98300 39.95900
C  -11.06000 13.42900 41.76800
N  -8.89600 18.08900 40.72200
C  -7.60000 17.65200 40.80600
C  -6.62500 18.89700 40.60100
C  -7.54900 20.14300 40.81200
C  -8.97200 19.43800 40.63000
C  -7.41600 20.70400 42.21900
C  -5.96000 18.83400 39.13800
C  -4.35200 18.65900 39.04200
H  -3.90700 17.40400 38.35500
N  -11.95900 18.31400 40.40100
C  -11.55300 19.62200 40.22900
C  -12.59800 20.42900 39.71000
C  -13.68900 19.54500 39.50900
C  -13.22500 18.18000 39.93900
C  -12.34600 21.87100 39.30700
C  -15.04000 19.85200 38.90500
O  -15.13700 21.05100 38.59500
C  -16.14500 18.96300 38.58500
N  -12.30900 15.39200 40.80900
C  -13.58400 15.71200 40.50400
C  -14.53400 14.54700 40.66900
C  -13.59500 13.44900 41.22300
C  -12.18100 14.10200 41.25000
C  -15.70700 14.91100 41.58000
C  -13.72800 11.99000 40.62200
C  -13.16900 11.76200 39.19300
N  -9.49200 15.18300 41.47300
C  -9.78300 13.90000 41.78300
C  -8.51300 13.18800 42.08400
C  -7.51500 14.10800 41.89500
C  -8.16700 15.33300 41.56100
C  -8.33400 11.72600 42.45100
C  -6.11400 14.28700 41.92300
O  -5.20800 13.44400 42.16400
C  -5.84400 15.84500 41.46100
C  -5.10100 16.56600 42.51500
O  -5.57000 17.43000 43.23700
O  -3.75400 16.23300 42.44300
C  -2.96800 17.02700 43.35400
H  -9.91900 21.17400 40.28300
H  -14.96300 16.87900 39.54400
H  -11.31000 12.40900 42.06700
H  -5.80500 19.05300 41.30200
H  -7.43800 20.94200 40.07900
H  -7.44300 19.85000 42.89500
H  -8.14300 21.44500 42.55300
H  -6.48800 21.27600 42.19300
H  -6.27200 19.78100 38.69600
H  -6.46600 18.16900 38.43900
H  -3.79000 18.84900 39.95700
H  -4.10200 19.40000 38.28300
H  -12.88500 22.31400 38.47000
H  -11.29000 21.93800 39.04500
H  -12.57700 22.50400 40.16400
H  -16.73200 18.60100 39.42900
H  -15.74500 18.12200 38.02000
H  -16.83800 19.48500 37.92500
H  -14.91100 14.24700 39.69200
H  -13.90600 13.23900 42.24700
H  -15.70600 15.98700 41.75100
H  -15.54700 14.50700 42.57900
H  -16.57900 14.51100 41.06200
H  -14.81300 11.89500 40.58000
H  -13.38800 11.24600 41.34300
H  -13.89500 11.22300 38.58400
H  -12.24600 11.18300 39.22700
H  -12.89700 12.69100 38.69100
H  -7.26200 11.55200 42.36000
H  -8.86500 11.02700 41.80600
H  -8.62600 11.52200 43.48200
H  -5.22800 15.69600 40.57400
H  -1.93000 16.73500 43.19700
H  -3.24600 16.79400 44.38200
H  -2.94500 18.11300 43.26600
Mg -5.15900 25.23100 26.87500
C  -4.15300 26.88000 29.87900
C  -7.05900 23.06300 28.89900
C  -5.58100 23.32600 24.11600
C  -2.92400 27.24800 25.19200
N  -5.64700 25.14400 29.08500
C  -5.07900 25.83200 30.13200
C  -5.54300 25.38300 31.53600
C  -6.24900 24.03200 31.16800
C  -6.44900 24.11600 29.63600
C  -5.44700 22.75200 31.55800
C  -6.51200 26.33800 32.17600
C  -6.55500 26.32500 33.71400
H  -5.84500 25.17700 34.53700
N  -6.31300 23.68800 26.59400
C  -7.06200 22.93600 27.45900
C  -7.98500 22.07500 26.66000
C  -7.52500 22.08300 25.32300
C  -6.30900 22.96900 25.32300
C  -9.15500 21.29100 27.26200
C  -8.17200 21.46700 24.09300
O  -7.72200 21.57200 22.91700
C  -9.44400 20.58500 24.18100
N  -4.36900 25.28500 24.95300
C  -4.63700 24.34200 23.99100
C  -4.08800 24.80500 22.60400
C  -3.39000 26.15100 22.94300
C  -3.62000 26.28700 24.42600
C  -3.14800 23.75100 21.98500
C  -3.75400 27.38800 22.02200
C  -2.79600 27.61100 20.77700
N  -3.83300 26.77900 27.37200
C  -3.06600 27.56400 26.54700
C  -2.45000 28.63000 27.31800
C  -2.82800 28.40600 28.67800
C  -3.62200 27.27900 28.65900
C  -1.65200 29.70500 26.78300
C  -2.71100 28.80700 30.10100
O  -2.07900 29.74300 30.58900
C  -3.52000 27.77900 30.89600
C  -2.53000 27.03500 31.71100
O  -1.62400 26.29500 31.34500
O  -2.72000 27.40900 33.01300
C  -1.89000 26.74300 33.95100
H  -7.69700 22.37700 29.46000
H  -5.73700 22.70400 23.23200
H  -2.32900 28.05200 24.75400
H  -4.70900 25.10400 32.18000
H  -7.25400 23.86700 31.55800
H  -5.97900 22.17800 32.31700
H  -4.43000 23.08800 31.76100
H  -5.39300 22.05100 30.72500
H  -7.46200 25.91900 31.84200
H  -6.35600 27.30300 31.69200
H  -7.56200 26.28600 34.12800
H  -6.23000 27.25900 34.17300
H  -8.99600 20.21300 27.26600
H  -10.07200 21.33400 26.67400
H  -9.32000 21.65900 28.27500
H  -9.51100 19.85700 24.99000
H  -9.52400 19.96400 23.28900
H  -10.33800 21.19600 24.30200
H  -4.98000 25.01200 22.01200
H  -2.30500 26.04500 22.94900
H  -2.10300 23.92700 21.73300
H  -3.55300 23.54100 20.99500
H  -3.20700 22.88600 22.64600
H  -3.82300 28.21700 22.72600
H  -4.77400 27.39500 21.63900
H  -2.31500 26.69400 20.43800
H  -2.04100 28.34100 21.06800
H  -3.29700 28.18300 19.99500
H  -1.90800 30.21200 25.85300
H  -0.64000 29.32000 26.65300
H  -1.79100 30.36800 27.63700
H  -4.30400 28.21700 31.51400
H  -0.82500 26.97000 33.89100
H  -2.07000 25.67000 33.89400
H  -2.18900 26.89000 34.98800

