158

Mg 24.83500 -5.26700 46.71400
C  27.27300 -3.22700 45.38000
C  22.64800 -4.11500 44.43500
C  22.76500 -7.69900 47.65900
C  27.34200 -6.58000 48.79500
N  25.03900 -3.94200 45.00500
C  26.07600 -3.11800 44.66700
C  25.71900 -2.12500 43.54000
C  24.15700 -2.18700 43.57800
C  23.88600 -3.46200 44.44300
C  23.46200 -0.95000 44.16300
C  26.36200 -2.45900 42.17300
C  26.61900 -1.15100 41.24200
H  26.02500 -1.15100 39.81300
N  22.97200 -5.85400 46.08300
C  22.16900 -5.19200 45.24200
C  20.91800 -5.95400 45.10000
C  20.94300 -7.04600 45.97900
C  22.27600 -6.95200 46.58800
C  19.96700 -5.66000 44.07300
C  19.76900 -8.09000 46.20700
O  18.77100 -8.02200 45.48500
C  19.89100 -9.24100 47.13500
N  25.05000 -6.89300 48.06500
C  23.96700 -7.70800 48.27800
C  24.44600 -8.91000 49.15800
C  25.89800 -8.54200 49.60000
C  26.10300 -7.27000 48.81900
C  23.50200 -9.23900 50.42400
C  26.84400 -9.75200 49.21000
C  28.11600 -9.83400 50.11300
N  26.84900 -4.91900 47.12500
C  27.72700 -5.55500 47.98600
C  28.98600 -4.91200 47.91000
C  28.86800 -3.96600 46.94100
C  27.57900 -4.05300 46.46600
C  30.21600 -5.30000 48.74800
C  29.57700 -2.98000 46.18600
O  30.68200 -2.39500 46.32600
C  28.57500 -2.38700 45.10900
C  28.33600 -0.96200 45.41900
O  27.49600 -0.46900 46.18300
O  29.26900 -0.17100 44.76200
C  28.93800 1.18500 44.89800
H  21.79900 -3.61100 43.96700
H  22.08400 -8.43700 48.08800
H  28.06000 -6.90000 49.55200
H  26.12000 -1.15100 43.82200
H  23.86000 -2.30400 42.53500
H  24.06300 -0.38200 44.87300
H  22.72900 -1.30500 44.88800
H  23.11900 -0.28200 43.37300
H  25.63900 -3.08100 41.64400
H  27.26400 -3.03700 42.37500
H  27.70200 -1.21300 41.14200
H  26.48300 -0.19100 41.73900
H  20.27100 -4.98600 43.27100
H  19.10500 -5.19100 44.54700
H  19.66400 -6.50900 43.46100
H  19.98400 -8.90400 48.16800
H  20.77100 -9.80700 46.83000
H  18.98600 -9.82200 46.96000
H  24.51500 -9.74700 48.46300
H  25.99000 -8.27800 50.65300
H  22.43800 -9.07100 50.26100
H  23.89000 -8.88300 51.37900
H  23.55900 -10.32000 50.55000
H  27.19900 -9.62800 48.18700
H  26.37100 -10.73300 49.25400
H  28.03000 -10.65700 50.82200
H  28.26900 -8.90100 50.65500
H  28.98900 -9.83100 49.46100
H  30.44000 -6.31700 48.42500
H  29.84200 -5.40200 49.76600
H  31.18300 -4.79800 48.72100
H  28.81700 -2.50100 44.05200
H  28.96800 1.45600 45.95400
H  27.92300 1.37900 44.55100
H  29.57300 1.83300 44.29400
Mg 40.60500 8.77400 30.31600
C  42.88100 10.20900 32.67400
C  38.61600 8.05600 32.94000
C  38.41800 7.80000 28.09900
C  42.94700 9.56000 27.90300
N  40.77600 9.02600 32.62600
C  41.71800 9.72800 33.30800
C  41.39500 9.78300 34.82000
C  40.04200 8.99400 34.85800
C  39.78700 8.68100 33.41800
C  39.97100 7.79500 35.86900
C  41.40600 11.27300 35.39600
C  40.51200 11.62300 36.57500
H  40.96100 12.67300 37.62000
N  38.83600 7.88100 30.49800
C  38.13800 7.66400 31.62900
C  36.83900 7.11800 31.37000
C  36.72000 7.07900 29.93200
C  37.94900 7.57000 29.45000
C  35.85500 6.81900 32.47400
C  35.54700 6.67200 29.03000
O  35.69000 6.54500 27.80000
C  34.19900 6.50700 29.54800
N  40.76700 8.45300 28.28100
C  39.66400 8.20100 27.56400
C  40.06100 8.20400 25.99800
C  41.43400 8.93300 25.99200
C  41.73300 9.00600 27.51300
C  39.92700 6.77800 25.30500
C  41.45100 10.24100 25.24500
C  40.47500 11.36600 25.64600
N  42.61300 9.49800 30.24900
C  43.31400 9.86300 29.18000
C  44.54100 10.45100 29.60100
C  44.36800 10.70700 30.94900
C  43.17700 10.06100 31.31900
C  45.66800 10.85600 28.68200
C  44.94400 11.41100 32.02100
O  45.96300 12.04400 32.01900
C  44.04600 11.02500 33.33400
C  44.90700 10.16500 34.12700
O  45.27600 9.03300 33.83000
O  45.11600 10.81200 35.32700
C  45.79400 9.91400 36.34200
H  37.93600 7.83400 33.76500
H  37.73200 7.60400 27.27200
H  43.73600 9.89900 27.22800
H  42.12800 9.11400 35.27100
H  39.34100 9.75500 35.20100
H  40.88000 7.58900 36.43300
H  39.76200 6.80600 35.45900
H  39.22600 8.04300 36.62500
H  41.24200 11.90800 34.52600
H  42.40500 11.52400 35.75400
H  40.36200 10.67300 37.09000
H  39.62900 12.02900 36.08100
H  34.95200 7.40100 32.29200
H  36.18900 6.95200 33.50300
H  35.57500 5.76800 32.41100
H  33.72400 7.41400 29.91900
H  34.07300 5.77400 30.34500
H  33.60500 6.04500 28.75800
H  39.41200 8.95400 25.54700
H  42.20900 8.34500 25.50000
H  39.04200 6.62200 24.68800
H  40.14600 5.93100 25.95600
H  40.74800 6.67300 24.59600
H  41.32300 10.06600 24.17700
H  42.44000 10.61200 25.51100
H  40.98600 12.32300 25.54400
H  40.15600 11.20900 26.67700
H  39.63500 11.43200 24.95500
H  45.38500 10.77300 27.63300
H  46.49400 10.18000 28.90700
H  45.94900 11.89100 28.87700
H  43.74600 11.96000 33.80700
H  45.13000 9.62700 37.15800
H  46.53200 10.59500 36.76600
H  46.21400 8.96600 36.00500

