158

Mg 50.64700 45.10700 42.51900
C  47.34300 45.71800 41.33400
C  50.17300 41.84500 41.32200
C  53.76800 44.73500 42.88700
C  50.79300 48.53200 43.16100
N  48.92300 43.95200 41.44900
C  47.65200 44.40000 41.15100
C  46.81900 43.28100 40.47000
C  47.57200 41.99100 41.01100
C  49.03000 42.61100 41.23100
C  47.08300 41.26400 42.31100
C  46.59600 43.45300 38.95400
C  45.17100 43.31700 38.48000
H  44.84700 42.33700 37.33400
N  51.81900 43.45500 42.25600
C  51.44900 42.19300 41.82800
C  52.60400 41.36300 41.84700
C  53.66300 42.13400 42.39600
C  53.13600 43.52600 42.52700
C  52.53100 39.90500 41.45700
C  55.01900 41.62500 42.69700
O  55.21600 40.41800 42.72800
C  56.25500 42.52400 43.04800
N  52.07800 46.47500 42.78400
C  53.38200 46.04000 43.04800
C  54.26100 47.23800 43.38200
C  53.30900 48.39100 43.65100
C  51.92300 47.73200 43.24900
C  55.19600 46.93300 44.59800
C  53.48400 49.73600 42.90200
C  53.26700 51.06100 43.71600
N  49.40100 46.79200 42.32200
C  49.61100 48.12300 42.66900
C  48.46400 48.92800 42.37100
C  47.52800 48.01900 41.83100
C  48.13400 46.72300 41.84300
C  48.17900 50.43800 42.68600
C  46.20200 47.87600 41.37200
O  45.27800 48.70700 41.25600
C  46.07700 46.41800 40.95600
C  44.88700 45.88200 41.71600
O  44.96300 45.28500 42.78600
O  43.69800 46.13000 41.13400
C  42.55900 45.34700 41.62500
H  49.87300 40.83100 41.04900
H  54.85800 44.72700 42.95800
H  50.75200 49.60200 43.37200
H  45.87000 43.38800 40.99600
H  47.69600 41.23900 40.23200
H  47.81500 41.35600 43.11300
H  46.96900 40.18600 42.19800
H  46.05600 41.60900 42.43000
H  47.15300 42.57900 38.61600
H  47.03500 44.37500 38.57500
H  44.85500 44.30800 38.15400
H  44.61500 43.06800 39.38400
H  53.32300 39.54500 40.80100
H  51.63700 39.57100 40.93000
H  52.44100 39.42100 42.43000
H  56.20900 42.99400 44.03100
H  56.32900 43.23800 42.22800
H  57.11700 41.85600 43.07800
H  54.86100 47.30600 42.47400
H  53.29200 48.57400 44.72500
H  55.01600 46.04100 45.19800
H  55.13900 47.83800 45.20300
H  56.24000 46.87100 44.29000
H  52.74900 49.68900 42.09800
H  54.51300 49.65900 42.55100
H  52.98300 50.82000 44.74000
H  52.40800 51.64000 43.37900
H  54.12200 51.73300 43.78900
H  47.16400 50.56300 43.06100
H  48.27100 50.99300 41.75300
H  48.86500 50.86100 43.42000
H  45.93300 46.31400 39.88000
H  41.72800 45.32400 40.92100
H  42.12400 45.65300 42.57700
H  42.97200 44.35200 41.79500
Mg -2.24500 35.38100 27.31900
C  -4.06800 33.45700 29.54200
C  -1.32000 37.45000 29.86500
C  -0.57800 37.13200 25.10500
C  -3.45100 33.24700 24.72200
N  -2.71000 35.49800 29.36400
C  -3.31700 34.55100 30.13000
C  -3.17300 34.75400 31.59900
C  -2.60800 36.11500 31.69000
C  -2.16600 36.38200 30.27400
C  -3.64400 37.15600 32.29200
C  -2.55200 33.60400 32.43200
C  -3.27100 33.04900 33.60900
H  -2.48800 32.51600 34.82000
N  -1.20500 37.09500 27.46400
C  -0.87000 37.78200 28.57300
C  -0.02200 38.93500 28.27900
C  0.21200 38.86800 26.88200
C  -0.52600 37.65700 26.42100
C  0.30300 40.01400 29.28900
C  1.01900 39.75400 26.04100
O  1.13500 39.56700 24.81000
C  1.74300 40.95200 26.68500
N  -2.02300 35.26700 25.27300
C  -1.20900 36.02700 24.55500
C  -1.15000 35.68400 23.03900
C  -2.05300 34.44700 23.00300
C  -2.54900 34.23100 24.44600
C  -1.62500 36.79000 22.02700
C  -1.28200 33.13100 22.46500
C  -1.76200 32.55100 21.09500
N  -3.64600 33.84900 27.08600
C  -3.97300 33.01300 26.02500
C  -4.92500 31.98300 26.41200
C  -4.91800 32.05800 27.78100
C  -4.19000 33.22500 28.18500
C  -5.56100 30.93200 25.55200
C  -5.32500 31.41900 28.94800
O  -5.91300 30.36100 29.10500
C  -4.88200 32.33400 30.20200
C  -6.20200 32.83600 30.89500
O  -7.11600 33.45100 30.24000
O  -6.27600 32.60600 32.18500
C  -7.46200 32.91700 32.88200
H  -0.99600 37.92900 30.79200
H  -0.12700 37.72800 24.30900
H  -3.77300 32.46400 24.03200
H  -4.21600 34.81900 31.90900
H  -1.67600 36.07500 32.25300
H  -3.23300 38.16200 32.37800
H  -3.89700 36.98400 33.33800
H  -4.59000 37.06400 31.75800
H  -1.63400 33.98400 32.88100
H  -2.31000 32.79200 31.74700
H  -3.73400 32.12400 33.26400
H  -4.08400 33.68700 33.95600
H  0.03100 39.85700 30.33200
H  -0.11200 40.94000 28.88900
H  1.39000 40.08900 29.30100
H  2.78600 40.73300 26.91400
H  1.34300 41.39400 27.59800
H  1.58700 41.70100 25.90900
H  -0.13300 35.35000 22.83100
H  -2.97700 34.56700 22.43600
H  -1.12100 36.49100 21.10800
H  -1.57100 37.82100 22.37700
H  -2.68600 36.62100 21.84400
H  -1.34600 32.39200 23.26400
H  -0.21700 33.27000 22.28100
H  -0.79200 32.38500 20.62700
H  -2.45800 33.23400 20.60700
H  -2.30300 31.64200 21.35500
H  -6.43300 30.48500 26.03000
H  -4.88100 30.15900 25.19500
H  -5.88300 31.29700 24.57700
H  -4.23000 31.76500 30.86400
H  -7.15500 33.60400 33.67100
H  -7.88200 31.99400 33.28100
H  -8.28300 33.37700 32.33200

