158

Mg -12.88400 38.42000 42.84900
C  -10.98600 35.90200 41.27300
C  -11.09900 40.76000 41.15200
C  -15.18800 40.78100 43.66200
C  -15.15200 35.83900 44.02500
N  -11.22900 38.26400 41.37800
C  -10.53300 37.14300 40.89900
C  -9.22700 37.54900 40.09300
C  -9.37500 39.11600 40.06200
C  -10.65700 39.42100 40.89000
C  -8.05600 39.92100 40.47800
C  -9.06600 36.80000 38.71100
C  -7.98100 35.76300 38.64300
H  -6.77900 36.01000 37.68300
N  -13.02300 40.48100 42.61700
C  -12.23600 41.26900 41.78600
C  -12.70100 42.66600 41.89400
C  -13.86400 42.76500 42.68400
C  -14.04300 41.26900 43.02800
C  -11.88200 43.83900 41.38800
C  -14.66600 43.99900 43.05500
O  -14.29900 45.03600 42.56400
C  -15.81600 43.94500 43.99300
N  -14.91500 38.33400 43.69600
C  -15.59500 39.44900 43.96300
C  -16.90600 39.14600 44.75400
C  -16.85500 37.61000 45.00200
C  -15.59000 37.21700 44.17100
C  -17.15300 40.05800 46.01800
C  -18.25300 36.99700 44.42100
C  -18.81600 35.87100 45.19900
N  -13.02800 36.37700 42.77400
C  -13.96500 35.51500 43.34400
C  -13.50700 34.13300 43.18200
C  -12.40800 34.25400 42.31100
C  -12.13600 35.62100 42.06700
C  -14.10800 32.93300 43.65100
C  -11.35900 33.48000 41.57100
O  -11.27000 32.30500 41.41500
C  -10.37900 34.50900 40.83900
C  -9.03100 34.27000 41.29700
O  -8.39100 33.35100 40.84200
O  -8.65300 35.16700 42.28100
C  -7.40700 34.80300 43.09200
H  -10.50800 41.58300 40.74500
H  -15.99400 41.46600 43.93300
H  -15.86300 35.04100 44.24900
H  -8.39700 37.24100 40.72900
H  -9.63800 39.42900 39.05200
H  -7.41700 39.12200 40.85600
H  -8.23700 40.69500 41.22400
H  -7.69200 40.24400 39.50300
H  -8.75600 37.57500 38.01000
H  -10.02600 36.34500 38.46700
H  -8.32900 34.75700 38.40800
H  -7.54600 35.56900 39.62400
H  -10.88000 43.42800 41.25900
H  -11.91400 44.76500 41.96300
H  -12.20100 44.17100 40.40100
H  -16.59900 43.69300 43.27900
H  -15.90700 44.96000 44.38000
H  -15.69600 43.30400 44.86700
H  -17.66500 39.40600 44.01700
H  -16.71800 37.41500 46.06600
H  -16.26100 40.48000 46.48100
H  -17.61000 39.36600 46.72400
H  -17.80300 40.90200 45.78600
H  -18.21000 36.79000 43.35200
H  -19.06300 37.71600 44.54800
H  -18.32800 35.67800 46.15400
H  -18.73300 34.95000 44.62300
H  -19.87600 35.97600 45.42800
H  -13.70600 32.01500 43.22100
H  -15.14000 32.99300 43.30800
H  -14.16600 32.80600 44.73200
H  -10.41200 34.28500 39.77300
H  -7.31300 35.33900 44.03700
H  -6.49600 35.06900 42.55700
H  -7.17200 33.78700 43.40800
Mg -5.93700 25.51400 26.61700
C  -4.35900 26.95100 29.33700
C  -7.81600 23.51400 28.65100
C  -7.03300 23.82900 23.90300
C  -4.04800 27.44900 24.57300
N  -6.11000 25.29300 28.83000
C  -5.28500 25.91600 29.74400
C  -5.71100 25.48800 31.13000
C  -6.76200 24.27600 30.89600
C  -6.97600 24.37700 29.39700
C  -6.18000 22.99000 31.39800
C  -6.45400 26.72500 31.82900
C  -6.25200 26.89900 33.30500
H  -5.80400 25.69800 34.16800
N  -7.37100 24.03300 26.30700
C  -8.02600 23.37300 27.25700
C  -8.88000 22.30900 26.61600
C  -8.47300 22.31700 25.23300
C  -7.61700 23.44500 25.08200
C  -9.90400 21.46400 27.47500
C  -8.92100 21.30800 24.18100
O  -8.63500 21.29400 22.99800
C  -9.86900 20.19300 24.51000
N  -5.63800 25.71100 24.50100
C  -6.24100 24.90900 23.58300
C  -5.78100 25.16600 22.17300
C  -4.87100 26.39100 22.31200
C  -4.77500 26.55500 23.84900
C  -5.29200 23.98400 21.37200
C  -5.38300 27.73000 21.63800
C  -4.43900 28.55500 20.71500
N  -4.58100 26.96300 26.82600
C  -3.85900 27.59900 25.94200
C  -2.90500 28.45900 26.54100
C  -3.01200 28.21900 27.91500
C  -4.08700 27.29400 28.04000
C  -1.97300 29.48000 25.88600
C  -2.58900 28.58400 29.21600
O  -1.74300 29.36800 29.61600
C  -3.43600 27.76400 30.17800
C  -2.63700 26.94700 31.07400
O  -1.86500 25.96900 30.80000
O  -2.62200 27.51700 32.28400
C  -1.90000 26.76500 33.34700
H  -8.24800 22.79700 29.35200
H  -7.32100 23.27500 23.00800
H  -3.35300 28.10800 24.04900
H  -4.81600 25.13200 31.63800
H  -7.72300 24.41900 31.38900
H  -5.65800 22.57600 30.53500
H  -7.07800 22.40500 31.59800
H  -5.58300 23.08800 32.30400
H  -7.50800 26.73800 31.55300
H  -6.03200 27.58600 31.31000
H  -7.22900 27.16300 33.70900
H  -5.52200 27.69500 33.45200
H  -10.46700 22.06500 28.18900
H  -9.25300 20.84800 28.09600
H  -10.53600 20.85500 26.83000
H  -9.58800 19.62800 25.39900
H  -10.05500 19.52200 23.67200
H  -10.88200 20.57400 24.64200
H  -6.62600 25.47700 21.55800
H  -3.89000 26.13300 21.91400
H  -5.70400 24.07400 20.36700
H  -5.53700 23.03500 21.84900
H  -4.20900 24.03600 21.48700
H  -5.80900 28.37500 22.40700
H  -6.20100 27.51800 20.94900
H  -4.18700 29.47400 21.24600
H  -4.89600 28.64300 19.73000
H  -3.57500 27.94700 20.44700
H  -2.49400 29.90500 25.02800
H  -1.03200 29.14400 25.45000
H  -1.82600 30.21300 26.67900
H  -3.98700 28.45200 30.81800
H  -2.12900 25.70000 33.35400
H  -2.18500 27.08900 34.34800
H  -0.81200 26.83200 33.34500

