158

Mg 24.12000 -5.71400 45.23500
C  26.46700 -3.63900 43.97100
C  21.83700 -4.35500 43.24400
C  22.26900 -8.57500 45.58700
C  26.67900 -7.35200 47.07200
N  24.14900 -4.12800 43.89400
C  25.17800 -3.34100 43.53800
C  24.78600 -2.30500 42.45300
C  23.21600 -2.27700 42.66200
C  23.00300 -3.67700 43.27000
C  22.64200 -1.16100 43.53300
C  25.29500 -2.79300 41.01500
C  26.13400 -1.87600 40.11400
H  25.77600 -1.93000 38.62800
N  22.26200 -6.39400 44.53000
C  21.39800 -5.62300 43.77200
C  20.22000 -6.35100 43.49000
C  20.34000 -7.59500 44.17300
C  21.64700 -7.61000 44.80600
C  19.04300 -5.76300 42.80400
C  19.31200 -8.70500 44.18000
O  18.29400 -8.58700 43.48400
C  19.47600 -9.94600 44.94600
N  24.52800 -7.80100 46.10900
C  23.50100 -8.65600 46.22500
C  23.85200 -9.77000 47.27900
C  25.22100 -9.29300 47.92300
C  25.48300 -8.02900 47.02700
C  22.69200 -10.01700 48.31000
C  26.33300 -10.31700 47.86100
C  26.99100 -10.62200 49.22800
N  26.18800 -5.60400 45.51200
C  27.13500 -6.29200 46.30100
C  28.47600 -5.78100 46.08300
C  28.27300 -4.76700 45.16200
C  26.89500 -4.65900 44.88200
C  29.70600 -6.20000 46.93100
C  28.87500 -3.66300 44.38800
O  30.08400 -3.30300 44.40300
C  27.76000 -2.95200 43.54000
C  27.91400 -1.49100 43.86000
O  28.54800 -0.66100 43.25000
O  27.22700 -1.24500 45.04900
C  27.39100 0.14700 45.50100
H  21.05100 -3.91300 42.62800
H  21.66200 -9.48200 45.62300
H  27.48400 -7.68400 47.73100
H  25.19200 -1.33500 42.73900
H  22.75000 -2.18500 41.68000
H  23.43100 -0.48000 43.84900
H  22.09200 -1.57300 44.37900
H  21.97800 -0.61800 42.86000
H  24.45300 -3.23700 40.48500
H  25.88700 -3.69700 41.15500
H  27.16700 -2.19200 40.25800
H  25.92300 -0.85600 40.43500
H  18.65200 -6.46700 42.06900
H  19.24400 -4.79200 42.35200
H  18.25900 -5.62900 43.54900
H  20.31900 -10.55600 44.62100
H  18.63000 -10.60800 44.76600
H  19.37600 -9.62000 45.98100
H  24.04400 -10.68700 46.72300
H  25.09000 -8.91600 48.93700
H  22.20400 -10.97400 48.12500
H  21.94700 -9.22300 48.37100
H  23.16400 -10.24500 49.26500
H  27.01600 -9.96800 47.08700
H  25.97400 -11.24000 47.40700
H  26.20800 -10.95000 49.91200
H  27.47300 -9.69900 49.55000
H  27.61400 -11.51500 49.17000
H  30.21500 -7.04800 46.47300
H  29.34600 -6.51300 47.91100
H  30.39200 -5.38300 47.15100
H  27.97100 -3.02000 42.47300
H  26.70300 0.37000 46.31700
H  27.35800 0.97600 44.79400
H  28.38600 0.20500 45.94300
Mg -12.70900 39.44800 42.31700
C  -11.35400 36.37200 41.33800
C  -10.05700 41.08000 40.53200
C  -14.41600 42.37400 42.31000
C  -15.63700 37.83100 43.36800
N  -11.08500 38.78100 40.87600
C  -10.61700 37.44400 40.77600
C  -9.34200 37.35700 40.02100
C  -8.80500 38.80700 40.03500
C  -10.05100 39.64000 40.48200
C  -7.45400 38.92200 40.88100
C  -9.33400 36.73500 38.59500
C  -8.11200 35.92400 38.20400
H  -7.21700 36.53100 37.11200
N  -12.29600 41.43200 41.61300
C  -11.10700 41.89800 41.00000
C  -11.17100 43.31300 40.82400
C  -12.53300 43.66500 41.06600
C  -13.16900 42.47900 41.69700
C  -10.05000 44.07300 40.30000
C  -13.21300 45.02600 40.80400
O  -12.65800 45.91500 40.29000
C  -14.66400 45.20600 41.06700
N  -14.68600 40.03400 42.94300
C  -15.12200 41.29700 42.88900
C  -16.61700 41.41600 43.35200
C  -16.89700 39.98200 43.85900
C  -15.70600 39.21300 43.29300
C  -16.95700 42.49000 44.34500
C  -18.28500 39.47100 43.29700
C  -19.14100 38.50800 44.19200
N  -13.34800 37.51700 42.57000
C  -14.56300 37.03200 42.95000
C  -14.44200 35.56400 42.90100
C  -13.17400 35.30200 42.28200
C  -12.59100 36.50600 42.03600
C  -15.45300 34.61200 43.38400
C  -12.30200 34.28100 41.84800
O  -12.36400 33.06700 41.90100
C  -11.06300 34.91900 41.21700
C  -9.83600 34.53700 42.03300
O  -9.60500 34.90700 43.15800
O  -9.05000 33.70300 41.30900
C  -7.70800 33.43100 41.78600
H  -9.12600 41.57400 40.24800
H  -15.02400 43.27000 42.44700
H  -16.45300 37.36300 43.92200
H  -8.72000 36.61100 40.51600
H  -8.53900 39.22600 39.06500
H  -6.91100 37.98400 40.76400
H  -7.70400 39.08200 41.93000
H  -6.86100 39.77400 40.55000
H  -9.36400 37.54100 37.86200
H  -10.23900 36.16600 38.38300
H  -8.54400 34.95500 37.95100
H  -7.50400 35.69900 39.08000
H  -10.18000 44.34700 39.25300
H  -9.10900 43.56600 40.51700
H  -10.05100 45.06300 40.75600
H  -15.14700 44.30300 40.69400
H  -15.07500 46.06500 40.53700
H  -14.84600 45.39600 42.12500
H  -17.27000 41.61500 42.50200
H  -16.85700 39.88400 44.94400
H  -17.55000 43.20400 43.77400
H  -16.04900 42.99800 44.67200
H  -17.45500 42.03900 45.20400
H  -18.27800 38.95600 42.33600
H  -18.92300 40.33200 43.09500
H  -20.14400 38.60800 43.77700
H  -19.12000 38.83900 45.23000
H  -18.84900 37.45700 44.18400
H  -16.42000 35.01400 43.08200
H  -15.34800 34.65300 44.46800
H  -15.25500 33.60200 43.02700
H  -11.01400 34.52100 40.20300
H  -7.47100 32.37700 41.64600
H  -7.54300 33.59100 42.85200
H  -7.04500 34.08200 41.21600

