158

Mg 24.24900 -5.98700 45.06200
C  26.58700 -3.74200 43.82700
C  21.73500 -4.61400 43.24200
C  22.40100 -8.84000 45.56000
C  27.05100 -7.75600 46.62300
N  24.20600 -4.36400 43.69600
C  25.24500 -3.53600 43.37100
C  24.77500 -2.43500 42.42800
C  23.22600 -2.58700 42.51700
C  22.99800 -3.99900 43.09800
C  22.42500 -1.48600 43.23400
C  25.42300 -2.60000 40.96300
C  25.72400 -1.28200 40.30100
H  25.05000 -1.10000 38.91900
N  22.26500 -6.51500 44.67400
C  21.38200 -5.80000 43.89000
C  20.13700 -6.51800 43.81700
C  20.27000 -7.72900 44.53800
C  21.66500 -7.73900 44.94700
C  19.03900 -6.09200 42.91200
C  19.17000 -8.75000 44.62500
O  17.98800 -8.48300 44.35600
C  19.37700 -10.20900 45.16000
N  24.70000 -7.98800 45.88200
C  23.69300 -8.91200 45.95700
C  24.19300 -10.23200 46.52500
C  25.57400 -9.83500 47.12800
C  25.80300 -8.43400 46.58900
C  23.28500 -10.95600 47.61000
C  26.77800 -10.77200 46.77800
C  27.70100 -11.14500 48.01900
N  26.34300 -5.87700 45.23800
C  27.33400 -6.56400 45.97900
C  28.62200 -5.86000 45.91100
C  28.35100 -4.75000 45.06700
C  26.95400 -4.82300 44.69000
C  29.87500 -6.38100 46.58300
C  28.99700 -3.63400 44.41900
O  30.13200 -3.17000 44.42400
C  27.86800 -2.87900 43.65000
C  27.79500 -1.50000 44.08400
O  27.61100 -1.09300 45.23900
O  27.97500 -0.61100 43.00200
C  27.92300 0.79700 43.35300
H  20.91500 -4.25100 42.61800
H  21.79300 -9.73500 45.70900
H  27.94100 -8.25700 47.01100
H  24.99900 -1.45800 42.85600
H  22.73300 -2.40500 41.56300
H  21.56300 -1.12400 42.67400
H  23.02300 -0.58200 43.35300
H  22.17000 -1.77200 44.25500
H  24.63900 -3.13000 40.42300
H  26.34100 -3.17800 41.06400
H  26.78000 -1.19200 40.04900
H  25.38800 -0.45200 40.92300
H  18.62100 -6.92300 42.34300
H  19.27300 -5.21900 42.30400
H  18.27200 -5.70700 43.58500
H  18.35200 -10.57800 45.16300
H  19.83100 -10.02800 46.13400
H  20.09200 -10.70400 44.50300
H  24.25100 -10.90500 45.66900
H  25.50100 -9.74200 48.21100
H  24.04000 -11.40300 48.25700
H  22.68200 -11.73300 47.14000
H  22.59400 -10.22700 48.03400
H  27.30700 -10.30300 45.94800
H  26.38400 -11.66900 46.29900
H  27.78700 -12.22600 47.90600
H  27.20400 -10.88900 48.95500
H  28.63800 -10.58900 48.00300
H  30.02000 -7.45300 46.45200
H  29.81200 -6.24900 47.66300
H  30.70800 -5.79300 46.19800
H  28.22800 -2.84400 42.62200
H  28.73300 1.05000 44.03700
H  26.92900 1.06200 43.71500
H  28.10400 1.46500 42.51000
Mg -1.59200 34.94500 26.54400
C  -3.35600 33.44200 29.09400
C  -0.31500 37.15900 29.00100
C  -0.16500 36.78700 24.17300
C  -3.06800 32.97000 24.23300
N  -1.88900 35.30500 28.80300
C  -2.46900 34.41300 29.67000
C  -2.12400 34.74800 31.18000
C  -1.52400 36.23500 31.03400
C  -1.14800 36.19700 29.54800
C  -2.39700 37.45300 31.52900
C  -1.19900 33.76900 31.92500
C  -1.90200 32.91700 32.99200
H  -1.31800 32.92100 34.39700
N  -0.38900 36.65200 26.58400
C  0.11100 37.37000 27.69700
C  0.84400 38.57600 27.23900
C  0.86400 38.47300 25.87100
C  0.08600 37.31100 25.44100
C  1.25700 39.71500 28.10300
C  1.46900 39.42000 24.85600
O  1.31200 39.37300 23.61500
C  2.44600 40.39700 25.28800
N  -1.86000 35.05600 24.47100
C  -0.97600 35.74600 23.69200
C  -0.81200 35.15400 22.28200
C  -1.60400 33.84800 22.39300
C  -2.22900 33.97600 23.73500
C  -1.23800 36.10800 21.07800
C  -0.78600 32.53000 22.31500
C  0.17900 32.07000 23.44500
N  -2.93700 33.52200 26.59400
C  -3.46300 32.76600 25.60800
C  -4.39500 31.80600 26.11400
C  -4.40000 31.98700 27.51100
C  -3.49200 33.08900 27.76800
C  -5.02200 30.67900 25.37000
C  -4.87600 31.58900 28.83000
O  -5.70600 30.73400 29.07700
C  -4.13300 32.41800 29.87700
C  -5.25000 33.10400 30.66600
O  -5.65400 34.21600 30.44100
O  -5.58800 32.22300 31.65000
C  -6.79800 32.70100 32.40000
H  0.08000 37.93000 29.66600
H  0.39400 37.17300 23.31800
H  -3.55800 32.30000 23.52400
H  -3.12900 34.73800 31.60400
H  -0.62400 36.33800 31.63900
H  -3.27400 37.20200 32.12500
H  -2.65600 38.08800 30.68100
H  -1.77600 38.12400 32.12100
H  -0.35000 34.31000 32.34300
H  -0.70800 33.17700 31.15200
H  -1.82700 31.88200 32.65700
H  -2.94300 33.21000 33.12600
H  2.34200 39.81000 28.14900
H  0.87100 39.56800 29.11200
H  0.80400 40.64700 27.76500
H  1.95400 41.31800 25.59900
H  3.19500 40.54900 24.51000
H  2.77700 39.72000 26.07600
H  0.26300 34.98700 22.21300
H  -2.53000 33.79200 21.82000
H  -0.38100 36.10800 20.40400
H  -1.25800 37.09000 21.54900
H  -2.18000 35.78500 20.63400
H  -0.06700 32.67300 21.50900
H  -1.55900 31.80900 22.04700
H  0.49800 32.88200 24.09800
H  1.05300 31.67600 22.92700
H  -0.26800 31.22000 23.96100
H  -4.87800 29.80200 26.00000
H  -4.59500 30.64400 24.36700
H  -6.09800 30.85200 25.33700
H  -3.59600 31.72000 30.52000
H  -7.53000 33.34200 31.91000
H  -6.43700 33.25100 33.26900
H  -7.43500 31.90100 32.77700

