158

Mg 1.76500 -1.76400 44.43800
C  5.14200 -1.15300 43.85800
C  0.97900 0.83800 42.40100
C  -1.38700 -2.92200 44.22000
C  2.75300 -4.64600 46.27600
N  2.86800 -0.48500 43.25800
C  4.24000 -0.48600 43.05700
C  4.68500 0.56900 42.04100
C  3.38600 1.39500 41.85800
C  2.33200 0.53900 42.53200
C  3.41600 2.76500 42.64700
C  5.12600 -0.14800 40.71200
C  6.45700 0.32600 40.15700
H  6.52400 1.14700 38.82700
N  -0.03800 -0.94200 43.59600
C  -0.14600 0.14200 42.79700
C  -1.53900 0.33500 42.44100
C  -2.30700 -0.69800 42.89400
C  -1.25300 -1.62800 43.59600
C  -1.92200 1.59700 41.73500
C  -3.80000 -0.90600 42.79300
O  -4.40400 -0.20900 41.99600
C  -4.50600 -2.00000 43.62000
N  0.82900 -3.62900 45.08700
C  -0.50500 -3.80300 44.94900
C  -0.90100 -5.24100 45.48800
C  0.42300 -5.62700 46.31800
C  1.39000 -4.57000 45.91400
C  -2.17200 -5.39900 46.41500
C  0.97400 -7.03800 46.10600
C  0.95900 -7.86100 47.38300
N  3.55300 -2.77700 45.04800
C  3.84700 -3.88100 45.80400
C  5.22000 -4.01100 45.99300
C  5.83200 -2.99400 45.20400
C  4.76700 -2.23700 44.67400
C  5.97700 -5.09800 46.70900
C  7.08000 -2.47400 44.61600
O  8.23800 -2.87900 44.78300
C  6.70200 -1.09000 43.79800
C  7.24700 0.15400 44.44000
O  6.93000 0.61300 45.51800
O  8.05500 0.80100 43.53900
C  8.54500 2.09300 43.99600
H  0.77200 1.69700 41.76000
H  -2.42200 -3.23800 44.07600
H  3.12300 -5.44000 46.92700
H  5.48300 1.19500 42.44000
H  3.18000 1.51800 40.79500
H  3.37400 3.60500 41.95400
H  4.33400 2.82700 43.23200
H  2.61400 2.81600 43.38200
H  4.29200 -0.10900 40.01100
H  5.28100 -1.17800 41.03300
H  7.30200 -0.35800 40.23200
H  6.85500 1.03500 40.88200
H  -2.85500 1.68800 41.17900
H  -1.15900 1.80900 40.98600
H  -1.70000 2.39700 42.44100
H  -4.42800 -2.99700 43.18600
H  -5.55300 -1.70200 43.68100
H  -4.08800 -1.98600 44.62600
H  -0.98800 -5.87200 44.60300
H  0.17600 -5.36500 47.34700
H  -2.77900 -4.49800 46.33200
H  -1.88400 -5.53200 47.45800
H  -2.68300 -6.25900 45.98200
H  2.00800 -7.07700 45.76400
H  0.36000 -7.66300 45.45700
H  1.66500 -8.66400 47.16700
H  -0.04100 -8.29300 47.39500
H  1.23500 -7.18900 48.19600
H  5.54400 -5.35100 47.67600
H  7.03900 -4.85700 46.75700
H  5.89300 -6.01200 46.12100
H  6.88900 -1.18900 42.72900
H  7.67100 2.74300 44.04200
H  9.22300 2.40700 43.20200
H  8.84300 1.93100 45.03200
Mg 43.18000 42.10400 25.82100
C  41.90800 44.36300 28.36200
C  44.18200 40.00700 28.27000
C  44.44900 40.35300 23.36000
C  42.18200 44.61000 23.39400
N  43.17100 42.28500 28.09600
C  42.59800 43.25500 28.95300
C  42.69200 42.87300 30.44400
C  43.40300 41.47900 30.28200
C  43.67100 41.20000 28.79700
C  44.51100 41.32200 31.26900
C  41.27400 42.86300 31.15900
C  41.04000 42.04400 32.48500
H  40.33000 42.78800 33.58600
N  44.13300 40.38100 25.86200
C  44.45800 39.62600 26.97100
C  45.00800 38.34200 26.48600
C  45.17200 38.42300 25.06400
C  44.64900 39.78000 24.73300
C  45.35500 37.26100 27.39100
C  45.57000 37.36500 23.98100
O  45.58300 37.59600 22.76100
C  45.87600 36.01400 24.55600
N  43.35700 42.47600 23.67600
C  43.91200 41.55600 22.89900
C  43.70800 41.84900 21.43800
C  42.74100 43.06500 21.49100
C  42.67500 43.39300 22.95200
C  45.01900 42.00000 20.56800
C  41.32500 42.63600 21.04200
C  41.03000 42.41500 19.56400
N  42.40000 44.05400 25.82100
C  42.03400 44.96800 24.78100
C  41.41800 46.22900 25.27900
C  41.36800 45.97800 26.66000
C  41.85500 44.64300 26.91500
C  40.98700 47.40900 24.51100
C  40.93600 46.69600 27.85800
O  40.44900 47.75400 28.17800
C  41.18600 45.60800 28.98000
C  42.10600 46.11100 30.07500
O  43.32600 46.06200 30.03700
O  41.38400 46.55500 31.16300
C  42.06100 46.53900 32.47700
H  44.36900 39.37000 29.13700
H  44.76700 39.71900 22.52900
H  41.89500 45.34000 22.63400
H  43.28400 43.59500 31.00700
H  42.72200 40.65600 30.50000
H  44.44400 40.32400 31.70200
H  44.52600 41.92600 32.17700
H  45.54700 41.29900 30.93000
H  40.61000 42.43300 30.41000
H  40.95900 43.90600 31.17700
H  41.98100 41.61100 32.82400
H  40.32200 41.27400 32.20000
H  45.23100 37.51500 28.44400
H  46.36400 36.89500 27.20500
H  44.71200 36.41100 27.16200
H  46.25700 35.32700 23.80100
H  44.99700 35.56300 25.01700
H  46.66400 36.18100 25.29100
H  43.22100 40.97300 21.00900
H  43.12600 43.89600 20.90000
H  45.23500 43.06800 20.53700
H  44.96700 41.65900 19.53400
H  45.79500 41.46800 21.11800
H  40.68000 43.39900 21.47800
H  41.11200 41.69300 21.54600
H  40.79500 41.36300 19.40000
H  41.94200 42.72000 19.05000
H  40.19900 43.10700 19.42600
H  41.81400 47.69000 23.85800
H  40.57300 48.24200 25.07900
H  40.14400 47.31400 23.82700
H  40.33700 45.31500 29.59800
H  42.29300 47.60300 32.51600
H  42.96800 45.93600 32.53000
H  41.37100 46.34900 33.29900

