158

Mg 17.27600 -0.88000 27.89000
C  16.35100 0.83300 30.68200
C  19.44600 -2.89000 29.81900
C  18.66500 -2.16200 25.11400
C  15.52800 1.41300 25.87200
N  17.84100 -1.03400 29.97400
C  17.24700 -0.18700 30.93800
C  17.64400 -0.62600 32.32600
C  18.98200 -1.52900 31.98900
C  18.82500 -1.86400 30.50200
C  20.33900 -1.03400 32.45600
C  16.54600 -1.49300 33.08500
C  16.42000 -1.19100 34.64500
H  17.56200 -0.42900 35.35900
N  18.72800 -2.49000 27.51800
C  19.38900 -3.20300 28.44200
C  20.10100 -4.22300 27.78400
C  19.92500 -4.05200 26.38000
C  19.12700 -2.87500 26.24100
C  20.84200 -5.24000 28.52500
C  20.52000 -4.80700 25.14700
O  20.25500 -4.63900 24.01000
C  21.41600 -6.10700 25.38400
N  17.27100 -0.32200 25.81900
C  17.79900 -1.09300 24.92900
C  17.37500 -0.69000 23.45300
C  16.20500 0.32900 23.67600
C  16.28000 0.46100 25.22200
C  18.70100 -0.10400 22.72500
C  14.72000 -0.22400 23.29000
C  13.92400 0.52500 22.20300
N  16.18300 0.74100 28.10500
C  15.44200 1.53800 27.26900
C  14.59200 2.38000 28.04100
C  14.90600 2.10800 29.39000
C  15.88700 1.13900 29.40100
C  13.76600 3.53100 27.55100
C  14.56600 2.43900 30.75300
O  13.66600 3.16300 31.24300
C  15.43900 1.57400 31.67700
C  16.21800 2.55300 32.59600
O  17.32200 2.96100 32.41200
O  15.42300 2.68900 33.72700
C  15.92400 3.62000 34.76900
H  20.07100 -3.55500 30.41700
H  18.99800 -2.62500 24.18200
H  14.92400 2.14000 25.32700
H  18.07000 0.23200 32.84500
H  18.88400 -2.51600 32.44200
H  21.06900 -1.29200 31.68800
H  20.65600 -1.58800 33.34000
H  20.32300 0.02400 32.71700
H  16.65800 -2.57300 32.98700
H  15.58200 -1.20800 32.66500
H  16.30900 -2.11300 35.21600
H  15.53800 -0.56400 34.77200
H  21.85700 -4.86600 28.66100
H  20.89800 -6.21400 28.04000
H  20.37700 -5.44400 29.49000
H  21.71100 -6.76900 24.56900
H  20.91000 -6.79200 26.06500
H  22.41200 -5.80900 25.71100
H  17.11000 -1.59900 22.91300
H  16.33500 1.27700 23.15200
H  18.55600 0.90100 22.32800
H  19.05000 -0.71100 21.89000
H  19.55600 -0.01800 23.39600
H  14.12200 -0.27000 24.20000
H  14.90200 -1.21200 22.86800
H  13.29300 -0.14000 21.61400
H  14.61400 0.93900 21.46700
H  13.33200 1.33100 22.63800
H  13.51600 4.34400 28.23300
H  12.86100 3.22000 27.02900
H  14.35900 3.96800 26.74700
H  14.93600 0.80300 32.26000
H  16.31800 4.51500 34.28800
H  16.74100 3.20700 35.36100
H  15.13800 3.91200 35.46500
Mg 34.98800 48.21800 26.24100
C  35.80100 46.18500 29.07900
C  33.71000 50.48500 28.38100
C  34.46800 50.25700 23.59000
C  35.95100 45.58500 24.22200
N  34.78900 48.32200 28.48700
C  35.22200 47.42600 29.45100
C  35.23800 48.03300 30.79200
C  34.13200 49.18300 30.59600
C  34.17600 49.35900 29.08100
C  32.71700 48.81400 31.15500
C  36.63900 48.52700 31.24500
C  36.86200 48.55100 32.73200
H  35.75300 48.85700 33.64700
N  34.22200 50.18400 26.01700
C  33.70300 50.91300 27.03000
C  33.41000 52.25800 26.46000
C  33.60900 52.18800 25.02500
C  34.13300 50.85900 24.80200
C  32.84700 53.35200 27.34500
C  33.43000 53.26200 23.99200
O  33.87500 53.14400 22.83000
C  32.78600 54.52500 24.47900
N  35.18000 48.01700 24.19900
C  34.88800 48.95200 23.26200
C  35.12800 48.35500 21.89300
C  35.64700 46.88400 22.10100
C  35.55900 46.79500 23.61300
C  33.90500 48.63500 20.97000
C  37.08200 46.65600 21.50100
C  37.16700 46.20800 20.05400
N  35.57100 46.16000 26.51900
C  36.06900 45.32600 25.59000
C  36.66700 44.16100 26.30900
C  36.56500 44.47700 27.63000
C  35.84300 45.70600 27.76400
C  37.22400 42.81500 25.74700
C  36.80500 43.97400 28.98700
O  37.27000 42.86700 29.36700
C  36.40000 45.12600 29.98600
C  35.46300 44.73700 31.06700
O  34.39000 44.18900 30.96200
O  35.95200 45.07900 32.30500
C  35.12300 44.53500 33.42200
H  33.15500 51.13000 29.06500
H  34.13700 50.80800 22.70700
H  36.23300 44.72400 23.61200
H  34.77000 47.36700 31.51700
H  34.49500 49.98600 31.23700
H  32.82200 47.77300 31.46000
H  31.98600 48.77100 30.34700
H  32.31700 49.56000 31.84200
H  36.83000 49.50000 30.79000
H  37.41100 47.97500 30.70800
H  37.66900 49.23800 32.98600
H  37.32000 47.60100 33.00900
H  32.73800 52.91600 28.33800
H  31.80900 53.60000 27.12500
H  33.50600 54.21500 27.44100
H  33.32000 54.83300 25.37800
H  31.76300 54.39400 24.83300
H  32.86900 55.24300 23.66400
H  35.86800 48.96700 21.37900
H  34.98100 46.14600 21.65500
H  33.75000 49.70500 20.83300
H  33.01900 48.14100 21.36900
H  34.07500 48.15600 20.00600
H  37.46100 45.85700 22.13900
H  37.72900 47.52900 21.58100
H  36.25200 46.40100 19.49500
H  37.39200 45.15300 20.20800
H  38.00700 46.71700 19.58100
H  37.75700 42.26800 26.52500
H  37.80500 42.92900 24.83200
H  36.33700 42.19600 25.61200
H  37.33500 45.48700 30.41600
H  34.89500 43.49800 33.17500
H  34.21300 45.13000 33.49700
H  35.76200 44.60000 34.30300

