158

Mg 0.74000 8.04300 26.06900
C  1.39800 10.26400 28.53500
C  1.21900 5.49100 28.07400
C  0.24900 6.03600 23.28700
C  0.52700 10.76600 23.77900
N  1.17700 7.99200 28.11800
C  1.34000 8.94000 29.02200
C  1.53400 8.34200 30.51100
C  1.55800 6.84500 30.25600
C  1.28400 6.75000 28.67200
C  2.91500 6.09600 30.70400
C  0.42000 8.91900 31.33600
C  0.19700 8.45000 32.80800
H  1.43200 8.12500 33.58400
N  0.65200 6.04100 25.71900
C  0.89700 5.12300 26.73000
C  0.78200 3.81700 26.26300
C  0.51300 3.93700 24.81000
C  0.45800 5.40800 24.52300
C  0.99200 2.59200 27.18400
C  0.46900 2.86900 23.79100
O  0.10700 2.95100 22.63400
C  0.67600 1.54100 24.25400
N  0.48300 8.40700 23.85100
C  0.32800 7.40100 22.99200
C  -0.13700 7.82900 21.57700
C  -0.39000 9.37700 21.78800
C  0.19700 9.57000 23.23400
C  0.90500 7.52100 20.50900
C  -1.85300 9.93100 21.68300
C  -2.24100 11.01200 20.69400
N  1.08700 10.06500 26.09600
C  0.97400 11.09500 25.11100
C  1.35300 12.32100 25.66100
C  1.50900 12.12400 27.04600
C  1.35900 10.70400 27.24000
C  1.43100 13.58900 24.98100
C  1.84600 12.72400 28.34700
O  2.28100 13.84000 28.59100
C  1.58800 11.58300 29.34600
C  2.81900 11.60500 30.19700
O  4.01500 11.39700 29.92700
O  2.47600 11.85500 31.50600
C  3.65400 11.97100 32.37600
H  1.41700 4.63700 28.72600
H  -0.04400 5.29500 22.54100
H  0.25500 11.58700 23.11300
H  2.48100 8.72200 30.89400
H  0.76600 6.35900 30.82500
H  2.66000 5.25300 31.34700
H  3.59200 6.76700 31.23300
H  3.41400 5.59900 29.87200
H  -0.52900 8.76800 30.82200
H  0.56400 9.99900 31.36700
H  -0.55300 7.66300 32.88900
H  -0.21300 9.35200 33.26200
H  1.04900 2.79700 28.25300
H  1.90200 2.08700 26.85900
H  0.19400 1.88100 26.97300
H  1.63900 1.46300 24.76000
H  0.68800 0.82200 23.43400
H  -0.09400 1.21500 24.95300
H  -1.08300 7.34000 21.34600
H  0.27100 10.01600 21.20200
H  0.89800 6.49900 20.12900
H  1.93700 7.69900 20.81100
H  0.79500 8.20100 19.66400
H  -2.13800 10.25200 22.68400
H  -2.47300 9.03700 21.60100
H  -3.15900 10.79600 20.14700
H  -1.52100 11.15600 19.88900
H  -2.20200 11.96100 21.22900
H  0.49000 14.11300 24.81600
H  1.84200 13.38200 23.99300
H  2.11800 14.19500 25.57200
H  0.66000 11.80800 29.87100
H  4.28100 11.08800 32.24900
H  3.41800 12.00000 33.44000
H  4.23100 12.89000 32.27700
Mg 43.90200 3.28200 47.03300
C  42.07200 6.21600 46.50600
C  41.06600 1.45600 46.54800
C  45.85100 0.51000 47.09100
C  46.87500 5.07300 46.94700
N  41.79100 3.89200 46.52000
C  41.27500 5.09700 46.43500
C  39.73700 5.04100 46.36700
C  39.47800 3.50600 46.63400
C  40.86500 2.87700 46.52400
C  38.91500 3.05700 48.01400
C  39.09500 5.36900 44.98900
C  39.49100 4.63700 43.77000
H  39.76800 5.49300 42.63600
N  43.49600 1.28500 46.83200
C  42.31000 0.77200 46.69400
C  42.38200 -0.63900 46.69800
C  43.76100 -1.04100 46.86200
C  44.45100 0.28700 46.94200
C  41.28000 -1.68200 46.59400
C  44.30500 -2.37700 46.88400
O  43.57000 -3.32500 46.82100
C  45.80900 -2.64700 46.79300
N  46.10700 2.78100 46.74900
C  46.56500 1.62400 47.03600
C  48.14900 1.57800 47.26200
C  48.44000 3.04700 47.05000
C  47.09300 3.66800 46.89700
C  48.68300 0.94200 48.54900
C  49.33700 3.14900 45.72200
C  50.18300 4.49900 45.47500
N  44.42300 5.23100 46.83100
C  45.68000 5.81100 46.89700
C  45.44800 7.24300 47.01600
C  44.12300 7.51500 46.86400
C  43.48400 6.17500 46.75600
C  46.53300 8.27000 47.02100
C  43.02400 8.49600 46.74500
O  43.06600 9.71600 46.88400
C  41.70700 7.66700 46.32700
C  40.68600 8.03500 47.29200
O  40.48300 7.68000 48.41000
O  39.78100 8.79700 46.59100
C  38.48300 9.02500 47.26300
H  40.14800 0.88600 46.39400
H  46.46800 -0.36400 47.30600
H  47.77400 5.61800 47.24500
H  39.25600 5.67100 47.11500
H  38.80100 3.15800 45.85300
H  39.21800 2.03400 48.23900
H  37.83300 3.18300 48.00800
H  39.31000 3.67500 48.82000
H  39.43400 6.39500 44.84500
H  38.02600 5.49200 45.16600
H  38.69600 3.97600 43.42400
H  40.40400 4.04400 43.82300
H  41.39800 -2.17800 45.63100
H  40.23900 -1.36000 46.59200
H  41.42800 -2.52100 47.27400
H  46.47200 -2.60100 47.65800
H  46.20100 -1.97100 46.03400
H  45.97600 -3.60600 46.30300
H  48.57100 1.02700 46.42200
H  49.08600 3.46000 47.82500
H  49.50300 1.58500 48.86900
H  49.10400 -0.04600 48.36400
H  47.95100 0.94700 49.35600
H  48.73600 2.97100 44.83000
H  50.08000 2.35200 45.73100
H  49.60500 5.39100 45.23200
H  50.86700 4.29200 44.65100
H  50.81500 4.73800 46.33000
H  47.46700 7.87200 47.42000
H  46.26500 9.02300 47.76300
H  46.56300 8.72800 46.03200
H  41.51300 7.83500 45.26700
H  38.38400 10.10200 47.12100
H  38.33100 8.82600 48.32400
H  37.77100 8.43300 46.68900

