158

Mg 36.53000 49.66000 25.51200
C  36.73700 47.86000 28.37800
C  35.60000 52.48000 27.38100
C  36.12900 51.37000 22.61900
C  37.76800 46.97900 23.69400
N  36.08400 50.13100 27.66600
C  36.37600 49.18000 28.70500
C  36.59200 49.86800 30.01800
C  36.10100 51.31700 29.68600
C  35.80400 51.35700 28.19500
C  34.75300 51.68200 30.51300
C  38.08300 49.77400 30.50800
C  38.36300 49.70600 32.00600
H  37.17700 49.55300 32.96700
N  35.92600 51.69000 25.06700
C  35.61300 52.63900 25.99600
C  35.18500 53.85900 25.26800
C  35.31300 53.62400 23.89600
C  35.73800 52.17700 23.80800
C  34.80100 55.15600 25.97800
C  35.07400 54.49500 22.73000
O  35.31000 54.12100 21.55200
C  34.77300 55.93300 22.85800
N  36.78600 49.19300 23.42500
C  36.58100 50.05500 22.42900
C  36.90800 49.44800 21.06800
C  37.67800 48.26000 21.46600
C  37.39400 48.12100 22.93700
C  35.64800 49.15700 20.23000
C  39.16500 48.29800 21.10100
C  40.15800 47.09100 21.35700
N  36.99000 47.69800 25.87200
C  37.43100 46.75600 25.05300
C  37.65300 45.53500 25.81800
C  37.48000 45.88800 27.19400
C  36.99400 47.25400 27.13300
C  37.97800 44.30900 25.18900
C  37.48300 45.46000 28.61000
O  37.64400 44.39100 29.17200
C  37.00700 46.71900 29.40600
C  35.79900 46.37300 30.22900
O  34.63200 46.63500 29.92700
O  36.17000 45.73400 31.33800
C  35.19400 45.39900 32.38000
H  35.44400 53.42200 27.91200
H  36.04400 51.80300 21.62100
H  38.20700 46.19800 23.06900
H  35.86200 49.38500 30.66800
H  36.83000 52.03800 30.05800
H  34.50000 50.96600 31.29400
H  33.94300 51.83400 29.80000
H  34.76100 52.57300 31.14000
H  38.58100 50.64300 30.07800
H  38.52100 48.94100 29.95700
H  39.03900 50.48000 32.36700
H  38.88800 48.78600 32.26300
H  35.51600 55.94300 25.74100
H  34.76300 55.08700 27.06500
H  33.83200 55.54300 25.66100
H  34.59800 56.37700 21.87800
H  35.64100 56.42200 23.30000
H  33.89600 56.04100 23.49600
H  37.46400 50.15300 20.44900
H  37.25100 47.30400 21.16300
H  34.85100 48.63800 20.76400
H  35.90900 48.61300 19.32200
H  35.30200 50.14400 19.92200
H  39.42100 49.18600 21.67900
H  39.27000 48.67200 20.08300
H  40.84800 47.00500 20.51800
H  39.58600 46.16400 21.41200
H  40.73400 47.27600 22.26400
H  37.61400 44.28200 24.16200
H  37.36000 43.52900 25.63200
H  39.06400 44.25500 25.10900
H  37.70600 47.01300 30.18900
H  35.66300 45.68000 33.32300
H  34.86000 44.36200 32.40900
H  34.26000 45.95100 32.26700
Mg -11.18300 16.38400 41.24400
C  -8.15200 14.69000 40.97400
C  -9.62500 19.21400 40.09300
C  -14.19300 17.62700 40.42700
C  -12.70600 13.45300 42.16700
N  -9.16100 16.80000 40.38100
C  -8.10400 15.97200 40.46000
C  -6.79500 16.70100 39.96600
C  -7.20100 18.12900 40.02400
C  -8.75100 18.09700 40.14100
C  -6.50000 18.99900 41.13900
C  -6.36400 16.09400 38.60900
C  -5.02200 16.55700 38.07700
H  -5.01100 17.17300 36.71100
N  -11.80900 18.26800 40.52800
C  -11.04400 19.37600 40.25900
C  -11.84200 20.51300 40.07100
C  -13.17500 20.04900 40.05600
C  -13.12600 18.59300 40.32700
C  -11.23700 21.91700 39.96500
C  -14.41100 20.90700 39.83400
O  -14.21000 22.11700 39.67400
C  -15.89600 20.39000 39.82900
N  -13.09300 15.56700 41.09600
C  -14.17300 16.33100 40.84400
C  -15.49600 15.49700 40.89800
C  -15.02600 14.31200 41.79200
C  -13.52200 14.45000 41.75100
C  -16.77500 16.29700 41.33700
C  -15.54800 12.89800 41.40400
C  -15.98200 12.07000 42.60900
N  -10.53900 14.45700 41.66000
C  -11.25700 13.38200 42.05600
C  -10.33700 12.30700 42.33700
C  -9.05700 12.82100 41.97200
C  -9.25700 14.09400 41.42400
C  -10.59400 10.92600 42.84800
C  -7.64600 12.47700 41.95200
O  -7.03900 11.51800 42.27600
C  -7.04900 13.70600 41.18800
C  -6.04800 14.27800 42.12800
O  -6.35100 14.79500 43.17700
O  -4.78400 14.23400 41.60700
C  -3.76600 14.37100 42.63700
H  -9.02600 20.09400 39.85000
H  -15.16100 17.99400 40.08000
H  -13.29000 12.64700 42.61500
H  -6.04700 16.51000 40.73500
H  -6.92300 18.47000 39.02700
H  -5.95400 18.31300 41.78700
H  -7.32300 19.52600 41.62100
H  -5.72600 19.68000 40.78700
H  -7.18800 16.28800 37.92200
H  -6.30000 15.01400 38.73900
H  -4.43900 15.63700 38.03800
H  -4.55200 17.25500 38.77100
H  -11.26900 22.32400 38.95500
H  -10.21800 22.02800 40.33500
H  -11.69700 22.76400 40.47600
H  -16.54500 21.22300 39.56100
H  -16.13200 19.89800 40.77200
H  -15.96900 19.64800 39.03400
H  -15.75900 15.07600 39.92700
H  -15.35900 14.62200 42.78200
H  -17.45000 16.60700 40.53900
H  -16.51800 17.20700 41.88000
H  -17.36800 15.63100 41.96500
H  -14.81200 12.35400 40.81200
H  -16.47800 12.99400 40.84400
H  -15.53000 11.10700 42.37300
H  -16.99300 11.67100 42.68600
H  -15.69800 12.47900 43.57900
H  -11.52500 10.88800 43.41400
H  -9.74600 10.52600 43.40400
H  -10.80800 10.22800 42.03800
H  -6.56900 13.40600 40.25600
H  -2.89900 13.80300 42.30000
H  -3.92400 13.91900 43.61600
H  -3.47200 15.37900 42.92900

