158

Mg 25.78100 0.97300 28.65600
C  27.65500 0.67800 31.58800
C  23.07000 1.69000 30.63700
C  23.97100 1.19400 25.86300
C  28.50300 -0.12600 26.81200
N  25.42000 1.08900 30.89600
C  26.34800 0.96200 31.87100
C  25.76400 1.21700 33.32300
C  24.28100 1.59700 32.97600
C  24.22100 1.44500 31.39500
C  23.31300 0.78200 33.90700
C  26.46300 2.36400 34.13200
C  25.85600 2.76600 35.46200
H  26.51200 2.18100 36.69500
N  23.78400 1.33300 28.32000
C  22.84200 1.66000 29.29000
C  21.60300 1.92700 28.58800
C  21.86900 1.86200 27.20700
C  23.25600 1.40800 27.04100
C  20.26000 2.31300 29.30500
C  20.93400 2.30600 26.08600
O  21.19800 2.05400 24.92400
C  19.67200 3.06000 26.42600
N  26.15300 0.43600 26.71300
C  25.29100 0.77600 25.78700
C  25.90600 0.54000 24.39900
C  27.37000 0.16000 24.67800
C  27.36000 0.18400 26.15800
C  25.26000 -0.41600 23.42600
C  28.33600 1.21700 23.97300
C  28.77300 2.50700 24.67500
N  27.68400 0.45600 29.03400
C  28.64500 -0.00100 28.18600
C  29.82300 -0.30800 28.89600
C  29.57100 0.01900 30.26000
C  28.20100 0.38900 30.27900
C  31.10600 -0.81600 28.26900
C  30.11200 0.11700 31.62900
O  31.24600 -0.08500 32.02200
C  28.87300 0.48000 32.55900
C  28.60300 -0.59300 33.53700
O  27.82000 -1.53800 33.40000
O  29.47200 -0.59300 34.58300
C  29.69200 -1.82900 35.40300
H  22.22400 2.01200 31.24900
H  23.46800 1.17700 24.89400
H  29.25500 -0.54100 26.13700
H  25.83200 0.30400 33.91500
H  24.06800 2.63000 33.25100
H  23.11600 1.21500 34.88700
H  23.75900 -0.20600 34.02300
H  22.34400 0.59700 33.44300
H  26.64000 3.15900 33.40800
H  27.45700 1.99100 34.37700
H  24.79900 2.53900 35.32100
H  25.94600 3.84000 35.62700
H  20.24100 2.13700 30.38100
H  19.48300 1.67100 28.89000
H  20.09200 3.36500 29.07400
H  19.79800 4.02100 26.92600
H  19.02500 2.33700 26.92300
H  19.24400 3.32900 25.46100
H  25.77400 1.48600 23.87300
H  27.64800 -0.82800 24.31100
H  24.67100 -1.10500 24.03100
H  25.92400 -0.96800 22.76000
H  24.62500 0.11200 22.71500
H  27.99400 1.50500 22.97900
H  29.27900 0.71300 23.75900
H  28.10300 2.88200 25.44900
H  28.91900 3.32200 23.96700
H  29.75200 2.30000 25.11000
H  31.76600 -0.04400 27.87500
H  30.88900 -1.55600 27.49800
H  31.66900 -1.27100 29.08400
H  29.20800 1.45400 32.91700
H  28.96600 -1.98300 36.20100
H  30.64600 -1.80700 35.93000
H  29.57900 -2.64200 34.68600
Mg 41.86600 40.52800 26.90100
C  41.46300 42.82200 29.57300
C  42.99600 38.26800 29.03100
C  42.74300 38.67000 24.25400
C  41.07600 43.24300 24.72900
N  42.24600 40.70200 29.02200
C  41.91500 41.62100 30.02500
C  42.03300 41.16100 31.38400
C  42.81800 39.83600 31.07400
C  42.57700 39.54700 29.57200
C  44.29200 39.91900 31.58500
C  40.64200 41.06400 32.14100
C  40.41600 41.96600 33.44100
H  39.64000 41.32200 34.68100
N  42.80900 38.71000 26.65900
C  43.20000 37.88100 27.68200
C  43.59300 36.51700 27.16300
C  43.34100 36.60500 25.73800
C  42.88700 38.02900 25.49600
C  44.00200 35.29900 28.03200
C  43.60500 35.58100 24.70000
O  43.42900 35.81100 23.49200
C  44.11900 34.16800 25.03300
N  41.98700 40.95900 24.87500
C  42.35400 39.99500 23.93700
C  41.83700 40.33600 22.54800
C  41.31800 41.83900 22.68100
C  41.41500 42.04700 24.18700
C  42.96100 40.14700 21.49400
C  39.84900 42.00500 22.23500
C  39.67800 42.32600 20.77500
N  41.40800 42.68900 27.08500
C  40.99800 43.54000 26.09600
C  40.62100 44.76200 26.71900
C  40.72100 44.57200 28.13500
C  41.30900 43.28800 28.27800
C  40.18700 45.88300 25.94400
C  40.49400 45.19200 29.42100
O  40.04700 46.26400 29.73700
C  41.00100 44.06700 30.43100
C  42.10000 44.65800 31.15100
O  43.17900 44.95100 30.69100
O  41.63400 45.01900 32.34900
C  42.57600 45.63500 33.26900
H  43.26600 37.58100 29.83600
H  42.80300 38.06900 23.34400
H  40.80700 44.11400 24.12700
H  42.59700 41.97200 31.84400
H  42.23100 39.08800 31.60600
H  44.91000 39.66800 30.72300
H  44.47600 39.11700 32.30000
H  44.65400 40.91800 31.82900
H  40.38800 40.09800 32.57700
H  39.90100 41.36300 31.40000
H  39.82700 42.85400 33.21200
H  41.41100 42.21200 33.81300
H  45.01800 35.06900 27.70900
H  43.40200 34.42700 27.77100
H  43.84500 35.54800 29.08100
H  44.34400 33.54000 24.17100
H  43.31300 33.63900 25.54200
H  45.08600 34.20700 25.53300
H  41.03900 39.62600 22.32800
H  41.94200 42.56100 22.15500
H  44.02100 40.13000 21.74800
H  42.89200 40.96000 20.77100
H  42.82400 39.17100 21.03000
H  39.37500 42.81100 22.79700
H  39.29600 41.10400 22.49800
H  39.25900 43.29400 20.49800
H  39.03800 41.63400 20.22700
H  40.66400 42.38600 20.31400
H  40.68300 45.99900 24.98000
H  40.36300 46.77200 26.55100
H  39.11400 45.74600 25.81100
H  40.17200 43.90500 31.12000
H  43.06800 44.99400 34.00000
H  41.91600 46.23400 33.89600
H  43.30000 46.24200 32.72600

