158

Mg -1.15000 17.60200 27.99700
C  -1.77300 15.29300 30.48600
C  -1.47800 20.11900 30.41500
C  -1.00000 19.80400 25.53700
C  -1.37400 15.00400 25.58700
N  -1.39800 17.71300 30.27600
C  -1.68900 16.56100 31.04700
C  -1.83200 16.99000 32.51800
C  -2.06900 18.53300 32.44000
C  -1.60700 18.87000 30.98100
C  -3.42000 19.12200 32.66800
C  -0.63500 16.62300 33.46500
C  -0.49200 17.45700 34.75300
H  0.12800 16.82100 36.00700
N  -1.10000 19.65500 27.96200
C  -1.25500 20.50600 29.05100
C  -1.04900 21.87900 28.58400
C  -0.80300 21.78500 27.19100
C  -0.92600 20.36800 26.79100
C  -1.18200 23.15600 29.43400
C  -0.66100 22.90200 26.20400
O  -0.52100 22.69700 25.00300
C  -0.43900 24.26200 26.70800
N  -1.23500 17.38700 25.91600
C  -1.09400 18.49100 25.09400
C  -1.05100 18.15400 23.55400
C  -0.89700 16.62500 23.66000
C  -1.13900 16.27400 25.10800
C  -2.34200 18.47100 22.81400
C  0.47100 16.11000 23.21800
C  1.61600 16.22500 24.20300
N  -1.46000 15.53900 28.02700
C  -1.54000 14.66200 26.92800
C  -1.81000 13.31300 27.45300
C  -1.81300 13.45400 28.81400
C  -1.67800 14.90600 29.12800
C  -1.97700 12.07600 26.52800
C  -1.92100 12.75100 30.14900
O  -2.15400 11.58400 30.40900
C  -2.02100 13.92700 31.19200
C  -0.93300 13.62400 32.18700
O  0.22700 13.79100 32.10700
O  -1.46200 13.02300 33.29600
C  -0.54200 12.61000 34.36000
H  -1.64400 21.00500 31.03200
H  -0.93300 20.36800 24.60400
H  -1.16600 14.37700 24.71700
H  -2.73400 16.45400 32.81200
H  -1.39200 19.10900 33.07200
H  -3.75900 19.55600 31.72700
H  -3.41300 19.95900 33.36700
H  -4.08300 18.37200 33.09800
H  0.26800 16.66000 32.85400
H  -0.87400 15.60400 33.76800
H  -1.46100 17.82400 35.09200
H  0.17100 18.30800 34.59500
H  -0.15500 23.50300 29.55100
H  -1.56500 23.01200 30.44500
H  -1.88500 23.85400 28.97900
H  -1.37000 24.75900 26.97900
H  0.00200 24.83200 25.89000
H  0.30900 24.18400 27.49700
H  -0.18600 18.58100 23.04800
H  -1.61000 16.01300 23.10700
H  -2.95700 17.57900 22.69300
H  -2.18400 18.98200 21.86400
H  -3.04200 19.15700 23.29100
H  0.76600 16.52000 22.25200
H  0.41800 15.03500 23.04500
H  1.83500 15.24500 24.62900
H  1.39500 17.03600 24.89600
H  2.47700 16.51500 23.60000
H  -1.78600 11.18300 27.12400
H  -1.27600 11.94400 25.70400
H  -2.98000 12.02300 26.10400
H  -3.05600 14.00600 31.52700
H  -0.37800 13.50700 34.95800
H  0.38200 12.18500 33.96900
H  -1.01400 11.84500 34.97600
Mg 50.73000 46.12900 43.25200
C  47.91200 47.44800 41.67900
C  49.94500 43.14400 41.66900
C  53.83600 45.04200 43.95300
C  51.52100 49.37800 44.31300
N  49.10000 45.39700 41.84700
C  47.99800 46.09000 41.42700
C  47.09100 45.21700 40.58200
C  47.62000 43.76000 40.98000
C  48.93900 44.06200 41.58400
C  46.63600 42.98800 41.87500
C  47.23200 45.55500 39.05300
C  46.01500 46.04400 38.22900
H  45.47200 45.03300 37.20500
N  51.77700 44.30300 42.91000
C  51.21500 43.14000 42.27100
C  52.20200 42.04100 42.38200
C  53.39100 42.63500 42.95100
C  53.05500 44.07200 43.25400
C  51.92900 40.53700 42.05700
C  54.73700 41.88600 43.24000
O  54.84700 40.70300 42.88300
C  55.92200 42.53900 43.86200
N  52.42000 47.05500 43.96200
C  53.55900 46.33500 44.29000
C  54.60000 47.33800 44.84600
C  53.86200 48.68800 45.04100
C  52.52400 48.36400 44.34800
C  55.47300 46.83600 46.06800
C  54.67000 49.88000 44.47200
C  54.92200 51.00700 45.52200
N  49.91200 48.09500 43.04000
C  50.29200 49.29800 43.57800
C  49.34300 50.27900 43.16800
C  48.35400 49.63600 42.50100
C  48.82800 48.30400 42.37600
C  49.52600 51.79600 43.40800
C  47.05200 49.78600 41.86000
O  46.25900 50.71200 41.80100
C  46.72600 48.38000 41.31100
C  45.36100 47.92600 41.76000
O  45.03500 47.49000 42.85500
O  44.51600 48.07300 40.67800
C  43.16400 47.48700 40.98900
H  49.59100 42.25200 41.14700
H  54.86700 44.75300 44.17000
H  51.76600 50.29900 44.84600
H  46.05600 45.31000 40.91200
H  47.78300 43.12500 40.10900
H  45.72700 43.56900 42.03000
H  47.00900 42.93100 42.89700
H  46.53900 42.00700 41.40900
H  47.73200 44.82000 38.42200
H  48.00000 46.31900 38.94000
H  46.15400 46.94300 37.62900
H  45.26800 46.31200 38.97700
H  51.11400 40.38300 41.35000
H  51.71600 39.94000 42.94400
H  52.74100 40.01100 41.55300
H  55.54600 42.90700 44.81700
H  56.37700 43.31500 43.24700
H  56.78000 41.87500 43.96900
H  55.33600 47.54900 44.07100
H  53.60000 48.93100 46.07100
H  55.30300 45.76300 46.15600
H  55.31600 47.27800 47.05200
H  56.52300 46.90300 45.78400
H  54.06800 50.27100 43.65200
H  55.66300 49.54900 44.16900
H  55.99800 51.04700 45.69400
H  54.29700 50.88200 46.40600
H  54.64900 51.97400 45.10000
H  50.05700 52.26300 42.57800
H  49.90600 52.02600 44.40400
H  48.53400 52.24300 43.34800
H  46.68900 48.47200 40.22500
H  43.21600 46.39900 40.94700
H  42.51000 47.80500 40.17800
H  42.83800 47.86700 41.95800

