158

Mg -1.67400 18.26700 26.75100
C  -1.96600 15.90100 29.36400
C  -2.29400 20.72400 28.96600
C  -1.78300 20.37300 24.25600
C  -1.73100 15.47600 24.49400
N  -2.09600 18.22800 28.86100
C  -2.18300 17.18900 29.79800
C  -2.45400 17.74400 31.17000
C  -3.04800 19.18400 30.87200
C  -2.32500 19.43100 29.52100
C  -4.57900 19.25100 30.74900
C  -1.25900 17.75000 32.09500
C  -1.65900 17.27500 33.46400
H  -0.60400 17.40500 34.63600
N  -1.65400 20.28300 26.68200
C  -1.93300 21.15400 27.67800
C  -1.79500 22.45800 27.20600
C  -1.38700 22.33500 25.78600
C  -1.64600 20.95500 25.49500
C  -2.05800 23.73600 28.05500
C  -1.01200 23.38900 24.83200
O  -0.68500 23.18000 23.65500
C  -0.85500 24.71700 25.31500
N  -1.75300 18.00600 24.69800
C  -1.89400 19.00800 23.85600
C  -1.84100 18.58600 22.42200
C  -1.57700 16.99600 22.50700
C  -1.74100 16.77400 23.98200
C  -3.22400 18.70200 21.63800
C  -0.16700 16.61700 21.98300
C  1.08600 17.08100 22.76700
N  -1.89400 16.15500 26.79700
C  -1.91300 15.21300 25.82800
C  -2.14700 13.94800 26.40400
C  -2.00500 14.13800 27.83100
C  -1.96000 15.54100 28.01800
C  -2.30900 12.62100 25.74300
C  -1.93900 13.39300 29.14200
O  -1.97700 12.21900 29.46900
C  -2.05300 14.53200 30.18800
C  -0.94500 14.41300 31.14700
O  0.17300 14.76700 31.00900
O  -1.29400 13.84000 32.36000
C  -0.32200 13.57300 33.52200
H  -2.25000 21.49500 29.73900
H  -1.83800 21.09700 23.44000
H  -1.70600 14.70100 23.72600
H  -3.18400 17.05800 31.60000
H  -2.63100 19.87600 31.60300
H  -5.13600 18.32800 30.91200
H  -4.79100 19.51800 29.71300
H  -4.92600 20.11500 31.31500
H  -0.91100 18.76800 32.27200
H  -0.42900 17.19500 31.65800
H  -1.99000 16.23600 33.44500
H  -2.52300 17.86700 33.76400
H  -2.50400 24.40700 27.32000
H  -1.17500 24.17100 28.52400
H  -2.75500 23.55900 28.87300
H  -0.47500 25.39200 24.54800
H  -0.16000 24.72700 26.15400
H  -1.80300 25.18800 25.57400
H  -1.08700 19.07900 21.80900
H  -2.24500 16.46300 21.83200
H  -3.89300 17.95700 22.06800
H  -3.21400 18.56500 20.55600
H  -3.70600 19.66200 21.82300
H  -0.01600 17.00200 20.97500
H  -0.20700 15.52800 22.01100
H  0.88800 17.39300 23.79200
H  1.58600 17.90600 22.25900
H  1.82800 16.29300 22.90500
H  -2.98500 12.57600 24.88900
H  -2.89200 12.08400 26.49100
H  -1.35800 12.16700 25.46500
H  -2.96900 14.36900 30.75500
H  0.52800 14.24800 33.42300
H  0.11200 12.57500 33.45300
H  -0.86400 13.69600 34.45900
Mg 26.74900 50.43900 26.73000
C  25.07500 51.73700 29.51700
C  29.37800 49.69800 28.97000
C  28.42100 49.26100 24.16200
C  24.25000 51.60000 24.64200
N  27.17000 50.82500 28.94600
C  26.29900 51.26900 29.83700
C  26.79600 50.88500 31.21500
C  28.33300 50.63900 31.04400
C  28.30300 50.42600 29.53100
C  29.10000 51.81600 31.63100
C  25.95900 49.70800 31.81200
C  25.09300 50.03100 33.04200
H  25.88400 50.04700 34.34400
N  28.57500 49.55200 26.54800
C  29.42300 49.23400 27.60900
C  30.54700 48.57300 27.07400
C  30.43900 48.54400 25.64100
C  29.13800 49.12500 25.36500
C  31.69300 48.00400 27.92100
C  31.36900 47.89000 24.59500
O  31.10300 47.85100 23.41100
C  32.62600 47.21800 24.97700
N  26.44900 50.58600 24.60000
C  27.20800 49.77200 23.81200
C  26.60600 49.57700 22.43200
C  25.19300 50.28700 22.62000
C  25.24900 50.79200 24.07100
C  27.48700 50.19200 21.23600
C  23.98900 49.37200 22.40100
C  22.95600 49.78200 21.34300
N  25.14500 51.61600 26.93100
C  24.15600 51.87300 26.04200
C  22.96100 52.51700 26.69000
C  23.30400 52.44800 28.03400
C  24.67100 51.87500 28.15100
C  21.68200 52.97600 26.01000
C  22.76200 52.68600 29.34000
O  21.67000 53.11700 29.71500
C  23.96300 52.23700 30.37400
C  24.45000 53.32800 31.26300
O  25.22800 54.20500 30.92900
O  23.86400 53.24500 32.45500
C  23.94300 54.36100 33.36800
H  30.11300 49.31800 29.68300
H  28.93000 48.75300 23.34000
H  23.35900 51.87400 24.07200
H  26.70100 51.73600 31.88800
H  28.57700 49.74500 31.61700
H  28.63900 51.96800 32.60700
H  28.82800 52.69600 31.04900
H  30.18800 51.76300 31.60200
H  26.56500 48.84900 32.10100
H  25.35000 49.27200 31.01900
H  24.43000 49.20900 33.31000
H  24.41100 50.87800 32.96800
H  32.59900 48.57800 27.72600
H  31.91000 46.95000 27.75100
H  31.47300 47.95700 28.98700
H  33.28800 47.82000 25.59900
H  33.16000 47.01300 24.04900
H  32.35400 46.28000 25.46200
H  26.54000 48.50600 22.24000
H  25.14000 51.17500 21.99000
H  27.18500 51.19000 20.91700
H  27.42700 49.51300 20.38600
H  28.50200 50.38400 21.58500
H  23.42700 49.37600 23.33500
H  24.28000 48.33200 22.25900
H  23.38200 50.61200 20.77800
H  21.94900 50.04800 21.66400
H  22.96100 48.89800 20.70500
H  21.86300 53.92400 25.50300
H  20.82100 53.05600 26.67300
H  21.36400 52.27400 25.23900
H  23.70000 51.36300 30.97000
H  23.98400 53.99200 34.39300
H  23.07300 55.00300 33.22400
H  24.76800 54.99900 33.05100

