158

Mg 36.14100 1.81000 29.15600
C  33.96000 2.94500 31.71300
C  38.66500 1.81400 31.43900
C  38.37700 0.98600 26.65400
C  33.55600 1.99600 26.91600
N  36.23300 2.25700 31.33400
C  35.26800 2.67800 32.15900
C  35.83500 2.83700 33.53100
C  37.33100 2.86400 33.33800
C  37.45200 2.35300 31.90900
C  38.05100 4.18100 33.65900
C  35.25700 1.73600 34.51800
C  34.72900 2.32200 35.87400
H  35.48000 3.49800 36.58700
N  38.10000 1.30700 29.10100
C  38.96000 1.29600 30.19600
C  40.19300 0.65800 29.83100
C  40.18600 0.63200 28.44700
C  38.85200 0.97700 27.98200
C  41.26800 0.35300 30.86600
C  41.33800 0.28700 27.54700
O  41.23900 0.27900 26.31200
C  42.70400 -0.01300 28.05500
N  35.98800 1.55100 27.11300
C  37.03300 1.28300 26.25300
C  36.54700 1.32100 24.74900
C  34.94900 1.27600 24.87700
C  34.77000 1.60200 26.33900
C  36.94200 2.70300 24.19600
C  34.40800 -0.16300 24.48300
C  34.00500 -1.14000 25.53800
N  34.13800 2.37600 29.19600
C  33.18000 2.41100 28.19700
C  31.96400 2.86300 28.79300
C  32.20800 3.08400 30.13500
C  33.58100 2.83200 30.32600
C  30.56900 2.88100 28.21200
C  31.59800 3.56700 31.41100
O  30.45000 4.06000 31.59900
C  32.74800 3.45000 32.41400
C  32.95900 4.72300 33.08700
O  33.68600 5.63200 32.65700
O  32.14300 4.74200 34.22000
C  32.15600 6.01200 34.94500
H  39.50600 1.76400 32.13400
H  39.04900 0.70200 25.84200
H  32.83100 2.04100 26.10100
H  35.40400 3.73800 33.96900
H  37.72700 2.05900 33.95700
H  38.93000 3.98300 34.27200
H  37.37300 4.96200 34.00200
H  38.49300 4.58400 32.74800
H  35.99200 0.94900 34.68400
H  34.48100 1.18500 33.98600
H  34.68000 1.45800 36.53700
H  33.66600 2.53900 35.77100
H  41.63700 -0.65600 30.68200
H  40.94600 0.25800 31.90300
H  41.95300 1.20000 30.83700
H  43.36400 -0.09800 27.19100
H  42.76000 -0.99400 28.52600
H  43.02300 0.85200 28.63600
H  36.93400 0.56800 24.06100
H  34.45300 2.04700 24.28900
H  36.11900 3.34300 23.87700
H  37.60400 2.63400 23.33300
H  37.50800 3.16100 25.00800
H  34.96800 -0.66700 23.69600
H  33.49100 0.16400 23.99300
H  34.48400 -2.08500 25.28300
H  32.91800 -1.16400 25.46700
H  34.24700 -0.76800 26.53400
H  30.67900 2.57100 27.17300
H  30.10900 3.86400 28.10900
H  29.89000 2.22100 28.75200
H  32.40900 2.65300 33.07600
H  32.12800 6.72200 34.11800
H  33.06600 6.09100 35.54000
H  31.35500 6.26300 35.64000
Mg 41.58200 41.82900 27.79400
C  40.68400 44.33700 30.18000
C  42.45400 39.79900 30.44400
C  42.80600 39.67700 25.61300
C  41.40200 44.23400 25.33600
N  41.62200 42.04200 30.07200
C  41.06700 43.12200 30.77500
C  40.92700 42.65800 32.25600
C  41.62900 41.25400 32.35500
C  41.97300 41.02000 30.85900
C  42.87100 41.08800 33.21200
C  39.36300 42.65000 32.79700
C  38.89400 43.78000 33.75000
H  38.45100 43.42100 35.19800
N  42.53500 39.91300 27.98700
C  42.76600 39.30800 29.16700
C  43.12300 37.92300 28.83100
C  43.10000 37.80200 27.40100
C  42.77000 39.13700 26.94900
C  43.52500 36.85100 29.87100
C  43.31000 36.65300 26.60600
O  43.33100 36.67800 25.37600
C  43.49000 35.33700 27.16700
N  42.04300 41.89400 25.87000
C  42.58600 40.93100 25.15300
C  42.67900 41.22200 23.65800
C  42.04300 42.59600 23.50500
C  41.83700 42.95100 25.01500
C  44.08500 41.08000 23.10000
C  40.67700 42.62200 22.71700
C  39.54000 41.83100 23.34100
N  41.04500 43.82100 27.72600
C  41.00700 44.65300 26.61300
C  40.51300 45.96800 27.02500
C  40.32400 45.83400 28.42600
C  40.67000 44.58100 28.82100
C  40.19700 47.14300 26.13800
C  39.86800 46.54300 29.63700
O  39.49700 47.66600 29.83000
C  40.16100 45.57000 30.78200
C  40.99700 46.25400 31.82300
O  42.12500 45.95800 32.28000
O  40.13600 47.16400 32.48400
C  40.52400 47.85700 33.71000
H  42.74400 39.06200 31.19500
H  43.27200 39.05300 24.84800
H  41.15200 44.92200 24.52600
H  41.51600 43.30700 32.90400
H  40.96500 40.41000 32.54100
H  42.55500 40.43700 34.02700
H  43.00600 42.05200 33.70100
H  43.75700 40.75100 32.67500
H  39.04600 41.66600 33.14100
H  38.87700 42.71200 31.82300
H  38.03800 44.28400 33.29900
H  39.69900 44.51100 33.82800
H  43.20200 37.03400 30.89500
H  44.59300 36.63400 29.85000
H  42.96100 35.99700 29.49800
H  42.48800 35.14700 27.55300
H  44.34100 35.34500 27.84900
H  43.69000 34.60900 26.38100
H  41.96500 40.53100 23.21100
H  42.74300 43.29000 23.04000
H  43.95500 40.13700 22.56900
H  44.79900 40.83500 23.88600
H  44.50000 41.80400 22.40000
H  40.82300 42.12700 21.75700
H  40.35000 43.63000 22.46400
H  38.67200 42.48400 23.43100
H  39.82100 41.47500 24.33200
H  39.36900 40.96600 22.69900
H  39.32500 47.67800 26.51200
H  39.99700 46.76900 25.13400
H  41.01400 47.86300 26.07500
H  39.24700 45.30400 31.31400
H  39.75800 48.54300 34.06900
H  41.27700 48.56500 33.36400
H  40.67200 47.24600 34.60000

