158

Mg 1.90600 -0.99400 44.37000
C  5.05100 0.25300 43.42900
C  0.54700 1.64400 42.33700
C  -1.11200 -2.44700 44.33000
C  3.41800 -3.81100 45.49300
N  2.79000 0.72500 42.94700
C  4.03600 1.02600 42.84400
C  4.19300 2.32300 41.97900
C  2.76600 2.67200 41.52300
C  1.98900 1.67200 42.39400
C  2.33000 4.18100 41.54800
C  5.25300 2.00200 40.78700
C  6.51900 2.92100 40.65200
H  7.77600 2.31500 39.97700
N  -0.01900 -0.39900 43.73000
C  -0.33200 0.66500 42.94200
C  -1.79000 0.80300 42.72600
C  -2.30100 -0.36300 43.31800
C  -1.11400 -1.14200 43.79700
C  -2.55400 1.80800 41.81300
C  -3.76300 -0.76600 43.33700
O  -4.55600 -0.08800 42.69300
C  -4.32000 -1.98100 43.94600
N  1.23800 -2.84700 44.78500
C  -0.06600 -3.21700 44.87700
C  -0.21200 -4.67900 45.46900
C  1.23900 -5.13000 45.71700
C  2.01200 -3.82800 45.28700
C  -1.10100 -4.72200 46.90000
C  1.65500 -6.33900 44.86100
C  1.17900 -7.70500 45.32000
N  3.88100 -1.69000 44.55000
C  4.34000 -2.93000 45.07000
C  5.78700 -2.87700 45.22300
C  6.09600 -1.64500 44.63500
C  4.92300 -0.97100 44.17300
C  6.68200 -3.87700 45.87600
C  7.21400 -0.73600 44.39200
O  8.34600 -0.83400 44.80800
C  6.61500 0.49100 43.59000
C  6.86100 1.70500 44.44500
O  6.29900 1.83900 45.54500
O  7.79900 2.48900 43.89100
C  7.84700 3.77400 44.57400
H  0.02900 2.40600 41.75000
H  -2.09000 -2.93300 44.33700
H  3.81300 -4.70800 45.97500
H  4.47600 3.22200 42.52600
H  2.71500 2.32600 40.49100
H  1.70800 4.21500 42.44300
H  1.71100 4.33700 40.66400
H  3.17100 4.87400 41.51700
H  4.82200 2.04700 39.78600
H  5.60000 0.97500 40.89700
H  6.71500 3.19500 41.68900
H  6.19200 3.83000 40.14700
H  -3.21600 1.42300 41.03700
H  -1.81800 2.26100 41.14800
H  -3.15900 2.50400 42.39300
H  -4.10100 -2.83700 43.30800
H  -5.40300 -1.87300 43.99700
H  -3.94100 -2.20500 44.94300
H  -0.61400 -5.17100 44.58300
H  1.50600 -5.30200 46.75900
H  -1.98400 -5.35800 46.83500
H  -1.40000 -3.69400 47.10500
H  -0.54600 -5.01500 47.79100
H  2.73900 -6.44600 44.90100
H  1.46800 -6.17200 43.80100
H  0.50100 -8.19800 44.62300
H  0.51100 -7.52400 46.16200
H  1.99500 -8.40100 45.51700
H  6.15400 -4.82900 45.84700
H  6.99500 -3.57200 46.87500
H  7.59300 -4.07300 45.31000
H  7.18600 0.62600 42.67100
H  8.78700 4.23200 44.26800
H  7.90800 3.71800 45.66000
H  6.98000 4.37900 44.30800
Mg -0.02400 7.19600 26.29400
C  0.88900 9.15100 29.02800
C  0.11600 4.33200 28.22300
C  -0.32700 5.41400 23.47200
C  0.49600 10.03400 24.31700
N  0.49700 6.84100 28.32200
C  0.64600 7.77800 29.32500
C  0.59800 7.14900 30.66100
C  0.28200 5.65400 30.42500
C  0.25100 5.61000 28.89000
C  1.25100 4.54100 31.06200
C  -0.56300 7.84900 31.54500
C  -0.19200 8.13200 33.01700
H  1.01500 7.27500 33.53700
N  -0.05000 5.10400 25.91500
C  0.05400 4.10200 26.82500
C  -0.15400 2.87400 26.10500
C  -0.35000 3.19100 24.74500
C  -0.21700 4.60100 24.63500
C  -0.32700 1.52900 26.80800
C  -0.58100 2.23100 23.55600
O  -0.71300 2.55600 22.36300
C  -0.87300 0.79400 23.86300
N  0.02200 7.68600 24.27500
C  -0.20500 6.78600 23.30100
C  -0.17300 7.39600 21.88800
C  -0.24700 8.91700 22.21600
C  0.17800 8.89100 23.65300
C  0.99400 7.05500 20.93900
C  -1.59800 9.66800 21.86300
C  -2.92900 9.08800 22.40100
N  0.46900 9.25100 26.62400
C  0.63500 10.22900 25.71900
C  1.12400 11.49300 26.31700
C  1.12600 11.11100 27.68600
C  0.83400 9.71600 27.77600
C  1.45600 12.76600 25.72500
C  1.39600 11.70700 28.96600
O  1.73500 12.82000 29.35700
C  1.22200 10.41000 29.92300
C  2.35700 10.22400 30.85900
O  3.38400 9.71000 30.41300
O  2.09400 10.75600 32.11200
C  3.36100 11.10400 32.77800
H  -0.01200 3.39000 28.76100
H  -0.29700 4.96800 22.47600
H  0.61800 10.95700 23.74700
H  1.49800 7.51300 31.15700
H  -0.72200 5.45200 30.79800
H  1.83400 3.99200 30.32200
H  0.82200 3.70600 31.61600
H  2.03000 5.03300 31.64400
H  -1.45800 7.23200 31.61400
H  -0.87300 8.78500 31.08000
H  -1.10300 8.02300 33.60600
H  0.05500 9.18600 33.15200
H  -1.27400 1.22200 26.36200
H  -0.52300 1.61500 27.87700
H  0.52100 0.90400 26.53000
H  -1.71900 0.58700 24.51900
H  -0.00100 0.26900 24.25200
H  -1.05400 0.26700 22.92600
H  -1.16100 7.13700 21.50800
H  0.53500 9.45500 21.68100
H  1.44600 7.92900 20.47000
H  0.73500 6.35100 20.14800
H  1.76500 6.65700 21.59900
H  -1.77000 9.93000 20.81900
H  -1.63900 10.53900 22.51800
H  -3.60800 9.11900 21.55000
H  -3.41900 9.62600 23.21300
H  -2.95200 8.04200 22.70800
H  2.05300 12.52200 24.84700
H  1.99400 13.47100 26.35800
H  0.53200 13.25200 25.41200
H  0.44800 10.67500 30.64400
H  3.51200 10.46200 33.64500
H  3.16100 12.12600 33.10000
H  4.29000 11.07400 32.20900

