158

Mg 2.08200 -1.04700 43.98800
C  5.49800 -0.45400 43.71000
C  1.41600 1.94300 42.75000
C  -1.25000 -2.07200 43.69300
C  2.75700 -4.37300 44.95400
N  3.29600 0.50100 43.21900
C  4.68200 0.56600 43.17100
C  5.17900 1.84500 42.60000
C  3.86300 2.69600 42.61500
C  2.80400 1.67000 42.82700
C  3.87900 3.87700 43.65000
C  5.85600 1.53500 41.21800
C  7.09700 2.39500 40.83400
H  7.11000 2.73000 39.30800
N  0.29300 -0.11500 43.43600
C  0.25300 1.11400 42.88000
C  -1.07300 1.47800 42.69500
C  -1.90800 0.38500 43.04500
C  -0.97200 -0.74000 43.38300
C  -1.54100 2.84600 42.32700
C  -3.44600 0.40600 43.06600
O  -4.05000 1.44100 42.80500
C  -4.19900 -0.74500 43.55300
N  0.93200 -3.00500 44.14300
C  -0.41900 -3.05100 44.17500
C  -0.92200 -4.46900 44.54400
C  0.35900 -5.13900 45.10500
C  1.45100 -4.12400 44.72000
C  -2.22900 -4.58900 45.39800
C  0.64800 -6.61000 44.54200
C  0.81600 -7.69900 45.63800
N  3.77100 -2.17000 44.34400
C  3.88500 -3.53100 44.68000
C  5.28100 -3.83300 44.89200
C  5.95600 -2.69900 44.44300
C  4.99400 -1.67300 44.13700
C  5.69700 -5.21100 45.25100
C  7.25600 -2.17900 44.18500
O  8.39600 -2.63400 44.27200
C  7.04300 -0.64100 43.64800
C  7.65800 0.29900 44.54500
O  7.33800 0.62400 45.70900
O  8.49200 1.07300 43.84400
C  9.23900 2.15300 44.39800
H  1.16300 2.96000 42.44500
H  -2.31000 -2.33000 43.65200
H  2.90600 -5.33000 45.45900
H  5.99000 2.31600 43.15400
H  3.84000 3.20900 41.65400
H  4.86400 3.92900 44.11200
H  3.23000 3.53900 44.45800
H  3.51200 4.69200 43.02600
H  5.08100 1.45000 40.45700
H  6.25000 0.52000 41.25700
H  8.02200 1.87700 41.08900
H  7.13200 3.32700 41.39800
H  -2.52700 2.98000 41.88100
H  -0.83800 3.26800 41.60900
H  -1.45100 3.47800 43.21000
H  -5.24800 -0.45000 43.57700
H  -3.79100 -1.21500 44.44800
H  -4.17200 -1.49600 42.76400
H  -1.14500 -4.86100 43.55200
H  0.33100 -5.10200 46.19400
H  -2.08700 -5.24900 46.25300
H  -2.98200 -5.16000 44.85400
H  -2.60400 -3.60200 45.67000
H  1.61600 -6.60800 44.04100
H  -0.10800 -6.93000 43.82400
H  0.50700 -7.31200 46.60900
H  1.81600 -8.11800 45.74900
H  0.18900 -8.57000 45.44900
H  5.31800 -5.93800 44.53200
H  5.30800 -5.44200 46.24300
H  6.78600 -5.24200 45.24400
H  7.45800 -0.70900 42.64200
H  10.04900 2.37900 43.70400
H  9.65500 1.88600 45.36900
H  8.67400 3.07600 44.52500
Mg -4.96800 25.94700 26.72900
C  -3.80400 27.52300 29.55900
C  -6.65200 23.83100 28.57200
C  -5.71200 24.32800 23.84200
C  -2.69400 27.97400 24.78900
N  -5.19500 25.75100 28.89600
C  -4.74600 26.53100 29.88400
C  -5.37400 26.18800 31.22000
C  -6.08900 24.78100 30.87300
C  -6.03000 24.78400 29.30800
C  -5.43200 23.50900 31.52500
C  -6.33100 27.27800 31.79200
C  -6.14000 27.67900 33.20400
H  -5.72700 26.66000 34.29600
N  -6.15100 24.39600 26.26700
C  -6.74300 23.64000 27.16300
C  -7.62900 22.65200 26.45300
C  -7.44000 22.84300 25.11900
C  -6.42900 23.97200 24.97500
C  -8.41500 21.56500 27.14400
C  -8.06800 22.10700 23.92200
O  -7.81000 22.53000 22.78900
C  -9.02000 20.93800 24.17200
N  -4.21600 26.12700 24.64200
C  -4.65700 25.25400 23.66900
C  -3.95500 25.42200 22.33500
C  -3.03900 26.62400 22.61800
C  -3.40100 27.01300 24.08400
C  -3.29600 24.18700 21.78700
C  -3.28100 27.79900 21.63300
C  -1.97900 28.12200 20.96300
N  -3.51400 27.51700 27.07700
C  -2.71600 28.22000 26.18600
C  -1.99500 29.17100 26.97900
C  -2.39000 28.97400 28.31500
C  -3.28300 27.93100 28.30300
C  -1.03000 30.23700 26.46200
C  -2.28400 29.38200 29.75000
O  -1.57700 30.26800 30.20800
C  -3.17300 28.43200 30.58400
C  -2.22800 27.68700 31.54000
O  -1.57800 26.67500 31.22900
O  -2.19500 28.29300 32.75300
C  -1.20000 27.71900 33.72900
H  -7.07400 23.01300 29.16000
H  -5.81400 23.71300 22.94600
H  -2.18800 28.74700 24.20700
H  -4.61700 25.99300 31.97900
H  -7.15800 24.73800 31.08400
H  -6.16200 22.89500 32.05300
H  -4.57600 23.84000 32.11300
H  -5.02800 22.88800 30.72600
H  -7.34900 26.91600 31.64300
H  -6.11000 28.18900 31.23500
H  -7.14200 27.98100 33.50900
H  -5.30500 28.37300 33.10600
H  -8.01400 20.58500 26.88300
H  -9.47400 21.73600 26.94700
H  -8.42900 21.72500 28.22200
H  -8.59900 20.26300 24.91600
H  -9.05400 20.45500 23.19500
H  -9.92400 21.48000 24.44900
H  -4.76400 25.69500 21.65800
H  -2.01200 26.26200 22.67000
H  -4.00000 23.74600 21.08100
H  -3.28000 23.47800 22.61400
H  -2.29600 24.32800 21.37700
H  -3.72600 28.63300 22.17400
H  -3.81800 27.46100 20.74600
H  -1.40100 28.73300 21.65600
H  -2.08100 28.35900 19.90400
H  -1.19100 27.37200 21.02800
H  -1.49200 30.97900 25.81000
H  -0.39000 29.78000 25.70700
H  -0.51200 30.67200 27.31700
H  -3.84700 29.06900 31.15600
H  -1.60400 26.74000 33.99000
H  -1.37400 28.25200 34.66400
H  -0.19600 27.69800 33.30700

