158

Mg 0.93600 8.01500 24.91400
C  2.04300 9.93600 27.68800
C  0.69000 5.34700 26.92600
C  0.65200 6.24700 22.22300
C  1.35600 10.97800 22.92400
N  1.58700 7.68600 27.07100
C  1.81600 8.63300 27.99500
C  1.70400 8.05300 29.42000
C  1.61400 6.53500 29.12700
C  1.20100 6.50700 27.62300
C  2.96300 5.74600 29.28900
C  0.56900 8.65800 30.38200
C  1.05200 9.13500 31.71100
H  2.01300 8.28600 32.49100
N  0.57100 6.15900 24.54400
C  0.41700 5.16600 25.53100
C  0.20800 3.84200 24.81200
C  0.33300 4.08900 23.40800
C  0.45600 5.55900 23.36000
C  -0.00500 2.45300 25.53500
C  0.19800 3.13000 22.18900
O  0.27700 3.52700 21.04600
C  -0.08900 1.59600 22.46400
N  1.01600 8.56600 22.83400
C  0.91400 7.60000 21.89100
C  1.34800 8.23300 20.51900
C  1.19700 9.71900 20.70400
C  1.18300 9.79900 22.18900
C  2.76500 7.71200 20.22600
C  -0.13100 10.31700 20.13400
C  -1.52500 9.63900 20.38200
N  1.48700 10.08700 25.17500
C  1.59800 11.12000 24.27900
C  1.98300 12.33900 25.06300
C  2.03000 11.96600 26.40900
C  1.89300 10.53900 26.40100
C  2.13400 13.71200 24.46800
C  2.29900 12.43300 27.73000
O  2.50900 13.53400 28.17300
C  2.21000 11.12800 28.64300
C  3.31900 11.06300 29.54300
O  4.41900 10.48100 29.41200
O  3.08300 11.96300 30.57300
C  4.27100 12.07600 31.47800
H  0.54200 4.50200 27.60300
H  0.62100 5.82500 21.21600
H  1.52100 11.86700 22.31000
H  2.60500 8.32400 29.97000
H  0.74600 6.10000 29.62200
H  2.73000 4.86600 29.88900
H  3.68600 6.36700 29.81600
H  3.36500 5.43000 28.32700
H  -0.16300 7.86900 30.55500
H  0.17800 9.56000 29.91100
H  0.20300 9.39000 32.34500
H  1.49000 10.13200 31.66900
H  -0.82600 1.87000 25.11700
H  -0.18100 2.54500 26.60700
H  0.83800 1.80000 25.30800
H  0.78000 1.05700 22.84200
H  -0.42300 1.14700 21.52900
H  -0.93000 1.52600 23.15300
H  0.61300 8.01900 19.74300
H  2.05800 10.21500 20.25600
H  3.24100 7.06500 20.96200
H  3.44500 8.53000 19.99300
H  2.69500 7.21800 19.25700
H  0.11900 10.49900 19.08900
H  -0.29300 11.26700 20.64300
H  -1.41000 8.70600 20.93400
H  -1.91200 9.52700 19.37000
H  -2.24200 10.29600 20.87400
H  1.19000 14.01700 24.01600
H  2.91800 13.59100 23.72100
H  2.35700 14.36700 25.31000
H  1.32800 11.32600 29.25200
H  3.93000 12.75800 32.25700
H  5.13800 12.46900 30.94700
H  4.47800 11.12300 31.96700
Mg 41.01800 7.91500 29.63100
C  42.73600 9.29200 32.39600
C  38.51800 6.95300 31.82700
C  39.74200 6.20200 27.12900
C  43.98300 8.38700 27.80500
N  40.76500 8.15100 31.92500
C  41.51400 8.77600 32.81600
C  40.89000 8.83700 34.21900
C  39.51000 8.14800 33.94500
C  39.59200 7.65500 32.50500
C  39.08900 7.05800 34.92000
C  40.86100 10.27900 34.88200
C  39.85100 10.41900 36.10200
H  40.31100 11.30700 37.27000
N  39.25100 6.88800 29.49400
C  38.36900 6.52800 30.47300
C  37.27100 5.86900 29.83000
C  37.53500 5.76100 28.46900
C  38.91200 6.27500 28.31200
C  36.07300 5.40000 30.64300
C  36.72000 5.18800 27.34000
O  37.11300 5.19800 26.19100
C  35.29900 4.61900 27.65000
N  41.76300 7.44100 27.69300
C  41.01800 6.72800 26.79300
C  41.74000 6.55600 25.39700
C  43.16300 7.32400 25.65000
C  43.00900 7.69300 27.15900
C  41.90400 5.04400 24.87800
C  43.38700 8.57500 24.75400
C  42.51300 9.80600 24.97100
N  42.87000 8.70900 29.95700
C  43.99300 8.84300 29.11400
C  45.07000 9.51800 29.74000
C  44.58900 9.77700 31.07800
C  43.29600 9.13800 31.16300
C  46.42900 9.75000 29.13000
C  44.95200 10.30300 32.33700
O  46.00100 10.76700 32.72500
C  43.78900 9.96400 33.30600
C  44.44800 9.05300 34.35600
O  44.71200 7.87500 34.07300
O  44.59900 9.66500 35.54600
C  44.98800 8.69000 36.61800
H  37.58400 6.77700 32.36600
H  39.36100 5.67600 26.25100
H  44.88500 8.32100 27.19300
H  41.57200 8.20900 34.79200
H  38.71400 8.89100 34.00200
H  38.31500 7.34000 35.63500
H  40.02400 6.83900 35.43500
H  38.66500 6.20000 34.39800
H  40.43600 11.01900 34.20400
H  41.82200 10.50700 35.34200
H  39.63800 9.48300 36.61900
H  38.92600 10.82500 35.69300
H  36.26100 5.45100 31.71500
H  35.77000 4.35800 30.53700
H  35.22600 6.04800 30.41500
H  35.36200 3.90600 28.47200
H  34.80800 4.26300 26.74400
H  34.67500 5.42900 28.02700
H  41.14900 7.07100 24.64000
H  43.97700 6.62500 25.46000
H  42.93900 4.70300 24.84000
H  41.47900 4.92800 23.88200
H  41.32000 4.39000 25.52500
H  43.11200 8.15900 23.78500
H  44.44600 8.82500 24.82500
H  41.71200 9.65200 25.69400
H  42.01800 9.98800 24.01700
H  43.05100 10.70400 25.27500
H  46.46100 9.65400 28.04500
H  47.04800 9.09200 29.74000
H  46.73100 10.78100 29.31200
H  43.40600 10.89100 33.73100
H  44.74900 9.13100 37.58600
H  46.06100 8.50100 36.60000
H  44.59900 7.67400 36.55200

