158

Mg 47.31000 34.80600 28.51500
C  45.43600 33.28500 30.94500
C  47.56600 37.51100 30.73200
C  48.28600 36.80800 25.94500
C  46.36700 32.34400 26.23900
N  46.52500 35.31300 30.57700
C  45.94800 34.45100 31.41800
C  45.99400 34.98800 32.86000
C  46.18400 36.53200 32.65600
C  46.76200 36.47700 31.20700
C  44.83300 37.33000 32.66100
C  47.15700 34.39900 33.64600
C  47.13000 34.06000 35.13700
H  46.44600 35.04100 36.11300
N  47.92900 36.80800 28.38800
C  48.14600 37.70600 29.44400
C  48.98200 38.82200 29.01800
C  48.97000 38.68100 27.57600
C  48.39200 37.42300 27.22400
C  49.59000 39.86700 30.03700
C  49.70700 39.55700 26.61000
O  49.90500 39.27200 25.46000
C  50.27800 40.94600 27.08800
N  47.41800 34.44500 26.43200
C  47.88200 35.53900 25.62800
C  47.93500 34.98800 24.14600
C  47.46900 33.53900 24.17800
C  47.12000 33.37100 25.64700
C  47.27300 35.90500 23.11000
C  48.48700 32.51000 23.79500
C  48.14600 31.32700 22.90800
N  46.29800 33.06600 28.51500
C  46.01400 32.17500 27.55100
C  45.32900 30.98800 28.18200
C  45.06000 31.38800 29.52800
C  45.62400 32.70100 29.64600
C  44.79100 29.72300 27.42300
C  44.42200 31.06500 30.80400
O  43.90500 30.03800 31.15700
C  44.53100 32.35300 31.68900
C  44.73700 32.11200 33.14000
O  45.40100 31.24300 33.66200
O  43.73500 32.69900 33.77800
C  43.51500 32.57400 35.25200
H  47.85000 38.30100 31.43000
H  48.27200 37.45500 25.06500
H  46.03700 31.52900 25.59300
H  45.10500 34.78400 33.45600
H  46.91000 36.97400 33.33800
H  43.99700 36.64000 32.54900
H  44.90700 38.01300 31.81500
H  44.64500 37.92700 33.55400
H  47.94700 35.14700 33.71200
H  47.67300 33.56000 33.17900
H  48.04300 33.70700 35.61700
H  46.49200 33.17600 35.09900
H  49.98800 39.31000 30.88600
H  48.89800 40.63800 30.37500
H  50.46700 40.37200 29.63400
H  51.23600 40.87300 27.60300
H  49.50600 41.38600 27.71900
H  50.56800 41.55800 26.23400
H  49.02200 34.97600 24.06700
H  46.51200 33.44200 23.66500
H  46.62800 35.31200 22.46100
H  47.98800 36.47800 22.52000
H  46.66600 36.65700 23.61500
H  48.83200 31.96900 24.67600
H  49.34600 32.99600 23.33300
H  48.95700 31.00500 22.25600
H  47.21100 31.42100 22.35600
H  48.02600 30.47400 23.57600
H  44.51000 29.82000 26.37400
H  43.95100 29.48300 28.07400
H  45.45300 28.86800 27.55700
H  43.49600 32.68200 31.60300
H  42.72900 31.83400 35.40300
H  43.16500 33.53000 35.64200
H  44.43700 32.30800 35.76800
Mg 9.43600 46.79500 26.76600
C  7.18500 46.81700 29.50700
C  11.95600 47.45900 28.94200
C  11.43500 47.15800 24.06600
C  6.70500 46.44800 24.59300
N  9.49800 47.30800 28.98000
C  8.49600 47.12800 29.92200
C  9.11800 47.35900 31.38500
C  10.57800 47.60600 31.08300
C  10.71400 47.48400 29.58600
C  11.13500 48.90100 31.71500
C  8.83400 46.29300 32.49400
C  9.86400 46.17500 33.64100
H  9.28600 45.87800 35.07300
N  11.37100 47.34900 26.54500
C  12.28400 47.34800 27.56300
C  13.56700 47.55100 27.00600
C  13.51500 47.45400 25.60200
C  12.07700 47.24700 25.34500
C  14.75600 47.58200 27.93000
C  14.64800 47.53700 24.56700
O  14.55600 47.24900 23.38300
C  16.09000 47.73700 24.98600
N  9.09900 46.92300 24.57800
C  10.10400 46.97900 23.69100
C  9.51900 46.89000 22.30100
C  8.04100 46.60000 22.50700
C  7.92400 46.63000 23.97600
C  9.91000 48.05200 21.36100
C  7.48600 45.29400 21.85100
C  6.50100 45.57200 20.63300
N  7.38200 46.59000 26.91500
C  6.39500 46.46000 25.99300
C  5.15800 46.24500 26.61500
C  5.38000 46.46100 27.97900
C  6.80100 46.61900 28.12900
C  3.83300 46.02700 25.89500
C  4.71700 46.54500 29.24300
O  3.55000 46.49700 29.53000
C  5.90700 46.77300 30.32500
C  5.89200 45.56600 31.11700
O  6.40900 44.50600 30.82900
O  5.18300 45.79900 32.28200
C  5.38900 44.74500 33.30700
H  12.84600 47.70900 29.52300
H  12.19400 47.07000 23.28600
H  5.84100 46.21900 23.96500
H  8.67000 48.28200 31.75200
H  11.15000 46.78800 31.52100
H  11.48500 49.56300 30.92300
H  11.82500 48.61800 32.51000
H  10.33500 49.47700 32.18100
H  8.77000 45.30400 32.04000
H  7.87300 46.49900 32.96600
H  10.33600 47.14900 33.77200
H  10.57300 45.39600 33.36000
H  15.46600 46.88100 27.49000
H  14.71100 47.29500 28.98100
H  15.23400 48.55100 27.78800
H  16.61200 48.14100 24.11900
H  16.58000 46.80600 25.26800
H  16.08400 48.57800 25.68000
H  10.00300 46.04000 21.81900
H  7.39800 47.42000 22.18800
H  10.40300 47.76000 20.43400
H  10.64200 48.71500 21.82300
H  9.04900 48.69200 21.16700
H  6.87800 44.68100 22.51800
H  8.25500 44.62600 21.46300
H  6.62500 46.53200 20.13200
H  5.52400 45.43100 21.09300
H  6.66000 44.89200 19.79700
H  3.88400 46.12800 24.81100
H  3.11700 46.72600 26.32900
H  3.53100 44.99100 26.04900
H  5.89800 47.54900 31.09000
H  6.31200 44.16500 33.28900
H  4.52200 44.08400 33.30700
H  5.37700 45.27500 34.25900

