158

Mg 1.85600 -1.12800 44.22500
C  5.28100 -0.46100 43.40000
C  1.08700 1.75200 42.41300
C  -1.24100 -2.07600 44.25100
C  2.92700 -4.28900 45.44900
N  3.05100 0.32400 42.84600
C  4.42700 0.45200 42.77400
C  4.88100 1.76700 42.07700
C  3.49800 2.55100 41.93900
C  2.42800 1.47000 42.37400
C  3.39700 3.82200 42.81400
C  5.57600 1.55200 40.70400
C  6.51900 2.70600 40.36900
H  7.01600 2.75800 38.86200
N  0.19700 -0.29500 43.45200
C  0.04500 0.90700 42.86600
C  -1.38700 1.21300 42.56200
C  -2.16000 0.14800 43.12100
C  -1.08200 -0.82300 43.64100
C  -1.97800 2.51700 41.89600
C  -3.67100 0.03800 43.19600
O  -4.36300 0.83700 42.58700
C  -4.32300 -1.02200 43.92100
N  1.01900 -2.92700 44.72100
C  -0.38800 -3.05700 44.71900
C  -0.86900 -4.36800 45.33200
C  0.45700 -5.01700 45.78000
C  1.58300 -4.05300 45.25000
C  -1.97700 -4.35100 46.49600
C  0.53900 -6.54800 45.38100
C  1.23000 -7.57800 46.24600
N  3.70900 -2.18900 44.56900
C  4.01000 -3.40800 45.17500
C  5.45400 -3.61500 45.32600
C  5.94000 -2.53100 44.65400
C  4.87600 -1.64500 44.17000
C  6.14300 -4.80500 45.93600
C  7.23800 -1.79200 44.34100
O  8.41700 -2.21900 44.53500
C  6.84100 -0.47100 43.55000
C  7.47700 0.61800 44.32800
O  7.60000 0.79800 45.52700
O  8.02100 1.53900 43.42600
C  8.89800 2.51300 44.02300
H  0.67800 2.66400 41.97300
H  -2.24500 -2.44800 44.46600
H  3.25900 -5.21700 45.91800
H  5.56400 2.27600 42.75700
H  3.36400 2.81800 40.89000
H  2.55200 4.35600 42.37900
H  4.33900 4.34800 42.96700
H  3.13000 3.41500 43.78900
H  4.84400 1.48600 39.89900
H  5.87400 0.50400 40.67000
H  7.35900 2.50900 41.03600
H  5.98200 3.63300 40.56800
H  -2.78700 2.10600 41.29200
H  -1.21200 2.97800 41.27200
H  -2.49000 3.13200 42.63600
H  -3.80400 -1.01900 44.88000
H  -4.10800 -1.95400 43.39900
H  -5.37900 -0.81000 44.08900
H  -1.24100 -4.94600 44.48600
H  0.49000 -4.93600 46.86700
H  -1.64100 -4.95200 47.34100
H  -2.92200 -4.63900 46.03500
H  -2.10400 -3.31400 46.80600
H  1.08800 -6.60100 44.44000
H  -0.43300 -7.03600 45.30700
H  0.71600 -7.70200 47.20000
H  2.20000 -7.12800 46.45400
H  1.37100 -8.45300 45.61100
H  6.00600 -5.55300 45.15600
H  5.59200 -5.13600 46.81600
H  7.17800 -4.59300 46.20500
H  7.42500 -0.43100 42.63100
H  9.18700 3.25400 43.27800
H  9.84900 2.01000 44.19900
H  8.49200 3.10800 44.84100
Mg 9.55400 48.04100 26.74500
C  7.61800 47.92300 29.59800
C  12.17000 49.49500 28.38200
C  11.32500 47.67600 23.88500
C  6.61800 47.20800 25.02800
N  9.72200 48.86800 28.71600
C  8.89000 48.47400 29.75900
C  9.63000 48.68900 31.08800
C  10.89600 49.48400 30.63300
C  10.97600 49.28200 29.13700
C  10.90300 50.93500 31.11800
C  9.93900 47.54600 32.11900
C  9.60400 47.86000 33.58900
H  9.61900 46.63200 34.54200
N  11.51300 48.54900 26.13500
C  12.40300 49.10200 27.01500
C  13.71400 49.13700 26.37000
C  13.45600 48.54900 25.07200
C  12.05800 48.23900 24.95800
C  14.95900 49.73800 26.98400
C  14.43300 48.31100 23.94500
O  14.08500 47.79700 22.87300
C  15.93400 48.53900 24.18500
N  9.02400 47.59600 24.76400
C  9.88800 47.48300 23.79200
C  9.34900 46.77900 22.62400
C  7.83300 46.87400 22.86200
C  7.78300 47.30400 24.34100
C  9.84800 47.30500 21.27000
C  7.06200 45.53600 22.58900
C  5.82600 45.82700 21.68700
N  7.46100 47.65900 27.15300
C  6.45500 47.26900 26.39000
C  5.26400 47.00800 27.13400
C  5.64200 47.32600 28.53000
C  7.01500 47.59100 28.39800
C  3.89100 46.63800 26.58900
C  5.21400 47.49700 29.86500
O  4.13200 47.31600 30.42200
C  6.55500 47.67900 30.68400
C  6.88600 46.37100 31.32000
O  7.47500 45.48400 30.80000
O  6.30400 46.29200 32.49800
C  6.30400 45.04300 33.24300
H  12.95000 50.03200 28.92600
H  11.83900 47.32100 22.99000
H  5.76200 46.97500 24.39200
H  8.93700 49.30400 31.66300
H  11.83600 49.03500 30.95200
H  10.83300 51.49100 30.18300
H  11.84100 51.10700 31.64600
H  10.03500 51.14900 31.74100
H  11.02800 47.53400 32.15000
H  9.72800 46.51800 31.82400
H  8.70300 48.43200 33.81200
H  10.54400 48.29900 33.92400
H  15.64400 48.93000 27.24300
H  14.70300 50.35800 27.84300
H  15.41700 50.37900 26.23000
H  16.18800 48.15100 25.17200
H  16.17500 49.60100 24.15700
H  16.52300 48.08400 23.38900
H  9.60600 45.73900 22.82900
H  7.41200 47.64200 22.21300
H  10.23300 48.30800 21.45600
H  9.05000 47.28300 20.52700
H  10.63900 46.66300 20.88300
H  6.77400 44.99100 23.48700
H  7.73300 44.91700 21.99300
H  5.74600 45.17100 20.82100
H  5.75900 46.84700 21.30800
H  4.89200 45.60500 22.20300
H  3.81500 46.36400 25.53600
H  3.26300 47.51900 26.72400
H  3.51700 45.79500 27.17000
H  6.42700 48.49700 31.39400
H  5.84000 45.03300 34.23000
H  7.35700 44.79200 33.36800
H  5.84700 44.24700 32.65500

