158

Mg 25.58300 -6.84200 47.51900
C  26.98200 -4.08900 45.55100
C  22.79300 -6.66700 45.51100
C  24.72700 -9.67800 48.95400
C  28.88800 -7.14200 48.94100
N  25.03700 -5.65700 45.59500
C  25.69000 -4.55900 45.08000
C  24.82400 -3.86000 44.00400
C  23.42700 -4.57500 44.15500
C  23.78100 -5.75600 45.12500
C  22.30900 -3.52500 44.61500
C  25.40500 -3.84500 42.53500
C  25.87600 -2.53300 41.99100
H  25.07000 -2.07100 40.72900
N  24.00100 -8.01600 47.30700
C  22.93700 -7.78600 46.41700
C  21.98600 -8.86400 46.67200
C  22.51800 -9.77400 47.60100
C  23.81300 -9.20000 48.00500
C  20.73800 -8.89900 45.87000
C  21.90600 -11.09700 48.03800
O  20.84000 -11.44200 47.65100
C  22.66100 -12.08300 48.85200
N  26.69300 -8.28300 48.65400
C  26.02200 -9.34500 49.25100
C  26.81500 -10.04900 50.32000
C  28.19300 -9.32600 50.19400
C  27.93800 -8.20900 49.20000
C  26.17700 -10.12600 51.75800
C  29.45100 -10.11600 49.69100
C  30.75900 -9.71900 50.23100
N  27.47900 -5.80300 47.39800
C  28.66200 -6.02800 48.13100
C  29.53100 -4.92700 47.87200
C  28.98300 -4.24400 46.83100
C  27.69800 -4.70800 46.58400
C  30.83800 -4.63100 48.53300
C  29.15200 -3.14300 45.93200
O  30.13900 -2.39400 45.79200
C  27.83300 -2.92300 45.18700
C  27.08700 -1.65100 45.44600
O  27.16000 -0.72900 44.68100
O  26.47400 -1.53800 46.66700
C  25.61400 -0.41100 46.97200
H  21.93500 -6.58000 44.84100
H  24.32300 -10.55700 49.46100
H  29.84200 -7.09500 49.47100
H  24.79700 -2.86300 44.44400
H  23.22800 -4.96300 43.15600
H  21.37500 -3.70400 44.08300
H  22.68200 -2.51900 44.42700
H  22.07900 -3.58600 45.67900
H  24.67800 -4.27100 41.84400
H  26.18700 -4.59800 42.43200
H  26.93700 -2.60000 41.75000
H  25.77800 -1.80600 42.79700
H  20.90400 -9.46200 44.95100
H  20.45800 -7.87200 45.63800
H  19.86800 -9.33300 46.36500
H  23.62200 -12.25600 48.36800
H  22.16900 -13.04000 48.67700
H  22.64100 -11.96100 49.93500
H  26.88100 -11.08500 49.98900
H  28.52100 -8.82700 51.10600
H  25.30600 -9.48400 51.88700
H  26.90000 -9.77900 52.49600
H  25.93600 -11.16300 51.99200
H  29.33300 -10.03500 48.61100
H  29.29800 -11.17500 49.89800
H  31.41200 -9.34700 49.44300
H  31.20500 -10.51800 50.82400
H  30.51100 -9.02200 51.03200
H  30.92900 -3.58600 48.82900
H  31.64300 -4.75300 47.80900
H  31.09300 -5.23500 49.40400
H  28.04400 -3.03500 44.12300
H  24.65100 -0.74800 47.35400
H  25.39900 0.21100 46.10300
H  26.04800 0.29000 47.68600
Mg 35.90500 2.06100 29.93800
C  33.29900 2.80500 31.96500
C  37.99600 2.08600 32.58300
C  38.45000 1.40600 27.76400
C  33.66000 2.14500 27.16400
N  35.62500 2.35700 31.98500
C  34.47500 2.61000 32.63800
C  34.70800 2.70800 34.16500
C  36.19600 2.83000 34.28300
C  36.66200 2.39300 32.86500
C  36.69500 4.30100 34.40300
C  34.12600 1.53400 35.09500
C  33.91000 1.97100 36.54400
H  34.51200 3.30100 37.19000
N  37.99700 1.80000 30.14700
C  38.64000 1.80800 31.35900
C  40.06300 1.48200 31.11200
C  40.15200 1.20700 29.70200
C  38.84900 1.47700 29.16300
C  41.05600 1.33200 32.14300
C  41.34800 0.70900 28.84300
O  41.41900 0.46800 27.65200
C  42.65000 0.50300 29.62600
N  35.93000 1.63800 27.83700
C  37.18600 1.54000 27.19800
C  37.04500 1.38000 25.65800
C  35.40500 1.55800 25.48800
C  34.92500 1.78000 26.89500
C  37.72500 2.53600 24.88200
C  34.82400 0.27500 24.88600
C  34.29700 0.40000 23.43600
N  33.87000 2.24400 29.53700
C  33.14400 2.46800 28.38200
C  31.80600 2.88500 28.71300
C  31.84600 3.03200 30.09900
C  33.12400 2.66300 30.56400
C  30.69300 3.14300 27.78600
C  31.07100 3.45300 31.22900
O  29.96900 3.96400 31.22800
C  31.94300 3.17600 32.49000
C  32.00500 4.40900 33.37100
O  32.44600 5.52100 33.13400
O  31.39100 4.06100 34.59600
C  31.18800 5.18000 35.50800
H  38.55700 2.20700 33.51200
H  39.32100 1.26200 27.12200
H  32.98300 2.11600 26.30900
H  34.21200 3.60700 34.53200
H  36.64500 2.20700 35.05500
H  37.50400 4.29700 35.13400
H  35.88400 4.95600 34.72100
H  37.10800 4.64300 33.45400
H  34.77400 0.66300 34.99800
H  33.13200 1.22300 34.77400
H  34.11000 1.08300 37.14300
H  32.83100 2.04800 36.68000
H  41.35100 0.29400 32.29600
H  40.62900 1.73000 33.06400
H  41.93400 1.92900 31.89900
H  43.33700 0.17500 28.84600
H  42.50700 -0.24900 30.40200
H  42.88000 1.50000 30.00200
H  37.49900 0.45500 25.30100
H  35.04200 2.39400 24.89100
H  38.62500 2.85000 25.41100
H  37.04800 3.34200 24.59900
H  38.15100 2.14000 23.96100
H  34.05100 -0.10400 25.55400
H  35.62200 -0.46200 24.97300
H  34.98400 -0.13200 22.77700
H  34.10900 1.41700 23.09300
H  33.32200 -0.04100 23.22800
H  31.12800 3.43900 26.83200
H  30.03400 3.94200 28.12500
H  30.05700 2.26500 27.67200
H  31.44800 2.47500 33.16100
H  32.14400 5.57400 35.85300
H  30.53800 5.01500 36.36800
H  30.82900 6.08800 35.02400

