158

Mg 48.41900 35.03100 26.89600
C  46.66200 33.76000 29.66900
C  49.55100 37.50300 28.90300
C  49.79300 36.49200 24.20400
C  47.25200 32.40700 24.92000
N  48.11500 35.54400 29.00000
C  47.43700 34.88400 29.93400
C  47.75900 35.42000 31.38100
C  48.48500 36.76400 31.02100
C  48.69900 36.65500 29.54400
C  47.60200 38.01900 31.46700
C  48.71700 34.50400 32.22400
C  48.57500 34.48500 33.78300
H  47.77700 35.56000 34.53900
N  49.57200 36.71800 26.58600
C  49.94800 37.60700 27.52800
C  50.95500 38.47300 27.03000
C  51.01500 38.25300 25.63700
C  50.10500 37.10400 25.39400
C  51.58500 39.57800 27.87700
C  51.75100 38.98000 24.45700
O  51.80100 38.60800 23.22700
C  52.66900 40.18100 24.93000
N  48.37100 34.55200 24.79000
C  49.04800 35.33200 23.90600
C  49.01500 34.65700 22.44900
C  48.31400 33.30100 22.75500
C  47.95000 33.44500 24.21500
C  48.32900 35.53800 21.37300
C  49.21000 32.05600 22.36200
C  50.52200 31.96800 23.02000
N  47.18500 33.42600 27.16400
C  46.86500 32.39100 26.26200
C  46.17800 31.34800 27.03200
C  45.98700 31.90700 28.32800
C  46.65700 33.10200 28.32300
C  45.42100 30.21400 26.44800
C  45.30300 31.62100 29.55900
O  44.64800 30.69300 29.94000
C  45.68600 32.81100 30.49400
C  46.18000 32.37200 31.79100
O  46.87100 31.38100 32.01700
O  45.60400 33.17600 32.71800
C  45.36300 32.58900 34.03900
H  50.01600 38.30200 29.48500
H  50.23600 37.02600 23.36100
H  47.09300 31.46300 24.39700
H  46.83200 35.63700 31.91000
H  49.42600 36.89000 31.55700
H  48.11400 38.60300 32.23200
H  46.64800 37.70500 31.88800
H  47.34000 38.56900 30.56300
H  49.75000 34.69000 31.92900
H  48.45600 33.49700 31.90100
H  49.58100 34.31000 34.16500
H  48.05100 33.54600 33.96300
H  52.53100 39.96100 27.49400
H  51.69500 39.27500 28.91800
H  50.97100 40.47400 27.97100
H  53.60400 39.78800 25.32900
H  52.10200 40.79000 25.63500
H  52.90800 40.65800 23.97900
H  50.07300 34.62800 22.18500
H  47.39000 33.17400 22.19200
H  47.94000 36.44200 21.84400
H  47.46500 35.11200 20.86200
H  49.00000 35.88100 20.58600
H  49.33700 31.98400 21.28200
H  48.65800 31.19800 22.74500
H  51.21700 31.60500 22.26300
H  50.61800 31.28600 23.86500
H  50.80500 32.95300 23.39100
H  45.32500 30.26700 25.36300
H  44.41800 30.22400 26.87400
H  45.91900 29.28100 26.71200
H  44.79500 33.42100 30.64500
H  45.57000 31.56000 34.33500
H  44.30300 32.81100 34.15700
H  45.82500 33.20300 34.81100
Mg 6.26300 54.89400 39.56400
C  5.78000 51.38200 39.23600
C  9.63200 54.37900 39.34000
C  6.70000 58.28300 39.32200
C  2.76200 55.36700 39.29300
N  7.51500 53.07800 39.30100
C  7.13800 51.73800 39.25900
C  8.40500 50.88300 39.10400
C  9.59400 51.88100 39.43500
C  8.89300 53.22400 39.29300
C  10.34700 51.72600 40.75900
C  8.59300 50.26400 37.67100
C  8.40000 51.17900 36.51900
H  7.72400 50.53400 35.27000
N  7.97100 56.16100 39.34700
C  9.28500 55.71200 39.22000
C  10.15400 56.92200 39.09500
C  9.35000 58.03900 39.31100
C  7.90700 57.53400 39.35200
C  11.60300 56.78700 38.81000
C  9.84700 59.44500 39.45700
O  10.99500 59.69700 39.55200
C  8.92800 60.65300 39.47400
N  4.92100 56.58400 39.35100
C  5.34100 57.87300 39.36900
C  4.14800 58.89000 39.34900
C  2.90100 57.94800 39.24500
C  3.52700 56.53600 39.23300
C  3.87600 59.82100 40.55800
C  1.96000 58.19400 38.04600
C  0.36600 58.24300 38.31000
N  4.53400 53.69500 39.52600
C  3.22100 53.98000 39.41200
C  2.49700 52.73600 39.52200
C  3.41000 51.68500 39.49000
C  4.67600 52.32300 39.41700
C  1.04800 52.82600 39.61300
C  3.63500 50.20700 39.50300
O  2.91000 49.23400 39.61800
C  5.19800 50.01400 39.32000
C  5.56600 49.03900 38.24000
O  5.42700 49.27500 37.03100
O  6.10400 47.85200 38.71200
C  6.21800 46.78900 37.63900
H  10.72300 54.32000 39.33800
H  6.69000 59.36700 39.18700
H  1.71000 55.65900 39.33100
H  8.37200 50.10300 39.86400
H  10.32300 51.89000 38.62500
H  10.43000 52.56500 41.45000
H  11.36800 51.51800 40.44200
H  9.93200 50.85700 41.26900
H  8.16600 49.26200 37.65300
H  9.67500 50.13200 37.69700
H  9.40100 51.46500 36.19500
H  7.89800 52.13900 36.63500
H  11.73600 55.86200 38.24900
H  12.09500 56.69400 39.77900
H  11.94100 57.56500 38.12500
H  9.58900 61.49800 39.66800
H  8.13200 60.51400 40.20600
H  8.49700 60.68400 38.47300
H  4.07300 59.50300 38.45100
H  2.34500 57.86900 40.17900
H  4.63200 60.60600 40.54100
H  3.97900 59.27600 41.49600
H  2.89700 60.27800 40.41500
H  2.21200 57.37100 37.37700
H  2.24900 59.09500 37.50600
H  0.25700 58.23500 39.39500
H  -0.11600 57.35100 37.91000
H  -0.00000 59.17000 37.86900
H  0.62300 52.42000 38.69500
H  0.61500 53.82500 39.66200
H  0.79300 52.27200 40.51600
H  5.48900 49.66100 40.30900
H  6.95900 47.15400 36.92700
H  5.21900 46.72900 37.20800
H  6.43800 45.78900 38.01300

