158

Mg 40.24800 9.53900 30.15900
C  42.65000 10.40700 32.62800
C  38.37200 8.12500 32.54300
C  38.26000 8.59400 27.73000
C  42.76500 10.25800 27.73700
N  40.59300 9.27200 32.34700
C  41.45100 9.82200 33.14300
C  40.99500 9.84100 34.59300
C  39.67100 8.98500 34.58900
C  39.54900 8.71300 33.02900
C  39.56300 7.71000 35.45900
C  40.78000 11.24700 35.17700
C  40.11600 11.29700 36.56500
H  40.85900 12.06800 37.70600
N  38.54000 8.44100 30.16000
C  37.90200 7.94500 31.22500
C  36.63900 7.38500 30.84300
C  36.55800 7.48200 29.42700
C  37.81100 8.21000 29.03900
C  35.65700 6.74500 31.83500
C  35.45800 6.98900 28.48500
O  35.46500 7.19300 27.30000
C  34.32700 6.22400 29.02400
N  40.46400 9.54700 28.02100
C  39.44300 9.15300 27.25100
C  39.73200 9.43100 25.83100
C  41.20300 9.96300 25.85400
C  41.52500 9.88900 27.32600
C  39.42600 8.21500 24.87800
C  41.27700 11.43500 25.14900
C  41.11600 12.71800 26.02400
N  42.35300 10.24500 30.08000
C  43.22800 10.46700 29.04700
C  44.45000 11.04100 29.50300
C  44.28100 11.10500 30.96500
C  42.96100 10.57400 31.27000
C  45.50300 11.68100 28.72600
C  44.88200 11.69300 32.17300
O  45.90000 12.28800 32.28600
C  43.84500 11.11000 33.32300
C  44.49800 10.15400 34.27300
O  44.63500 8.94500 34.01300
O  44.94900 10.71900 35.45100
C  45.66600 9.86900 36.44200
H  37.66800 7.92400 33.35300
H  37.48700 8.30500 27.01500
H  43.52200 10.42200 26.96700
H  41.84500 9.44800 35.15200
H  38.81200 9.57100 34.91800
H  40.40400 7.72400 36.15200
H  39.60800 6.86500 34.77200
H  38.60300 7.73800 35.97400
H  40.18600 11.82800 34.47100
H  41.74100 11.75900 35.22400
H  40.01700 10.25900 36.88400
H  39.13100 11.76100 36.51100
H  34.62900 7.05000 31.64300
H  35.86400 6.96800 32.88200
H  35.70200 5.66000 31.73800
H  34.64800 5.26900 29.44100
H  33.74000 6.13400 28.11000
H  33.75400 6.70400 29.81700
H  39.02500 10.23100 25.61000
H  41.72500 9.17700 25.30800
H  40.23000 8.04500 24.16100
H  38.55900 8.62400 24.36100
H  39.16900 7.36300 25.50900
H  40.53900 11.32200 24.35500
H  42.28700 11.53600 24.75400
H  40.12700 13.14500 25.86200
H  41.87800 13.49600 25.97200
H  41.13900 12.30900 27.03400
H  45.09300 11.73400 27.71700
H  46.38300 11.03800 28.75600
H  45.71100 12.73100 28.93000
H  43.47500 11.93900 33.92600
H  45.10600 9.99100 37.36900
H  46.70200 10.11200 36.67800
H  45.53700 8.80100 36.26500
Mg 9.92400 46.89000 25.71100
C  7.18400 47.16200 28.13900
C  12.03100 48.12400 27.89400
C  12.14600 46.92700 23.17900
C  7.36700 46.42600 23.30700
N  9.64900 47.42500 27.86500
C  8.49000 47.41800 28.67200
C  8.89000 47.88800 30.10000
C  10.42600 48.29600 30.01000
C  10.71700 48.00500 28.51300
C  10.79900 49.77200 30.40500
C  8.60300 46.84900 31.33400
C  9.28400 46.88300 32.69500
H  8.38500 46.57600 33.88600
N  11.77300 47.32400 25.62700
C  12.52900 47.78600 26.64500
C  13.85300 47.83700 26.32600
C  13.97100 47.41800 24.95100
C  12.58300 47.26000 24.42700
C  15.00800 48.27200 27.20500
C  15.21000 47.13800 24.03800
O  15.07600 46.78600 22.87700
C  16.58500 47.15900 24.56400
N  9.75500 46.65500 23.52200
C  10.82200 46.69300 22.73900
C  10.48800 46.31800 21.24500
C  8.92100 46.22000 21.38800
C  8.65700 46.41200 22.84200
C  11.12400 47.26900 20.13900
C  8.38000 44.78200 20.83400
C  7.01800 44.91100 20.00000
N  7.71100 46.83100 25.72800
C  6.91800 46.58600 24.60900
C  5.54800 46.53900 25.08300
C  5.58800 46.78300 26.51400
C  6.92700 46.87000 26.79600
C  4.36700 46.44700 24.17700
C  4.77000 46.91700 27.72700
O  3.57300 46.75200 27.92100
C  5.78000 47.30300 28.75800
C  5.64600 46.34600 29.87300
O  5.88300 45.15300 29.80600
O  5.19500 47.00600 30.98900
C  4.72200 46.15800 32.07000
H  12.65200 48.47500 28.72100
H  12.90300 46.92500 22.39200
H  6.58400 46.46000 22.54700
H  8.30200 48.78900 30.27800
H  11.01200 47.56300 30.56500
H  9.90700 50.35900 30.62900
H  11.16900 50.33600 29.54800
H  11.41500 49.87300 31.29800
H  8.83000 45.85500 30.94800
H  7.52300 46.96100 31.43200
H  9.85900 47.78800 32.89400
H  9.95600 46.02600 32.73100
H  14.60500 48.77800 28.08100
H  15.53500 49.05500 26.65900
H  15.61400 47.49200 27.66800
H  16.55100 48.00200 25.25400
H  17.26300 47.41900 23.75100
H  16.87100 46.17700 24.94200
H  11.04700 45.38300 21.22100
H  8.53800 47.05500 20.80100
H  10.33000 47.94500 19.82300
H  11.38100 46.57400 19.33900
H  11.99100 47.81700 20.50900
H  8.23300 44.09200 21.66600
H  9.05400 44.31200 20.11800
H  6.94600 44.27100 19.12000
H  6.83900 45.92800 19.65200
H  6.25300 44.67900 20.74200
H  4.68600 45.89500 23.29300
H  3.88000 47.38100 23.89700
H  3.65700 45.86400 24.76400
H  5.67500 48.26600 29.25800
H  4.13800 46.78100 32.74800
H  5.43500 45.59100 32.66700
H  4.02700 45.48700 31.56500

