158

Mg 16.40900 51.73100 26.76900
C  18.29500 50.86200 29.54600
C  13.75500 52.50600 29.04100
C  14.46400 52.73600 24.19500
C  18.79700 50.58400 24.60400
N  16.10100 51.76000 28.99500
C  17.09400 51.42400 29.88900
C  16.50400 51.63400 31.38500
C  15.07800 52.16800 31.19700
C  14.95400 52.18400 29.66300
C  14.01300 51.20100 31.77700
C  17.43900 52.65400 32.21500
C  17.77500 52.37400 33.67000
H  16.93900 53.01700 34.80100
N  14.39300 52.53200 26.64800
C  13.55400 52.84400 27.71000
C  12.38300 53.54700 27.15100
C  12.51300 53.56400 25.71800
C  13.80100 52.91200 25.39700
C  11.41800 54.23100 28.11800
C  11.57100 54.16100 24.63000
O  11.79500 54.15500 23.45700
C  10.17800 54.64700 25.09300
N  16.63300 51.69300 24.68500
C  15.73100 52.19100 23.86900
C  16.26600 52.08400 22.35100
C  17.67500 51.61900 22.55800
C  17.73600 51.25900 24.07800
C  15.39500 51.19900 21.42600
C  18.75900 52.60500 22.14400
C  19.29700 53.61100 23.16500
N  18.20800 50.79400 26.96800
C  19.04800 50.34800 25.98300
C  20.25900 49.81300 26.63600
C  19.94900 49.93000 28.05100
C  18.64900 50.51800 28.19900
C  21.40700 49.27700 25.93500
C  20.39000 49.64300 29.45800
O  21.33200 48.92800 29.77700
C  19.37300 50.27300 30.44900
C  18.84300 49.23800 31.38500
O  18.20000 48.28400 31.03800
O  19.25700 49.54300 32.64900
C  19.10000 48.53500 33.75100
H  13.02200 52.84200 29.77800
H  13.88400 52.99500 23.30700
H  19.63900 50.36500 23.94300
H  16.41800 50.62700 31.79300
H  14.98100 53.17600 31.60000
H  13.15200 51.81300 32.04500
H  14.34500 50.69100 32.68100
H  13.70200 50.41600 31.08700
H  17.02400 53.66000 32.27500
H  18.40100 52.84300 31.74000
H  18.80600 52.72600 33.70900
H  17.82200 51.29900 33.84100
H  11.67800 55.28500 28.02800
H  11.52500 54.03900 29.18500
H  10.38600 53.95900 27.89400
H  9.65100 55.00200 24.20700
H  10.37000 55.45300 25.80200
H  9.68600 53.80200 25.57400
H  16.24200 53.06900 21.88500
H  17.88500 50.74300 21.94300
H  15.85900 50.43700 20.80000
H  14.82400 51.96000 20.89300
H  14.60000 50.71500 21.99300
H  18.47200 53.18700 21.26800
H  19.56800 51.93000 21.86500
H  20.38000 53.55400 23.26500
H  18.89500 53.58600 24.17800
H  18.95100 54.59100 22.83600
H  21.65100 49.97400 25.13300
H  21.19200 48.24500 25.65800
H  22.22500 49.27300 26.65500
H  19.77000 51.10200 31.03500
H  18.48900 48.97000 34.54100
H  20.05000 48.48600 34.28200
H  18.73700 47.56500 33.41000
Mg -2.20100 35.33700 26.37500
C  -3.89800 33.99100 29.08400
C  -1.16200 37.91000 28.48100
C  -0.55400 36.63700 23.68800
C  -3.88100 33.06400 24.26000
N  -2.46700 35.83200 28.59800
C  -3.12600 35.06600 29.49400
C  -2.91900 35.45700 30.98100
C  -2.08100 36.79200 30.74600
C  -1.91300 36.92200 29.17800
C  -2.46700 38.14700 31.43300
C  -2.18900 34.33700 31.88400
C  -1.56100 34.79700 33.18700
H  -2.25200 34.26500 34.43600
N  -0.98900 36.95100 26.08100
C  -0.75800 37.94100 27.07900
C  0.17000 38.89900 26.54000
C  0.47900 38.53800 25.19600
C  -0.39200 37.35700 24.88200
C  0.91300 40.00500 27.36000
C  1.39200 39.22800 24.18100
O  1.53400 38.85600 23.00100
C  2.16900 40.40000 24.56300
N  -2.06300 34.73200 24.25500
C  -1.30600 35.42800 23.38900
C  -1.18000 34.60900 22.12700
C  -2.39300 33.54500 22.18800
C  -2.93100 33.84100 23.64200
C  -1.14200 35.61000 20.88500
C  -2.08000 31.97100 22.00700
C  -2.81800 31.23600 20.88300
N  -3.58600 33.87500 26.53900
C  -4.23200 33.05800 25.59200
C  -5.21300 32.20800 26.26400
C  -5.07100 32.60900 27.61500
C  -4.17200 33.63300 27.73200
C  -6.17200 31.34300 25.58600
C  -5.62300 32.18800 28.98200
O  -6.34000 31.22500 29.21900
C  -4.74000 32.97900 29.93700
C  -5.77800 33.51800 30.90500
O  -6.47400 34.42500 30.74200
O  -5.76800 32.73700 32.02800
C  -6.81200 33.11500 33.03400
H  -0.84300 38.76100 29.08700
H  -0.05100 37.07000 22.82100
H  -4.31200 32.42800 23.48400
H  -3.83100 35.72400 31.51500
H  -1.13200 36.65300 31.26400
H  -1.58600 38.65000 31.83000
H  -3.16900 38.01000 32.25500
H  -3.04200 38.65500 30.65900
H  -1.49100 33.78900 31.25100
H  -2.97400 33.65900 32.22000
H  -1.71300 35.87400 33.11000
H  -0.50000 34.59600 33.33600
H  1.97500 39.81900 27.19800
H  0.86200 39.80500 28.43100
H  0.70100 41.04600 27.11600
H  2.98400 39.94600 25.12800
H  1.67900 41.14400 25.19100
H  2.84700 40.79200 23.80500
H  -0.23600 34.09600 22.30600
H  -3.22200 33.82700 21.54000
H  -1.76900 36.49900 20.95200
H  -1.52800 35.02400 20.05100
H  -0.09900 35.87700 20.71100
H  -2.19500 31.46300 22.96500
H  -1.06000 31.81100 21.65900
H  -3.73900 30.67500 21.04900
H  -2.15000 30.50900 20.42100
H  -3.01800 31.99700 20.12900
H  -6.49700 31.93600 24.73100
H  -6.90700 31.31200 26.38900
H  -5.63300 30.43400 25.31600
H  -4.05900 32.35900 30.52100
H  -6.66900 34.12900 33.40900
H  -6.83000 32.41800 33.87100
H  -7.79700 32.98100 32.58600

