158

Mg 40.99500 9.13400 29.44000
C  42.45400 10.28600 32.53900
C  38.53600 7.72700 31.28200
C  39.96400 7.64300 26.76800
C  43.99800 10.01400 28.00900
N  40.60300 8.98500 31.64600
C  41.21500 9.64500 32.73300
C  40.38500 9.62000 34.03900
C  39.15600 8.74500 33.63400
C  39.39700 8.49500 32.08500
C  39.08500 7.45700 34.41900
C  40.04900 11.08200 34.45600
C  39.03300 11.24700 35.65400
H  39.58300 11.42800 37.07300
N  39.40100 7.92300 29.05400
C  38.48400 7.47700 29.92900
C  37.40900 6.72400 29.18400
C  37.74700 6.79600 27.82300
C  39.04800 7.49300 27.86200
C  36.33200 5.93000 29.92200
C  37.03200 6.27500 26.62800
O  37.46100 6.24800 25.46200
C  35.64100 5.64800 26.82900
N  41.97400 8.64600 27.67800
C  41.24200 8.20500 26.62600
C  41.79500 8.39500 25.24100
C  43.07200 9.21800 25.65900
C  43.00900 9.38500 27.19200
C  42.26400 7.16400 24.44800
C  43.23700 10.56000 24.93300
C  42.03100 11.49200 25.02600
N  42.70900 10.10000 30.00800
C  43.86900 10.33400 29.33100
C  44.82000 11.10200 30.04700
C  44.23400 11.23300 31.30600
C  43.02700 10.49300 31.27800
C  46.08800 11.57300 29.61900
C  44.43400 11.78400 32.65200
O  45.22100 12.64300 33.08900
C  43.33000 11.11800 33.49000
C  43.86500 10.15200 34.55700
O  44.81400 9.38200 34.47500
O  43.00700 10.12000 35.65100
C  43.45000 9.23100 36.77200
H  37.65700 7.37500 31.82700
H  39.53600 7.22500 25.85500
H  44.83600 10.50000 27.50600
H  41.00400 9.14100 34.79800
H  38.15900 9.18300 33.59500
H  39.09700 6.57500 33.77900
H  38.17200 7.40000 35.01100
H  39.91400 7.51200 35.12500
H  39.60300 11.62200 33.62100
H  40.95700 11.53200 34.85600
H  38.40600 10.36500 35.78700
H  38.31400 12.04300 35.46400
H  36.45100 5.97600 31.00400
H  36.28200 4.85500 29.74600
H  35.40100 6.41600 29.63000
H  35.74800 4.87400 27.58800
H  35.30700 5.31300 25.84600
H  34.83200 6.31100 27.13600
H  41.20900 8.95500 24.51300
H  44.02300 8.74300 25.41600
H  43.20700 6.77600 24.83300
H  42.46300 7.48200 23.42500
H  41.62600 6.29300 24.59500
H  43.38300 10.33000 23.87800
H  44.03100 11.13300 25.41400
H  42.19100 12.48300 25.45100
H  41.30400 11.11000 25.74200
H  41.43000 11.66600 24.13300
H  46.08000 12.38700 28.89500
H  46.46700 10.71800 29.06000
H  46.82500 11.72800 30.40700
H  42.74100 11.93000 33.91600
H  44.38200 9.59100 37.20700
H  43.56600 8.18300 36.49500
H  42.76800 9.21900 37.62300
Mg -11.57300 38.69700 42.57300
C  -9.96700 35.79200 41.42000
C  -9.12300 40.51200 40.79700
C  -13.56200 41.38400 42.59600
C  -14.20300 36.67900 43.46900
N  -9.90300 38.18100 41.28300
C  -9.46600 36.95400 40.87800
C  -8.19500 37.02400 40.11600
C  -7.76200 38.51600 40.22200
C  -9.01200 39.16200 40.76400
C  -6.42400 38.75900 41.05400
C  -8.41600 36.54500 38.66900
C  -7.26700 35.45400 38.34500
H  -5.99300 35.95300 37.64500
N  -11.35200 40.65800 41.86200
C  -10.23500 41.21400 41.24300
C  -10.42100 42.67900 41.09300
C  -11.68300 42.99600 41.73800
C  -12.23400 41.68200 42.12800
C  -9.38700 43.47700 40.46700
C  -12.26000 44.45500 41.89400
O  -11.65100 45.38100 41.27600
C  -13.48200 44.80500 42.66300
N  -13.63000 39.03700 42.82000
C  -14.14600 40.25300 43.03200
C  -15.48300 40.18600 43.66500
C  -15.82600 38.71900 43.67900
C  -14.41900 38.08400 43.43600
C  -15.50500 40.80700 45.13600
C  -16.75000 38.29600 42.62200
C  -18.17800 38.23200 43.25000
N  -11.92900 36.67500 42.82800
C  -13.00000 36.01200 43.14000
C  -12.80400 34.57100 43.18600
C  -11.47300 34.42300 42.53600
C  -11.07500 35.71500 42.24600
C  -13.84900 33.61100 43.59700
C  -10.45200 33.50700 42.07500
O  -10.32700 32.28600 42.15000
C  -9.52700 34.30800 41.30400
C  -8.28800 34.21200 42.14900
O  -8.20400 34.63100 43.29900
O  -7.32800 33.51800 41.44200
C  -5.95800 33.45500 41.95200
H  -8.27700 41.04400 40.35600
H  -14.12300 42.31800 42.65900
H  -15.03200 36.03100 43.76200
H  -7.55100 36.38900 40.72400
H  -7.57000 38.92400 39.23000
H  -5.86400 37.82900 41.15700
H  -6.55700 39.23000 42.02700
H  -5.80000 39.37900 40.41000
H  -8.37300 37.42300 38.02400
H  -9.39400 36.07900 38.55200
H  -7.87100 34.92300 37.60900
H  -7.02700 34.69400 39.08800
H  -8.39800 43.12800 40.76300
H  -9.41500 44.48600 40.87800
H  -9.44600 43.54100 39.38000
H  -14.31000 44.36000 42.11200
H  -13.64600 45.88300 42.66200
H  -13.37200 44.39700 43.66800
H  -16.12300 40.71900 42.96100
H  -16.15100 38.33000 44.64400
H  -14.53000 41.04700 45.56100
H  -16.05600 40.16800 45.82700
H  -16.06100 41.74000 45.23200
H  -16.55600 37.40900 42.01900
H  -16.75600 39.13400 41.92500
H  -18.57500 37.23900 43.04100
H  -18.64600 39.06000 42.71700
H  -18.29500 38.50300 44.30000
H  -14.46700 33.95900 44.42500
H  -13.36100 32.70700 43.96200
H  -14.45700 33.42300 42.71300
H  -9.43400 33.99500 40.26400
H  -5.30600 33.07000 41.16700
H  -5.93300 32.71400 42.75000
H  -5.56800 34.41500 42.29200

