158

Mg 0.67600 8.20900 27.59400
C  1.45900 10.38900 30.35100
C  0.70400 5.55200 29.72800
C  0.15800 6.30900 24.94900
C  1.29200 11.07000 25.47600
N  1.06100 8.08000 29.66600
C  1.06800 9.05700 30.67900
C  0.90500 8.51600 32.06000
C  1.01700 6.93500 31.79600
C  0.91200 6.80000 30.31600
C  2.34900 6.26700 32.19900
C  -0.48300 9.00300 32.62000
C  -0.71900 8.84900 34.20400
H  0.49300 8.30500 35.06300
N  0.37000 6.12200 27.38400
C  0.44000 5.23200 28.43400
C  0.21200 3.96200 27.80200
C  -0.08800 4.17500 26.40000
C  0.15900 5.57800 26.18400
C  0.47000 2.68100 28.54700
C  -0.50800 3.23600 25.40900
O  -0.60300 3.47000 24.18100
C  -0.88300 1.84500 25.69800
N  0.71500 8.61800 25.55100
C  0.44400 7.62200 24.68800
C  0.41100 8.14900 23.26100
C  0.73900 9.57100 23.39800
C  0.90000 9.81600 24.91400
C  1.31100 7.33700 22.32400
C  -0.17100 10.63200 22.67900
C  -1.62200 10.66800 23.20200
N  1.32400 10.25900 27.80700
C  1.47600 11.27700 26.84200
C  1.95000 12.44300 27.49400
C  1.91900 12.14100 28.85700
C  1.56500 10.83800 29.00400
C  2.15900 13.78100 26.80800
C  2.13200 12.77000 30.16800
O  2.51500 13.91500 30.40200
C  1.72300 11.67300 31.17100
C  2.80000 11.55700 32.12200
O  3.84400 11.00900 31.95000
O  2.43500 12.12700 33.34600
C  3.32800 11.73700 34.46700
H  0.59600 4.71400 30.41900
H  -0.11500 5.78500 24.03100
H  1.38100 11.87600 24.74400
H  1.68700 8.82300 32.75500
H  0.15800 6.53500 32.33500
H  2.31900 5.27800 32.65800
H  2.78100 6.90400 32.97100
H  2.97200 6.19200 31.30800
H  -1.27900 8.36800 32.22900
H  -0.71500 10.03200 32.34500
H  -1.60800 8.23100 34.32700
H  -1.03000 9.77400 34.69000
H  -0.39700 2.02100 28.53600
H  0.77300 2.94700 29.56000
H  1.27200 2.19600 27.99100
H  -0.01800 1.18800 25.78800
H  -1.52900 1.50700 24.88700
H  -1.50700 1.89100 26.59100
H  -0.61900 7.97100 22.95300
H  1.71200 9.71600 22.92900
H  1.91000 7.96600 21.66500
H  0.76700 6.66000 21.66600
H  1.89900 6.66900 22.95300
H  -0.23800 10.48500 21.60100
H  0.28200 11.61700 22.79600
H  -2.27800 10.07500 22.56500
H  -2.00700 11.68700 23.24200
H  -1.71000 10.12900 24.14500
H  2.37100 14.46200 27.63200
H  1.23900 14.06000 26.29400
H  2.93600 13.73800 26.04500
H  0.84600 11.99500 31.73300
H  3.97400 10.89100 34.23300
H  2.72100 11.64500 35.36800
H  3.91900 12.62800 34.67900
Mg 35.01300 48.66700 26.17200
C  35.37800 46.64700 28.99500
C  33.53600 51.12700 28.23200
C  34.02100 50.45400 23.44200
C  35.74300 45.92100 24.28800
N  34.67100 48.95300 28.38400
C  34.94000 47.97200 29.34600
C  34.66100 48.46700 30.78300
C  34.03300 49.87800 30.51200
C  34.12800 50.05000 28.95600
C  32.62000 50.12800 31.08000
C  35.85900 48.55900 31.74700
C  35.73900 48.19900 33.23900
H  36.04200 49.26700 34.31300
N  33.99100 50.53800 25.89000
C  33.49000 51.36200 26.89600
C  32.87300 52.46200 26.21200
C  32.99500 52.35100 24.79400
C  33.64900 51.06600 24.62900
C  32.33500 53.66700 26.96500
C  32.58300 53.20400 23.64700
O  32.72500 52.95300 22.50000
C  31.93300 54.62800 23.83400
N  35.00000 48.28400 24.13700
C  34.65100 49.21200 23.18100
C  34.73800 48.58300 21.79000
C  35.20600 47.19100 22.06400
C  35.42500 47.11400 23.58200
C  33.41300 48.68100 20.92800
C  36.43900 46.60000 21.24600
C  36.14900 45.43700 20.28700
N  35.84200 46.72300 26.49200
C  35.92300 45.62800 25.63000
C  36.16500 44.39200 26.37900
C  36.08000 44.78900 27.71600
C  35.77300 46.15900 27.73600
C  36.40300 43.01400 25.76700
C  36.19600 44.26400 29.09600
O  36.53800 43.12700 29.46700
C  35.73000 45.51800 30.01200
C  34.66700 45.04000 30.86400
O  33.54600 44.78400 30.49200
O  35.01900 44.89600 32.19200
C  33.99000 44.79200 33.19300
H  33.21600 52.02400 28.76600
H  33.50200 51.04500 22.68500
H  35.89700 45.05600 23.63900
H  33.89900 47.82200 31.22000
H  34.67000 50.60400 31.01800
H  32.13100 49.27200 31.54500
H  31.98300 50.50400 30.27900
H  32.54700 50.86900 31.87700
H  36.37400 49.51900 31.74600
H  36.58400 47.88100 31.29700
H  36.33500 47.31700 33.47100
H  34.73300 47.82500 33.43200
H  32.18300 54.60900 26.43800
H  33.02100 53.84700 27.79200
H  31.36100 53.31600 27.30300
H  31.68200 54.98500 22.83500
H  32.75900 55.16000 24.30700
H  31.07600 54.66100 24.50600
H  35.51800 49.13500 21.26500
H  34.36700 46.51900 21.88300
H  32.55100 48.81800 21.58100
H  33.27300 47.71500 20.44400
H  33.50000 49.47100 20.18100
H  37.20900 46.22800 21.92100
H  36.85100 47.41800 20.65600
H  36.25400 44.43600 20.70800
H  36.76400 45.50900 19.39000
H  35.14600 45.54300 19.87400
H  37.48900 42.93700 25.72600
H  36.04900 42.89200 24.74400
H  35.81500 42.26400 26.29700
H  36.55400 45.89300 30.61900
H  33.00200 45.05900 32.81900
H  34.23400 45.56000 33.92800
H  33.96700 43.91200 33.83500

