158

Mg 1.48000 -1.75400 44.79600
C  4.77900 -0.88200 44.30600
C  0.45000 1.35400 43.82300
C  -1.66600 -3.04300 44.55900
C  2.65200 -5.07200 45.40700
N  2.50700 0.06900 44.34200
C  3.85500 0.16200 44.11900
C  4.17300 1.57700 43.52000
C  2.79600 2.36100 43.73900
C  1.83500 1.18400 43.94900
C  2.69100 3.28000 44.93200
C  4.59300 1.41500 42.03600
C  5.97900 1.98500 41.68500
H  6.52000 1.64800 40.27500
N  -0.30300 -0.96700 44.17500
C  -0.55400 0.37800 43.89700
C  -2.01700 0.54200 43.76800
C  -2.59700 -0.74500 43.88600
C  -1.47400 -1.70000 44.16200
C  -2.69100 1.88600 43.33500
C  -4.11200 -1.00900 43.87100
O  -4.89900 -0.07100 43.77400
C  -4.73300 -2.45000 43.87600
N  0.58100 -3.77300 44.99600
C  -0.73700 -4.04900 44.92800
C  -1.10000 -5.50700 45.39400
C  0.33900 -6.06300 45.74100
C  1.27500 -4.88600 45.32800
C  -2.17300 -5.67600 46.51500
C  0.74400 -7.42000 45.11700
C  1.16800 -8.52500 46.12100
N  3.30000 -2.81100 44.96400
C  3.62400 -4.11300 45.28800
C  5.07700 -4.20800 45.40800
C  5.54900 -2.97200 45.00500
C  4.45000 -2.14800 44.72400
C  5.76200 -5.43100 45.86500
C  6.75400 -2.21100 44.86100
O  7.90500 -2.54700 45.05500
C  6.27500 -0.75600 44.30100
C  6.57600 0.36200 45.28800
O  6.01300 0.43800 46.37900
O  7.52500 1.24800 44.87000
C  7.66700 2.49500 45.74000
H  0.05000 2.33800 43.56700
H  -2.70500 -3.37700 44.51500
H  3.02000 -6.07800 45.61700
H  4.88300 2.19400 44.07200
H  2.45800 2.90200 42.85500
H  2.56100 2.69800 45.84400
H  1.94200 4.06400 44.82200
H  3.62300 3.80100 45.15000
H  3.87500 1.93600 41.40300
H  4.52800 0.39000 41.67100
H  6.75100 1.68000 42.39200
H  5.99200 3.07400 41.74200
H  -3.22900 1.82600 42.38900
H  -1.88900 2.62300 43.37500
H  -3.40000 2.12800 44.12700
H  -5.79200 -2.39200 43.62500
H  -4.60800 -2.78800 44.90500
H  -4.19800 -3.00300 43.10400
H  -1.48900 -5.99900 44.50300
H  0.37200 -6.07000 46.83100
H  -3.00200 -6.27200 46.13300
H  -2.67800 -4.74000 46.75400
H  -1.76400 -6.29200 47.31500
H  1.46300 -7.31100 44.30500
H  -0.19300 -7.75900 44.67400
H  2.23500 -8.71900 46.01000
H  0.72000 -9.51500 46.04100
H  1.09600 -8.23800 47.17000
H  5.58000 -5.59600 46.92700
H  6.83600 -5.29500 45.73800
H  5.43700 -6.34800 45.37300
H  6.70800 -0.52500 43.32700
H  8.37400 3.23900 45.37400
H  7.92500 2.29000 46.77900
H  6.66900 2.92900 45.79800
Mg 36.79600 49.16400 25.30900
C  36.65700 47.19800 28.18100
C  35.05500 51.60600 27.18300
C  36.05600 51.05900 22.40100
C  38.08900 46.63600 23.50300
N  35.81100 49.24800 27.37300
C  36.18800 48.45100 28.40100
C  35.96400 49.11400 29.80300
C  35.43500 50.50300 29.38900
C  35.37700 50.45900 27.91300
C  34.12100 50.86000 30.07600
C  37.17500 49.17700 30.75600
C  36.92900 48.52400 32.16100
H  36.97100 49.51900 33.32500
N  35.85300 51.12400 24.91100
C  35.22100 51.92800 25.83800
C  34.88300 53.18600 25.21000
C  35.17400 53.01000 23.81900
C  35.67000 51.65700 23.65900
C  34.39100 54.42000 26.03800
C  34.90700 54.07500 22.72000
O  35.27600 53.92700 21.54600
C  34.08400 55.34700 23.03500
N  36.95600 48.90600 23.29000
C  36.68900 49.80500 22.27000
C  36.78000 49.05600 20.89900
C  37.69600 47.82600 21.25800
C  37.58700 47.75900 22.81900
C  35.35200 48.75600 20.38100
C  39.15500 48.00900 20.85300
C  39.68800 46.91400 19.86500
N  37.33700 47.33200 25.71400
C  37.92300 46.39000 24.87700
C  38.05200 45.11200 25.53800
C  37.63900 45.41500 26.85000
C  37.11700 46.73800 26.88200
C  38.52800 43.75600 25.03500
C  37.47200 44.86900 28.25500
O  37.76400 43.76600 28.69700
C  36.78300 45.99400 29.05300
C  35.62400 45.42900 29.66000
O  34.69000 44.92900 29.03100
O  35.76600 45.41800 31.06400
C  34.71100 44.76900 31.84700
H  34.54900 52.39800 27.73800
H  35.82700 51.68500 21.53700
H  38.63900 45.89700 22.91600
H  35.16500 48.49000 30.20300
H  36.12100 51.29700 29.68200
H  33.24900 50.67000 29.45000
H  34.08000 51.94400 30.17300
H  34.03300 50.40500 31.06300
H  37.43100 50.23100 30.86200
H  38.00300 48.76000 30.18400
H  37.84400 47.95400 32.32600
H  35.99000 47.97300 32.21100
H  34.29900 54.23200 27.10800
H  33.40600 54.78200 25.74400
H  35.21500 55.12600 25.94200
H  33.13900 55.29400 23.57500
H  33.76700 55.72500 22.06300
H  34.70800 55.95900 23.68500
H  37.12200 49.73000 20.11300
H  37.21500 46.92800 20.87200
H  34.60500 49.10200 21.09600
H  35.31200 47.71400 20.06400
H  35.21700 49.32100 19.45800
H  39.77900 48.08800 21.74400
H  39.27400 48.96400 20.34200
H  39.89900 47.41800 18.92200
H  39.00500 46.06600 19.83400
H  40.67400 46.69700 20.27800
H  39.61700 43.70300 25.05100
H  38.29400 43.71700 23.97100
H  37.96600 42.97800 25.55200
H  37.48200 46.27300 29.84200
H  35.14600 43.96000 32.43400
H  33.80200 44.40700 31.36700
H  34.41500 45.37500 32.70400

