158

Mg 46.04300 25.05700 28.52400
C  46.90700 27.06500 31.17700
C  45.12300 22.58200 30.72600
C  46.02600 22.82000 25.93400
C  47.33900 27.50800 26.43200
N  46.31200 24.76300 30.73200
C  46.49000 25.83300 31.64300
C  45.85800 25.40500 33.02500
C  45.40000 23.93800 32.81400
C  45.59700 23.73600 31.33200
C  46.27500 22.97500 33.69300
C  44.69300 26.27700 33.53800
C  44.94100 26.83000 34.98700
H  43.73100 26.86200 35.96800
N  45.62500 22.96300 28.37000
C  45.23600 22.15800 29.37100
C  44.73300 20.89100 28.81200
C  45.04300 20.89900 27.36800
C  45.56300 22.27300 27.15600
C  44.13700 19.75200 29.68000
C  45.01300 19.70300 26.39000
O  45.44900 19.78200 25.20300
C  44.52400 18.35400 26.79800
N  46.54000 25.09800 26.50500
C  46.44300 24.10500 25.60300
C  46.71700 24.60700 24.17600
C  46.76300 26.16800 24.28700
C  46.89800 26.25900 25.86200
C  48.04400 23.87300 23.46300
C  45.58600 26.99300 23.65400
C  44.21600 26.73900 24.33900
N  46.86900 26.98600 28.68900
C  47.33200 27.85400 27.70800
C  47.80600 29.09500 28.34200
C  47.65600 28.79100 29.69900
C  47.16700 27.52700 29.85600
C  48.45200 30.34100 27.70400
C  47.92900 29.28400 31.00400
O  48.32200 30.33200 31.48900
C  47.41700 28.15400 32.00500
C  48.48400 27.76900 33.05100
O  49.36200 26.95100 32.84800
O  48.23700 28.44100 34.18900
C  49.01700 28.01800 35.38700
H  44.66300 21.93500 31.47600
H  46.14500 22.12800 25.09700
H  47.58700 28.33800 25.76600
H  46.59800 25.47000 33.82300
H  44.35800 23.71400 33.04000
H  45.70600 22.04900 33.76600
H  46.47600 23.35900 34.69400
H  47.24000 22.81000 33.21600
H  43.74000 25.74800 33.55100
H  44.66300 27.12900 32.85900
H  45.17500 27.89200 34.91300
H  45.75600 26.29100 35.47100
H  43.20800 19.36300 29.26400
H  43.74200 20.22600 30.57800
H  44.87100 19.06000 30.09300
H  43.44000 18.27000 26.87200
H  45.09500 18.13700 27.70100
H  44.84200 17.60600 26.07200
H  45.90100 24.30500 23.51900
H  47.75000 26.48600 23.95000
H  47.89600 23.69000 22.39900
H  48.31100 22.93900 23.95700
H  48.90100 24.54700 23.44700
H  45.49700 26.83200 22.58000
H  45.76400 28.06600 23.71300
H  43.63100 26.18200 23.60700
H  43.90700 27.77000 24.51300
H  44.26400 26.16200 25.26300
H  47.68700 30.84000 27.10900
H  49.27800 29.99600 27.08300
H  48.90200 31.06600 28.38200
H  46.61800 28.54100 32.63700
H  48.23600 27.81000 36.11900
H  49.49900 28.88300 35.84300
H  49.72200 27.20100 35.23300
Mg 8.93400 47.30400 25.86900
C  6.95000 47.66800 28.62400
C  11.44300 49.07000 27.38200
C  10.84400 47.51900 22.91600
C  6.08300 46.80400 23.81200
N  9.12200 48.31100 27.69900
C  8.26300 48.12000 28.82700
C  8.93500 48.67900 30.00400
C  10.00400 49.61200 29.40500
C  10.32000 48.89600 28.08100
C  9.53100 51.04700 29.09300
C  9.39800 47.63600 30.99500
C  8.80500 47.84300 32.43200
H  8.86600 46.51800 33.30900
N  11.05800 47.84900 25.29200
C  11.88100 48.53900 26.13400
C  13.22400 48.67500 25.53900
C  13.08600 48.21200 24.22700
C  11.58400 47.83500 24.05400
C  14.35000 49.23900 26.34400
C  14.11400 48.30000 23.01900
O  13.80400 47.98200 21.85400
C  15.50300 48.77700 23.28100
N  8.48000 47.26900 23.67500
C  9.41600 47.37200 22.67800
C  8.71000 47.32700 21.27900
C  7.20100 46.99100 21.63400
C  7.26100 47.01200 23.16300
C  8.85300 48.60100 20.51400
C  6.63300 45.53500 21.11100
C  5.37400 45.61700 20.35600
N  6.94200 47.24400 26.09500
C  5.87100 46.87700 25.24700
C  4.67300 46.73300 26.05900
C  5.01700 47.01500 27.37500
C  6.39400 47.32200 27.35200
C  3.26900 46.39200 25.67100
C  4.50900 47.09200 28.73200
O  3.35300 47.04700 29.10700
C  5.87000 47.30000 29.61500
C  6.20700 46.07800 30.34400
O  7.06000 45.24800 30.06300
O  5.40100 46.03000 31.44800
C  5.78500 45.00900 32.46100
H  12.23200 49.68300 27.82300
H  11.34200 47.49200 21.94400
H  5.21500 46.70400 23.15600
H  8.22000 49.34400 30.48900
H  10.93800 49.68900 29.96100
H  10.18600 51.76100 29.59300
H  8.53900 51.18200 29.52300
H  9.52700 51.33800 28.04300
H  10.47400 47.58500 31.15800
H  9.08100 46.66900 30.60600
H  7.75700 48.14300 32.42400
H  9.41700 48.58900 32.93800
H  14.23400 49.08000 27.41600
H  14.41200 50.27000 25.99600
H  15.19200 48.63800 26.00000
H  15.38500 49.47900 24.10700
H  15.89900 49.13300 22.33000
H  16.22100 47.97000 23.43200
H  9.08900 46.48800 20.69400
H  6.54300 47.83600 21.42600
H  7.90800 49.11400 20.33500
H  9.23500 48.31800 19.53300
H  9.61800 49.31300 20.82400
H  6.57100 44.80400 21.91700
H  7.38700 45.18600 20.40500
H  5.54800 45.55600 19.28200
H  4.90500 46.58600 20.52300
H  4.75100 44.77800 20.66400
H  2.61700 47.25000 25.84100
H  2.93300 45.54800 26.27300
H  3.26800 46.08500 24.62600
H  5.67800 48.15400 30.26500
H  5.27600 44.05400 32.33200
H  5.39400 45.42600 33.38900
H  6.85100 44.81800 32.58300

