158

Mg 17.11800 -1.52100 27.75000
C  16.21200 0.90900 30.15400
C  18.73200 -3.21000 30.27100
C  18.71800 -3.38200 25.39000
C  15.91000 0.56800 25.33000
N  17.38000 -1.11900 29.96400
C  16.75600 -0.20200 30.71600
C  17.09700 -0.40100 32.18700
C  18.25700 -1.43300 32.10500
C  18.11700 -2.00300 30.68000
C  19.68100 -0.91800 32.50200
C  15.85200 -0.90300 33.00900
C  15.86100 -0.63100 34.53200
H  17.03700 0.23800 35.11200
N  18.35800 -3.13100 27.81600
C  18.86700 -3.72100 28.94300
C  19.61400 -4.90700 28.57600
C  19.80000 -4.88400 27.21600
C  18.91200 -3.84000 26.71400
C  20.17700 -5.89600 29.58000
C  20.63200 -5.77500 26.34700
O  20.67100 -5.75700 25.12900
C  21.40400 -6.94200 26.97300
N  17.40800 -1.29500 25.68400
C  18.00500 -2.29500 24.87700
C  17.85600 -1.97100 23.38400
C  16.95500 -0.66300 23.32600
C  16.74200 -0.44300 24.83500
C  19.23800 -1.74200 22.74000
C  15.55700 -0.78500 22.60100
C  15.42100 0.29400 21.56600
N  16.17000 0.35600 27.68000
C  15.53200 0.96200 26.65400
C  14.76100 2.09400 27.02100
C  15.14500 2.16600 28.40800
C  15.96500 1.08500 28.75300
C  13.94500 3.01200 26.16000
C  14.90500 2.92000 29.63200
O  14.24000 3.96100 29.80700
C  15.56500 2.09700 30.81500
C  16.52300 2.91900 31.65700
O  17.59100 3.31600 31.23200
O  15.98500 3.24400 32.90800
C  16.62700 4.32600 33.69900
H  19.26200 -3.69200 31.09500
H  19.05600 -3.94000 24.51400
H  15.42200 1.18200 24.57100
H  17.54700 0.50100 32.60100
H  17.93100 -2.20700 32.80000
H  20.06600 -1.35800 33.42200
H  19.69100 0.16200 32.64700
H  20.36000 -1.20000 31.69600
H  15.66100 -1.94900 32.76900
H  15.01100 -0.33900 32.60500
H  15.98600 -1.59700 35.02000
H  14.93400 -0.15600 34.85600
H  19.89000 -5.60900 30.59200
H  21.25300 -6.00800 29.45300
H  19.67100 -6.85300 29.45300
H  22.12300 -6.49600 27.66000
H  22.15700 -7.38900 26.32400
H  20.77900 -7.69100 27.46200
H  17.47200 -2.87300 22.90800
H  17.68400 0.08400 23.01100
H  19.68300 -0.76100 22.90600
H  19.05800 -1.87100 21.67200
H  20.00100 -2.48200 22.98400
H  14.69700 -0.70300 23.26600
H  15.42600 -1.78900 22.19500
H  14.63900 0.99600 21.85400
H  15.16500 -0.25400 20.65900
H  16.25500 0.93400 21.27600
H  12.90200 2.69700 26.13400
H  14.24100 2.93400 25.11400
H  14.12900 4.06000 26.39800
H  14.74600 1.75200 31.44700
H  17.64900 3.99900 33.89100
H  16.34200 4.40100 34.74900
H  16.61700 5.31300 33.23600
Mg 48.12600 34.46400 27.38100
C  46.07200 32.72200 29.66900
C  48.26600 37.03100 29.40900
C  49.59000 36.15300 24.91000
C  47.52300 31.65700 25.06800
N  47.29200 34.82200 29.30300
C  46.53200 33.95500 30.14500
C  46.33300 34.51300 31.52800
C  46.84100 36.01200 31.37400
C  47.55400 35.99600 30.02100
C  45.73300 37.03600 31.37400
C  47.03900 33.67400 32.63000
C  48.02700 34.42900 33.50900
H  47.50200 35.36400 34.65100
N  48.93600 36.31700 27.23300
C  48.94700 37.25000 28.25300
C  49.60700 38.39500 27.74200
C  49.99100 38.20300 26.40500
C  49.46900 36.87200 26.10000
C  49.74600 39.61700 28.50800
C  50.86800 39.03300 25.49300
O  51.10100 38.73600 24.32300
C  51.52700 40.30900 25.93100
N  48.46100 33.97800 25.31000
C  49.17000 34.89000 24.51800
C  49.58400 34.20800 23.18000
C  48.95100 32.82900 23.29600
C  48.30800 32.75100 24.67000
C  49.23100 35.00600 21.82100
C  49.83300 31.58200 22.93000
C  51.10200 31.26900 23.83800
N  47.13900 32.46300 27.35300
C  46.95800 31.51300 26.36700
C  46.15900 30.46400 26.86400
C  45.68900 30.91700 28.13700
C  46.36200 32.15100 28.41800
C  45.75200 29.25700 26.17300
C  44.93800 30.56300 29.23600
O  44.17500 29.57400 29.50100
C  44.99800 31.73400 30.23100
C  45.10800 31.13500 31.53900
O  45.95100 30.21600 31.86500
O  44.17400 31.72000 32.38300
C  44.11600 31.12000 33.75100
H  48.28600 37.86500 30.11300
H  50.03900 36.74400 24.10900
H  47.45100 30.82600 24.36300
H  45.26600 34.63100 31.71700
H  47.61200 36.34200 32.06900
H  44.73000 36.73100 31.67200
H  45.56200 37.44700 30.37900
H  45.89800 37.79300 32.14100
H  47.67000 32.86200 32.27000
H  46.29300 33.24400 33.29900
H  48.73300 34.88300 32.81400
H  48.55500 33.72700 34.15400
H  49.38800 40.52700 28.02700
H  50.81500 39.67200 28.71700
H  49.23300 39.45500 29.45500
H  52.15700 40.16300 26.80800
H  50.75300 41.06700 26.05400
H  52.25200 40.61900 25.17900
H  50.67100 34.20900 23.25500
H  48.11900 32.78300 22.59400
H  49.26100 34.40400 20.91200
H  50.00900 35.76200 21.71400
H  48.26000 35.49900 21.86100
H  50.23900 31.74800 21.93200
H  49.08800 30.78600 22.95500
H  51.99100 31.58900 23.29500
H  51.28800 30.30600 24.31400
H  51.11600 32.06600 24.58100
H  45.95900 28.38500 26.79300
H  46.20200 29.04600 25.20300
H  44.69800 29.17700 25.90500
H  44.05300 32.27200 30.16100
H  43.34000 30.36800 33.60700
H  43.71800 31.84500 34.46000
H  45.05300 30.65500 34.05900

