158

Mg 8.21400 3.33000 28.75300
C  9.94900 1.92900 31.63700
C  6.55400 5.23400 30.80100
C  6.55700 4.39100 26.07100
C  9.46400 0.52500 26.88800
N  8.13200 3.30900 31.00600
C  8.98300 2.84600 31.95800
C  8.69100 3.51600 33.30200
C  7.42300 4.36600 33.02900
C  7.36600 4.30400 31.47500
C  6.16700 3.90200 33.86800
C  9.98400 4.08600 33.94600
C  9.72800 4.96100 35.18400
H  10.59200 4.49800 36.40900
N  6.73400 4.64200 28.48000
C  6.21500 5.34200 29.49000
C  5.14700 6.15100 28.89200
C  5.09700 5.85900 27.46300
C  6.19600 4.93300 27.27500
C  4.21000 7.03300 29.69100
C  4.14200 6.30300 26.41700
O  4.22600 5.94400 25.27900
C  2.97900 7.14100 26.84600
N  8.01400 2.61400 26.79700
C  7.35100 3.28800 25.81900
C  7.55900 2.60600 24.43200
C  8.36900 1.34300 24.76200
C  8.56200 1.41900 26.28100
C  6.44600 2.26500 23.41600
C  9.72600 1.25000 24.03700
C  10.07600 -0.11200 23.39100
N  9.47000 1.64800 29.11900
C  9.96900 0.69100 28.21800
C  10.88700 -0.18400 28.88300
C  10.98100 0.39300 30.18400
C  10.05200 1.40000 30.32200
C  11.69500 -1.28700 28.33100
C  11.58800 0.15600 31.45300
O  12.42900 -0.69500 31.73400
C  11.00700 1.23900 32.52400
C  10.45600 0.37700 33.54200
O  9.74600 -0.62900 33.39800
O  10.92100 0.79300 34.73400
C  10.50500 -0.05600 35.82500
H  6.13100 5.95000 31.50800
H  6.01500 4.76200 25.19800
H  9.87000 -0.29600 26.29300
H  8.47100 2.64300 33.91800
H  7.79300 5.35300 33.30900
H  5.50400 3.47800 33.11300
H  5.73000 4.83900 34.21400
H  6.56000 3.23100 34.63200
H  10.63800 4.63000 33.26400
H  10.66100 3.30000 34.27900
H  8.70600 4.94000 35.56200
H  9.91000 5.98800 34.86600
H  3.20300 6.63600 29.56300
H  4.14100 8.02500 29.24500
H  4.44200 7.21400 30.74000
H  2.24100 6.53100 27.36700
H  2.58200 7.60300 25.94200
H  3.34900 8.01700 27.37900
H  8.20500 3.34500 23.95800
H  7.71400 0.49000 24.58500
H  5.56100 2.70000 23.88000
H  6.31700 1.24900 23.04100
H  6.61000 2.86300 22.52000
H  10.53600 1.55400 24.70000
H  9.89600 2.10400 23.38100
H  9.36700 -0.90100 23.64200
H  11.04700 -0.47000 23.73300
H  10.19200 0.06900 22.32200
H  12.70900 -1.27800 28.73300
H  11.55400 -1.41100 27.25700
H  11.32200 -2.21500 28.76300
H  11.84100 1.90400 32.74900
H  10.88700 -1.07500 35.75100
H  9.42100 -0.16300 35.85900
H  10.66900 0.41200 36.79600
Mg 48.56300 25.13100 27.97100
C  49.43100 27.26300 30.70800
C  47.55600 22.83100 30.50700
C  48.01500 22.84100 25.54300
C  50.10500 27.19000 25.80300
N  48.39900 25.15300 30.36500
C  48.85800 26.12200 31.22300
C  48.62800 25.72300 32.68000
C  48.00500 24.24600 32.56900
C  47.97600 24.05600 31.04000
C  48.73900 23.16100 33.44400
C  47.70100 26.79100 33.41700
C  47.15700 26.36400 34.82300
H  47.58500 27.15800 36.06900
N  47.77800 23.20300 27.97900
C  47.37700 22.40700 29.10500
C  46.83000 21.12200 28.60200
C  46.83600 21.15700 27.14400
C  47.59100 22.40900 26.81200
C  46.42000 19.95000 29.45900
C  46.42800 20.14800 26.08200
O  46.58600 20.10900 24.85000
C  45.61600 18.95900 26.70500
N  49.03500 24.94700 25.92000
C  48.76500 23.94000 25.09400
C  48.95000 24.36700 23.56000
C  49.32000 25.86900 23.72100
C  49.58600 26.02500 25.23300
C  50.20500 23.58100 22.99800
C  48.18200 26.80500 23.30400
C  48.48100 27.56600 22.01500
N  49.58700 26.78400 28.11900
C  50.08800 27.65800 27.16100
C  50.65200 28.76900 27.76800
C  50.57600 28.63300 29.10900
C  49.77500 27.46700 29.34000
C  51.33200 29.88900 27.02000
C  50.89300 29.27500 30.39800
O  51.57000 30.25800 30.61500
C  50.16800 28.40800 31.51100
C  51.24900 27.78900 32.25300
O  51.84200 26.76700 31.95800
O  51.50800 28.58000 33.32000
C  52.70300 28.36600 34.10600
H  47.14300 22.08900 31.19300
H  47.80400 22.18600 24.69600
H  50.32100 28.04700 25.16100
H  49.56800 25.61200 33.22000
H  46.95200 24.14100 32.83100
H  49.08400 22.29300 32.88300
H  47.99000 22.89700 34.19100
H  49.66900 23.53600 33.87100
H  46.84700 26.97300 32.76400
H  48.38000 27.63900 33.50800
H  47.32800 25.32200 35.09200
H  46.07100 26.35200 34.72900
H  46.72700 18.99500 29.03300
H  45.38600 20.10100 29.77100
H  46.91100 19.97600 30.43200
H  46.33200 18.21600 27.05700
H  44.96900 18.51200 25.95000
H  44.98100 19.36600 27.49100
H  47.97000 24.22900 23.10300
H  50.28300 26.11100 23.27100
H  50.37700 22.70000 23.61700
H  51.13500 24.14900 23.01500
H  49.92000 23.27200 21.99300
H  48.12400 27.55900 24.08800
H  47.19000 26.35500 23.26200
H  47.72000 27.45600 21.24300
H  49.40100 27.14300 21.60900
H  48.61900 28.59500 22.34600
H  50.62400 30.17100 26.24000
H  52.18000 29.53200 26.43600
H  51.60600 30.70300 27.69100
H  49.53200 29.04200 32.12900
H  53.60400 28.29600 33.49800
H  52.61000 27.44600 34.68400
H  52.82900 29.17700 34.82400

