158

Mg -1.62900 33.49300 26.85600
C  -3.10200 31.92600 29.59500
C  -0.32300 35.88300 29.21500
C  -0.50300 35.32000 24.25600
C  -3.22700 31.26600 24.74800
N  -1.59800 33.76300 29.18500
C  -2.33000 32.97000 30.01600
C  -2.19600 33.43700 31.44300
C  -1.45200 34.82800 31.21400
C  -1.05000 34.82900 29.75800
C  -2.14600 36.09900 31.74500
C  -1.36400 32.42900 32.36500
C  -2.03300 32.03800 33.65200
H  -1.09900 31.93300 34.91300
N  -0.55900 35.24400 26.74300
C  -0.12900 36.05900 27.79500
C  0.56600 37.17500 27.26700
C  0.51100 37.10000 25.85400
C  -0.19200 35.84100 25.53400
C  1.34100 38.21400 28.19200
C  1.03900 38.05500 24.80200
O  0.93800 37.93900 23.52900
C  1.62900 39.45100 25.21400
N  -2.00200 33.46400 24.75100
C  -1.25600 34.21300 23.89800
C  -1.37500 33.58100 22.43600
C  -2.40200 32.51400 22.67600
C  -2.52200 32.33100 24.14500
C  -1.79300 34.56700 21.29600
C  -2.14800 31.17300 21.93500
C  -0.95400 30.40900 22.48400
N  -2.93600 31.93500 27.08200
C  -3.47500 31.07500 26.11400
C  -4.24000 30.08900 26.76100
C  -4.15200 30.40700 28.11200
C  -3.32000 31.51600 28.21400
C  -4.97200 29.02400 25.99200
C  -4.58500 29.99000 29.44600
O  -5.31000 29.07900 29.86400
C  -4.01200 30.98800 30.46800
C  -5.04600 31.69400 31.28100
O  -5.60700 32.73700 30.87300
O  -5.26600 31.12500 32.46800
C  -6.36500 31.68400 33.30200
H  0.09500 36.44800 30.05200
H  -0.07800 35.83900 23.39500
H  -3.68300 30.44900 24.18400
H  -3.16200 33.64000 31.90600
H  -0.48000 34.81700 31.70700
H  -1.36100 36.72500 32.16900
H  -2.71300 35.82000 32.63400
H  -2.73000 36.60400 30.97600
H  -0.46100 32.94300 32.69300
H  -1.20600 31.50700 31.80600
H  -2.41200 31.01800 33.59400
H  -2.93600 32.64300 33.73400
H  2.37700 38.36300 27.88700
H  1.28400 37.88200 29.22900
H  0.82300 39.17300 28.20500
H  2.65600 39.33400 25.56300
H  1.08700 39.86700 26.06400
H  1.49700 40.08100 24.33500
H  -0.46800 33.04200 22.16200
H  -3.40600 32.79600 22.35800
H  -0.94800 34.53600 20.60900
H  -1.99700 35.54100 21.74000
H  -2.62700 34.28500 20.65300
H  -1.94100 31.45100 20.90200
H  -3.07300 30.59900 21.98700
H  -0.07600 30.47600 21.84100
H  -1.24400 29.35900 22.47000
H  -0.60900 30.62000 23.49600
H  -4.62300 28.69100 25.01500
H  -5.98800 29.41000 25.91100
H  -5.00300 28.24500 26.75400
H  -3.30400 30.44200 31.09100
H  -6.03200 32.61600 33.75900
H  -6.75300 30.90000 33.95100
H  -7.15100 31.91200 32.58300
Mg -12.23000 15.92600 41.77700
C  -9.22200 14.05200 41.27600
C  -10.81200 18.44800 39.89900
C  -15.22100 17.34200 41.59500
C  -13.69900 12.94800 43.10400
N  -10.27200 16.09300 40.44000
C  -9.19500 15.27900 40.54700
C  -7.93900 15.94900 39.95400
C  -8.47900 17.35700 39.59900
C  -9.93200 17.34200 40.08000
C  -7.67200 18.58900 40.23400
C  -7.44100 15.12600 38.71000
C  -5.97200 15.09100 38.49800
H  -5.61000 15.66800 37.18400
N  -12.94700 17.69300 40.98100
C  -12.19500 18.61200 40.22600
C  -13.05600 19.74400 39.80200
C  -14.31000 19.47200 40.31100
C  -14.21500 18.17600 41.05100
C  -12.52000 20.85500 38.93200
C  -15.55500 20.33400 40.04200
O  -15.53500 21.28200 39.24400
C  -16.78000 20.12300 40.84900
N  -14.14600 15.23400 42.29400
C  -15.19700 16.09000 42.16200
C  -16.48700 15.23500 42.39600
C  -16.01200 13.96800 43.06900
C  -14.53000 14.04200 42.85200
C  -17.49900 15.97300 43.37400
C  -16.74900 12.60300 42.74500
C  -16.96900 11.67600 43.89000
N  -11.60600 14.00600 42.28100
C  -12.29300 12.90500 42.80000
C  -11.43700 11.80900 42.97900
C  -10.22400 12.21600 42.43500
C  -10.36300 13.54200 41.97400
C  -11.77100 10.50800 43.60100
C  -8.85900 11.78600 42.20500
O  -8.31000 10.71300 42.49100
C  -8.11800 12.95500 41.50100
C  -7.14300 13.45600 42.47800
O  -7.34000 13.68900 43.66000
O  -5.94200 13.76100 41.86500
C  -5.00000 14.53600 42.75100
H  -10.25600 19.18900 39.32100
H  -16.17700 17.63000 41.15300
H  -14.28000 12.11400 43.50500
H  -7.15200 16.00600 40.70500
H  -8.59400 17.51400 38.52700
H  -6.64100 18.24700 40.13600
H  -7.88300 18.75800 41.29000
H  -7.81700 19.59200 39.83400
H  -7.87000 15.62400 37.84000
H  -7.85500 14.11800 38.70800
H  -5.66700 14.05300 38.62900
H  -5.39900 15.71800 39.18100
H  -13.28200 21.49200 38.48300
H  -11.88000 20.35800 38.20300
H  -11.84700 21.52000 39.47400
H  -16.54000 19.80400 41.86300
H  -17.30800 19.35900 40.27900
H  -17.42500 20.99800 40.93100
H  -16.91500 14.93700 41.43900
H  -16.17400 14.13300 44.13400
H  -17.91300 15.21000 44.03200
H  -18.31200 16.47200 42.84600
H  -16.95700 16.72900 43.94300
H  -16.17000 12.08000 41.98300
H  -17.78600 12.66900 42.41500
H  -16.58000 10.70300 43.58900
H  -18.04500 11.52900 43.98900
H  -16.44300 11.94800 44.80500
H  -11.93300 10.73600 44.65400
H  -10.92400 9.83500 43.47400
H  -12.71900 10.13800 43.20800
H  -7.62100 12.63100 40.58700
H  -5.16800 14.43500 43.82300
H  -5.09700 15.60600 42.56900
H  -4.01900 14.10000 42.56000

