158

Mg -0.72700 34.56600 26.65600
C  -3.05500 32.88600 28.83700
C  -0.02400 36.65700 29.29700
C  0.89100 36.56400 24.55400
C  -1.87300 32.56000 24.06700
N  -1.47800 34.71300 28.89600
C  -2.36500 33.91100 29.56400
C  -2.38600 34.37200 31.04200
C  -1.58800 35.67500 30.96600
C  -0.90300 35.65600 29.61300
C  -2.39200 36.85600 31.13400
C  -1.92200 33.24100 32.07600
C  -3.01100 33.05100 33.12600
H  -3.14900 34.14300 34.22300
N  0.42000 36.24800 26.92300
C  0.63700 36.92800 28.09900
C  1.52000 38.00100 27.89100
C  1.90600 37.96900 26.48100
C  1.03600 36.93700 25.89400
C  1.91900 38.90000 29.06800
C  2.79100 38.83300 25.66000
O  2.90400 38.76800 24.46800
C  3.51200 39.96000 26.35100
N  -0.46200 34.54100 24.56800
C  0.22600 35.51000 23.90100
C  0.27000 35.16100 22.37200
C  -0.33900 33.72900 22.29500
C  -0.98200 33.56400 23.74000
C  -0.56700 36.24400 21.53400
C  0.62800 32.52200 22.06400
C  1.69300 32.25600 23.18400
N  -2.15200 32.99700 26.39100
C  -2.53200 32.32500 25.26500
C  -3.61700 31.52100 25.56000
C  -3.80800 31.61200 26.96600
C  -2.90100 32.51400 27.44800
C  -4.48100 30.77800 24.60400
C  -4.66800 31.16400 28.05400
O  -5.61500 30.35200 28.15600
C  -4.10100 31.92000 29.35500
C  -5.21900 32.58900 29.95200
O  -5.72900 33.61900 29.51700
O  -5.58900 31.88200 31.09300
C  -6.71000 32.51600 31.81400
H  0.24800 37.30500 30.13300
H  1.35700 37.20900 23.80600
H  -2.09600 31.82600 23.29000
H  -3.43500 34.53500 31.28900
H  -0.85300 35.73000 31.76900
H  -2.43200 37.46500 30.23100
H  -2.02500 37.37800 32.01700
H  -3.41800 36.60700 31.40900
H  -1.03300 33.48900 32.65700
H  -1.77400 32.35300 31.46100
H  -2.69600 32.12100 33.60000
H  -4.04300 32.99700 32.77900
H  1.71000 39.86300 28.60300
H  2.95700 38.84300 29.39400
H  1.32400 38.86900 29.98100
H  2.66100 40.55400 26.68700
H  4.32300 40.35500 25.73900
H  4.11800 39.62800 27.19400
H  1.34900 35.18000 22.22100
H  -1.14600 33.61900 21.57000
H  -1.27300 36.73500 22.20300
H  -1.29300 35.79800 20.85500
H  0.03400 36.97500 20.99300
H  1.17200 32.84900 21.17800
H  0.05100 31.62400 21.84200
H  1.50500 31.49700 23.94300
H  1.94400 33.21600 23.63600
H  2.61700 31.82700 22.79700
H  -5.29500 30.22300 25.07100
H  -3.86200 30.13500 23.97900
H  -4.97800 31.53900 24.00200
H  -3.72200 31.25100 30.12800
H  -6.38400 33.37300 32.40300
H  -7.09900 31.89300 32.61900
H  -7.62000 32.68400 31.23800
Mg -4.58300 25.51300 25.77300
C  -3.67000 27.05500 28.80700
C  -6.65200 23.51800 27.57500
C  -5.06500 23.63200 23.06500
C  -2.36600 27.52500 24.21000
N  -5.07100 25.37200 28.00600
C  -4.60000 26.03600 29.03600
C  -5.17200 25.53200 30.35200
C  -6.10400 24.29100 29.97700
C  -5.94300 24.37200 28.43900
C  -5.49800 22.92700 30.36400
C  -5.84800 26.73200 31.16700
C  -5.46800 26.94000 32.57400
H  -5.25000 25.74400 33.42500
N  -5.80700 23.82700 25.37600
C  -6.60800 23.23700 26.18800
C  -7.40600 22.26900 25.44500
C  -6.96000 22.22100 24.08600
C  -5.92700 23.29200 24.11400
C  -8.45600 21.42400 26.09000
C  -7.31400 21.31300 22.89300
O  -6.84600 21.40900 21.71600
C  -8.10500 20.13100 23.16900
N  -3.89000 25.64200 23.85300
C  -4.21200 24.77000 22.83900
C  -3.43400 25.18000 21.55600
C  -2.86300 26.56500 21.92100
C  -3.08100 26.64200 23.39900
C  -2.45500 24.09100 21.03200
C  -3.65300 27.73900 21.22100
C  -3.03700 28.49800 20.01200
N  -3.35200 27.04400 26.26400
C  -2.43100 27.77200 25.54100
C  -1.73000 28.77500 26.37800
C  -2.26600 28.55100 27.63300
C  -3.18100 27.47900 27.55500
C  -0.56100 29.61800 26.02700
C  -2.00800 28.86000 29.03400
O  -1.21600 29.59400 29.59900
C  -2.96100 27.92400 29.80000
C  -2.19300 27.18700 30.83200
O  -1.63700 26.10200 30.61700
O  -2.18100 27.89500 32.00700
C  -1.26400 27.42400 33.04000
H  -7.30500 22.90700 28.20200
H  -5.21300 23.04500 22.15600
H  -1.78900 28.20100 23.57500
H  -4.39000 25.16500 31.01700
H  -7.18300 24.38700 30.10200
H  -4.49200 23.02800 30.77000
H  -5.48000 22.32100 29.45900
H  -6.27900 22.57600 31.03900
H  -6.88200 26.39000 31.12600
H  -5.77600 27.69300 30.65800
H  -6.33100 27.41800 33.03700
H  -4.59300 27.57700 32.70100
H  -7.99600 20.54800 26.54800
H  -9.29100 21.12700 25.45600
H  -9.00100 21.98600 26.84900
H  -8.19300 19.55500 22.24700
H  -9.07600 20.58400 23.37300
H  -7.66900 19.50100 23.94300
H  -4.22400 25.16400 20.80400
H  -1.78500 26.49100 21.77900
H  -2.32800 23.29900 21.76900
H  -1.41800 24.42400 20.98400
H  -2.86600 23.72900 20.08900
H  -3.80900 28.53700 21.94700
H  -4.64500 27.34600 20.99900
H  -2.92100 29.57300 20.14900
H  -3.61600 28.20200 19.13700
H  -1.99600 28.18400 19.93300
H  -0.21600 30.25300 26.84300
H  -0.87700 30.18000 25.14800
H  0.18900 28.88000 25.74400
H  -3.62000 28.51200 30.43900
H  -0.36300 28.01700 32.88300
H  -1.00300 26.36800 32.95800
H  -1.55700 27.68200 34.05700

