158

Mg 3.05300 -1.56000 44.70300
C  6.55200 -0.84500 44.51200
C  2.59600 1.16300 42.65600
C  -0.07500 -2.59600 44.69700
C  3.99200 -4.85300 46.06800
N  4.51800 0.07900 43.80000
C  5.84400 0.06500 43.69100
C  6.34800 1.23600 42.76300
C  4.96700 1.90200 42.27600
C  3.92900 1.01800 42.96400
C  4.76600 3.44500 42.64100
C  7.15500 0.74700 41.54000
C  8.54200 1.31300 41.30400
H  8.58100 2.30000 40.04600
N  1.51900 -0.82900 43.74400
C  1.44400 0.31900 43.06100
C  0.09800 0.57700 42.75500
C  -0.68900 -0.47000 43.25300
C  0.21100 -1.37800 43.98400
C  -0.32500 1.95400 42.11300
C  -2.18000 -0.52100 43.18300
O  -2.80300 0.36200 42.60000
C  -3.04100 -1.61700 43.85400
N  2.12100 -3.54200 45.37100
C  0.81700 -3.60000 45.17300
C  0.30300 -5.00700 45.73300
C  1.61200 -5.76300 45.94500
C  2.62400 -4.68600 45.83300
C  -0.58900 -4.78600 46.98400
C  1.86300 -6.93400 44.89400
C  2.84800 -8.06200 45.15800
N  4.84400 -2.62400 45.23600
C  5.00300 -3.85300 45.88800
C  6.44200 -3.90900 46.22200
C  7.04000 -2.73700 45.73400
C  5.99900 -2.05000 45.10800
C  7.07800 -4.97300 47.04500
C  8.26900 -2.02600 45.65600
O  9.37800 -2.32900 46.06500
C  8.02600 -0.75900 44.83000
C  8.22200 0.37400 45.70700
O  7.46800 0.73400 46.60200
O  9.21200 1.23600 45.28700
C  9.08900 2.69800 45.68500
H  2.45600 1.87200 41.83800
H  -1.09400 -2.98600 44.74400
H  4.21400 -5.77600 46.60700
H  6.90000 1.92800 43.39900
H  4.87700 1.78900 41.19600
H  4.45600 3.57800 43.67800
H  4.03600 3.95800 42.01600
H  5.70900 3.99000 42.67500
H  6.60500 0.82200 40.60200
H  7.20100 -0.33800 41.63000
H  9.08000 0.48900 40.83600
H  9.01300 1.63500 42.23300
H  0.51300 2.39300 41.57100
H  -0.60000 2.64200 42.91300
H  -1.15900 1.84300 41.42000
H  -4.11200 -1.41700 43.84100
H  -2.74200 -1.41900 44.88300
H  -2.79300 -2.66600 43.68900
H  -0.21300 -5.40100 44.85700
H  1.90200 -6.04400 46.95700
H  -1.06500 -3.84900 47.27400
H  -0.06000 -5.08000 47.89000
H  -1.35500 -5.55100 46.85500
H  2.26700 -6.45800 44.00100
H  0.87300 -7.32500 44.65500
H  3.44400 -7.91600 46.05900
H  3.45000 -8.19000 44.25900
H  2.41800 -9.06000 45.24900
H  7.20000 -5.79700 46.34100
H  6.33100 -5.07300 47.83200
H  8.03700 -4.58500 47.39000
H  8.71000 -0.77800 43.98100
H  8.14100 2.92600 46.17100
H  9.15400 3.31700 44.79100
H  9.97200 2.99900 46.24900
Mg 48.27800 34.36500 27.15100
C  46.11400 33.27600 29.72000
C  48.83300 37.11500 29.00800
C  49.51700 35.63700 24.48700
C  46.80900 31.67100 25.10000
N  47.50900 35.06900 29.12700
C  46.83800 34.42300 30.06400
C  46.97900 35.05600 31.45900
C  47.38300 36.50300 31.08700
C  47.98900 36.23200 29.65200
C  46.14700 37.54300 30.98400
C  48.07800 34.33800 32.32200
C  47.90900 34.32500 33.82200
H  46.77800 35.24100 34.45100
N  49.12900 36.13300 26.80500
C  49.26600 37.19900 27.70700
C  50.01700 38.18400 27.02700
C  50.22600 37.73400 25.70700
C  49.62200 36.40500 25.65600
C  50.31500 39.51500 27.70700
C  51.01800 38.46700 24.57400
O  51.26900 37.96000 23.46000
C  51.54200 39.71800 24.83000
N  48.23300 33.59000 25.02700
C  48.94100 34.36600 24.20600
C  48.93800 33.78100 22.81300
C  48.32900 32.29600 23.04700
C  47.78800 32.46400 24.46200
C  48.14700 34.67700 21.79500
C  49.42100 31.17100 22.80100
C  49.52000 30.56000 21.41300
N  46.90300 32.68000 27.32600
C  46.41100 31.73300 26.44300
C  45.56500 30.78100 27.15400
C  45.35700 31.37200 28.42000
C  46.18200 32.51200 28.48000
C  44.88400 29.59000 26.58200
C  44.63400 31.18800 29.63400
O  43.90100 30.27800 29.92000
C  44.99300 32.53000 30.52800
C  45.37300 31.90300 31.82100
O  46.40500 31.30500 31.99900
O  44.30300 31.97000 32.67000
C  44.61600 31.63500 34.01200
H  49.09400 37.98400 29.61600
H  50.02200 36.03800 23.60500
H  46.53900 30.90700 24.36800
H  46.02600 35.12100 31.98500
H  48.14900 36.94000 31.72700
H  45.39400 37.40600 31.75900
H  45.66800 37.33900 30.02700
H  46.43700 38.59400 30.97200
H  49.02900 34.85800 32.21300
H  48.33000 33.29600 32.12300
H  48.85800 34.65600 34.24400
H  47.77200 33.29500 34.15100
H  51.40300 39.57700 27.69800
H  49.92000 39.57600 28.72100
H  49.88900 40.42500 27.28500
H  52.47200 39.62900 25.39100
H  50.78300 40.46100 25.07700
H  51.85100 40.04100 23.83600
H  49.96700 33.82100 22.45500
H  47.50300 32.07500 22.37100
H  47.08800 34.42100 21.81400
H  48.52600 34.44300 20.80000
H  48.27000 35.72400 22.07300
H  49.20200 30.31200 23.43600
H  50.38000 31.50200 23.19900
H  49.21600 29.51700 21.50600
H  50.55700 30.65900 21.09200
H  48.84100 31.06400 20.72400
H  44.29500 29.03900 27.31500
H  45.65200 28.91800 26.19800
H  44.18400 29.84700 25.78700
H  44.04600 33.01500 30.76600
H  45.52800 31.04900 34.13000
H  43.83900 31.04100 34.49200
H  44.74600 32.50700 34.65300

