158

Mg 36.80600 49.42900 24.75400
C  36.91700 47.37500 27.66800
C  35.78900 52.06200 26.75500
C  36.36400 51.05500 22.04600
C  37.26200 46.46500 22.83400
N  36.33700 49.67400 26.97300
C  36.54900 48.75200 27.98800
C  36.27800 49.36600 29.39200
C  35.76000 50.80800 29.02200
C  36.01700 50.87600 27.46900
C  34.24300 51.08600 29.33400
C  37.57000 49.33500 30.17600
C  37.50100 49.06000 31.67500
H  36.17700 49.01900 32.34600
N  36.22500 51.31000 24.46500
C  35.81700 52.30300 25.36800
C  35.47200 53.44600 24.66800
C  35.70800 53.21600 23.25800
C  36.09700 51.79900 23.22400
C  34.96500 54.73500 25.32100
C  35.40200 54.18400 22.09300
O  35.37900 53.86900 20.90200
C  35.03500 55.63400 22.32600
N  36.83800 48.81900 22.69400
C  36.62500 49.67200 21.78500
C  36.84100 49.16400 20.33200
C  37.19600 47.67600 20.67000
C  37.16700 47.62800 22.14900
C  35.59100 49.39700 19.41800
C  38.62300 47.21300 20.10300
C  39.87100 47.19700 20.94400
N  37.11900 47.37900 25.13600
C  37.30100 46.31900 24.25900
C  37.51300 45.08500 24.99600
C  37.34000 45.44800 26.34900
C  37.06100 46.84100 26.40000
C  37.72700 43.67200 24.40300
C  37.26600 44.94300 27.71600
O  37.28200 43.79400 28.12300
C  37.03400 46.18300 28.58800
C  35.84100 45.91300 29.31900
O  34.73200 46.12300 28.92400
O  36.17100 45.40900 30.52400
C  35.19100 45.04600 31.42800
H  35.52200 52.95600 27.32200
H  36.29800 51.66500 21.14300
H  37.45200 45.51700 22.32800
H  35.44100 48.83600 29.84500
H  36.38700 51.56100 29.49900
H  33.80300 50.37500 30.03300
H  33.77500 51.13300 28.35100
H  34.15800 52.08200 29.76900
H  38.23500 50.15800 29.91600
H  38.16400 48.51500 29.77200
H  38.02300 49.90900 32.11700
H  38.06200 48.14000 31.84000
H  34.19700 55.02500 24.60400
H  35.76400 55.46900 25.41500
H  34.53400 54.61400 26.31500
H  35.73100 56.08800 23.03300
H  33.96900 55.73800 22.52500
H  35.02100 56.12000 21.35100
H  37.66400 49.64600 19.80500
H  36.34600 47.04800 20.40500
H  34.69600 49.52500 20.02700
H  35.43600 48.57200 18.72200
H  35.83100 50.29400 18.84800
H  38.83900 47.95000 19.33000
H  38.52400 46.30200 19.51300
H  39.61100 47.29900 21.99800
H  40.41000 48.10800 20.68800
H  40.40900 46.27400 20.72600
H  36.82100 43.08700 24.24000
H  38.30900 43.13800 25.15400
H  38.47200 43.76100 23.61200
H  37.80600 46.39600 29.32800
H  35.48100 45.69500 32.25300
H  35.17800 43.97100 31.61200
H  34.18300 45.34100 31.13500
Mg 0.91000 43.77300 25.96100
C  2.81200 43.75900 28.87300
C  -1.76000 42.95400 27.87300
C  -0.71500 43.02600 23.11400
C  3.92000 44.22200 24.19900
N  0.56100 43.40100 28.23900
C  1.44200 43.69700 29.19400
C  0.70700 43.62300 30.57700
C  -0.78000 43.34600 30.19900
C  -0.68800 43.33600 28.66300
C  -1.40000 42.06800 30.89000
C  0.87500 44.95700 31.40400
C  0.74900 44.72300 32.95700
H  0.33800 43.31300 33.52100
N  -0.97200 43.08000 25.52000
C  -1.87400 42.80700 26.48500
C  -3.12500 42.37300 25.75000
C  -2.89900 42.39800 24.37600
C  -1.46300 42.84600 24.29000
C  -4.41500 41.98300 26.41500
C  -3.65500 41.84100 23.20200
O  -3.09800 41.79300 22.09200
C  -5.00800 41.35500 23.35300
N  1.47000 43.77600 23.94200
C  0.62500 43.39200 22.98300
C  1.31800 43.40700 21.58600
C  2.73100 44.02200 21.95300
C  2.74500 44.01800 23.41400
C  1.22500 42.07800 20.73400
C  2.91500 45.45100 21.48500
C  2.94500 45.71600 20.01400
N  2.95700 43.97400 26.42300
C  4.04800 44.18100 25.61100
C  5.23900 44.04500 26.40000
C  4.83400 43.95800 27.69000
C  3.39300 43.89800 27.66300
C  6.66100 44.26400 25.96500
C  5.29700 43.89100 29.03600
O  6.44200 43.77200 29.45500
C  3.98100 43.75300 29.83600
C  4.12800 42.51600 30.65600
O  4.41400 41.39600 30.23100
O  4.07300 42.79500 31.99400
C  4.34400 41.69000 32.87800
H  -2.69800 42.81900 28.41400
H  -1.18000 42.84900 22.14200
H  4.80200 44.29200 23.55900
H  1.10200 42.81500 31.19200
H  -1.36200 44.21100 30.51600
H  -0.65600 41.49900 31.44700
H  -1.84400 41.44000 30.11700
H  -2.18300 42.39300 31.57500
H  0.09400 45.65000 31.09100
H  1.85800 45.41100 31.28000
H  0.02700 45.42300 33.37800
H  1.74900 44.88000 33.36100
H  -5.29900 42.52200 26.07400
H  -4.44700 42.18500 27.48600
H  -4.68000 40.92600 26.39000
H  -5.30700 40.90700 22.40500
H  -5.65400 42.18800 23.63000
H  -5.04700 40.51600 24.04800
H  0.73300 44.13300 21.02100
H  3.59500 43.44400 21.62400
H  0.86200 41.38900 21.49600
H  2.22400 41.76500 20.43000
H  0.54100 42.19000 19.89300
H  3.78000 45.81700 22.03900
H  2.07400 45.96400 21.95300
H  2.07200 46.26000 19.65200
H  2.85600 44.79600 19.43700
H  3.88200 46.14200 19.65700
H  7.04700 45.26200 26.17600
H  6.95000 43.98600 24.95200
H  7.24600 43.57000 26.56800
H  3.78600 44.46400 30.63900
H  3.49000 41.03300 33.04200
H  4.62600 41.99900 33.88500
H  5.20300 41.13200 32.50400

