158

Mg 45.95800 16.63600 27.13100
C  44.34100 16.38400 30.23200
C  48.31700 18.70600 28.55300
C  46.83800 17.67700 23.97600
C  43.15800 15.01500 25.74200
N  46.22200 17.52700 29.16700
C  45.54200 17.17300 30.29800
C  46.22000 17.70000 31.56800
C  47.40500 18.60500 30.93000
C  47.38600 18.19200 29.45800
C  47.17300 20.07600 31.20700
C  46.61100 16.70300 32.57700
C  46.74500 17.15600 34.10600
H  46.54700 18.64500 34.50900
N  47.50900 17.81700 26.33900
C  48.36600 18.55500 27.10100
C  49.35300 19.15500 26.23400
C  48.95200 18.87900 24.89400
C  47.70900 18.16700 25.00300
C  50.59700 19.97600 26.67300
C  49.54100 19.41400 23.63800
O  49.00100 19.20200 22.51600
C  50.79900 20.19500 23.61300
N  45.19900 16.31500 25.11700
C  45.70200 16.85000 23.98400
C  45.05300 16.34800 22.80000
C  44.09900 15.22400 23.42700
C  44.08100 15.65300 24.84000
C  44.41200 17.58700 22.07500
C  44.62700 13.73000 23.39100
C  43.68200 12.74800 22.63400
N  44.10700 15.85000 27.79800
C  43.16000 15.08900 27.15600
C  42.07700 14.70900 28.08200
C  42.51200 15.12200 29.30800
C  43.78500 15.80100 29.08900
C  40.73400 14.20500 27.65100
C  42.23800 15.21400 30.70200
O  41.21000 14.89000 31.34400
C  43.36800 16.06800 31.39600
C  42.76400 17.19000 32.31100
O  42.39700 18.28400 31.95800
O  42.72500 16.66900 33.57800
C  42.30700 17.57300 34.65500
H  49.18200 19.16200 29.03800
H  47.12400 17.78700 22.92800
H  42.48800 14.34600 25.19700
H  45.42700 18.28900 32.03000
H  48.34400 18.37900 31.43700
H  46.18700 20.11700 31.67000
H  47.13700 20.77100 30.36800
H  47.89800 20.30900 31.98600
H  47.59700 16.35000 32.27400
H  45.91700 15.86700 32.48200
H  47.78100 16.91400 34.34200
H  46.09600 16.52200 34.71000
H  51.47200 19.50100 26.22900
H  50.64200 20.10900 27.75400
H  50.57500 20.99700 26.29100
H  50.74800 21.14500 24.14500
H  50.81900 20.60200 22.60200
H  51.63100 19.52900 23.84100
H  45.73400 15.97600 22.03500
H  43.05400 15.18000 23.12100
H  44.55900 18.51400 22.62900
H  43.33200 17.44100 22.04300
H  44.72900 17.79900 21.05400
H  44.87700 13.31900 24.36900
H  45.54500 13.73100 22.80300
H  44.11200 12.50100 21.66300
H  42.71600 13.00000 22.19700
H  43.52300 11.83600 23.20900
H  40.63700 14.50900 26.60900
H  39.91200 14.72900 28.13800
H  40.70500 13.11800 27.72300
H  43.89300 15.37000 32.04800
H  42.86600 18.50800 34.62600
H  42.49700 17.07600 35.60600
H  41.22300 17.67600 34.61300
Mg 1.79100 42.31500 25.44800
C  2.90000 42.71100 28.72600
C  -1.26000 41.18200 26.63500
C  0.82000 41.53800 22.33900
C  4.99800 43.06500 24.38600
N  1.07200 41.90000 27.47500
C  1.58500 42.29000 28.64500
C  0.67900 42.09700 29.84600
C  -0.64700 41.55600 29.16500
C  -0.30500 41.53700 27.59700
C  -1.18900 40.22800 29.76200
C  0.34500 43.34700 30.70300
C  0.89900 43.28800 32.15100
H  -0.08000 43.23100 33.27100
N  0.01400 41.48100 24.62800
C  -1.16100 41.09800 25.25000
C  -2.12800 40.61700 24.31900
C  -1.50200 40.67500 23.03500
C  -0.16500 41.32500 23.28600
C  -3.51600 40.15400 24.83100
C  -2.01900 40.31500 21.66500
O  -1.41000 40.45400 20.60500
C  -3.46800 39.76600 21.55200
N  2.72600 42.40300 23.67800
C  2.16000 42.05500 22.51500
C  3.09500 42.21700 21.30100
C  4.40900 42.84700 21.93700
C  4.04900 42.60100 23.44000
C  3.34400 41.01200 20.35900
C  4.56200 44.31700 21.57000
C  4.86400 44.67800 20.06800
N  3.62100 42.95100 26.33100
C  4.80900 43.19700 25.76600
C  5.72300 43.60800 26.83000
C  5.03900 43.39600 28.03100
C  3.76200 42.98700 27.67200
C  7.15200 44.05600 26.71000
C  5.10400 43.50300 29.44500
O  6.04600 43.84300 30.12200
C  3.68400 43.04500 30.03600
C  4.02100 41.75700 30.81300
O  4.04100 40.61200 30.38700
O  4.38400 42.15500 32.10300
C  4.65300 41.08000 33.07100
H  -2.23100 41.02800 27.11000
H  0.55800 41.39600 21.28800
H  6.03000 43.20900 24.05900
H  1.04300 41.41000 30.61000
H  -1.39900 42.33800 29.27000
H  -1.41400 39.44300 29.04000
H  -2.12100 40.56400 30.21800
H  -0.59200 39.88400 30.60700
H  -0.71100 43.59500 30.81100
H  0.83200 44.20300 30.23500
H  1.44800 44.21200 32.33100
H  1.54900 42.45900 32.42800
H  -3.45300 39.66200 25.80100
H  -3.97100 39.37800 24.21400
H  -4.15500 41.02600 24.97100
H  -3.70800 39.78900 20.48900
H  -4.16500 40.43100 22.06200
H  -3.46900 38.75200 21.95300
H  2.64500 43.01500 20.71000
H  5.37000 42.37800 21.72700
H  3.32200 41.55000 19.41100
H  2.61400 40.20300 20.36200
H  4.33900 40.62300 20.57500
H  5.25800 44.70600 22.31300
H  3.64600 44.88000 21.74700
H  5.26700 43.81200 19.54300
H  5.60800 45.46400 19.93600
H  3.96600 44.89400 19.48900
H  7.10500 44.59600 25.76400
H  7.80500 43.18400 26.75400
H  7.35500 44.77200 27.50600
H  3.34100 43.88700 30.63700
H  4.01600 41.17400 33.95100
H  5.71200 41.09900 33.32900
H  4.53200 40.08300 32.64600

