158

Mg 23.90700 -5.62400 45.47300
C  26.32700 -3.45900 44.06100
C  21.63500 -4.31600 43.19900
C  21.86300 -8.22200 46.15300
C  26.40600 -7.10400 47.27100
N  24.02000 -4.09800 43.81100
C  25.11000 -3.41500 43.36100
C  24.69700 -2.59200 42.06000
C  23.15200 -2.81600 41.95200
C  22.89000 -3.76200 43.07300
C  22.27600 -1.53800 41.88100
C  25.60800 -2.93100 40.85000
C  26.62100 -1.81100 40.40900
H  26.44400 -1.27000 38.99900
N  21.98300 -6.07500 44.91600
C  21.18200 -5.37800 44.00600
C  19.93300 -6.10400 43.83700
C  20.03600 -7.27500 44.58500
C  21.32000 -7.24600 45.31300
C  18.82100 -5.56900 42.93700
C  18.92900 -8.30400 44.66700
O  17.89900 -8.07600 44.01000
C  18.96500 -9.46200 45.61700
N  24.04600 -7.35200 46.80400
C  23.14700 -8.25600 46.78000
C  23.70400 -9.54100 47.35900
C  25.06100 -9.08700 47.95700
C  25.18000 -7.79600 47.25200
C  22.86300 -10.40400 48.45300
C  26.26700 -10.08900 47.77500
C  27.20900 -10.12200 48.95200
N  25.90500 -5.23400 45.85400
C  26.80800 -5.95700 46.57400
C  28.14500 -5.27700 46.45900
C  27.97700 -4.27000 45.50200
C  26.58900 -4.30600 45.13700
C  29.26200 -5.74600 47.23800
C  28.62000 -3.13500 44.91200
O  29.69600 -2.57500 45.07800
C  27.61700 -2.67100 43.74900
C  27.44400 -1.16100 43.97700
O  26.62600 -0.63300 44.72800
O  28.23000 -0.45300 43.10200
C  28.25000 0.99900 43.09700
H  20.98700 -4.06500 42.35700
H  21.29900 -9.15600 46.20700
H  27.22500 -7.59600 47.79900
H  24.87500 -1.56500 42.37900
H  23.04500 -3.31000 40.98700
H  22.08000 -1.13000 42.87300
H  21.38200 -1.56900 41.25800
H  22.83200 -0.68700 41.48800
H  25.04500 -3.07200 39.92700
H  26.06500 -3.91900 40.90200
H  27.63900 -2.17600 40.54800
H  26.53200 -0.90900 41.01400
H  18.86100 -5.86200 41.88800
H  18.79300 -4.48600 43.05900
H  17.79100 -5.74700 43.24500
H  19.29200 -9.12400 46.60100
H  19.67200 -10.07700 45.06000
H  18.01000 -9.98300 45.68200
H  23.92200 -10.19400 46.51500
H  24.95200 -8.97500 49.03500
H  21.80200 -10.22200 48.27900
H  23.08100 -10.11100 49.48000
H  23.12300 -11.45400 48.32500
H  26.77500 -9.74900 46.87200
H  25.79900 -11.04300 47.53500
H  27.12500 -11.13200 49.35400
H  26.97600 -9.36100 49.69600
H  28.22100 -9.96600 48.57600
H  30.07700 -5.10300 46.90600
H  29.36900 -6.81500 47.05600
H  29.00000 -5.61700 48.28800
H  28.00500 -3.02000 42.79200
H  27.77300 1.43000 43.97700
H  27.61000 1.20700 42.23900
H  29.27900 1.33800 42.97600
Mg 35.70600 48.80000 25.45400
C  36.03500 47.27700 28.57900
C  34.37300 51.56600 27.04200
C  35.09800 50.33300 22.37600
C  36.47000 45.83900 23.89000
N  35.14900 49.22400 27.54800
C  35.59600 48.56500 28.63100
C  35.30900 49.34000 29.90500
C  34.67000 50.70700 29.38600
C  34.67400 50.50400 27.86000
C  33.24800 51.06900 29.90300
C  36.60800 49.50800 30.74900
C  36.51600 49.48500 32.29100
H  35.24600 49.85300 32.99800
N  34.89200 50.68900 24.82600
C  34.33000 51.66400 25.67100
C  33.85800 52.73500 24.91700
C  34.04500 52.34800 23.50100
C  34.74500 51.11500 23.54800
C  33.31300 54.09300 25.53200
C  33.77400 53.25200 22.27700
O  33.99500 52.95200 21.12300
C  33.16400 54.55700 22.47600
N  35.60900 48.17600 23.42800
C  35.61400 49.02900 22.34100
C  36.04300 48.28700 21.04200
C  36.50200 46.93500 21.67000
C  36.13700 46.94400 23.08900
C  35.02200 48.16200 19.93400
C  37.98000 46.63500 21.50000
C  38.53600 46.67800 20.12200
N  36.14900 46.88900 26.08500
C  36.44900 45.79100 25.31800
C  36.77300 44.60200 26.26300
C  36.62900 45.19800 27.60600
C  36.29000 46.55300 27.41600
C  37.37800 43.29200 25.92600
C  36.76600 44.96600 29.02200
O  36.98200 43.96500 29.65400
C  36.25100 46.25100 29.73600
C  34.95600 45.90200 30.39000
O  33.87200 45.63300 29.87900
O  35.08900 46.15200 31.75900
C  33.84500 45.87500 32.51500
H  34.12600 52.48200 27.58300
H  34.83100 50.67700 21.37400
H  36.63700 44.85500 23.44500
H  34.53200 48.74500 30.38400
H  35.31900 51.52300 29.70300
H  33.06700 50.54800 30.84300
H  32.48500 50.79500 29.17400
H  33.28600 52.11600 30.20500
H  37.06700 50.45200 30.45800
H  37.30200 48.76600 30.35400
H  37.37200 50.13100 32.48800
H  36.72700 48.46500 32.61200
H  34.03700 54.86100 25.26000
H  33.31700 54.05400 26.62200
H  32.38000 54.45800 25.10400
H  32.96200 55.14400 21.57900
H  33.90100 55.04200 23.11600
H  32.23500 54.34300 23.00400
H  36.91500 48.83600 20.68600
H  35.96300 46.04700 21.34200
H  35.65100 48.47200 19.10000
H  34.08800 48.65100 20.20900
H  34.85300 47.10500 19.72800
H  38.10000 45.60100 21.82500
H  38.44500 47.32100 22.20800
H  38.71500 45.70100 19.67200
H  39.57100 47.01800 20.16100
H  37.95300 47.27400 19.42000
H  38.19700 43.14300 26.62900
H  37.92200 43.46100 24.99700
H  36.62600 42.50600 25.86200
H  36.99300 46.57000 30.46800
H  33.93000 44.79700 32.65300
H  32.94300 46.26400 32.04400
H  33.90600 46.37900 33.48000

