158

Mg 8.47400 3.29600 27.24400
C  9.97400 1.93200 30.03400
C  6.58100 5.37300 29.21600
C  7.37600 4.85300 24.51800
C  10.03200 0.87700 25.18400
N  8.06400 3.34200 29.46100
C  8.97200 2.90300 30.38400
C  8.69900 3.47600 31.79500
C  7.46800 4.42600 31.48700
C  7.36500 4.42300 29.95900
C  6.12800 3.97800 32.16000
C  9.94000 4.20400 32.47000
C  9.74400 4.79800 33.79300
H  10.74300 4.24200 34.93800
N  7.11700 4.92900 26.92100
C  6.49500 5.68600 27.86400
C  5.68100 6.67700 27.22400
C  6.09500 6.68200 25.81500
C  6.95300 5.46800 25.69400
C  4.78000 7.59600 27.97300
C  5.65700 7.59000 24.59800
O  5.92600 7.33700 23.44100
C  4.70300 8.74700 24.96400
N  8.49400 2.78700 25.14500
C  7.94800 3.62500 24.21100
C  7.92900 2.97600 22.75000
C  8.75000 1.65900 22.97400
C  9.13000 1.76800 24.52400
C  6.44900 2.81000 22.26500
C  10.07400 1.65500 22.26300
C  10.36300 0.42900 21.31700
N  9.67800 1.72600 27.50400
C  10.27000 0.83400 26.59300
C  11.25100 0.00100 27.24200
C  11.23300 0.44800 28.61900
C  10.21100 1.45300 28.68900
C  12.10000 -1.03000 26.56000
C  11.82300 0.30800 29.97200
O  12.67800 -0.50400 30.41300
C  11.00100 1.25000 30.89700
C  10.36000 0.45700 32.03300
O  9.57300 -0.41300 31.86800
O  10.91600 0.77900 33.29500
C  10.49600 0.00200 34.46600
H  6.09100 6.03500 29.93300
H  7.14900 5.34700 23.57100
H  10.60600 0.20500 24.54100
H  8.53400 2.54500 32.33700
H  7.65700 5.45600 31.78800
H  6.42900 3.30500 32.96200
H  5.53100 3.50800 31.37800
H  5.56100 4.86400 32.44500
H  10.42600 4.95000 31.84100
H  10.69600 3.41900 32.50800
H  8.73400 4.66200 34.18200
H  10.02800 5.84400 33.67800
H  5.14300 8.62400 27.99200
H  4.41500 7.23900 28.93600
H  3.87000 7.75800 27.39600
H  3.72300 8.45300 25.34200
H  4.47600 9.30700 24.05700
H  5.23800 9.38300 25.66800
H  8.43400 3.59500 22.00900
H  8.18400 0.74200 22.81300
H  6.47200 1.96700 21.57400
H  5.98900 3.68100 21.79600
H  5.94000 2.50700 23.18000
H  10.89600 1.89400 22.93700
H  10.17600 2.53600 21.62900
H  10.34000 0.64300 20.24800
H  9.65600 -0.35000 21.60300
H  11.32500 -0.01300 21.57800
H  12.90700 -0.72000 25.89600
H  11.45900 -1.74300 26.04200
H  12.56500 -1.68500 27.29800
H  11.78200 1.82200 31.39800
H  9.62900 -0.64400 34.32300
H  10.24800 0.71700 35.25000
H  11.35700 -0.53600 34.86200
Mg -12.02400 16.16200 42.52600
C  -8.86000 14.69700 41.86900
C  -10.63100 19.11300 41.50300
C  -15.14800 17.42600 42.42200
C  -13.22800 12.98700 43.37800
N  -9.94200 16.78100 41.57700
C  -8.83000 16.04300 41.53200
C  -7.61100 16.85100 41.24700
C  -8.20200 18.25100 41.54500
C  -9.66400 18.07900 41.51900
C  -7.63000 18.73600 42.97300
C  -7.08500 16.76300 39.79600
C  -5.60700 16.32100 39.60900
H  -5.31700 15.16700 38.60300
N  -12.76700 17.99100 41.98300
C  -12.00900 19.10500 41.58300
C  -12.86700 20.14600 41.27700
C  -14.22400 19.82400 41.66300
C  -14.09800 18.38300 42.05100
C  -12.42100 21.39000 40.54900
C  -15.47600 20.74800 41.62800
O  -15.40800 21.92700 41.26600
C  -16.76200 20.25300 42.11000
N  -13.98700 15.32500 42.93800
C  -15.11400 16.06100 42.76500
C  -16.29700 15.20700 42.94700
C  -15.75700 13.72100 43.24100
C  -14.21200 14.00400 43.20400
C  -17.26800 15.65300 44.11800
C  -16.27900 12.70900 42.18000
C  -17.59400 12.12900 42.54800
N  -11.23900 14.20000 42.66100
C  -11.81100 13.03000 43.07600
C  -10.79400 11.96300 43.18000
C  -9.64200 12.57100 42.64300
C  -9.91600 13.92000 42.40900
C  -10.96100 10.53700 43.66300
C  -8.25500 12.31500 42.26200
O  -7.62900 11.29400 42.34500
C  -7.72600 13.66800 41.78700
C  -6.69500 14.03100 42.83400
O  -6.99100 14.11700 44.06200
O  -5.47600 14.25200 42.26400
C  -4.38000 14.78800 43.14000
H  -10.20600 20.11500 41.41500
H  -16.20200 17.71300 42.43500
H  -13.68900 12.04100 43.67100
H  -6.82700 16.61300 41.96600
H  -7.96100 18.99700 40.78800
H  -8.44600 18.47700 43.64800
H  -7.48600 19.81600 42.95300
H  -6.73600 18.24000 43.35100
H  -7.12200 17.69100 39.22500
H  -7.71400 16.06200 39.24900
H  -5.09200 16.12200 40.54900
H  -5.00900 17.19600 39.35400
H  -12.93000 21.47700 39.58900
H  -11.34400 21.55400 40.50500
H  -12.62800 22.25300 41.18200
H  -17.23600 19.53300 41.44300
H  -17.47100 21.08000 42.11300
H  -16.46300 19.87800 43.08900
H  -16.87900 15.36000 42.03800
H  -15.99200 13.35100 44.24000
H  -18.03600 16.33100 43.74400
H  -16.72000 16.17800 44.90000
H  -17.72800 14.78400 44.58800
H  -15.48700 11.98200 42.00300
H  -16.43900 13.28700 41.26900
H  -17.52200 11.44600 43.39400
H  -18.01800 11.55900 41.72200
H  -18.31300 12.93000 42.72100
H  -11.26700 10.47600 44.70700
H  -10.01800 10.06200 43.39300
H  -11.68800 9.91400 43.14100
H  -7.23500 13.74000 40.81600
H  -3.55900 14.07100 43.15200
H  -4.73300 14.96200 44.15700
H  -3.93700 15.74500 42.86600

