158

Mg 24.50500 -5.74400 46.05500
C  26.51900 -3.52800 44.25100
C  21.83500 -4.73700 44.12100
C  22.77800 -8.43900 47.17200
C  27.36500 -6.75700 47.91100
N  24.31700 -4.35500 44.30800
C  25.22300 -3.54400 43.77400
C  24.56300 -2.68700 42.66100
C  23.02600 -3.00300 42.84200
C  23.03400 -4.11500 43.81900
C  21.99700 -1.90100 43.32800
C  25.13800 -3.02000 41.24400
C  25.71000 -1.83100 40.37000
H  25.21100 -1.69800 38.89800
N  22.57900 -6.50600 45.62900
C  21.65700 -5.96400 44.83300
C  20.44100 -6.79500 44.91800
C  20.76400 -7.93400 45.71300
C  22.05900 -7.62000 46.25000
C  19.30600 -6.58900 44.05800
C  19.85500 -9.14400 45.93600
O  18.75600 -9.25200 45.34600
C  20.38000 -10.35600 46.74700
N  24.97200 -7.33200 47.40600
C  24.02900 -8.31600 47.72500
C  24.62800 -9.27200 48.77400
C  26.08300 -8.83100 48.92900
C  26.18800 -7.56900 48.06000
C  23.81600 -9.25200 50.11300
C  27.07900 -10.00600 48.63200
C  27.56800 -10.75300 49.88800
N  26.58000 -5.15000 46.21800
C  27.59100 -5.72300 46.98900
C  28.79900 -5.07000 46.63300
C  28.46300 -4.22600 45.56500
C  27.09100 -4.32200 45.33700
C  30.13300 -5.20300 47.29400
C  28.89000 -3.28300 44.56900
O  30.05300 -2.87000 44.41000
C  27.68300 -2.83400 43.71300
C  27.51500 -1.33400 43.81400
O  26.84500 -0.65600 44.58000
O  28.30500 -0.85000 42.80600
C  28.56300 0.57800 42.63400
H  20.98800 -4.36600 43.54100
H  22.39000 -9.39800 47.52200
H  28.22500 -7.14600 48.46000
H  24.72000 -1.61400 42.76600
H  22.65200 -3.41800 41.90500
H  21.17800 -1.78200 42.61800
H  22.48600 -0.92700 43.31700
H  21.62800 -2.10300 44.33300
H  24.37500 -3.40200 40.56600
H  25.87100 -3.81400 41.38200
H  26.77800 -2.01000 40.24500
H  25.68200 -0.88200 40.90500
H  19.20300 -5.54000 43.78000
H  18.41900 -6.92400 44.59400
H  19.40800 -7.25600 43.20200
H  20.54800 -9.95400 47.74600
H  21.35900 -10.63100 46.35300
H  19.67500 -11.18800 46.77000
H  24.45300 -10.27900 48.39600
H  26.20900 -8.35400 49.90100
H  24.45300 -8.99200 50.95800
H  23.42900 -10.24000 50.36400
H  22.95400 -8.59500 49.99000
H  27.92600 -9.59900 48.07900
H  26.55500 -10.66700 47.94200
H  26.95100 -11.63600 50.05300
H  27.51300 -10.12300 50.77600
H  28.55900 -11.12000 49.62200
H  30.84200 -4.65700 46.67200
H  30.26900 -6.28200 47.21700
H  30.13600 -4.82000 48.31400
H  27.78700 -3.17400 42.68300
H  29.64400 0.68800 42.54600
H  28.13100 1.32100 43.30500
H  28.22700 0.84900 41.63300
Mg 50.50800 45.62000 42.30300
C  47.49100 47.05000 41.04100
C  49.54300 42.59600 41.23400
C  53.70200 44.62700 42.78300
C  51.62300 48.96800 42.82000
N  48.84200 44.99200 41.13600
C  47.71100 45.69600 40.83300
C  46.63500 44.73100 40.31900
C  47.19100 43.38200 40.53500
C  48.62200 43.64900 41.06900
C  46.33200 42.43100 41.50900
C  46.39200 45.05800 38.81000
C  44.91200 45.11800 38.37400
H  44.29500 43.91000 37.59700
N  51.53000 43.77500 42.03500
C  50.88500 42.64000 41.67800
C  51.87600 41.57800 41.70100
C  53.12500 42.15200 42.09100
C  52.85100 43.59200 42.30500
C  51.52600 40.14300 41.30700
C  54.43800 41.42700 42.25700
O  54.48800 40.20800 42.22000
C  55.74500 42.12500 42.46200
N  52.37200 46.75200 42.65000
C  53.48500 46.03200 42.95700
C  54.65300 46.87300 43.46500
C  54.00800 48.20400 43.36800
C  52.51200 48.00200 43.09000
C  55.29800 46.56900 44.89200
C  54.66900 49.30800 42.42500
C  55.64300 50.32200 42.99800
N  49.72400 47.58500 42.04900
C  50.30600 48.86100 42.30200
C  49.36900 49.95600 42.01900
C  48.21700 49.24000 41.66900
C  48.49400 47.83900 41.63100
C  49.61100 51.40600 42.15300
C  46.80200 49.41500 41.34300
O  46.06700 50.38200 41.28400
C  46.37800 48.04100 40.80400
C  45.10300 47.63400 41.55600
O  44.96400 47.44900 42.74500
O  44.11600 47.41600 40.58800
C  42.86700 47.16500 41.21100
H  48.98900 41.71800 40.89400
H  54.71300 44.40800 43.13200
H  52.07600 49.88000 43.21400
H  45.81000 44.84300 41.02300
H  47.41600 42.83200 39.62200
H  45.44200 42.92700 41.89500
H  46.97100 42.05900 42.31000
H  45.95100 41.61900 40.88900
H  46.94200 44.27700 38.28600
H  46.75700 46.04600 38.52800
H  44.73800 46.13900 38.03400
H  44.33800 45.01900 39.29500
H  52.09400 39.78100 40.45000
H  50.48100 39.94900 41.06900
H  51.79300 39.48800 42.13700
H  55.93300 42.57700 43.43600
H  55.84200 42.96300 41.77300
H  56.55800 41.42700 42.26000
H  55.34400 46.63800 42.65500
H  53.90500 48.58100 44.38600
H  56.30000 46.21600 44.65100
H  54.76100 45.64900 45.12400
H  55.14700 47.36100 45.62600
H  53.93100 49.77100 41.77000
H  55.30000 48.72100 41.75700
H  56.61700 50.14700 42.54000
H  55.78000 50.15000 44.06600
H  55.17700 51.28800 42.80300
H  48.72800 52.01300 41.95500
H  50.40500 51.71000 41.47100
H  49.96500 51.67000 43.15000
H  46.07600 48.15200 39.76200
H  42.66700 47.79300 42.07800
H  42.66600 46.12300 41.45900
H  42.16600 47.42600 40.41800

