158

Mg 7.90700 2.27100 27.54400
C  9.31800 0.89300 30.75600
C  5.91000 4.14600 29.64900
C  6.31400 3.17500 24.81900
C  9.68000 -0.27300 25.98400
N  7.67200 2.33700 29.99200
C  8.38400 1.84800 31.04800
C  8.04100 2.55400 32.38100
C  6.79200 3.38000 31.96600
C  6.82100 3.34200 30.41100
C  5.40500 3.00400 32.75100
C  9.16100 3.38800 32.95200
C  8.84000 4.30900 34.09700
H  9.48000 3.98900 35.45000
N  6.37300 3.49800 27.27600
C  5.69800 4.23900 28.26900
C  4.79200 5.19700 27.62000
C  5.02900 4.94700 26.19900
C  5.92400 3.88000 26.07800
C  3.76100 6.00800 28.38100
C  4.30700 5.64000 25.04100
O  4.48900 5.28000 23.90300
C  3.26200 6.68100 25.32800
N  8.01400 1.54000 25.67300
C  7.23900 2.07300 24.74200
C  7.44800 1.44900 23.37300
C  8.71600 0.45400 23.64600
C  8.78300 0.53800 25.15600
C  6.21500 0.57200 22.97300
C  10.07200 0.83200 22.89200
C  10.43500 -0.03000 21.63900
N  9.31300 0.76600 28.12700
C  9.98800 -0.16700 27.37300
C  10.89800 -0.94300 28.13200
C  10.63400 -0.55100 29.49900
C  9.72100 0.52200 29.43400
C  11.83200 -2.09200 27.64500
C  11.11700 -0.78300 30.91600
O  12.00300 -1.53700 31.27500
C  10.19500 0.18600 31.82900
C  9.32000 -0.54300 32.76500
O  8.27700 -1.10100 32.54300
O  9.81600 -0.43400 34.07300
C  9.29100 -1.27400 35.17000
H  5.37200 4.76800 30.36800
H  5.87200 3.49700 23.87400
H  10.25900 -1.02400 25.44200
H  7.68600 1.84500 33.12800
H  6.97400 4.44500 32.11100
H  5.35700 3.68400 33.60200
H  5.42600 1.97000 33.09400
H  4.47900 3.05700 32.17800
H  9.56400 3.95100 32.11000
H  10.04600 2.86100 33.30900
H  7.75100 4.26300 34.07400
H  9.09800 5.33200 33.82500
H  2.75500 5.61900 28.22500
H  3.83300 7.07600 28.17800
H  4.00000 5.86100 29.43400
H  2.40500 6.25100 25.84600
H  2.99600 6.89600 24.29300
H  3.65500 7.51600 25.90900
H  7.77500 2.09000 22.55400
H  8.47800 -0.58800 23.43100
H  6.30400 -0.51400 23.02100
H  5.86200 0.74400 21.95700
H  5.42800 0.83800 23.67900
H  10.92200 0.93100 23.56800
H  9.91800 1.81600 22.44800
H  9.64800 -0.72900 21.35700
H  11.30700 -0.66300 21.80300
H  10.67600 0.63900 20.81300
H  12.03100 -1.84000 26.60400
H  11.37700 -3.08300 27.66600
H  12.76700 -2.02000 28.20000
H  10.91000 0.81400 32.35900
H  9.05100 -2.31000 34.93000
H  8.42700 -0.72100 35.53800
H  10.06900 -1.23700 35.93200
Mg 2.14600 42.15800 25.08900
C  3.14800 42.24200 28.49000
C  -0.66000 40.36500 26.06300
C  1.65100 41.20700 21.98300
C  5.35400 43.37500 24.37000
N  1.32100 41.51000 27.08500
C  1.85700 41.67400 28.32400
C  0.82800 41.38000 29.45100
C  -0.27800 40.59000 28.63300
C  0.08700 40.86600 27.13900
C  -0.39100 39.08600 28.94200
C  0.33700 42.70500 30.11000
C  -0.05900 42.66400 31.63200
H  -0.24000 41.34000 32.36000
N  0.56100 41.14800 24.12600
C  -0.50600 40.44400 24.71100
C  -1.36400 39.91300 23.69600
C  -0.66700 40.13500 22.52200
C  0.57700 40.84900 22.84900
C  -2.79000 39.35700 23.98600
C  -1.11900 39.77300 21.10800
O  -0.53700 40.05600 20.07400
C  -2.43100 39.02200 20.94100
N  3.27700 42.43400 23.37200
C  2.83500 41.93600 22.19900
C  3.86600 42.26000 21.04700
C  4.88400 43.11400 21.85300
C  4.50900 43.03300 23.31000
C  4.44000 41.08800 20.20200
C  4.96500 44.54400 21.24400
C  3.75100 45.43200 21.55500
N  3.85500 42.82800 26.17800
C  5.09700 43.29800 25.72600
C  6.02000 43.56400 26.75500
C  5.27200 43.15000 27.88600
C  4.00300 42.70400 27.51600
C  7.42300 44.08200 26.58600
C  5.38000 42.91500 29.29000
O  6.40500 42.88200 30.01800
C  3.90100 42.43200 29.79100
C  4.08200 41.28000 30.67000
O  4.30400 40.14900 30.36900
O  3.98600 41.69300 31.99800
C  4.10400 40.62100 32.97200
H  -1.56200 39.88100 26.44300
H  1.66100 40.88700 20.93900
H  6.29500 43.78200 23.99400
H  1.37700 40.81700 30.20600
H  -1.28200 40.99900 28.74500
H  -0.02500 38.97200 29.96200
H  0.19900 38.46700 28.26600
H  -1.42700 38.74800 28.90900
H  -0.62100 43.04100 29.71100
H  1.13600 43.43900 30.00300
H  -0.91200 43.30700 31.84700
H  0.72500 43.08000 32.26500
H  -2.96800 38.42600 23.44900
H  -3.52300 40.02800 23.53800
H  -3.14500 39.26900 25.01200
H  -2.38400 38.06200 21.45500
H  -2.59200 38.81700 19.88200
H  -3.18300 39.68000 21.37500
H  3.38800 42.94700 20.34900
H  5.87700 42.69600 21.68700
H  4.12600 40.15200 20.66400
H  5.49900 41.10400 19.94400
H  4.08400 41.06900 19.17200
H  5.03300 44.43400 20.16200
H  5.78900 45.10400 21.68600
H  4.01700 46.16400 22.31800
H  3.05500 44.79300 22.09700
H  3.29100 45.97700 20.73100
H  8.09900 43.23100 26.50000
H  7.67000 44.61800 27.50200
H  7.47700 44.61400 25.63600
H  3.44300 43.21100 30.40000
H  5.14700 40.44800 33.24100
H  3.67600 39.64900 32.72500
H  3.65200 40.83400 33.94000

