158

Mg 40.43800 9.91200 29.69800
C  42.35300 11.12900 32.26400
C  38.26300 8.52800 31.91200
C  38.73200 8.62200 27.06500
C  42.91200 11.00200 27.39500
N  40.51600 9.69300 31.88900
C  41.28900 10.40600 32.74600
C  40.73800 10.30800 34.19300
C  39.45000 9.32300 34.07200
C  39.33400 9.12600 32.50100
C  39.59200 7.93900 34.86600
C  40.48200 11.67800 34.96500
C  39.72300 11.53700 36.28900
H  40.39200 12.32800 37.49200
N  38.80500 8.62600 29.50800
C  38.04800 8.21700 30.55400
C  36.96800 7.43300 30.14500
C  36.96100 7.44600 28.69000
C  38.20400 8.24300 28.33700
C  36.07200 6.74000 31.14200
C  35.97100 6.88700 27.68700
O  36.16700 7.01000 26.45000
C  34.71300 6.27300 28.16800
N  40.70200 9.94500 27.48700
C  39.82700 9.36800 26.64500
C  40.21100 9.46100 25.19500
C  41.67400 10.16900 25.28500
C  41.80500 10.31400 26.79100
C  40.12600 8.08500 24.43100
C  41.92300 11.38100 24.24600
C  41.20800 12.63300 24.76500
N  42.25200 10.86200 29.78800
C  43.10100 11.32200 28.78700
C  44.25100 11.89300 29.41200
C  43.95000 11.95500 30.77100
C  42.74900 11.24600 30.92900
C  45.35700 12.29100 28.52000
C  44.37200 12.49100 32.05900
O  45.36900 13.09900 32.37300
C  43.29700 12.02900 33.08700
C  44.02900 11.44800 34.25600
O  44.34600 10.30200 34.35300
O  44.27800 12.38500 35.18300
C  45.00800 11.88000 36.38600
H  37.48600 8.25600 32.63000
H  38.23100 8.17500 26.20400
H  43.71700 11.25000 26.70000
H  41.48900 9.75700 34.75900
H  38.51700 9.84600 34.28300
H  40.40400 7.83800 35.58600
H  39.82800 7.16700 34.13300
H  38.60700 7.71500 35.27600
H  39.97300 12.31600 34.24200
H  41.42700 12.15000 35.23400
H  39.57500 10.49400 36.56900
H  38.72500 11.97400 36.28300
H  35.19500 7.31100 31.44500
H  36.59800 6.42200 32.04200
H  35.63500 5.84600 30.69600
H  34.08900 6.32500 27.27600
H  34.31800 6.81400 29.02800
H  35.05700 5.28500 28.47400
H  39.50600 10.13800 24.71300
H  42.43000 9.41300 25.07200
H  40.90900 7.97300 23.68000
H  39.21100 7.95500 23.85200
H  40.11400 7.32600 25.21300
H  41.45900 11.10600 23.29800
H  42.97900 11.50100 24.00300
H  40.32600 12.73400 24.13300
H  41.94400 13.43500 24.70400
H  40.78400 12.56400 25.76700
H  46.29200 12.35500 29.07800
H  45.18600 13.20700 27.95500
H  45.62300 11.58800 27.73000
H  42.84800 12.96600 33.41600
H  44.42200 11.02800 36.73000
H  45.01000 12.67700 37.13000
H  46.04300 11.70000 36.09400
Mg 49.23100 36.01800 27.65300
C  47.09400 35.00100 30.25400
C  49.80700 38.94800 29.50500
C  51.04200 37.26500 25.13900
C  48.42300 33.21700 25.80800
N  48.36100 36.95800 29.62300
C  47.71300 36.19100 30.58200
C  47.63700 36.95300 31.89500
C  48.18500 38.31000 31.59600
C  48.83900 38.13700 30.16700
C  47.19600 39.47300 31.66900
C  48.52000 36.17600 32.85900
C  47.94100 36.05300 34.29900
H  48.03500 37.19600 35.32000
N  50.35000 37.85400 27.38200
C  50.45800 38.88500 28.23900
C  51.40100 39.87700 27.81000
C  51.87900 39.32200 26.59600
C  51.03500 38.12800 26.30100
C  51.79100 41.17900 28.58000
C  52.97300 39.75700 25.60800
O  53.23900 39.14200 24.59100
C  53.59000 41.10900 25.92600
N  49.61400 35.38600 25.78900
C  50.41700 36.06100 24.91600
C  50.96300 35.13400 23.82800
C  50.06400 33.87800 23.98000
C  49.32400 34.15900 25.28700
C  51.12000 35.65800 22.42000
C  50.90600 32.54100 24.05600
C  50.23000 31.41600 23.17400
N  47.91300 34.42600 27.91400
C  47.71000 33.33000 27.11500
C  46.78400 32.41300 27.80100
C  46.42100 33.06100 28.98800
C  47.24000 34.24900 29.04000
C  46.21800 31.08500 27.22100
C  45.63600 33.03400 30.15800
O  44.80900 32.17900 30.54000
C  45.95000 34.24800 31.03500
C  46.32500 33.59200 32.32300
O  47.37100 32.92600 32.54400
O  45.22800 33.73300 33.15700
C  45.19700 32.67800 34.21800
H  50.00000 39.87800 30.04300
H  51.71200 37.51200 24.31200
H  48.24800 32.36400 25.14800
H  46.60500 36.92700 32.24400
H  48.94500 38.68700 32.28100
H  46.28500 39.01900 31.28000
H  47.37400 40.24200 30.91700
H  47.15200 39.83500 32.69600
H  49.46900 36.71200 32.83800
H  48.69600 35.17800 32.45800
H  48.31700 35.10600 34.68600
H  46.86500 35.91900 34.19000
H  51.23900 41.36400 29.50100
H  51.59400 42.01200 27.90600
H  52.85300 41.00500 28.75500
H  52.85100 41.90400 25.82300
H  54.39800 41.19400 25.19900
H  53.93400 41.05300 26.95900
H  51.98900 34.92800 24.13100
H  49.28800 33.85100 23.21500
H  51.06200 36.73900 22.29300
H  50.25400 35.33900 21.84000
H  51.95400 35.29300 21.82100
H  50.95900 32.11600 25.05900
H  51.91400 32.74000 23.69100
H  49.39700 31.78700 22.57700
H  49.90800 30.66300 23.89300
H  50.96000 30.89900 22.55200
H  46.51400 30.98200 26.17700
H  45.13200 31.17200 27.17800
H  46.58000 30.22900 27.79000
H  45.06000 34.87500 30.97300
H  44.57600 31.85200 33.86900
H  44.60100 33.09200 35.03100
H  46.16900 32.36700 34.60000

