158

Mg 1.28300 8.28500 25.32200
C  2.06900 10.12900 28.22600
C  1.61500 5.43800 27.22300
C  0.87600 6.66700 22.60400
C  1.28800 11.34100 23.54100
N  1.79400 7.89100 27.49700
C  1.91100 8.78200 28.57100
C  1.97800 8.13600 29.92100
C  2.09700 6.64400 29.51100
C  1.78100 6.66900 27.97000
C  3.50900 5.96300 29.79500
C  0.65400 8.41600 30.70400
C  0.67000 8.47200 32.23300
H  1.98200 7.93600 32.89100
N  1.23400 6.29900 24.95000
C  1.31300 5.30400 25.81700
C  1.26600 4.01700 25.06200
C  0.98900 4.40200 23.72400
C  1.12100 5.85500 23.66200
C  1.40600 2.62600 25.80000
C  0.64200 3.49100 22.61900
O  0.24300 3.83700 21.50200
C  0.70800 1.98300 22.72600
N  0.97700 8.85800 23.41300
C  0.85100 8.01900 22.40800
C  0.56000 8.66400 21.06900
C  0.40300 10.20700 21.48800
C  0.99900 10.14000 22.89500
C  1.72200 8.57000 19.99100
C  -1.04900 10.78600 21.55300
C  -2.00100 10.50200 20.41400
N  1.74300 10.26300 25.73700
C  1.69800 11.42900 24.90800
C  2.09300 12.57800 25.69200
C  2.23100 12.11900 26.97500
C  1.99700 10.69900 26.96100
C  2.14700 13.93100 25.19800
C  2.50800 12.53700 28.34100
O  2.93700 13.55800 28.74700
C  2.25300 11.32100 29.21400
C  3.35100 11.14200 30.24500
O  4.45200 10.73000 29.99400
O  2.95600 11.63700 31.43100
C  3.99000 11.65400 32.50100
H  1.51300 4.55900 27.86300
H  0.74700 6.18500 21.63300
H  1.26500 12.21400 22.88600
H  2.85400 8.45900 30.48400
H  1.38300 5.98300 30.00200
H  4.31100 6.65300 30.05700
H  3.96300 5.51400 28.91100
H  3.42100 5.15000 30.51600
H  -0.12900 7.70700 30.43400
H  0.36300 9.37200 30.27000
H  -0.20600 8.00900 32.68600
H  0.59100 9.50800 32.56300
H  2.18200 2.04600 25.30000
H  0.41400 2.23600 25.57500
H  1.53500 2.77800 26.87200
H  0.40800 1.59200 21.75400
H  -0.05400 1.64200 23.42700
H  1.74800 1.71500 22.90900
H  -0.43300 8.41700 20.69200
H  1.11300 10.80100 20.91300
H  2.59700 8.53700 20.64100
H  1.85100 9.43500 19.34100
H  1.65900 7.69600 19.34300
H  -0.99100 11.86300 21.71000
H  -1.47100 10.13500 22.31800
H  -1.39600 10.26000 19.54000
H  -2.66800 11.28200 20.04600
H  -2.57600 9.59700 20.60900
H  1.57100 14.43900 25.97100
H  1.78900 14.08900 24.18100
H  3.15200 14.35300 25.19600
H  1.31500 11.35600 29.76700
H  5.02200 11.54400 32.16600
H  3.76200 10.87400 33.22800
H  3.92200 12.54400 33.12600
Mg 23.69600 -7.14600 45.21600
C  26.05700 -4.78800 44.32200
C  21.52600 -5.77600 42.78000
C  21.53900 -9.79700 45.57000
C  26.29600 -9.14900 46.65200
N  23.81500 -5.43000 43.86200
C  24.91300 -4.71500 43.59000
C  24.69600 -3.78300 42.28400
C  23.18200 -3.86100 42.18200
C  22.75100 -5.11300 43.02600
C  22.40900 -2.46700 42.53400
C  25.54100 -4.23500 41.09900
C  26.08600 -3.12900 40.14700
H  25.77100 -3.34800 38.70800
N  21.61900 -7.61100 44.46100
C  20.99500 -6.91900 43.47300
C  19.69900 -7.60500 43.21600
C  19.67900 -8.67900 44.13900
C  20.97900 -8.74800 44.78100
C  18.58900 -7.22900 42.16600
C  18.38200 -9.56500 44.39000
O  17.30200 -9.24600 43.96900
C  18.42200 -10.80700 45.25900
N  23.83700 -9.05600 46.21700
C  22.80300 -9.94200 46.13800
C  23.21600 -11.28200 46.71700
C  24.74000 -11.11300 47.13400
C  24.98800 -9.65800 46.65900
C  22.18600 -11.93900 47.66800
C  25.66600 -12.17000 46.54000
C  26.76800 -12.74600 47.48300
N  25.71800 -6.98200 45.46400
C  26.59400 -7.88200 46.16100
C  27.84800 -7.18400 46.24300
C  27.74300 -5.92900 45.59200
C  26.47800 -5.89400 45.08400
C  29.08700 -7.81200 46.83100
C  28.39000 -4.69300 45.20000
O  29.48000 -4.18200 45.52500
C  27.37400 -3.99100 44.23700
C  27.17100 -2.52800 44.55800
O  26.21100 -1.99300 45.09400
O  28.22900 -1.76600 44.07200
C  28.18500 -0.27400 44.23500
H  20.88800 -5.50900 41.93400
H  20.93300 -10.70600 45.55400
H  27.06100 -9.78600 47.10200
H  24.97500 -2.77000 42.57500
H  22.92500 -4.14600 41.16200
H  22.29100 -1.99300 41.56000
H  23.02400 -1.85900 43.19700
H  21.40900 -2.68100 42.91000
H  24.87000 -4.86900 40.52000
H  26.35100 -4.85900 41.47600
H  27.17600 -3.15700 40.12500
H  25.78100 -2.11300 40.40000
H  18.17400 -8.17900 41.82900
H  18.99300 -6.72600 41.28800
H  17.75300 -6.65000 42.55900
H  18.58300 -10.57000 46.31100
H  19.18700 -11.44000 44.80900
H  17.51300 -11.40700 45.22000
H  23.18100 -11.81700 45.76900
H  24.84800 -11.04600 48.21600
H  21.47400 -12.57200 47.13900
H  21.88700 -11.14700 48.35500
H  22.65300 -12.73900 48.24200
H  26.07900 -11.68500 45.65600
H  25.16300 -13.05500 46.14900
H  26.85000 -12.07200 48.33600
H  27.73000 -12.68700 46.97500
H  26.52500 -13.73600 47.86800
H  28.94800 -8.21400 47.83500
H  29.86800 -7.05300 46.87100
H  29.30900 -8.59600 46.10700
H  27.65700 -4.00900 43.18500
H  28.68700 -0.13800 45.19300
H  27.17400 0.13100 44.18000
H  28.84300 0.11900 43.46000

