158

Mg -1.94600 16.96100 26.97100
C  -2.52600 14.63100 29.64400
C  -2.29500 19.44800 29.24700
C  -1.63600 18.88400 24.43900
C  -2.24400 14.14700 24.67100
N  -2.29500 16.93500 29.17100
C  -2.31500 15.93500 30.12100
C  -2.54600 16.40200 31.59300
C  -2.59400 17.98000 31.28500
C  -2.41700 18.14800 29.79100
C  -3.86700 18.60700 31.85000
C  -1.30800 15.94100 32.43900
C  -0.80400 16.73200 33.57600
H  -0.25000 16.05200 34.90400
N  -1.84200 18.97300 26.84000
C  -2.04500 19.84600 27.90700
C  -1.94500 21.13700 27.33900
C  -1.71800 21.02400 25.94400
C  -1.75600 19.60900 25.69300
C  -2.01300 22.36700 28.27100
C  -1.49300 22.09500 24.87100
O  -1.28100 21.83800 23.70300
C  -1.51000 23.47300 25.27500
N  -2.09600 16.57800 24.84700
C  -1.89500 17.63600 24.05700
C  -1.89400 17.24900 22.58600
C  -1.71100 15.68000 22.66100
C  -2.06800 15.41900 24.13100
C  -3.21400 17.70000 21.82900
C  -0.26600 15.10500 22.31500
C  0.85000 15.55900 23.18600
N  -2.27700 14.85400 27.08500
C  -2.37000 13.90900 26.04500
C  -2.43000 12.65400 26.70400
C  -2.59100 12.89500 28.10600
C  -2.48500 14.20900 28.24600
C  -2.45800 11.34600 26.03900
C  -2.89000 12.23900 29.41300
O  -3.24000 11.10500 29.67800
C  -2.70100 13.35300 30.44500
C  -1.49400 12.94500 31.21300
O  -0.31700 13.26800 31.00200
O  -1.86400 12.30600 32.38000
C  -0.99700 12.24500 33.56900
H  -2.35400 20.21400 30.02300
H  -1.61500 19.61000 23.62400
H  -2.38800 13.28800 24.01300
H  -3.43700 15.97500 32.05300
H  -1.80300 18.62300 31.67300
H  -4.09500 18.07400 32.77400
H  -4.62500 18.62500 31.06600
H  -3.71800 19.66200 32.07900
H  -0.44300 15.69200 31.82400
H  -1.61600 15.03900 32.96700
H  -1.71900 17.30900 33.70800
H  0.05800 17.31000 33.24300
H  -2.80300 23.05500 27.97100
H  -1.09700 22.95400 28.20100
H  -2.10200 22.14700 29.33400
H  -2.41200 23.72900 25.83000
H  -1.53300 23.99600 24.31900
H  -0.62800 23.67700 25.88200
H  -1.00900 17.65700 22.09800
H  -2.58100 15.24000 22.17300
H  -2.92400 18.24700 20.93100
H  -3.87600 18.32700 22.42600
H  -3.66400 16.78600 21.44200
H  -0.02900 15.50800 21.33100
H  -0.34100 14.02400 22.43600
H  1.47900 16.11400 22.49100
H  1.28900 14.67300 23.64500
H  0.45200 16.21500 23.96000
H  -3.20400 11.41800 25.24700
H  -2.86100 10.58100 26.70300
H  -1.50100 10.99200 25.65800
H  -3.40400 13.56800 31.24900
H  -0.93100 13.27600 33.91800
H  0.01100 11.92200 33.30800
H  -1.37100 11.68400 34.42500
Mg -4.85700 25.32300 26.17400
C  -3.68500 26.62500 29.03200
C  -6.93000 23.26000 28.17500
C  -5.70100 23.73500 23.43600
C  -2.38700 27.08300 24.27800
N  -5.06500 24.78000 28.37200
C  -4.56700 25.63300 29.35000
C  -5.19500 25.36100 30.69400
C  -5.94200 23.94900 30.44500
C  -5.98100 23.91400 28.93300
C  -5.27200 22.67200 30.98800
C  -6.17800 26.48800 31.24300
C  -6.20400 26.69600 32.78400
H  -5.72800 25.61700 33.75400
N  -6.15000 23.79900 25.84300
C  -7.02500 23.09900 26.74600
C  -7.91900 22.19000 25.99300
C  -7.56300 22.30900 24.61200
C  -6.42300 23.35400 24.60200
C  -8.86300 21.38100 26.68000
C  -8.16000 21.54900 23.42100
O  -7.81700 21.82400 22.21900
C  -9.25700 20.49000 23.69200
N  -4.20700 25.46900 24.15400
C  -4.76400 24.69000 23.20900
C  -4.15900 25.01800 21.77300
C  -3.16700 26.13600 22.07800
C  -3.26000 26.24400 23.58800
C  -3.56900 23.74800 21.04900
C  -3.47200 27.44500 21.28000
C  -2.50000 27.79600 20.16800
N  -3.38100 26.62300 26.49300
C  -2.53000 27.37100 25.66500
C  -1.71500 28.29600 26.47600
C  -2.17000 28.10500 27.72100
C  -3.06800 26.97500 27.77000
C  -0.63400 29.21100 25.98600
C  -2.06300 28.50000 29.06700
O  -1.36200 29.34100 29.53800
C  -2.89600 27.49000 29.95300
C  -1.95900 26.67400 30.77400
O  -1.21500 25.75400 30.30300
O  -1.83700 27.27200 32.04200
C  -0.91900 26.77000 33.04200
H  -7.50900 22.58900 28.81100
H  -6.00800 23.22600 22.52000
H  -1.70200 27.64200 23.63700
H  -4.36400 25.22700 31.38600
H  -6.98400 23.94400 30.76500
H  -4.70600 22.18300 30.19500
H  -6.11100 22.05800 31.31300
H  -4.58800 22.92300 31.79800
H  -7.22300 26.33000 30.97500
H  -5.81700 27.45700 30.89800
H  -7.23800 26.98100 32.97800
H  -5.69800 27.64400 32.96800
H  -8.43900 20.37900 26.73100
H  -9.81700 21.50300 26.16700
H  -8.98200 21.66600 27.72500
H  -9.03600 19.74800 24.46000
H  -9.51500 19.95900 22.77600
H  -10.15600 21.01200 24.02200
H  -4.96100 25.30300 21.09200
H  -2.16700 25.84600 21.75500
H  -2.53700 23.89900 20.73200
H  -4.11300 23.41100 20.16600
H  -3.67200 22.94900 21.78300
H  -3.55700 28.23900 22.02200
H  -4.39600 27.42400 20.70200
H  -1.81700 28.54800 20.56300
H  -3.09000 28.17300 19.33300
H  -1.92600 26.96600 19.75400
H  -0.92100 29.34300 24.94300
H  0.36400 28.77300 26.01500
H  -0.70300 30.11500 26.59000
H  -3.56500 27.94600 30.68200
H  0.09800 27.13300 32.88800
H  -0.96200 25.68700 32.92600
H  -1.24700 27.05000 34.04300

