158

Mg 24.99100 1.41300 29.81600
C  27.49800 1.29900 32.61600
C  22.60300 1.43100 32.06100
C  23.11400 1.21000 27.28200
C  27.94500 0.99100 27.67500
N  25.19200 1.23700 32.07900
C  26.16500 1.41500 32.96400
C  25.61500 1.50400 34.42400
C  24.10800 1.25000 34.16800
C  23.92800 1.40800 32.67400
C  23.41100 -0.11800 34.73700
C  25.98500 2.87000 35.16600
C  26.72700 2.67800 36.53400
H  26.43900 3.66600 37.69300
N  23.07400 1.29800 29.70100
C  22.17000 1.28200 30.70900
C  20.80900 1.10600 30.13200
C  21.03900 1.00500 28.76600
C  22.47100 1.15100 28.47100
C  19.56000 1.06900 31.07600
C  19.95200 0.82500 27.66100
O  20.19500 0.79800 26.48900
C  18.56600 0.71400 28.03700
N  25.50900 0.96600 27.72800
C  24.43000 1.26500 26.84600
C  24.84100 1.54000 25.34800
C  26.41700 1.38800 25.57100
C  26.70400 1.11700 27.10400
C  24.27700 0.44800 24.26900
C  27.17800 2.56800 25.10000
C  26.87700 3.91300 25.88000
N  27.28400 1.06800 30.02100
C  28.25800 0.90700 29.05300
C  29.53100 0.79200 29.72400
C  29.29900 0.95200 31.07400
C  27.89700 1.12200 31.24400
C  30.78300 0.56100 29.08800
C  29.83800 0.87300 32.43700
O  30.95400 0.56400 32.80300
C  28.73900 1.26100 33.44200
C  28.76000 0.26500 34.54700
O  28.31400 -0.83400 34.45200
O  29.43100 0.80600 35.61100
C  29.53000 -0.17600 36.79800
H  21.78400 1.44800 32.78300
H  22.49300 1.31800 26.39000
H  28.78900 0.90400 26.98700
H  26.05000 0.67800 34.98700
H  23.53100 2.06600 34.60200
H  23.20900 -0.73100 33.85900
H  22.43700 -0.05000 35.22200
H  24.22900 -0.57800 35.29100
H  25.14800 3.54500 35.34300
H  26.67500 3.47200 34.57400
H  27.80800 2.81000 36.58200
H  26.72800 1.70100 37.01600
H  18.95200 1.95800 30.90600
H  19.74400 1.06900 32.15000
H  18.80900 0.31100 30.85100
H  18.26100 1.62600 28.55100
H  18.36300 -0.15900 28.65700
H  17.94300 0.70900 27.14300
H  24.68700 2.55500 24.98300
H  26.75800 0.51700 25.01100
H  25.06700 0.00800 23.66100
H  23.51000 0.86400 23.61700
H  23.80700 -0.18700 25.02100
H  27.07800 2.85100 24.05200
H  28.24400 2.34900 25.16400
H  26.15100 3.76800 26.68100
H  26.52600 4.76200 25.29400
H  27.82000 4.12200 26.38500
H  31.17600 -0.45400 29.14400
H  31.55700 1.20300 29.50800
H  30.75200 0.82300 28.03000
H  29.02600 2.17400 33.96300
H  29.75500 -1.18200 36.44200
H  28.58900 -0.03600 37.33000
H  30.39000 -0.01900 37.45000
Mg 6.78800 53.26900 40.76300
C  6.25400 49.75200 40.39800
C  10.08500 52.70800 40.11400
C  7.17900 56.54400 40.61800
C  3.35400 53.61600 41.65300
N  7.94700 51.46500 40.08400
C  7.59600 50.11900 40.19700
C  8.78500 49.22400 39.98900
C  10.01800 50.12200 40.34200
C  9.31400 51.51200 40.19200
C  10.71900 50.00500 41.69400
C  8.94700 48.55000 38.59800
C  8.69000 49.33500 37.27200
H  7.98200 48.49700 36.16300
N  8.40400 54.43700 40.33500
C  9.72100 54.05100 40.16100
C  10.52500 55.27100 40.05400
C  9.61500 56.37100 40.02500
C  8.31500 55.80200 40.31500
C  12.01400 55.18900 39.80700
C  10.03400 57.79400 39.80900
O  11.21000 58.10400 39.70800
C  9.12100 58.91700 39.47800
N  5.40600 54.82400 41.13300
C  5.86500 56.10500 40.96400
C  4.69800 57.13100 41.18000
C  3.44600 56.20700 41.44300
C  4.14600 54.77100 41.43500
C  5.04900 58.21300 42.27400
C  2.31300 56.35300 40.34500
C  0.89300 56.41200 40.79300
N  5.06800 52.03500 40.82300
C  3.76300 52.29100 41.27900
C  2.99500 51.06300 41.24400
C  3.96600 50.07500 40.90200
C  5.21400 50.70400 40.69100
C  1.53400 50.88900 41.70700
C  4.09800 48.64700 40.63000
O  3.15400 47.80500 40.59700
C  5.56800 48.37500 40.34500
C  5.61500 47.50800 39.14800
O  5.41000 47.86000 37.96900
O  6.05700 46.19400 39.46600
C  6.00800 45.30500 38.40500
H  11.14200 52.43500 40.12100
H  7.34000 57.61900 40.50900
H  2.30600 53.80400 41.89600
H  8.81700 48.47600 40.78200
H  10.77000 50.04900 39.55700
H  10.43900 49.01500 42.05500
H  10.52400 50.77300 42.44300
H  11.79000 49.98600 41.49300
H  8.23400 47.72800 38.63800
H  9.83500 47.92500 38.49900
H  9.69800 49.38700 36.86000
H  8.26800 50.34000 37.23900
H  12.41400 55.44900 38.82700
H  12.31300 54.20100 40.15700
H  12.33200 55.85300 40.61100
H  8.68500 59.14200 40.45100
H  8.28500 58.58100 38.86500
H  9.55600 59.77100 38.95900
H  4.73800 57.84000 40.35400
H  3.00300 56.31500 42.43300
H  4.96900 59.20800 41.83700
H  5.94100 58.12000 42.89400
H  4.26600 58.22200 43.03300
H  2.32100 55.56900 39.58800
H  2.41700 57.33700 39.88700
H  0.37300 57.26700 40.36200
H  0.87200 56.50600 41.87800
H  0.59800 55.39600 40.53100
H  0.89800 50.42200 40.95500
H  1.08300 51.87700 41.62000
H  1.28200 50.41500 42.65500
H  5.85100 47.71100 41.16200
H  5.91300 44.32900 38.88000
H  6.91900 45.29200 37.80600
H  5.13800 45.34800 37.75100

