158

Mg 48.10600 17.13800 29.45300
C  45.80700 17.06100 32.01800
C  50.21700 19.11300 31.23900
C  50.04800 17.46900 26.72900
C  45.42900 15.84800 27.32000
N  48.10800 17.76200 31.48000
C  47.03500 17.69100 32.33600
C  47.49100 18.16500 33.79400
C  48.92600 18.80200 33.50700
C  49.16700 18.55800 31.96200
C  49.12700 20.22700 33.96200
C  47.43200 16.94500 34.80100
C  47.36300 17.21800 36.34200
H  47.44100 18.61600 37.02100
N  49.90800 18.21100 29.02100
C  50.58900 18.93100 29.93600
C  51.87700 19.30500 29.35700
C  51.87700 18.84000 28.01500
C  50.58900 18.13600 27.82500
C  52.91700 20.07500 30.03000
C  52.85600 19.06000 26.91900
O  52.74400 18.74500 25.73700
C  54.20100 19.64100 27.31300
N  47.77900 16.65200 27.38600
C  48.80800 16.89800 26.46000
C  48.41000 16.39700 25.07500
C  47.02100 15.66300 25.27700
C  46.71900 16.02700 26.74000
C  48.23300 17.44500 23.92800
C  47.16400 14.17300 25.06000
C  45.86000 13.38500 25.06400
N  46.08300 16.40200 29.61900
C  45.12000 16.07400 28.68600
C  43.86900 15.74800 29.28500
C  44.08100 16.17800 30.63000
C  45.46900 16.60500 30.76900
C  42.60300 15.29700 28.67400
C  43.46700 16.40900 31.82000
O  42.32300 16.13600 32.15000
C  44.50900 16.80800 32.82200
C  43.91500 17.92200 33.65200
O  43.89800 19.12000 33.38400
O  43.51000 17.36600 34.82800
C  42.86100 18.24200 35.77000
H  50.86100 19.71100 31.88700
H  50.67500 17.61000 25.84600
H  44.65100 15.32100 26.76300
H  46.91400 18.99100 34.21100
H  49.76700 18.34700 34.03100
H  49.20900 20.84800 33.07000
H  49.99200 20.41000 34.59800
H  48.25300 20.55700 34.52400
H  48.29600 16.31000 34.60100
H  46.66700 16.22400 34.51300
H  48.12700 16.55000 36.73800
H  46.41800 16.80000 36.68900
H  53.29600 20.99500 29.58500
H  53.72900 19.41100 30.32600
H  52.60700 20.40700 31.02000
H  54.33500 20.63500 27.74000
H  54.76500 19.63900 26.38000
H  54.76900 18.98500 27.97200
H  49.14700 15.72300 24.63900
H  46.24800 16.04600 24.61100
H  49.16100 17.40100 23.35800
H  48.19500 18.45000 24.34800
H  47.38900 17.28200 23.25800
H  47.66800 13.77300 25.94000
H  47.69200 13.90600 24.14400
H  44.95200 13.96500 24.90000
H  45.75500 12.92600 26.04700
H  45.91600 12.63900 24.27100
H  42.90000 14.50500 27.98700
H  42.15900 16.15400 28.16800
H  41.83200 14.81200 29.27200
H  44.71400 16.02300 33.55100
H  41.79500 18.22200 35.54200
H  43.07700 19.31000 35.79300
H  42.93700 17.87500 36.79400
Mg 17.69000 51.39900 26.38300
C  19.63200 49.92500 28.83600
C  15.44200 52.10400 28.76700
C  15.58700 52.45400 23.87000
C  19.79300 50.01200 23.94500
N  17.56500 51.10100 28.55500
C  18.52500 50.52600 29.39600
C  18.08300 50.56100 30.83000
C  16.47600 50.74500 30.66700
C  16.45900 51.34100 29.27600
C  15.57400 49.43600 30.72100
C  18.73500 51.75000 31.53900
C  19.02400 51.46800 33.01800
H  17.81800 50.82400 33.87700
N  15.81900 52.32600 26.34600
C  15.11700 52.60800 27.46800
C  13.92600 53.34800 27.05300
C  13.84900 53.31200 25.60200
C  15.09400 52.67500 25.21100
C  13.02600 54.01000 28.11700
C  12.70600 53.86900 24.74000
O  12.90800 53.85600 23.52300
C  11.49800 54.54000 25.28800
N  17.61000 51.17000 24.21400
C  16.71800 51.80300 23.42600
C  17.32800 52.02900 22.02200
C  18.72700 51.36000 22.07700
C  18.72900 50.80200 23.52100
C  16.46100 51.57400 20.83300
C  19.96900 52.41000 21.93200
C  21.29900 51.77100 21.39000
N  19.35000 50.17400 26.31300
C  20.11300 49.69900 25.23000
C  21.18300 48.83400 25.74100
C  21.08400 48.94400 27.15500
C  19.98200 49.75300 27.47800
C  22.25100 48.22900 24.93500
C  21.63200 48.48100 28.45500
O  22.55400 47.68700 28.72300
C  20.75400 49.18500 29.55700
C  20.21800 48.16500 30.47600
O  19.39000 47.33300 30.27600
O  20.85400 48.24200 31.71100
C  20.65600 47.16900 32.67700
H  14.63500 52.30300 29.47600
H  15.05600 52.96900 23.06700
H  20.48800 49.76500 23.14000
H  18.22100 49.63000 31.37900
H  16.12700 51.56200 31.29800
H  14.85100 49.31700 29.91400
H  14.89300 49.56000 31.56300
H  16.21600 48.57000 30.88000
H  18.11500 52.63400 31.39200
H  19.69300 51.94200 31.05700
H  19.18400 52.49000 33.36400
H  19.92100 50.85000 33.06200
H  13.48900 54.08200 29.10100
H  12.23100 53.28200 28.27600
H  12.67400 54.97200 27.74600
H  10.80600 54.53700 24.44600
H  11.69500 55.51800 25.72500
H  10.96400 53.96800 26.04700
H  17.37700 53.10900 21.88100
H  18.77400 50.61500 21.28200
H  16.59400 50.50000 20.70400
H  16.75000 52.14000 19.94800
H  15.40600 51.69600 21.07900
H  20.08800 53.00700 22.83700
H  19.84200 53.17400 21.16500
H  21.32000 50.69000 21.52800
H  22.17200 52.13900 21.92900
H  21.57200 51.95000 20.35000
H  22.00800 47.27000 24.47700
H  23.13000 48.18500 25.57900
H  22.34700 48.93000 24.10600
H  21.37000 49.90300 30.09800
H  20.44500 46.23000 32.16400
H  19.80600 47.46900 33.28900
H  21.52200 47.14500 33.33900

