158

Mg 47.06600 24.45400 27.58200
C  47.91100 26.94500 29.98000
C  45.98200 22.47100 30.05200
C  45.97000 22.34700 25.16200
C  48.39900 26.56400 25.19200
N  46.83800 24.75000 29.77500
C  47.29300 25.82000 30.51100
C  47.15600 25.45200 31.97200
C  46.58700 23.99800 31.99200
C  46.58400 23.65400 30.49400
C  47.40400 23.02100 32.86000
C  46.21700 26.50400 32.71000
C  45.72600 26.30800 34.10000
H  46.14800 27.39900 35.20200
N  46.11200 22.64400 27.60800
C  45.80100 21.98300 28.75000
C  45.25300 20.68600 28.39100
C  45.13700 20.64100 27.00300
C  45.78900 21.92300 26.49400
C  44.87400 19.73800 29.49000
C  44.54300 19.61900 26.14700
O  44.54100 19.68000 24.91300
C  43.96600 18.46300 26.79300
N  47.29800 24.30600 25.47400
C  46.69200 23.40400 24.66300
C  47.01600 23.73200 23.17600
C  47.51200 25.20300 23.13700
C  47.78500 25.34200 24.71300
C  47.91100 22.61700 22.66100
C  46.47300 26.26100 22.77600
C  46.04000 26.31600 21.33400
N  48.03200 26.32300 27.53000
C  48.53900 27.00900 26.44900
C  48.96600 28.34900 26.85100
C  48.82400 28.36500 28.28500
C  48.15900 27.11600 28.65500
C  49.55300 29.30100 25.98400
C  48.95500 29.17000 29.48400
O  49.33300 30.34100 29.58800
C  48.43900 28.26400 30.63800
C  49.61500 28.03100 31.59900
O  50.67700 27.48000 31.33400
O  49.34800 28.60900 32.79700
C  50.12300 28.01000 33.89100
H  45.56000 21.86500 30.85700
H  45.41300 21.75300 24.43400
H  48.61400 27.26800 24.38500
H  48.16000 25.49900 32.39400
H  45.53000 24.07700 32.24500
H  47.50200 22.03100 32.41500
H  46.90500 22.91800 33.82400
H  48.39400 23.42600 33.06900
H  45.32200 26.53100 32.08900
H  46.52400 27.55000 32.74500
H  46.11400 25.37600 34.50900
H  44.63700 26.35200 34.07100
H  44.99500 18.72000 29.12000
H  43.92700 19.99700 29.96500
H  45.50200 19.93700 30.35800
H  43.19500 18.83600 27.46800
H  44.76200 17.90500 27.28600
H  43.47800 17.80900 26.07000
H  46.09600 23.60400 22.60600
H  48.37600 25.26700 22.47500
H  48.66700 23.02000 21.98600
H  47.34400 21.85800 22.12200
H  48.55400 22.16100 23.41400
H  47.03600 27.17900 22.94200
H  45.58200 26.20800 23.40100
H  44.96200 26.18300 21.24900
H  46.55000 25.56100 20.73600
H  46.04000 27.33700 20.95200
H  49.15900 29.36200 24.97000
H  50.59300 28.99800 25.86300
H  49.42200 30.26200 26.48300
H  47.67700 28.81100 31.19400
H  50.95900 28.70800 33.94400
H  50.28300 26.96900 33.61300
H  49.53700 27.99900 34.81000
Mg 26.44200 50.39600 27.80600
C  24.20200 51.71000 30.18700
C  28.57300 49.52900 30.41700
C  28.58100 49.29300 25.52300
C  24.33400 51.65800 25.26400
N  26.41200 50.70300 30.06800
C  25.36900 51.17200 30.86200
C  25.71600 51.02700 32.40800
C  27.15800 50.40400 32.33500
C  27.40600 50.16200 30.82100
C  28.35500 51.19400 33.00000
C  24.67500 50.16000 33.17200
C  24.31700 50.59700 34.52200
H  25.40600 50.88000 35.51600
N  28.33400 49.52400 27.98400
C  29.04600 49.24300 29.10100
C  30.35600 48.70800 28.79400
C  30.34500 48.55800 27.36500
C  29.00200 49.09600 26.91400
C  31.27300 48.16200 29.88300
C  31.35900 47.95900 26.47600
O  31.05400 47.78700 25.31600
C  32.75400 47.54200 26.97800
N  26.52700 50.61400 25.73700
C  27.50300 49.99000 25.00200
C  27.13500 50.05300 23.41900
C  25.73000 50.60100 23.36800
C  25.49500 50.97000 24.85000
C  28.17400 50.89000 22.62100
C  24.72000 49.46400 22.89600
C  23.55300 49.99300 21.98500
N  24.59300 51.34800 27.68000
C  23.94500 51.85200 26.58600
C  22.73200 52.47200 27.01200
C  22.78400 52.42200 28.40300
C  23.99400 51.74700 28.79300
C  21.67400 53.00000 26.06300
C  22.09200 52.82100 29.67600
O  21.06900 53.49600 29.88100
C  22.98400 52.38900 30.81000
C  23.29100 53.51200 31.66900
O  23.92100 54.49200 31.29300
O  22.90500 53.19000 33.00100
C  23.11700 54.25700 33.96500
H  29.31900 49.23000 31.15700
H  29.32000 49.11100 24.74000
H  23.65000 52.07200 24.52000
H  25.89000 52.03800 32.77600
H  27.12000 49.45000 32.86100
H  28.81500 50.52600 33.72800
H  27.82900 52.05400 33.41500
H  28.97300 51.56800 32.18300
H  24.93400 49.11300 33.32600
H  23.78300 50.19700 32.54700
H  23.56800 49.92400 34.93800
H  23.81400 51.56400 34.54800
H  32.30200 48.44000 29.65900
H  31.18300 47.07700 29.81900
H  31.14600 48.64100 30.85400
H  32.68200 46.58500 27.49400
H  33.30300 48.30900 27.52500
H  33.38100 47.36800 26.10400
H  27.17500 49.03800 23.02300
H  25.72600 51.41200 22.64000
H  29.22000 50.87000 22.92800
H  28.02500 51.96600 22.70700
H  28.19400 50.52800 21.59300
H  24.20400 48.93000 23.69400
H  25.23600 48.69200 22.32400
H  23.82200 50.83400 21.34600
H  22.68200 50.12800 22.62600
H  23.21000 49.15300 21.38100
H  20.94300 53.56000 26.64600
H  21.22800 52.11200 25.61600
H  22.09500 53.49400 25.18700
H  22.44100 51.66800 31.42100
H  24.11000 54.21700 34.41200
H  22.34900 54.13400 34.72700
H  22.89100 55.19600 33.45800

