158

Mg 28.58300 57.87300 41.45800
C  26.05900 55.86600 40.08000
C  30.96400 55.84100 39.60800
C  31.07800 60.13000 41.99700
C  26.19900 59.97600 42.72500
N  28.51000 56.10900 39.95700
C  27.29900 55.52400 39.60400
C  27.56800 54.30700 38.73800
C  29.03700 54.04300 39.02800
C  29.58500 55.39300 39.58100
C  29.17700 52.83100 39.95100
C  27.31400 54.65900 37.27500
C  26.85500 53.49800 36.36100
H  26.11800 53.96700 35.09000
N  30.64500 58.01100 40.91000
C  31.40700 57.05600 40.19700
C  32.79200 57.49600 40.10500
C  32.87100 58.75700 40.78600
C  31.49900 58.96400 41.30100
C  33.80000 56.73300 39.34800
C  34.14600 59.62700 40.83700
O  35.17800 59.28800 40.23100
C  34.27800 60.86400 41.71500
N  28.60200 59.70900 42.31800
C  29.78900 60.48200 42.38100
C  29.42300 61.95800 42.76600
C  27.89700 61.83200 43.24300
C  27.50400 60.44300 42.75200
C  30.42800 62.61300 43.86100
C  27.11100 63.06300 42.60700
C  25.84000 63.44900 43.35000
N  26.54200 57.85800 41.50400
C  25.71100 58.80500 42.09800
C  24.35300 58.28300 42.01600
C  24.49300 57.06600 41.30200
C  25.78500 56.98200 40.91000
C  23.08900 58.88500 42.68700
C  23.68400 56.00100 40.72900
O  22.46100 55.86100 40.83400
C  24.70200 55.23300 39.85500
C  24.65800 53.78600 40.35000
O  24.89900 53.44500 41.49700
O  24.29400 52.99100 39.33400
C  24.27100 51.61100 39.67400
H  31.69400 55.19900 39.11200
H  31.91000 60.76000 42.31700
H  25.48700 60.69800 43.12800
H  26.96200 53.42800 38.95900
H  29.63100 53.82700 38.14000
H  28.27300 52.59100 40.51000
H  29.86600 53.16500 40.72600
H  29.68400 51.93900 39.58300
H  28.10900 55.18700 36.74900
H  26.42900 55.29700 37.28200
H  26.29200 52.81100 36.99200
H  27.70400 52.91100 36.00800
H  33.71300 57.21800 38.37600
H  33.59600 55.67300 39.19900
H  34.83300 56.66400 39.69100
H  33.53700 61.61300 41.43800
H  35.28700 61.23500 41.54100
H  34.28000 60.43000 42.71500
H  29.61100 62.52200 41.85300
H  27.83600 61.71500 44.32500
H  30.30600 63.69600 43.84400
H  31.46000 62.29800 43.70300
H  30.02000 62.21800 44.79100
H  26.94500 62.79500 41.56300
H  27.82700 63.88400 42.56800
H  25.07400 63.54300 42.58100
H  25.84300 64.45500 43.77100
H  25.56500 62.79600 44.17800
H  23.12200 58.78200 43.77200
H  22.20400 58.44000 42.23100
H  23.08900 59.96100 42.51200
H  24.36800 55.27600 38.81800
H  25.28900 51.27200 39.86600
H  23.82500 51.02100 38.87300
H  23.65100 51.45600 40.55700
Mg 26.47800 49.79800 25.95800
C  24.20900 50.93200 28.47100
C  28.60700 48.78100 28.45100
C  28.64900 48.78800 23.65600
C  24.28600 50.96000 23.62800
N  26.46600 50.01800 28.13100
C  25.41700 50.38000 29.02600
C  25.85300 50.26400 30.50900
C  27.23100 49.49600 30.43100
C  27.46500 49.51300 28.93100
C  28.31800 50.12500 31.30100
C  24.72600 49.75400 31.42800
C  25.07800 48.84300 32.63600
H  25.76200 49.62800 33.84100
N  28.40800 48.93900 26.00400
C  29.03400 48.48400 27.12800
C  30.18400 47.71100 26.67700
C  30.25300 47.79300 25.30500
C  29.11400 48.58300 24.93600
C  31.14000 46.98100 27.67300
C  31.24900 47.23200 24.35900
O  31.27400 47.33100 23.16600
C  32.39800 46.45200 24.98900
N  26.50300 50.03400 23.97000
C  27.44400 49.37900 23.20500
C  27.02500 49.26700 21.69200
C  25.49300 49.61500 21.85200
C  25.43300 50.24900 23.20500
C  27.73000 50.34900 20.82100
C  24.56400 48.27000 21.72200
C  23.93200 48.12400 20.28400
N  24.69200 50.88900 26.02900
C  23.93000 51.29000 24.93900
C  22.70800 51.81200 25.41400
C  22.72500 51.73000 26.77800
C  23.96400 51.16000 27.11400
C  21.59400 52.32400 24.59300
C  22.07800 51.91800 28.01800
O  21.04500 52.43500 28.21600
C  23.03600 51.43300 29.17500
C  23.31300 52.56600 30.12400
O  24.28400 53.35100 30.08300
O  22.41500 52.57700 31.14000
C  22.77000 53.42900 32.34000
H  29.30100 48.31500 29.15300
H  29.31900 48.57500 22.82000
H  23.40200 51.23500 23.04900
H  26.13200 51.28600 30.76700
H  27.10500 48.44300 30.68300
H  29.22100 50.23100 30.69900
H  28.63700 49.36000 32.00900
H  28.26800 51.15500 31.65400
H  24.04000 49.20000 30.78800
H  24.17400 50.62300 31.78400
H  25.70300 48.01000 32.31400
H  24.14000 48.36400 32.91600
H  32.19000 47.23900 27.53500
H  30.95000 45.93500 27.43300
H  30.87300 47.07400 28.72600
H  33.12000 46.13800 24.23500
H  31.86400 45.63800 25.48000
H  33.05900 47.03700 25.62900
H  27.27400 48.25400 21.37700
H  25.11000 50.34400 21.13800
H  27.15400 51.11500 20.30100
H  28.18600 49.86600 19.95700
H  28.47900 50.86000 21.42600
H  23.81000 48.28100 22.50900
H  25.24500 47.43000 21.86000
H  24.11100 47.09000 19.99100
H  24.44400 48.69000 19.50600
H  22.87100 48.36100 20.20900
H  21.04200 51.45100 24.24500
H  22.08800 52.78000 23.73500
H  20.95300 53.03400 25.11500
H  22.65900 50.60700 29.77700
H  22.89000 54.49100 32.12700
H  23.77000 53.11000 32.63200
H  22.18800 53.20100 33.23300

