158

Mg 9.36300 3.30000 27.70200
C  10.38000 1.67100 30.50100
C  7.73500 5.59600 29.78000
C  8.45100 5.01700 24.89400
C  10.71100 0.70600 25.67300
N  9.00200 3.54600 29.88000
C  9.74400 2.89200 30.75800
C  9.56700 3.48000 32.23500
C  8.43600 4.59400 31.95400
C  8.28600 4.54900 30.42000
C  7.14100 4.22700 32.72000
C  10.84500 4.04100 32.91800
C  10.68500 4.19200 34.44200
H  11.41500 3.19200 35.37500
N  8.19600 5.08200 27.37000
C  7.65900 5.92500 28.36400
C  6.95400 7.02000 27.67000
C  7.08900 6.89400 26.27300
C  7.98300 5.65400 26.12400
C  6.16500 8.08200 28.43100
C  6.55800 7.73100 25.14800
O  6.81700 7.54600 23.94500
C  5.75300 8.92000 25.44400
N  9.43200 2.79400 25.59100
C  9.13200 3.75700 24.69200
C  9.43500 3.24800 23.27000
C  10.27900 1.99600 23.51100
C  10.14100 1.77500 25.01300
C  8.25700 3.05600 22.27700
C  11.75500 2.20900 23.09300
C  11.97000 2.37300 21.61400
N  10.20800 1.37300 28.02600
C  10.86200 0.57700 27.10300
C  11.51500 -0.46900 27.90100
C  11.43900 -0.08300 29.23400
C  10.56500 1.05500 29.24100
C  12.22000 -1.65400 27.22800
C  11.88000 -0.36200 30.61600
O  12.53600 -1.31700 31.05200
C  11.26300 0.77400 31.45600
C  10.50300 0.14700 32.55600
O  9.50300 -0.50800 32.30700
O  11.06100 0.46300 33.78700
C  10.43000 -0.13400 34.99000
H  7.27700 6.37700 30.39200
H  8.22700 5.38000 23.88900
H  11.22800 -0.08500 25.12500
H  9.16700 2.63400 32.79300
H  8.83900 5.56700 32.23800
H  6.38400 3.83900 32.03800
H  6.75900 5.10300 33.24500
H  7.25000 3.50700 33.53100
H  11.03100 5.02200 32.48000
H  11.65100 3.38900 32.58100
H  9.62900 4.05700 34.67800
H  10.97100 5.20800 34.71400
H  6.68200 8.99600 28.72400
H  5.83700 7.58800 29.34600
H  5.30400 8.30100 27.79900
H  4.71300 8.61200 25.55400
H  5.62100 9.52800 24.54900
H  6.04600 9.61100 26.23500
H  10.08700 4.04000 22.89900
H  9.93600 1.06300 23.06600
H  7.32900 3.39800 22.73600
H  8.22100 2.01500 21.95500
H  8.61200 3.73100 21.49900
H  12.24400 1.28300 23.39500
H  12.11200 3.00700 23.74300
H  12.11100 3.39200 21.25200
H  11.04200 1.97300 21.20600
H  12.78900 1.79900 21.18100
H  11.52700 -2.43000 26.90500
H  12.83100 -2.17300 27.96700
H  12.74000 -1.42600 26.29800
H  12.10500 1.41300 31.72100
H  9.39500 -0.35700 34.73400
H  10.46800 0.43500 35.91900
H  10.92700 -1.06800 35.25100
Mg -4.75500 24.87900 25.85700
C  -3.03800 26.58200 28.35400
C  -6.18000 22.90000 28.27000
C  -6.51100 23.37900 23.41500
C  -3.10500 26.92500 23.53500
N  -4.52500 24.65500 28.07000
C  -3.84300 25.54500 28.88900
C  -4.11800 25.24400 30.35200
C  -5.17100 24.04100 30.29400
C  -5.31300 23.84200 28.80700
C  -4.75100 22.71700 31.08200
C  -4.67700 26.50100 31.07100
C  -4.18000 26.74500 32.44900
H  -3.95000 25.51600 33.34300
N  -6.17100 23.33300 25.86100
C  -6.54200 22.60900 26.93400
C  -7.48000 21.53100 26.50900
C  -7.57300 21.70400 25.12400
C  -6.77600 22.87700 24.69600
C  -8.09900 20.54200 27.50400
C  -8.44800 20.92700 24.12900
O  -8.39000 21.16500 22.92600
C  -9.52100 19.86600 24.60600
N  -4.44400 24.87200 23.67300
C  -5.58900 24.39000 23.03400
C  -5.76500 25.00500 21.67200
C  -4.61700 26.08600 21.59600
C  -3.98100 25.96100 23.00800
C  -5.70200 23.91200 20.51500
C  -5.16500 27.49300 21.31900
C  -4.65100 28.18700 20.02600
N  -3.24100 26.23800 25.83800
C  -2.72600 27.10100 24.85700
C  -1.97600 28.19500 25.37600
C  -1.97700 27.92100 26.76100
C  -2.77800 26.83700 27.00400
C  -1.28300 29.29500 24.65800
C  -1.38600 28.39000 28.00200
O  -0.53100 29.20500 28.29300
C  -2.14600 27.55000 29.08100
C  -1.15800 26.79600 29.97900
O  -0.45400 25.89500 29.61600
O  -1.10300 27.28000 31.29400
C  -0.23300 26.64400 32.24600
H  -6.79800 22.42700 29.03600
H  -7.23800 23.15100 22.63300
H  -2.79900 27.71700 22.84800
H  -3.17000 25.00800 30.83600
H  -6.15900 24.32200 30.65700
H  -4.54500 21.93500 30.35200
H  -5.56200 22.28900 31.67000
H  -3.92600 22.92200 31.76400
H  -5.75400 26.37400 31.18200
H  -4.49500 27.27200 30.32200
H  -4.91000 27.25800 33.07500
H  -3.37600 27.45800 32.26400
H  -7.57400 20.57700 28.45800
H  -8.02000 19.53200 27.10100
H  -9.14100 20.82000 27.66300
H  -9.03500 19.08200 25.18700
H  -9.82100 19.39600 23.67000
H  -10.27500 20.44200 25.14300
H  -6.79600 25.35800 21.69100
H  -4.04200 25.83000 20.70600
H  -5.35400 22.96200 20.92100
H  -5.12800 24.12200 19.61200
H  -6.71300 23.65000 20.20100
H  -5.08100 28.17500 22.16500
H  -6.23700 27.48300 21.12100
H  -5.39900 28.14100 19.23400
H  -3.67200 27.85700 19.68000
H  -4.46100 29.25400 20.14300
H  -1.10800 30.14100 25.32200
H  -1.91600 29.69000 23.86300
H  -0.30000 29.17300 24.20300
H  -2.81000 28.20800 29.64100
H  0.78000 27.04600 32.28200
H  -0.23900 25.55700 32.17100
H  -0.46300 27.02000 33.24300

