158

Mg 24.05700 -5.09300 45.83400
C  26.07500 -2.85000 44.09100
C  21.50900 -4.16400 43.47800
C  22.14400 -7.67000 46.80900
C  26.76800 -6.40500 47.44000
N  23.81600 -3.67500 44.04600
C  24.76200 -2.76900 43.61400
C  24.23400 -1.92800 42.42300
C  22.69900 -2.22000 42.47600
C  22.62700 -3.42600 43.39600
C  21.74900 -1.08300 42.90100
C  24.92400 -2.44100 41.05800
C  25.56000 -1.43400 40.22200
H  25.20500 -1.54300 38.75800
N  22.05200 -5.77900 45.20700
C  21.20100 -5.22700 44.35500
C  19.94900 -5.97900 44.43700
C  20.10700 -6.94000 45.42000
C  21.47700 -6.80500 45.88200
C  18.65200 -5.56500 43.67500
C  18.96300 -7.81700 45.92700
O  17.85700 -7.68400 45.48000
C  19.15800 -8.84900 47.00900
N  24.43100 -6.85000 46.92200
C  23.44500 -7.69400 47.32700
C  23.94500 -8.74600 48.22500
C  25.43000 -8.29100 48.48600
C  25.60300 -7.14500 47.53900
C  23.08100 -8.85900 49.48000
C  26.62400 -9.38800 48.18300
C  27.76700 -9.44900 49.25200
N  26.02400 -4.66000 45.85400
C  27.05100 -5.31100 46.59100
C  28.23200 -4.53500 46.46700
C  27.90000 -3.54200 45.48000
C  26.58700 -3.64700 45.16800
C  29.59800 -4.97600 46.84100
C  28.46300 -2.49300 44.65700
O  29.52200 -2.00200 44.54100
C  27.33100 -2.08200 43.53400
C  27.07800 -0.62400 43.69800
O  26.38700 -0.12000 44.56500
O  27.80900 0.05700 42.71800
C  27.91300 1.53900 42.76600
H  20.60900 -3.86600 42.93700
H  21.64200 -8.49100 47.32400
H  27.69000 -6.74700 47.91500
H  24.26700 -0.84300 42.52200
H  22.35700 -2.48400 41.47500
H  20.90200 -0.91100 42.23700
H  22.32300 -0.15600 42.91000
H  21.27400 -1.23400 43.87100
H  24.19000 -2.90500 40.39900
H  25.75200 -3.13200 41.21700
H  26.63900 -1.39900 40.37100
H  25.18500 -0.42700 40.40700
H  18.05500 -6.40000 43.30900
H  18.91400 -5.01300 42.77300
H  18.01300 -4.95000 44.31000
H  18.20800 -9.26900 47.34000
H  19.50200 -8.21900 47.82900
H  19.97400 -9.53400 46.77700
H  23.87200 -9.72000 47.74100
H  25.59600 -7.87600 49.48000
H  23.71000 -9.09300 50.33800
H  22.46900 -9.75700 49.39200
H  22.50600 -7.94300 49.61700
H  26.97100 -9.17100 47.17300
H  26.23800 -10.40700 48.17900
H  27.85400 -10.53200 49.34100
H  27.46300 -9.07500 50.23000
H  28.68300 -9.02300 48.84200
H  29.61400 -5.32500 47.87400
H  30.29300 -4.17900 46.57900
H  29.85500 -5.80300 46.18000
H  27.66800 -2.28600 42.51800
H  28.25200 1.90000 41.79500
H  28.56500 1.87500 43.57200
H  26.95600 2.02000 42.96500
Mg 46.44600 16.83800 27.43700
C  44.47900 16.56700 30.31300
C  48.46200 19.11000 29.23900
C  48.28100 17.35800 24.69700
C  43.95000 15.27200 25.58700
N  46.55900 17.63600 29.55500
C  45.69000 17.25700 30.56500
C  46.13600 17.97800 31.93900
C  47.32700 18.85800 31.52900
C  47.50200 18.47000 29.97800
C  47.04900 20.40900 31.66200
C  46.48700 16.92800 32.97300
C  47.13600 17.42700 34.29300
H  46.75200 18.81400 34.73800
N  48.30400 17.78400 27.13500
C  48.88700 18.70400 27.95600
C  50.16300 19.21900 27.26800
C  50.14700 18.64700 25.94600
C  48.92900 17.85500 25.88700
C  51.03800 20.25500 27.76800
C  51.11000 18.76000 24.80200
O  50.97500 18.18200 23.75500
C  52.33900 19.60000 24.95400
N  46.08100 16.47200 25.44600
C  47.07300 16.75300 24.52800
C  46.62600 16.38800 23.12200
C  45.21800 15.64500 23.34700
C  45.12600 15.66500 24.90700
C  46.61200 17.61500 22.08800
C  45.06000 14.22400 22.71400
C  43.88000 13.87600 21.72800
N  44.56800 16.01400 27.82500
C  43.63500 15.39600 26.94200
C  42.47100 15.09600 27.75300
C  42.74300 15.59100 29.03500
C  44.03400 16.11100 29.03600
C  41.31100 14.36300 27.27400
C  42.22600 15.55900 30.44500
O  41.23400 15.08200 30.92500
C  43.40100 16.21500 31.27100
C  42.72100 17.44900 31.87900
O  42.68600 18.54400 31.36500
O  42.26000 17.14200 33.14800
C  41.80800 18.35300 33.92000
H  48.98700 19.91400 29.75900
H  48.79900 17.60700 23.76900
H  43.18400 14.80700 24.96400
H  45.34500 18.63400 32.30600
H  48.23300 18.50600 32.02300
H  46.30600 20.56100 32.44600
H  46.53600 20.75700 30.76600
H  47.94500 21.01200 31.80500
H  47.20500 16.24300 32.52400
H  45.64700 16.34300 33.34800
H  48.18800 17.32600 34.02800
H  46.88500 16.83600 35.17400
H  50.82200 20.69400 28.74100
H  50.92500 21.06500 27.04800
H  52.04800 19.84600 27.73000
H  52.05600 20.61700 25.22500
H  53.00400 19.58200 24.09000
H  52.87400 19.18000 25.80500
H  47.34200 15.61000 22.85800
H  44.36200 16.26600 23.08300
H  46.83400 17.40600 21.04200
H  47.30200 18.34000 22.52000
H  45.60500 18.02900 22.13700
H  45.18500 13.52600 23.54100
H  45.93300 14.12600 22.06900
H  43.21800 13.06900 22.04100
H  44.38300 13.57300 20.81000
H  43.24200 14.70400 21.42000
H  41.01800 14.73300 26.29200
H  40.42900 14.56500 27.88200
H  41.45200 13.28400 27.21300
H  43.67300 15.54000 32.08200
H  40.73100 18.40100 33.75500
H  42.16100 19.35900 33.69200
H  42.17100 18.27700 34.94400

