158

Mg 24.23900 -7.31200 48.28300
C  26.61700 -4.97500 47.04500
C  21.98500 -6.18000 45.73900
C  22.10600 -9.47300 49.33600
C  26.83500 -8.61900 50.18000
N  24.31600 -5.78900 46.70500
C  25.37600 -5.00400 46.35100
C  24.99600 -3.93900 45.34800
C  23.41500 -4.09700 45.24700
C  23.19500 -5.44800 45.97200
C  22.62000 -2.87600 45.81200
C  25.77300 -4.03900 43.97000
C  26.45400 -2.76300 43.52300
H  25.87300 -2.10800 42.30500
N  22.31500 -7.83800 47.55500
C  21.48900 -7.24600 46.55200
C  20.23300 -7.89700 46.51100
C  20.14700 -8.73600 47.59600
C  21.56200 -8.76900 48.22500
C  19.14900 -7.50300 45.46600
C  18.90700 -9.57600 48.00600
O  17.85500 -9.46400 47.37600
C  18.91400 -10.59700 49.09900
N  24.42300 -8.95300 49.44100
C  23.35300 -9.60200 49.90200
C  23.72500 -10.75400 50.91400
C  25.31400 -10.53300 51.03400
C  25.55200 -9.27500 50.17200
C  22.93100 -10.70300 52.32000
C  26.28000 -11.71200 50.69100
C  26.82100 -11.80300 49.22200
N  26.33200 -6.86100 48.70000
C  27.28200 -7.49000 49.43200
C  28.59700 -6.82700 49.35300
C  28.38200 -5.71200 48.45400
C  27.01800 -5.83700 48.04700
C  29.84900 -7.25700 50.07800
C  28.96200 -4.58000 47.73400
O  30.13700 -4.19600 47.67300
C  27.85200 -4.11100 46.75500
C  27.73600 -2.66500 47.09100
O  27.11000 -2.19400 48.06100
O  28.18400 -1.90600 46.07100
C  27.72700 -0.51900 46.19200
H  21.29200 -5.81500 44.97800
H  21.36500 -10.17100 49.73300
H  27.63400 -9.13400 50.71800
H  25.20700 -2.94000 45.72800
H  23.03500 -4.23000 44.23400
H  23.26600 -2.02300 46.02100
H  22.04400 -3.35000 46.60700
H  21.90700 -2.50500 45.07700
H  24.96000 -4.10900 43.24800
H  26.44800 -4.89400 43.92500
H  27.46900 -3.08500 43.29000
H  26.52000 -1.96200 44.26000
H  18.50400 -6.68100 45.77600
H  18.55000 -8.38400 45.23500
H  19.48000 -7.26900 44.45500
H  17.95400 -11.07100 49.30000
H  19.14100 -10.05400 50.01600
H  19.71200 -11.32900 48.97800
H  23.57600 -11.69500 50.38600
H  25.44000 -10.09100 52.02300
H  22.43200 -9.74600 52.46900
H  23.61700 -10.83600 53.15700
H  22.23600 -11.54200 52.33000
H  25.91900 -12.68100 51.03600
H  27.05200 -11.71100 51.46000
H  26.88800 -12.88100 49.07900
H  27.76800 -11.27000 49.13800
H  25.98300 -11.47200 48.60800
H  30.26000 -8.20800 49.73700
H  29.51100 -7.51300 51.08200
H  30.61300 -6.48100 50.04000
H  28.21600 -4.14000 45.72800
H  28.15400 0.02300 45.34800
H  28.17200 0.03500 47.01900
H  26.64200 -0.56400 46.10400
Mg 36.32200 49.54200 24.36700
C  36.68300 47.73500 27.25200
C  35.28200 52.24600 26.05900
C  35.55200 50.95000 21.42100
C  37.43300 46.66100 22.57200
N  35.80800 49.83500 26.47300
C  36.08900 48.96000 27.50200
C  35.68200 49.68300 28.76700
C  35.05500 51.05900 28.30800
C  35.41600 51.07900 26.84900
C  33.55300 51.18100 28.68800
C  36.90500 49.84200 29.78500
C  36.59300 50.18300 31.26900
H  35.41800 49.58600 32.15600
N  35.74200 51.44900 23.86200
C  35.36200 52.48600 24.68000
C  35.04700 53.65800 23.93900
C  34.91100 53.21300 22.58900
C  35.41400 51.78500 22.56100
C  34.86900 54.97400 24.56300
C  34.47500 53.90100 21.35400
O  34.43000 53.39400 20.26600
C  34.05500 55.40400 21.49100
N  36.40700 48.85300 22.26400
C  36.03200 49.65400 21.25600
C  36.19400 48.86800 19.92200
C  36.92400 47.58600 20.26900
C  37.01000 47.73100 21.80200
C  34.90600 48.57300 19.06500
C  38.31800 47.54400 19.55800
C  39.44900 48.46800 20.01400
N  37.00700 47.56300 24.78600
C  37.45600 46.56600 23.96200
C  37.92300 45.43700 24.77600
C  37.62600 45.84600 26.07400
C  37.11200 47.16000 26.01900
C  38.34400 44.11700 24.24600
C  37.57600 45.42200 27.44000
O  37.95500 44.33400 27.97500
C  36.91400 46.56000 28.23200
C  35.70200 46.24900 28.95800
O  34.53200 46.35200 28.54500
O  36.11200 45.83200 30.19800
C  35.04500 45.45100 31.13000
H  34.97300 53.19600 26.50100
H  35.22800 51.27300 20.43000
H  37.87100 45.74500 22.17000
H  35.01500 48.98200 29.26900
H  35.59800 51.88800 28.76300
H  33.15100 50.27900 29.14900
H  33.06300 51.49400 27.76600
H  33.47600 51.97700 29.42800
H  37.36500 50.74000 29.37200
H  37.58500 48.99300 29.72400
H  36.53400 51.25200 31.47300
H  37.45300 49.83600 31.84100
H  35.35800 55.73500 23.95400
H  35.31300 54.97300 25.55800
H  33.83900 55.30200 24.70100
H  33.51800 55.51000 20.54900
H  34.93300 56.03600 21.62700
H  33.30400 55.40400 22.28100
H  36.77300 49.40400 19.17000
H  36.37800 46.64500 20.20500
H  34.69400 47.51400 18.92200
H  35.06200 48.93500 18.04800
H  34.03700 49.11100 19.44400
H  38.12500 47.51900 18.48500
H  38.72200 46.56000 19.79900
H  39.83800 48.93200 19.10700
H  40.26100 47.83300 20.36800
H  39.15300 49.17500 20.78800
H  37.94000 44.02600 23.23800
H  37.84300 43.34500 24.83100
H  39.40500 43.86800 24.26000
H  37.66700 46.87800 28.95300
H  34.09200 45.87800 30.81700
H  35.32100 45.69000 32.15700
H  34.98400 44.36400 31.08300

