158

Mg -1.85900 17.11000 25.96100
C  -1.86500 14.97200 28.63200
C  -3.17900 19.52400 28.00000
C  -1.76800 19.30700 23.35900
C  -1.34000 14.48900 23.77400
N  -2.36800 17.24900 28.16900
C  -2.17700 16.24000 29.05300
C  -2.63700 16.65500 30.44500
C  -3.36000 18.04200 30.16000
C  -2.97900 18.34100 28.66400
C  -4.84600 18.15900 30.53700
C  -1.46000 16.82700 31.54900
C  -1.44600 15.85200 32.73600
H  -1.97300 16.20000 34.16200
N  -2.23400 19.10400 25.71700
C  -2.86600 19.94000 26.67300
C  -2.98200 21.29100 26.14400
C  -2.36600 21.32000 24.85500
C  -2.08700 19.85400 24.61500
C  -3.69900 22.40300 26.94600
C  -2.09100 22.44500 23.90200
O  -1.62500 22.27400 22.77900
C  -2.32900 23.83300 24.30300
N  -1.72000 16.92900 23.77700
C  -1.59100 17.95500 22.94600
C  -1.25600 17.46800 21.57300
C  -1.01700 15.97600 21.73200
C  -1.39400 15.76000 23.17600
C  -2.20700 17.93900 20.47500
C  0.35400 15.37300 21.36600
C  0.48800 14.21700 20.52900
N  -1.71600 15.14400 26.08600
C  -1.47500 14.22900 25.14600
C  -1.36000 12.93600 25.78900
C  -1.52700 13.19600 27.14900
C  -1.70100 14.57600 27.32000
C  -1.08900 11.55900 25.11100
C  -1.51800 12.54800 28.41400
O  -1.52800 11.34900 28.73400
C  -1.54700 13.76800 29.45900
C  -0.20900 13.82800 30.03900
O  0.72700 14.34500 29.44200
O  -0.14700 13.31900 31.34100
C  1.10600 13.34500 32.03500
H  -3.62100 20.39500 28.48800
H  -1.47800 19.86800 22.46800
H  -0.84400 13.74600 23.14600
H  -3.44000 15.98600 30.75300
H  -2.90400 18.86400 30.71200
H  -5.35600 18.13800 29.57400
H  -4.90600 19.15400 30.97700
H  -5.20200 17.48100 31.31200
H  -1.51200 17.79600 32.04400
H  -0.54000 16.73400 30.97200
H  -0.38200 15.72200 32.93400
H  -1.91000 14.90000 32.47800
H  -2.98600 22.70600 27.71400
H  -4.57400 22.08500 27.51300
H  -3.75200 23.30600 26.33800
H  -3.38300 24.07500 24.17100
H  -1.78500 24.62900 23.79200
H  -1.97300 23.79200 25.33200
H  -0.35700 17.95300 21.19300
H  -1.64900 15.47300 21.00000
H  -1.85800 18.86000 20.00700
H  -3.17400 18.13000 20.94000
H  -2.31500 17.21900 19.66400
H  0.79600 15.09800 22.32300
H  1.05000 16.17400 21.11800
H  0.84900 14.62200 19.58400
H  -0.43700 13.67900 20.31600
H  1.19200 13.56400 21.04500
H  -0.25300 11.16400 25.68900
H  -0.76600 11.51400 24.07000
H  -1.92100 10.88200 25.30100
H  -2.29700 13.59600 30.23100
H  1.32600 14.30500 32.50100
H  1.87600 13.22200 31.27400
H  1.18100 12.65200 32.87400
Mg 26.80400 -0.96900 29.53700
C  28.73300 -1.06900 32.56900
C  24.07800 -0.41700 31.38300
C  25.06400 -0.87800 26.70600
C  29.73700 -1.65400 27.85200
N  26.49900 -0.82800 31.74000
C  27.41100 -0.74600 32.79700
C  26.71100 -0.33400 34.15900
C  25.20100 -0.22500 33.70800
C  25.24900 -0.53100 32.20300
C  24.29100 -1.24400 34.38500
C  27.32300 0.94400 34.86100
C  27.88300 0.59200 36.23200
H  27.48200 1.57800 37.48000
N  24.80200 -0.67500 29.10900
C  23.86000 -0.48100 30.00800
C  22.53200 -0.31000 29.37300
C  22.79200 -0.55800 27.96800
C  24.24000 -0.81000 27.87700
C  21.22300 0.01000 30.13500
C  21.81700 -0.53800 26.79700
O  22.24600 -0.75500 25.69200
C  20.37000 -0.30200 27.07200
N  27.29400 -1.35900 27.60000
C  26.44800 -0.97200 26.55600
C  27.21600 -1.07000 25.16900
C  28.64800 -1.29400 25.56500
C  28.60900 -1.41100 27.13800
C  26.57000 -2.09500 24.13400
C  29.61200 -0.19900 25.02500
C  29.53600 1.13700 25.68200
N  28.80600 -1.58500 30.01500
C  29.84800 -1.81300 29.25000
C  31.08200 -2.01700 30.03300
C  30.68100 -1.69600 31.30000
C  29.28100 -1.45200 31.30800
C  32.45600 -2.34700 29.57300
C  31.13100 -1.57700 32.71600
O  32.25300 -1.73400 33.21000
C  29.85500 -1.06500 33.57900
C  29.51600 -1.90500 34.73500
O  28.89900 -2.95000 34.64000
O  30.06100 -1.46500 35.91800
C  29.80500 -2.22300 37.16800
H  23.19700 -0.20700 31.99400
H  24.55800 -0.83100 25.74000
H  30.56600 -1.93700 27.19900
H  26.99400 -1.25200 34.67500
H  24.70300 0.73600 33.84000
H  24.22900 -2.10100 33.71400
H  23.28900 -0.81600 34.40900
H  24.54200 -1.57800 35.39200
H  26.62500 1.77700 34.94500
H  28.12000 1.30600 34.21100
H  28.96200 0.72300 36.15000
H  27.63800 -0.37000 36.68400
H  21.45600 0.56200 31.04600
H  20.61700 -0.84000 30.45100
H  20.48400 0.56900 29.56100
H  19.80400 -0.49400 26.16100
H  20.22000 0.76600 27.23100
H  19.96000 -0.88800 27.89500
H  27.05100 -0.08500 24.73300
H  28.87600 -2.26300 25.12100
H  25.99900 -1.49900 23.42300
H  25.98000 -2.89400 24.58300
H  27.36800 -2.62200 23.61200
H  29.35900 -0.02200 23.97900
H  30.64200 -0.55500 25.04600
H  29.17400 1.11000 26.71000
H  28.83200 1.74500 25.11500
H  30.53800 1.56500 25.70200
H  32.57500 -2.57300 28.51300
H  32.75200 -3.21000 30.16900
H  33.15300 -1.52600 29.73900
H  30.12300 -0.07000 33.93400
H  30.64100 -2.01900 37.83700
H  29.81900 -3.30400 37.02700
H  28.84600 -1.99400 37.63200

