158

Mg 0.05700 7.45100 26.21100
C  0.64000 9.78400 28.90800
C  -0.42700 5.07300 28.49500
C  -0.14100 5.28000 23.72700
C  0.82200 10.03700 23.90200
N  -0.01300 7.46800 28.46800
C  0.20600 8.51300 29.37400
C  0.03900 7.96900 30.84400
C  0.10100 6.45600 30.56800
C  -0.15300 6.29700 29.12100
C  1.48000 5.82100 31.00700
C  -1.23500 8.50400 31.35200
C  -1.11500 8.93400 32.75300
H  -0.24100 8.04300 33.72100
N  -0.34500 5.47500 26.14200
C  -0.56400 4.63300 27.19600
C  -0.91500 3.33700 26.65700
C  -0.97100 3.44300 25.21400
C  -0.40200 4.76300 24.99100
C  -1.09300 2.10600 27.61200
C  -1.49300 2.46500 24.10500
O  -1.49100 2.63500 22.87200
C  -1.96100 1.05600 24.62300
N  0.21300 7.71400 24.09100
C  0.07700 6.65600 23.26000
C  0.04400 7.02200 21.84300
C  0.37300 8.53500 21.88700
C  0.37700 8.85200 23.40500
C  0.88600 6.26700 20.72700
C  -0.59800 9.41900 21.14400
C  -0.11400 10.28900 19.98000
N  0.71200 9.47700 26.34100
C  1.06500 10.37800 25.30200
C  1.50000 11.62200 25.97400
C  1.25500 11.45400 27.37300
C  0.78500 10.13000 27.53500
C  2.02400 12.84600 25.35300
C  1.29800 12.14500 28.66100
O  1.58500 13.31000 28.89000
C  0.86400 11.03600 29.71900
C  1.92000 10.93100 30.80000
O  2.94100 10.28100 30.71800
O  1.59000 11.72200 31.83400
C  2.62600 11.93200 32.88700
H  -0.52400 4.32000 29.27900
H  -0.21200 4.63500 22.84800
H  1.11500 10.79200 23.17000
H  0.89000 8.30200 31.43900
H  -0.64800 5.91000 31.14000
H  1.11700 5.08600 31.72400
H  2.09300 6.62500 31.41500
H  1.89800 5.37800 30.10300
H  -1.91200 7.65000 31.31800
H  -1.57100 9.26900 30.65300
H  -2.07800 8.72100 33.21700
H  -0.93900 10.00900 32.76000
H  -2.00700 1.65000 27.23100
H  -1.20400 2.57000 28.59200
H  -0.26300 1.40400 27.53600
H  -2.48400 0.61000 23.77700
H  -2.77700 1.22400 25.32600
H  -1.08800 0.55100 25.03700
H  -1.00500 6.82600 21.62500
H  1.42300 8.65600 21.62000
H  0.18300 5.68500 20.13100
H  1.58700 5.58400 21.20700
H  1.47900 6.95500 20.12600
H  -0.92900 10.15600 21.87500
H  -1.52000 8.93900 20.81700
H  -0.89300 10.37600 19.22300
H  0.90000 10.07400 19.64300
H  -0.02700 11.30500 20.36600
H  2.79700 12.55700 24.64100
H  2.37000 13.58400 26.07600
H  1.23400 13.32700 24.77700
H  -0.03700 11.28500 30.28000
H  2.57700 11.11900 33.61100
H  2.36500 12.84300 33.42400
H  3.66600 12.05200 32.58500
Mg 16.51300 53.27200 26.50300
C  18.65500 51.81900 28.87700
C  14.27100 53.94600 29.09400
C  14.63800 54.90600 24.28800
C  18.87300 52.44300 24.03800
N  16.49500 52.98200 28.71600
C  17.52800 52.38400 29.51100
C  17.27400 52.40200 31.02700
C  15.77100 52.80900 30.96400
C  15.50600 53.32900 29.50600
C  14.74700 51.80300 31.41500
C  18.13800 53.43000 31.79300
C  18.37400 53.13700 33.31600
H  17.33400 52.36600 34.08200
N  14.71400 54.21200 26.63300
C  13.90100 54.29200 27.76200
C  12.70900 54.97800 27.45300
C  12.88300 55.46800 26.13000
C  14.10200 54.87600 25.61100
C  11.73000 55.36600 28.48600
C  12.03800 56.48100 25.35400
O  12.21300 56.68200 24.19600
C  10.75700 56.93700 25.93800
N  16.70100 53.59700 24.52100
C  15.77100 54.30300 23.77000
C  16.08700 54.23600 22.24600
C  17.49800 53.64700 22.21100
C  17.72300 53.17600 23.68200
C  15.15200 53.24500 21.52700
C  18.72100 54.56300 21.66900
C  19.63700 55.26100 22.78000
N  18.37700 52.30600 26.38200
C  19.22100 52.04200 25.30800
C  20.45700 51.45000 25.84700
C  20.22200 51.29800 27.19500
C  18.98600 51.88900 27.51400
C  21.64400 50.90900 25.16700
C  20.82800 50.78700 28.41300
O  21.92400 50.29800 28.63000
C  19.84100 51.19700 29.56500
C  19.48300 50.09600 30.49000
O  18.63500 49.21900 30.32900
O  20.32700 50.10400 31.63800
C  19.97700 49.08100 32.61800
H  13.62500 54.21200 29.93400
H  14.12300 55.54400 23.56600
H  19.66400 52.29700 23.29900
H  17.38400 51.43500 31.51800
H  15.60200 53.65900 31.62500
H  13.79200 52.21400 31.74300
H  15.10800 51.28600 32.30400
H  14.57200 51.07500 30.62300
H  17.59300 54.37400 31.79300
H  19.11100 53.54400 31.31600
H  18.50700 54.06700 33.86800
H  19.26000 52.50500 33.38000
H  10.71800 55.17400 28.12900
H  11.85700 56.42000 28.73300
H  11.71500 54.81900 29.42800
H  10.26700 57.61100 25.23500
H  10.77000 57.61800 26.78900
H  10.12200 56.06600 26.10100
H  16.09600 55.24100 21.82500
H  17.58800 52.84300 21.48100
H  14.77100 53.71700 20.62100
H  14.36800 52.79900 22.13900
H  15.65400 52.36400 21.12700
H  18.25300 55.38900 21.13300
H  19.29300 54.09500 20.86800
H  20.61200 54.77800 22.72600
H  19.24400 55.11700 23.78700
H  19.59500 56.33200 22.58300
H  21.49500 50.10600 24.44400
H  22.43700 50.58300 25.84000
H  22.18500 51.65500 24.58500
H  20.44200 51.90900 30.13100
H  20.26100 48.05000 32.40800
H  18.90200 49.09500 32.79700
H  20.48900 49.40600 33.52400

