158

Mg 26.32500 0.55200 28.36100
C  28.04900 0.40600 31.33100
C  23.47100 1.25600 30.09700
C  24.58700 0.23500 25.41500
C  29.28400 -0.36500 26.66800
N  25.81100 0.60500 30.53000
C  26.69400 0.66500 31.50200
C  26.05500 1.15300 32.81500
C  24.53500 1.23900 32.47400
C  24.59200 1.08600 30.92600
C  23.54800 0.32400 33.18900
C  26.64300 2.48000 33.40100
C  27.30500 2.32600 34.81100
H  26.75000 3.24100 36.00700
N  24.31100 0.74800 27.82800
C  23.33000 1.08100 28.74800
C  22.12000 1.21900 27.96900
C  22.36800 0.74600 26.58100
C  23.78800 0.54700 26.56100
C  20.80000 1.68800 28.54200
C  21.40700 0.61700 25.32300
O  21.79800 0.13500 24.22300
C  19.95400 1.07700 25.52300
N  26.87700 -0.15100 26.46100
C  25.95900 -0.06600 25.40700
C  26.62200 -0.35900 24.06700
C  28.14200 -0.37200 24.41400
C  28.12700 -0.23800 25.99100
C  26.19400 -1.78400 23.55100
C  29.01900 0.75400 23.77200
C  28.49200 2.16800 23.74200
N  28.26200 0.04200 28.87600
C  29.32700 -0.33500 28.11200
C  30.38100 -0.59200 29.01200
C  29.98100 -0.22300 30.27000
C  28.64200 0.08700 30.12200
C  31.69500 -1.31200 28.74500
C  30.42900 -0.11200 31.56800
O  31.51100 -0.32100 32.08800
C  29.18500 0.33100 32.36200
C  29.00900 -0.66300 33.38600
O  28.38900 -1.72100 33.23200
O  29.72900 -0.32600 34.51200
C  29.65200 -1.16400 35.60000
H  22.52900 1.40600 30.62900
H  24.03500 0.21900 24.47300
H  30.25700 -0.54200 26.20500
H  26.26700 0.27500 33.42500
H  24.17100 2.23400 32.73000
H  23.19500 -0.45800 32.51600
H  22.66800 0.92500 33.41900
H  23.98400 -0.00700 34.13200
H  25.93100 3.30400 33.40200
H  27.55700 2.81100 32.90800
H  28.35500 2.60500 34.71900
H  27.17800 1.33400 35.24400
H  20.78000 1.85900 29.61800
H  20.21400 0.76900 28.50900
H  20.33300 2.44500 27.91300
H  19.50900 0.61900 26.40600
H  19.36400 0.97500 24.61100
H  20.07000 2.10100 25.87900
H  26.35900 0.46100 23.39900
H  28.62600 -1.32400 24.19700
H  26.62500 -2.12500 22.60900
H  25.11400 -1.73600 23.41100
H  26.29900 -2.55800 24.31200
H  29.24300 0.46600 22.74500
H  30.03700 0.76700 24.16100
H  27.49100 2.18500 24.17100
H  28.46900 2.46900 22.69500
H  29.23200 2.72300 24.32000
H  32.44300 -0.52300 28.82700
H  31.55100 -1.68700 27.73200
H  31.97600 -2.15800 29.37200
H  29.49700 1.26600 32.82600
H  30.11500 -2.12800 35.38900
H  28.75100 -1.20900 36.21100
H  30.39100 -0.70600 36.25700
Mg 47.63300 16.00000 28.80700
C  45.41600 15.69600 31.39900
C  49.75800 17.66900 31.02300
C  49.59700 16.92900 26.23800
C  45.27100 14.65500 26.66100
N  47.53400 16.65200 30.84900
C  46.59700 16.21900 31.82600
C  47.00200 16.66000 33.24300
C  48.22600 17.62900 33.02400
C  48.52100 17.30800 31.54600
C  48.00400 19.11000 33.24700
C  47.29000 15.48100 34.23100
C  46.89200 15.67400 35.65000
H  46.51500 17.11300 36.06500
N  49.48800 17.09900 28.65900
C  50.18100 17.69800 29.65500
C  51.50000 18.09300 29.21400
C  51.50500 17.83300 27.76000
C  50.18800 17.25500 27.45400
C  52.57700 18.77400 30.04900
C  52.58800 18.12500 26.81700
O  52.43900 17.75500 25.69400
C  53.80800 18.86600 27.07200
N  47.43300 15.73700 26.75800
C  48.40200 16.20900 25.87700
C  47.86500 16.14200 24.44900
C  46.64100 15.20000 24.56100
C  46.42300 15.19000 26.06600
C  47.63900 17.55600 23.82400
C  46.83500 13.79600 23.92000
C  45.93300 13.52100 22.71100
N  45.74800 15.35100 28.91100
C  44.90700 14.80000 28.01100
C  43.70900 14.37400 28.64100
C  43.79400 14.75500 29.95400
C  45.05200 15.38600 30.05100
C  42.59900 13.62900 27.94400
C  43.12700 14.70600 31.27500
O  42.13500 14.10700 31.65900
C  44.18400 15.38900 32.21800
C  43.53800 16.56000 32.77000
O  43.27300 17.58600 32.15600
O  43.00100 16.27400 33.96700
C  42.12700 17.28200 34.58400
H  50.39200 18.04900 31.82700
H  50.13300 17.26400 25.34800
H  44.57300 14.27300 25.91300
H  46.16300 17.24800 33.61500
H  49.11800 17.24100 33.51600
H  46.98200 19.26300 33.59300
H  48.04600 19.54700 32.24900
H  48.69300 19.54500 33.97100
H  48.37500 15.41600 34.15100
H  46.90700 14.57800 33.75600
H  47.63400 15.27500 36.34100
H  46.06300 14.98900 35.83000
H  52.22600 18.76100 31.08000
H  52.73400 19.79200 29.69100
H  53.48900 18.18700 29.93700
H  53.70400 19.56500 27.90200
H  54.13500 19.29000 26.12300
H  54.57300 18.11600 27.27400
H  48.69700 15.76700 23.85200
H  45.82300 15.76400 24.11400
H  47.90200 18.28400 24.59100
H  46.59300 17.65900 23.53500
H  48.23200 17.72600 22.92500
H  46.63100 13.09700 24.73100
H  47.88600 13.59000 23.71700
H  46.54000 13.12300 21.89800
H  45.43000 14.42000 22.35600
H  45.09500 12.85000 22.90000
H  42.78500 12.56700 27.78400
H  42.43300 14.19600 27.02800
H  41.64800 13.66500 28.47500
H  44.51900 14.83300 33.09300
H  41.50900 17.91600 33.94800
H  42.71500 17.95600 35.20700
H  41.41100 16.86400 35.29200

