158

Mg -0.31600 7.06900 26.20700
C  0.32100 9.14800 28.84800
C  0.10300 4.34200 28.31200
C  -0.36800 4.90500 23.50800
C  0.07800 9.77600 23.96800
N  0.08500 6.84000 28.30300
C  0.19100 7.82400 29.23100
C  0.29800 7.30700 30.68900
C  0.59800 5.78500 30.36300
C  0.22500 5.65100 28.90400
C  2.05200 5.26600 30.74600
C  -1.02600 7.75700 31.42900
C  -0.80900 8.18500 32.85700
H  0.39400 7.60500 33.59600
N  -0.45000 4.97200 25.96400
C  -0.24000 4.06200 26.98000
C  -0.34700 2.74200 26.37900
C  -0.65500 2.87200 25.02700
C  -0.44100 4.27900 24.77400
C  -0.37800 1.51900 27.24500
C  -1.08500 1.79800 24.01700
O  -1.42300 2.08000 22.88300
C  -1.23500 0.34900 24.48100
N  -0.17300 7.27800 24.09400
C  -0.28300 6.23000 23.17900
C  -0.37000 6.73200 21.73600
C  -0.25300 8.27300 21.93800
C  -0.06700 8.51600 23.41000
C  0.71500 6.15300 20.75700
C  -1.17500 9.13100 21.14600
C  -2.51900 9.49500 21.79900
N  0.21000 9.10300 26.34600
C  0.30300 10.03600 25.33600
C  0.46700 11.36700 25.99100
C  0.48800 11.08600 27.35700
C  0.39700 9.68400 27.51900
C  0.63000 12.73000 25.10500
C  0.65800 11.59500 28.67500
O  0.98800 12.71400 28.99300
C  0.48500 10.39900 29.66700
C  1.65100 10.35100 30.50200
O  2.77800 10.01400 30.18400
O  1.33100 10.85900 31.72100
C  2.52000 11.16400 32.54100
H  0.26300 3.51900 29.01100
H  -0.54700 4.29500 22.62000
H  -0.06500 10.59300 23.25700
H  1.14500 7.84900 31.10900
H  -0.15500 5.21500 30.90700
H  2.69000 5.11000 29.87600
H  2.04600 4.36100 31.35300
H  2.52600 6.03500 31.35600
H  -1.74800 6.94300 31.49900
H  -1.54000 8.52500 30.85100
H  -1.64000 7.97000 33.52800
H  -0.84300 9.26500 33.00200
H  -0.03200 1.64100 28.27200
H  0.25900 0.73700 26.83200
H  -1.42000 1.21500 27.34200
H  -0.29900 -0.14300 24.74600
H  -1.65200 -0.12700 23.59400
H  -1.76200 0.19100 25.42200
H  -1.39300 6.60500 21.38200
H  0.72000 8.51900 21.51400
H  1.25700 6.85300 20.12000
H  0.14600 5.62200 19.99400
H  1.33300 5.38400 21.22000
H  -1.40000 8.66500 20.18600
H  -0.77800 10.13200 20.97800
H  -3.33000 9.50600 21.07100
H  -2.48900 10.52600 22.15000
H  -2.80800 8.77300 22.56300
H  -0.33500 13.21200 24.94800
H  1.16900 12.42600 24.20800
H  1.28000 13.49000 25.53900
H  -0.37900 10.47900 30.32700
H  2.27800 10.76700 33.52700
H  2.77300 12.21700 32.66400
H  3.44600 10.61700 32.36300
Mg -11.78400 38.26900 41.40900
C  -9.32600 35.75800 41.06300
C  -9.50700 40.55500 40.61900
C  -14.35800 40.49400 41.37600
C  -14.11300 35.70900 42.08800
N  -9.75000 38.14500 40.69100
C  -8.90800 37.07900 40.69300
C  -7.56000 37.40900 40.05900
C  -7.49600 38.97500 40.31600
C  -8.96800 39.23800 40.62700
C  -6.53700 39.24200 41.47400
C  -7.43000 36.95500 38.58100
C  -6.29500 35.91500 38.33100
H  -5.34600 36.49100 37.26300
N  -11.87500 40.24100 41.10100
C  -10.81500 41.03000 40.79500
C  -11.21200 42.34100 40.59900
C  -12.62400 42.36900 40.83500
C  -13.05400 40.96400 41.08900
C  -10.42100 43.44900 40.03500
C  -13.53900 43.56100 40.62400
O  -12.94600 44.59400 40.55700
C  -15.00300 43.48200 40.45500
N  -13.92900 38.03100 41.48400
C  -14.74700 39.13800 41.49900
C  -16.18300 38.73000 41.85200
C  -16.09200 37.16800 42.00600
C  -14.59600 36.96900 41.84000
C  -16.64700 39.48800 43.10100
C  -17.00900 36.35800 41.08600
C  -17.93200 35.34100 41.75300
N  -11.78800 36.13900 41.51200
C  -12.78700 35.28800 41.85100
C  -12.22900 33.94500 41.99400
C  -10.89400 34.10900 41.65800
C  -10.66200 35.44600 41.44500
C  -12.95600 32.74700 42.51400
C  -9.67200 33.37400 41.48000
O  -9.45200 32.19100 41.49400
C  -8.47700 34.48400 41.17300
C  -7.61600 34.53500 42.45500
O  -7.78000 35.28000 43.46700
O  -6.56900 33.63600 42.26200
C  -5.68400 33.54800 43.35100
H  -8.63100 41.16800 40.39500
H  -15.21800 41.15800 41.49200
H  -14.81000 34.92600 42.39100
H  -6.88800 36.80900 40.67300
H  -7.24200 39.63200 39.48400
H  -5.98300 40.16500 41.30500
H  -5.82000 38.47200 41.76100
H  -7.23200 39.37400 42.30300
H  -7.26400 37.87400 38.02000
H  -8.38200 36.55500 38.23400
H  -6.74800 35.03400 37.87700
H  -5.83400 35.52300 39.23800
H  -9.39400 43.17800 39.79000
H  -10.41100 44.24200 40.78200
H  -10.89500 43.65300 39.07400
H  -15.34700 44.38600 39.95200
H  -15.59300 43.55300 41.36900
H  -15.20600 42.58600 39.86900
H  -16.77200 39.01800 40.98100
H  -16.35800 37.00400 43.05000
H  -17.53300 39.99000 42.71300
H  -15.92500 40.22600 43.45300
H  -16.86600 38.85200 43.95900
H  -16.38700 35.83200 40.36100
H  -17.66800 36.99000 40.49100
H  -18.86800 35.23000 41.20500
H  -18.04300 35.36000 42.83700
H  -17.55200 34.34200 41.53900
H  -13.22400 32.20000 41.61000
H  -13.85800 33.00800 43.06800
H  -12.30300 32.12000 43.12000
H  -7.84400 34.10300 40.37200
H  -5.98900 33.99400 44.29800
H  -4.74900 34.05900 43.12100
H  -5.42600 32.52600 43.62500

