158

Mg 49.09400 45.47100 42.33600
C  45.63400 45.86600 41.69800
C  48.84600 42.33900 41.06200
C  52.37600 45.45200 42.14400
C  49.24100 48.94800 43.15100
N  47.41300 44.24300 41.54000
C  46.10000 44.59900 41.32300
C  45.41100 43.59400 40.42200
C  46.29500 42.29600 40.59100
C  47.59600 42.98200 41.10900
C  45.73300 41.26000 41.58100
C  45.27400 44.00100 38.87600
C  43.98200 43.57900 38.04000
H  44.12900 42.78900 36.69300
N  50.41300 44.05500 41.91000
C  50.10600 42.78800 41.42400
C  51.32600 41.97700 41.31000
C  52.40600 42.86600 41.52500
C  51.73500 44.18200 41.94100
C  51.32900 40.48200 40.85800
C  53.81900 42.52600 41.33100
O  54.14700 41.49900 40.67400
C  54.91000 43.44400 41.80000
N  50.67400 47.02800 42.57700
C  51.92300 46.78900 42.27700
C  52.82700 48.07400 42.42900
C  51.78100 49.05500 43.01300
C  50.48800 48.35400 42.91300
C  54.06700 48.02100 43.31300
C  51.88500 50.51800 42.32000
C  51.41900 51.74500 43.14300
N  47.74300 47.09600 42.42700
C  47.94100 48.37300 42.93100
C  46.71400 49.03900 42.98600
C  45.76200 48.10400 42.53600
C  46.43300 46.91500 42.20900
C  46.60400 50.50300 43.31100
C  44.36000 47.94100 42.16500
O  43.46800 48.71400 42.19800
C  44.29300 46.49500 41.51700
C  43.10300 45.79200 42.09500
O  42.46000 44.91100 41.51900
O  43.01700 46.15700 43.38300
C  41.89900 45.48800 44.14700
H  48.81900 41.34700 40.60800
H  53.44700 45.51300 41.93700
H  49.24700 49.96400 43.55100
H  44.42200 43.29100 40.76600
H  46.41700 41.80100 39.62800
H  45.52300 40.33700 41.04200
H  44.78500 41.59900 41.99900
H  46.39700 41.02600 42.41400
H  46.01500 43.45200 38.29600
H  45.46200 45.04800 38.63900
H  43.56000 44.54900 37.77500
H  43.25500 43.05000 38.65700
H  51.54100 40.25700 39.81300
H  50.34300 40.02600 40.94600
H  52.00000 39.87200 41.46400
H  55.22500 44.22600 41.10800
H  55.79500 42.83400 41.97800
H  54.45100 43.79300 42.72500
H  53.19700 48.28800 41.42600
H  51.86900 49.27300 44.07700
H  54.08800 47.07400 43.85300
H  53.85200 48.73400 44.10900
H  55.00300 48.19600 42.78300
H  51.16600 50.50300 41.50100
H  52.84100 50.79200 41.87400
H  52.07800 52.56400 42.85700
H  51.39000 51.47700 44.19900
H  50.37900 52.02000 42.96400
H  47.37300 50.71500 44.05400
H  45.62500 50.83800 43.65400
H  46.88100 51.25400 42.57100
H  44.05700 46.60600 40.45900
H  42.03700 45.47600 45.22800
H  41.67700 44.48200 43.78900
H  41.05300 46.13000 43.90500
Mg 0.14000 43.03300 26.46200
C  2.87000 42.89700 28.75700
C  -1.94200 42.64000 29.01300
C  -2.23200 42.94300 24.07200
C  2.55900 43.23100 23.87100
N  0.43400 42.80200 28.55400
C  1.62500 42.81300 29.27300
C  1.27000 42.73200 30.79400
C  -0.18200 42.19200 30.85000
C  -0.60500 42.51300 29.41000
C  -0.34700 40.62700 31.18600
C  1.45500 44.20400 31.48100
C  2.17400 44.13700 32.82800
H  1.71100 43.00900 33.78600
N  -1.80100 42.86400 26.56300
C  -2.52900 42.77900 27.71800
C  -3.91100 42.74500 27.34000
C  -4.06200 42.84600 25.91200
C  -2.68700 42.84300 25.45100
C  -5.02900 42.59800 28.33400
C  -5.30700 43.02200 25.01000
O  -5.32900 43.15000 23.73500
C  -6.62400 43.13200 25.70500
N  0.15200 43.08300 24.23100
C  -0.96100 42.98600 23.46900
C  -0.64700 42.86100 21.93400
C  0.91800 43.18600 21.94700
C  1.23800 43.27900 23.43700
C  -1.01800 41.48400 21.26100
C  1.40800 44.28000 21.05700
C  1.07800 45.67000 21.53700
N  2.28500 43.13500 26.28500
C  3.13500 43.20100 25.14000
C  4.50000 43.31900 25.58900
C  4.46800 43.07700 27.00100
C  3.08900 43.02200 27.35800
C  5.72600 43.33100 24.75600
C  5.24000 42.90500 28.16500
O  6.47900 42.83700 28.22000
C  4.28100 42.85100 29.39700
C  4.67200 41.67900 30.19300
O  4.34000 40.50800 29.92600
O  5.31500 42.03300 31.34600
C  5.66500 40.97300 32.27400
H  -2.58500 42.58300 29.89400
H  -3.03100 43.13200 23.35200
H  3.30700 43.07700 23.09100
H  1.95900 42.07900 31.33100
H  -0.68000 42.77800 31.62300
H  -0.72300 40.39400 32.18200
H  0.61500 40.11300 31.19700
H  -0.88900 40.08500 30.41100
H  0.54100 44.76800 31.66700
H  1.93100 44.86300 30.75500
H  2.13600 45.12100 33.29600
H  3.21000 43.93800 32.55400
H  -5.64100 41.75500 28.01300
H  -5.60700 43.52200 28.32600
H  -4.55800 42.43900 29.30500
H  -7.37300 43.47300 24.99100
H  -6.63400 43.97800 26.39200
H  -6.91300 42.28900 26.33400
H  -1.11300 43.66300 21.36100
H  1.40800 42.29700 21.54900
H  -0.28500 40.67800 21.21700
H  -1.41700 41.85600 20.31700
H  -1.84400 41.11300 21.86700
H  1.06500 44.16200 20.03000
H  2.49600 44.20900 21.07700
H  0.95700 46.28100 20.64200
H  1.85300 46.07700 22.18600
H  0.27200 45.60800 22.26800
H  5.47700 42.89600 23.78800
H  6.43700 42.65600 25.23300
H  6.19800 44.30000 24.59800
H  4.45200 43.72400 30.02700
H  6.18300 40.12100 31.83200
H  4.70200 40.68100 32.69200
H  6.19400 41.27000 33.18000

