158

Mg 1.76200 -0.97400 44.13000
C  5.17000 -0.25700 43.45300
C  0.96500 1.82500 42.42000
C  -1.45000 -2.01700 43.88900
C  2.84900 -4.13500 45.16200
N  2.99900 0.52100 43.05400
C  4.34300 0.68900 42.89800
C  4.83200 1.84100 42.07700
C  3.40700 2.62100 41.95700
C  2.38100 1.55000 42.49600
C  3.36700 4.02000 42.73800
C  5.27400 1.37200 40.70600
C  6.45300 2.06400 40.08700
H  6.08900 2.85800 38.75200
N  -0.02300 -0.15100 43.34500
C  -0.18400 1.06100 42.71100
C  -1.55700 1.44100 42.61000
C  -2.29800 0.33400 43.09000
C  -1.28300 -0.70800 43.45300
C  -2.08000 2.69900 41.90800
C  -3.77100 0.34100 43.31200
O  -4.50200 1.34900 43.08200
C  -4.50200 -0.84700 43.81800
N  0.91600 -2.79800 44.36800
C  -0.46500 -2.99000 44.22200
C  -0.86500 -4.42700 44.61900
C  0.45700 -4.98800 45.18200
C  1.45900 -3.91500 44.88800
C  -2.10900 -4.58400 45.53600
C  0.79000 -6.44600 44.64800
C  1.62700 -7.47400 45.50000
N  3.59300 -1.94400 44.43300
C  3.87100 -3.20900 44.97000
C  5.25500 -3.40200 45.15700
C  5.84000 -2.25200 44.48100
C  4.74400 -1.40100 44.16500
C  5.82700 -4.66300 45.60200
C  7.06900 -1.64400 44.06700
O  8.26000 -2.00700 44.20700
C  6.75100 -0.23800 43.40600
C  7.29900 0.83400 44.24900
O  7.26000 0.89300 45.51900
O  7.96400 1.71400 43.43000
C  8.68100 2.84400 44.07700
H  0.72400 2.82800 42.06100
H  -2.43800 -2.44000 43.69600
H  3.21400 -5.12400 45.44700
H  5.64000 2.35200 42.60000
H  3.03000 2.81900 40.95400
H  2.64700 4.75300 42.37300
H  4.33900 4.50400 42.64800
H  2.97700 3.74500 43.71800
H  4.41800 1.46400 40.03600
H  5.50600 0.31000 40.62500
H  7.35600 1.50100 39.85000
H  6.74900 2.88900 40.73500
H  -2.75800 2.38300 41.11600
H  -1.32700 3.33500 41.44300
H  -2.65600 3.29500 42.61600
H  -4.74600 -1.35200 42.88400
H  -5.48200 -0.56100 44.19900
H  -3.96800 -1.43000 44.56800
H  -0.95500 -5.02600 43.71200
H  0.29300 -4.90200 46.25600
H  -2.19600 -3.77800 46.26500
H  -2.27300 -5.60600 45.87700
H  -3.01800 -4.50000 44.93900
H  1.26600 -6.43300 43.66800
H  -0.15900 -6.94500 44.45400
H  2.16900 -8.11000 44.80000
H  0.97900 -8.16800 46.03500
H  2.27700 -6.89800 46.15900
H  5.79900 -5.44400 44.84300
H  5.27200 -5.04900 46.45700
H  6.84100 -4.31600 45.79900
H  7.14100 -0.19300 42.38900
H  7.95700 3.65200 44.17900
H  9.43300 3.20800 43.37700
H  9.17400 2.44400 44.96300
Mg 44.09400 3.54400 46.84100
C  42.16400 6.33100 46.60700
C  41.33200 1.67600 46.12300
C  46.08300 0.84300 46.54100
C  47.00600 5.62000 47.30800
N  42.01100 4.03600 46.36900
C  41.41500 5.20800 46.31600
C  39.90800 5.17800 45.97700
C  39.68900 3.61300 45.92500
C  41.15400 3.05500 46.14200
C  38.68400 3.03900 46.97800
C  39.63000 5.92200 44.61000
C  40.70500 6.06400 43.54900
H  40.24700 6.29700 42.06700
N  43.69100 1.49600 46.61200
C  42.48600 0.93000 46.40400
C  42.68000 -0.51000 46.31800
C  44.10400 -0.73800 46.42900
C  44.70200 0.60900 46.51800
C  41.58500 -1.53700 45.98100
C  44.76500 -2.10100 46.33700
O  44.05600 -3.12600 46.27000
C  46.25000 -2.31000 46.35600
N  46.24400 3.29500 46.86700
C  46.76900 2.01300 46.87100
C  48.38500 2.10000 46.83500
C  48.62300 3.62500 46.95100
C  47.20200 4.21800 47.07400
C  49.06800 1.27600 48.05600
C  49.48200 4.24600 45.78300
C  50.97700 4.43200 46.06600
N  44.55800 5.56800 46.93700
C  45.72400 6.27400 47.32400
C  45.41800 7.69600 47.57300
C  43.99000 7.70500 47.19800
C  43.56300 6.43100 46.89000
C  46.44300 8.64500 47.98000
C  42.90800 8.67600 47.14900
O  42.81500 9.87900 47.41100
C  41.61000 7.78800 46.73700
C  40.61700 8.08700 47.83100
O  40.52300 7.56100 48.94300
O  39.69200 8.98800 47.33700
C  38.63800 9.21700 48.32800
H  40.46500 1.05400 45.89100
H  46.67400 -0.06400 46.40000
H  47.93100 6.19800 47.35300
H  39.29700 5.51700 46.81400
H  39.21400 3.41500 44.96400
H  38.57400 3.72200 47.82000
H  39.02200 2.06300 47.32600
H  37.64500 2.91400 46.67200
H  39.41300 6.94700 44.91000
H  38.64200 5.76000 44.17700
H  41.13300 5.06200 43.58500
H  41.44700 6.78700 43.88700
H  41.57300 -1.71600 44.90500
H  40.60100 -1.08900 46.12100
H  41.70900 -2.43100 46.59200
H  46.82400 -1.98500 45.48900
H  46.35100 -3.39000 46.46600
H  46.71900 -1.92400 47.26100
H  48.72800 1.64200 45.90700
H  49.07400 3.91400 47.90100
H  49.48200 0.34400 47.67100
H  48.27800 1.06500 48.77600
H  49.84400 1.92000 48.47000
H  49.08500 5.23200 45.53800
H  49.41400 3.57000 44.93100
H  51.18400 3.90500 46.99800
H  51.33900 5.45700 46.14000
H  51.55900 4.08400 45.21200
H  46.48600 9.53000 47.34600
H  47.44800 8.23100 47.89800
H  46.26400 8.94900 49.01100
H  41.14400 8.21600 45.85000
H  37.94900 8.39000 48.49800
H  38.03500 10.01700 47.89800
H  39.10000 9.62800 49.22600

