158

Mg 26.12300 0.88000 29.26300
C  28.06200 0.00300 32.10700
C  23.36900 1.11400 31.11800
C  24.31500 0.97200 26.30100
C  28.95000 -0.05800 27.31000
N  25.83000 0.64100 31.32400
C  26.76800 0.42900 32.35500
C  26.18600 0.59200 33.73900
C  24.71100 0.82100 33.41700
C  24.60000 0.82500 31.85000
C  23.70200 -0.14400 34.15000
C  26.85400 1.75300 34.57300
C  26.06200 2.25200 35.83700
H  26.91900 2.52000 37.11700
N  24.09000 1.02500 28.76500
C  23.08800 1.14900 29.69700
C  21.83400 1.30600 28.95600
C  22.15100 1.42100 27.55300
C  23.57700 1.10400 27.45900
C  20.50500 1.38000 29.50900
C  21.23800 1.75700 26.43300
O  21.70700 1.86400 25.28100
C  19.89700 2.14800 26.63900
N  26.56000 0.57900 27.17300
C  25.66500 0.81800 26.15900
C  26.26200 0.67900 24.77000
C  27.74400 0.56600 25.08400
C  27.81100 0.39700 26.64500
C  25.76900 -0.54200 24.04300
C  28.48800 1.93900 24.69400
C  27.95500 3.18200 25.48800
N  28.11200 0.19100 29.59400
C  29.15300 -0.12900 28.68300
C  30.33500 -0.54400 29.39200
C  29.93700 -0.54400 30.74200
C  28.61800 -0.10700 30.81800
C  31.60500 -0.91500 28.73500
C  30.37300 -0.78800 32.13100
O  31.43900 -1.13300 32.57200
C  29.16900 -0.30500 33.02000
C  28.93400 -1.46700 33.96600
O  28.46000 -2.61000 33.66600
O  29.25700 -1.08300 35.24000
C  29.20300 -2.15900 36.22800
H  22.49800 1.46800 31.67400
H  23.83700 1.09400 25.32600
H  29.81000 -0.39200 26.72600
H  26.51500 -0.36100 34.15300
H  24.36900 1.83700 33.61700
H  23.09200 -0.76500 33.49400
H  23.07900 0.53800 34.72800
H  24.23600 -0.82800 34.81000
H  26.87100 2.61400 33.90500
H  27.89000 1.50800 34.80800
H  25.18300 1.64600 36.05300
H  25.54100 3.15300 35.51300
H  20.03700 2.36200 29.58600
H  20.58100 1.00600 30.53000
H  19.86600 0.76800 28.87300
H  19.89900 2.85900 27.46500
H  19.39700 1.21800 26.91100
H  19.41400 2.53500 25.74200
H  25.90200 1.54400 24.21200
H  28.18300 -0.33200 24.65000
H  24.71600 -0.31900 23.87200
H  25.80800 -1.51000 24.54100
H  26.22900 -0.58000 23.05500
H  28.60000 2.13100 23.62700
H  29.52100 1.80700 25.01500
H  27.46000 2.87000 26.40700
H  27.24000 3.70400 24.85100
H  28.85500 3.74200 25.73900
H  32.22800 -0.02100 28.74800
H  31.47100 -1.15800 27.68100
H  31.95900 -1.71200 29.38900
H  29.54600 0.41400 33.74700
H  28.23900 -2.13800 36.73600
H  29.88600 -1.79000 36.99400
H  29.36700 -3.17100 35.85900
Mg 9.61700 48.24400 25.78300
C  7.19100 48.07500 28.26300
C  11.63900 49.86500 27.95600
C  11.74800 48.34100 23.30400
C  7.01900 47.52100 23.35300
N  9.45000 48.72800 27.90300
C  8.39700 48.53900 28.82200
C  8.78300 48.78200 30.22900
C  10.12700 49.55300 30.05100
C  10.45300 49.41600 28.50800
C  9.95900 51.10500 30.31700
C  8.77700 47.53900 31.15600
C  9.86700 47.20200 32.19400
H  9.37200 46.35000 33.46100
N  11.44900 49.00600 25.65400
C  12.16500 49.60500 26.64300
C  13.50300 49.81600 26.15600
C  13.61300 49.27800 24.81800
C  12.23200 48.86400 24.51400
C  14.70500 50.44100 26.98200
C  14.78100 49.04500 23.86400
O  14.63500 48.45700 22.79400
C  16.14600 49.51100 24.21400
N  9.45100 47.84600 23.64900
C  10.55500 47.87200 22.87500
C  10.20900 47.58200 21.35900
C  8.70400 47.17700 21.38800
C  8.33600 47.58200 22.86300
C  10.43700 48.80700 20.47700
C  8.40200 45.70700 21.16600
C  8.29100 44.71200 22.32600
N  7.50700 47.89800 25.74700
C  6.61100 47.64200 24.72200
C  5.28300 47.49400 25.29400
C  5.46200 47.55900 26.65300
C  6.85600 47.83600 26.86700
C  4.04600 47.26200 24.46700
C  4.74800 47.50400 27.93900
O  3.54600 47.38600 28.27400
C  5.84700 47.91200 29.03200
C  5.90200 46.92500 30.08300
O  6.37000 45.83800 30.02600
O  5.32600 47.46300 31.23700
C  5.17700 46.55000 32.37600
H  12.28900 50.44800 28.61200
H  12.48400 48.42000 22.50200
H  6.23000 47.37000 22.61300
H  8.03800 49.46900 30.63400
H  10.97000 49.25100 30.67200
H  10.07200 51.45600 31.34300
H  8.94400 51.34300 29.99900
H  10.69400 51.72700 29.80700
H  8.64100 46.64500 30.54800
H  7.85500 47.64700 31.72800
H  10.35000 48.08000 32.62200
H  10.72100 46.68900 31.75300
H  15.56900 49.78400 27.08700
H  14.37600 50.56600 28.01300
H  15.05400 51.39600 26.58800
H  16.01800 50.56300 24.46900
H  16.70700 49.41000 23.28500
H  16.37600 48.82800 25.03200
H  10.81300 46.78500 20.92600
H  8.09800 47.84000 20.77000
H  9.69500 48.81200 19.67900
H  11.35700 48.58300 19.93800
H  10.45400 49.75400 21.01700
H  9.10200 45.26600 20.45700
H  7.46400 45.84600 20.62800
H  9.05100 44.98100 23.06000
H  8.45400 43.73900 21.86200
H  7.33300 44.80700 22.83600
H  3.93400 46.20100 24.24600
H  3.99100 47.71500 23.47700
H  3.22800 47.67500 25.05800
H  5.49200 48.85900 29.43900
H  4.10300 46.40300 32.25700
H  5.36000 47.01400 33.34500
H  5.79200 45.66100 32.23700

