158

Mg 41.92200 41.11600 27.31600
C  41.05800 43.34300 29.61200
C  43.02600 38.92800 29.72700
C  42.64700 38.90900 24.82200
C  41.08300 43.53100 24.77700
N  41.88900 41.06200 29.36600
C  41.48000 42.13500 30.14100
C  41.56300 41.81200 31.67900
C  42.50200 40.57000 31.62500
C  42.49400 40.15400 30.18100
C  43.89900 40.67800 32.32300
C  40.18400 41.57900 32.38100
C  39.96700 42.57000 33.52500
H  39.15100 41.85800 34.72700
N  42.71800 39.14600 27.29800
C  43.08000 38.37800 28.40600
C  43.40400 37.11900 27.91400
C  43.25400 37.03700 26.50700
C  42.88000 38.39500 26.12300
C  43.74800 36.03900 28.88800
C  43.49700 35.89100 25.54300
O  43.40500 36.00500 24.30500
C  43.95700 34.52700 26.03700
N  42.16700 41.32400 25.07500
C  42.33700 40.16100 24.31900
C  42.40500 40.55700 22.85100
C  41.66300 41.86700 22.76000
C  41.62600 42.31200 24.29600
C  43.84000 40.48800 22.21800
C  40.25700 41.76400 22.06100
C  39.10900 41.23000 22.95300
N  41.14300 43.06500 27.15700
C  40.82800 43.91400 26.10900
C  40.36700 45.17300 26.67600
C  40.38300 44.98300 28.04700
C  40.85700 43.66700 28.27600
C  39.95000 46.40200 25.89400
C  40.18400 45.61800 29.26300
O  39.79700 46.76100 29.48000
C  40.59300 44.58700 30.33000
C  41.57300 45.10600 31.26300
O  42.75100 44.87700 31.28300
O  40.87300 45.75500 32.29600
C  41.64200 46.18200 33.47900
H  43.29400 38.22300 30.51800
H  42.80900 38.20000 24.00700
H  40.84600 44.31700 24.05700
H  42.10800 42.71200 31.96300
H  41.98300 39.82700 32.23000
H  43.90200 40.08300 33.23600
H  44.18700 41.68400 32.62900
H  44.69700 40.36200 31.65000
H  40.19000 40.55200 32.74700
H  39.35700 41.72800 31.68800
H  39.43000 43.48100 33.26300
H  40.96200 42.86100 33.86200
H  42.93200 35.32000 28.81900
H  43.65900 36.41400 29.90800
H  44.71000 35.59300 28.63600
H  44.15400 33.72600 25.32400
H  43.18700 34.18600 26.72900
H  44.82200 34.69800 26.67800
H  41.87200 39.76000 22.33300
H  42.24700 42.58500 22.18500
H  44.54800 40.70500 23.01700
H  43.96200 41.13500 21.34900
H  44.06900 39.47500 21.88800
H  40.35100 41.07300 21.22400
H  39.95000 42.70500 21.60500
H  39.41100 40.74400 23.88100
H  38.49900 40.53700 22.37400
H  38.37100 42.01400 23.12500
H  39.51200 45.94500 25.00600
H  40.76900 47.11200 25.77500
H  39.14400 46.89300 26.43900
H  39.69200 44.21500 30.81800
H  41.90100 45.31100 34.08100
H  41.14100 46.89200 34.13800
H  42.63000 46.58100 33.24900
Mg 17.43300 52.48600 25.55600
C  19.35300 51.40400 28.30500
C  15.09500 53.48500 27.74800
C  15.71900 53.42100 23.01200
C  19.86300 51.04500 23.41800
N  17.32900 52.53700 27.81200
C  18.27100 52.14400 28.70300
C  17.79800 52.35900 30.09500
C  16.31800 52.83300 29.96200
C  16.20700 52.87200 28.42600
C  15.28500 52.03400 30.65400
C  18.67400 53.24700 31.00600
C  18.40900 53.26400 32.53500
H  17.28300 52.30300 33.11300
N  15.62400 53.36500 25.42300
C  14.77000 53.75000 26.44600
C  13.48800 54.33900 25.86800
C  13.70700 54.33700 24.48200
C  15.05700 53.70800 24.19100
C  12.26900 54.74700 26.65900
C  12.78800 54.84300 23.26600
O  13.06700 54.88300 22.03700
C  11.57200 55.67000 23.70700
N  17.84800 52.38400 23.49100
C  16.95000 52.87400 22.60600
C  17.44200 52.72200 21.12300
C  18.86500 52.08000 21.25900
C  18.94300 51.91600 22.87900
C  16.46200 51.94700 20.17500
C  20.03500 52.96100 20.77600
C  21.29000 52.34100 20.27900
N  19.19200 51.33400 25.75500
C  19.97700 50.75200 24.82500
C  20.94200 49.88100 25.49300
C  20.77600 50.15900 26.86200
C  19.66800 51.07700 26.93800
C  22.06900 49.13700 25.00800
C  21.25200 49.87100 28.18400
O  22.29700 49.28800 28.52400
C  20.37300 50.66400 29.20300
C  19.79400 49.60000 30.02600
O  18.95800 48.80000 29.68800
O  20.35700 49.73500 31.26700
C  19.70100 48.95000 32.28500
H  14.28800 53.81000 28.40800
H  15.17100 53.74000 22.12300
H  20.58600 50.59800 22.73200
H  17.69600 51.39500 30.59300
H  16.18500 53.85000 30.33100
H  14.66500 51.52100 29.91900
H  14.78200 52.68600 31.36900
H  15.66500 51.28200 31.34500
H  18.49700 54.22600 30.56000
H  19.70100 52.88200 31.01100
H  18.10500 54.27400 32.81100
H  19.31800 52.91300 33.02400
H  11.99400 55.78400 26.46100
H  12.38400 54.69000 27.74100
H  11.40700 54.09900 26.49800
H  11.00400 56.01300 22.84300
H  11.90100 56.51500 24.31200
H  10.88800 55.00600 24.23500
H  17.48000 53.77200 20.83200
H  18.93800 51.06100 20.88000
H  16.11700 52.69300 19.45900
H  15.55000 51.62900 20.68100
H  17.10300 51.26100 19.62200
H  20.29500 53.50800 21.68200
H  19.71500 53.65600 20.00000
H  21.39700 52.46100 19.20000
H  21.26500 51.29500 20.58200
H  22.12800 52.80700 20.79600
H  21.85800 48.94500 23.95600
H  22.05900 48.19400 25.55300
H  22.99700 49.69200 25.14300
H  21.07100 51.29000 29.75900
H  19.97600 49.41400 33.23100
H  20.06700 47.92300 32.25100
H  18.63900 48.99200 32.04400

