158

Mg 26.09100 1.44100 29.15300
C  27.90400 0.86200 31.99400
C  23.30400 1.90700 30.98400
C  24.36700 1.53400 26.17100
C  29.02300 0.41700 27.29200
N  25.75800 1.61000 31.31200
C  26.62700 1.35800 32.29100
C  26.01700 1.52400 33.63900
C  24.51800 1.65600 33.36000
C  24.49100 1.72400 31.74600
C  23.63800 0.46100 33.80400
C  26.49000 2.72100 34.54300
C  27.05300 2.36200 35.93600
H  26.99400 3.42400 37.09300
N  24.12000 1.76800 28.61900
C  23.11100 1.90500 29.54000
C  21.78900 1.94400 28.81800
C  22.11600 1.79500 27.37300
C  23.59700 1.69800 27.31700
C  20.48700 1.99400 29.57400
C  21.09900 1.75500 26.15900
O  21.47800 1.45300 25.04200
C  19.69400 1.90300 26.45800
N  26.58600 1.03500 27.04500
C  25.78800 1.42000 26.06200
C  26.47200 1.39900 24.72700
C  27.92800 1.52500 25.21800
C  27.90900 1.00900 26.58900
C  26.14200 0.14400 23.87700
C  28.59500 2.96300 25.14000
C  29.86400 3.11000 24.41100
N  28.13200 0.69800 29.54100
C  29.14200 0.33700 28.69800
C  30.26800 -0.03600 29.55100
C  29.87400 0.20200 30.91800
C  28.54800 0.61500 30.82300
C  31.50600 -0.51100 28.99700
C  30.24500 0.27400 32.29500
O  31.26400 0.02800 32.87400
C  28.94200 0.54700 33.05200
C  28.50400 -0.63600 33.90500
O  27.89300 -1.63600 33.51700
O  29.11600 -0.53400 35.07100
C  28.92200 -1.51500 36.13900
H  22.47200 2.06800 31.67400
H  23.89000 1.59800 25.19100
H  29.93300 0.13100 26.76000
H  26.33300 0.67000 34.23700
H  24.17700 2.64500 33.66600
H  23.67300 -0.38500 33.11700
H  22.61500 0.82900 33.87500
H  23.98400 0.07300 34.76300
H  25.86200 3.60900 34.61500
H  27.40300 3.05700 34.05100
H  28.12600 2.24600 35.78300
H  26.59700 1.43400 36.28100
H  20.21300 3.04800 29.52800
H  20.72300 1.66900 30.58700
H  19.75700 1.34400 29.09000
H  19.50700 1.07800 27.14500
H  19.13800 1.76800 25.53000
H  19.57800 2.93600 26.78500
H  26.19900 2.30300 24.18200
H  28.46400 0.83100 24.57000
H  25.42800 -0.51200 24.37500
H  27.00200 -0.50900 23.73000
H  25.73100 0.43500 22.90900
H  28.76800 3.33500 26.15000
H  27.94400 3.64800 24.59500
H  29.77200 3.80800 23.57900
H  30.16900 2.19000 23.91200
H  30.68300 3.40400 25.06700
H  31.16800 -1.23300 28.25300
H  32.15700 -0.93500 29.76100
H  32.02600 0.27700 28.45200
H  29.11800 1.42500 33.67500
H  29.64600 -1.31300 36.92900
H  29.00300 -2.51500 35.71300
H  27.99000 -1.29500 36.66000
Mg -11.72700 39.32100 41.58100
C  -10.34600 36.54800 40.25400
C  -9.39300 41.34400 39.93200
C  -13.88600 42.00900 41.75100
C  -14.41100 37.32200 42.73000
N  -10.12800 38.96100 40.21600
C  -9.68400 37.71300 39.94700
C  -8.34000 37.74000 39.21100
C  -8.00000 39.25400 39.08600
C  -9.24200 39.94000 39.77700
C  -6.68400 39.60500 39.70900
C  -8.45500 37.01600 37.86700
C  -7.49100 35.78400 37.55500
H  -6.54700 36.05500 36.34300
N  -11.47500 41.47400 41.21900
C  -10.43200 42.08200 40.51600
C  -10.75000 43.51600 40.47000
C  -12.06600 43.70700 41.03400
C  -12.52600 42.37200 41.41900
C  -9.76900 44.41300 39.85800
C  -12.75600 45.15800 41.27600
O  -12.36200 46.11400 40.69900
C  -13.80400 45.30300 42.28900
N  -13.89100 39.68300 42.30400
C  -14.43200 40.91300 42.31800
C  -15.92000 40.80300 42.78400
C  -15.92600 39.33600 43.34600
C  -14.69700 38.66600 42.75600
C  -16.36200 41.91900 43.89000
C  -17.25800 38.60600 43.12400
C  -17.47500 37.92800 41.73000
N  -12.29200 37.31100 41.70900
C  -13.32100 36.60500 42.26300
C  -13.16800 35.21200 42.14400
C  -11.95100 35.11800 41.37200
C  -11.50900 36.45400 41.15300
C  -13.87000 34.05100 42.85200
C  -11.04000 34.20200 40.78900
O  -11.16400 32.97900 40.71400
C  -9.93600 35.06800 40.05100
C  -8.69100 34.66500 40.63800
O  -8.12800 33.64500 40.35000
O  -8.20200 35.56800 41.56800
C  -7.06700 35.12300 42.33700
H  -8.59300 41.83500 39.37500
H  -14.47400 42.91900 41.88400
H  -15.28300 36.75700 43.06700
H  -7.58900 37.25800 39.83800
H  -7.94300 39.49900 38.02500
H  -6.11900 38.73400 40.04000
H  -6.79600 40.34800 40.49900
H  -5.99300 39.85800 38.90500
H  -8.33200 37.72800 37.05100
H  -9.49300 36.70300 37.75400
H  -8.08200 34.88400 37.38800
H  -6.83800 35.60200 38.40900
H  -9.45300 45.04100 40.69100
H  -10.20000 45.12100 39.15000
H  -8.87000 43.95200 39.44700
H  -14.65900 45.34200 41.61400
H  -13.69600 46.25600 42.80700
H  -13.86100 44.51300 43.03800
H  -16.62100 40.86200 41.95100
H  -15.88700 39.36400 44.43500
H  -16.69300 42.87100 43.47300
H  -15.51400 42.20900 44.51100
H  -17.06800 41.38200 44.52400
H  -18.03200 39.37400 43.14600
H  -17.33800 37.91500 43.96300
H  -17.58800 36.85400 41.87900
H  -16.61500 38.05500 41.07200
H  -18.24200 38.35200 41.08300
H  -13.23000 33.52900 43.56300
H  -14.42400 33.42900 42.14800
H  -14.72900 34.44200 43.39800
H  -9.90600 34.71400 39.02100
H  -6.67600 35.91300 42.97900
H  -6.19700 34.80300 41.76300
H  -7.58300 34.48000 43.04900

