158

Mg 16.68000 -2.18100 27.71800
C  15.40900 0.02300 30.17400
C  18.77500 -3.47700 30.04800
C  18.09100 -3.99700 25.30000
C  14.80600 -0.31600 25.34700
N  16.98200 -1.79900 29.85000
C  16.31900 -0.94500 30.64000
C  16.63400 -1.17800 32.07200
C  17.93900 -2.04400 32.05100
C  17.96000 -2.49500 30.55500
C  19.30200 -1.32200 32.47600
C  15.46500 -1.71600 32.96400
C  15.11800 -0.86400 34.18000
H  16.19300 -0.05800 34.89100
N  18.10900 -3.59000 27.73100
C  18.89800 -4.03600 28.77100
C  19.80900 -5.04000 28.38700
C  19.56400 -5.23300 27.01000
C  18.52900 -4.25000 26.58800
C  20.80600 -5.71500 29.25100
C  20.24000 -6.14200 26.00000
O  20.08400 -6.10000 24.80000
C  21.04500 -7.43100 26.43200
N  16.53200 -2.07600 25.66300
C  17.20500 -2.97400 24.83400
C  16.94800 -2.75500 23.32200
C  15.75900 -1.77000 23.39600
C  15.70900 -1.27900 24.86500
C  18.16700 -2.13700 22.65800
C  14.38700 -2.20400 22.76800
C  14.21300 -2.02800 21.18200
N  15.34000 -0.50300 27.70000
C  14.68700 0.17700 26.65900
C  13.88200 1.24900 27.19600
C  14.15700 1.24800 28.57900
C  15.01100 0.19800 28.80400
C  12.86400 2.03700 26.42000
C  13.89400 1.90900 29.86400
O  13.24800 2.88900 30.12100
C  14.66900 1.10000 30.89500
C  15.54500 2.10100 31.61600
O  16.69300 2.40900 31.32100
O  14.78500 2.65500 32.59000
C  15.56300 3.78500 33.22500
H  19.44600 -3.96400 30.75900
H  18.43300 -4.53400 24.41300
H  14.28000 0.34200 24.65100
H  16.97800 -0.24400 32.51800
H  17.98700 -2.94700 32.65900
H  20.00000 -1.26400 31.64100
H  19.73200 -1.89500 33.29700
H  19.13300 -0.29400 32.79700
H  15.73400 -2.69800 33.35400
H  14.53000 -1.77300 32.40700
H  14.85100 -1.57100 34.96600
H  14.17900 -0.32400 34.05400
H  21.81200 -5.85000 28.85300
H  20.46000 -6.70400 29.55200
H  20.95200 -5.18400 30.19200
H  20.98200 -8.19000 25.65300
H  20.53700 -7.89100 27.27900
H  22.10900 -7.27400 26.60700
H  16.68700 -3.60900 22.69800
H  15.91700 -0.80300 22.91700
H  18.08800 -2.36300 21.59400
H  19.12100 -2.50500 23.03600
H  18.08600 -1.05100 22.71400
H  13.54100 -1.69400 23.22900
H  14.16600 -3.27000 22.80900
H  14.98900 -1.35700 20.81400
H  13.26600 -1.54400 20.94400
H  14.26100 -2.99900 20.68900
H  12.71500 1.66100 25.40800
H  13.11900 3.09600 26.38000
H  11.89800 1.91200 26.91100
H  13.95500 0.67800 31.60200
H  16.58500 3.52400 33.49800
H  15.06500 4.01700 34.16700
H  15.58100 4.72100 32.66600
Mg -6.12100 24.85600 25.80500
C  -4.42800 26.12100 28.69100
C  -7.69500 22.66200 27.76100
C  -7.20300 23.36500 23.08400
C  -4.05200 27.05000 23.90400
N  -6.06700 24.56200 28.02800
C  -5.44900 25.19400 29.02700
C  -5.93300 24.73900 30.40200
C  -6.76200 23.50400 30.00600
C  -6.84300 23.56700 28.52300
C  -5.94100 22.18600 30.38500
C  -6.63300 25.87300 31.22300
C  -6.37900 25.98300 32.76400
H  -5.94800 24.72700 33.50900
N  -7.42500 23.28000 25.48600
C  -8.04000 22.59200 26.41000
C  -9.07900 21.74900 25.74600
C  -8.92600 21.94900 24.31700
C  -7.79100 22.87600 24.23200
C  -10.04900 20.84000 26.53700
C  -9.66300 21.40900 23.14100
O  -9.39700 21.62300 21.98100
C  -10.71100 20.44300 23.50100
N  -5.49700 24.99300 23.80700
C  -6.20600 24.30000 22.86100
C  -5.56300 24.65200 21.42400
C  -4.66100 25.87700 21.71200
C  -4.60900 25.93300 23.28400
C  -4.81500 23.53000 20.67500
C  -5.21600 27.23500 21.08000
C  -4.24600 28.24500 20.53400
N  -4.58700 26.32200 26.16700
C  -3.91400 27.18200 25.29200
C  -2.97800 28.02700 26.00400
C  -3.17000 27.63100 27.38400
C  -4.15800 26.61400 27.43300
C  -1.97800 28.88500 25.40800
C  -2.68900 27.90000 28.72500
O  -1.90100 28.71600 29.17100
C  -3.46100 26.88500 29.61600
C  -2.48400 26.03800 30.37500
O  -1.77700 25.17600 29.87500
O  -2.44900 26.41100 31.72200
C  -1.67100 25.52000 32.54100
H  -8.22600 21.89800 28.33300
H  -7.57500 22.89800 22.16900
H  -3.33300 27.60900 23.30200
H  -4.99600 24.54800 30.92500
H  -7.78200 23.55800 30.38400
H  -5.64700 22.30200 31.42900
H  -5.10200 22.18600 29.69000
H  -6.56400 21.29900 30.27400
H  -7.68100 25.80400 30.93100
H  -6.20100 26.80500 30.86000
H  -7.35700 26.22400 33.17900
H  -5.66200 26.76100 33.02700
H  -11.07000 20.95600 26.17500
H  -9.85600 20.99800 27.59800
H  -9.87400 19.77600 26.37600
H  -11.13400 20.12500 22.54800
H  -11.53600 21.03600 23.89400
H  -10.43300 19.52600 24.02100
H  -6.39400 24.98600 20.80200
H  -3.66900 25.70100 21.29500
H  -4.79700 22.75700 21.44300
H  -3.79700 23.88600 20.51500
H  -5.32800 23.26900 19.74900
H  -5.71400 27.72400 21.91700
H  -5.92500 27.04200 20.27400
H  -3.22000 27.87700 20.53000
H  -4.35000 29.15400 21.12700
H  -4.52300 28.47700 19.50500
H  -1.25900 29.25300 26.14100
H  -2.49700 29.73200 24.95900
H  -1.44000 28.37300 24.61100
H  -3.96100 27.56600 30.30500
H  -0.60300 25.71900 32.45300
H  -1.77000 24.43600 32.50300
H  -2.05600 25.79000 33.52400

