158

Mg 44.12000 3.75500 48.11300
C  42.02400 6.47500 47.43300
C  41.29700 1.73500 47.63300
C  46.16700 1.13900 47.90400
C  46.83300 5.86700 47.67300
N  41.87600 4.06900 47.78600
C  41.27400 5.26600 47.53900
C  39.77300 5.11300 47.26800
C  39.48600 3.58500 47.41600
C  40.99400 3.07100 47.61200
C  38.66700 3.13600 48.63500
C  39.01100 5.85600 46.02700
C  39.58600 5.65200 44.61100
H  39.65600 6.83000 43.61600
N  43.81000 1.73200 47.83700
C  42.54600 1.09100 47.77800
C  42.74900 -0.33200 47.64700
C  44.18700 -0.53100 47.78000
C  44.83100 0.81500 47.83000
C  41.59400 -1.31100 47.60500
C  44.86000 -1.86100 47.82300
O  44.28100 -2.93800 47.92100
C  46.28800 -1.95600 47.80400
N  46.15200 3.58200 47.91500
C  46.81300 2.38700 47.87800
C  48.36100 2.50400 47.75800
C  48.56300 4.02100 47.64300
C  47.13600 4.53200 47.84000
C  49.21700 1.80600 48.92100
C  49.17700 4.41300 46.31100
C  50.54200 5.15700 46.39100
N  44.40300 5.79100 47.78600
C  45.59700 6.49300 47.64300
C  45.30100 7.87300 47.34100
C  43.91800 7.92600 47.31500
C  43.42000 6.59200 47.46000
C  46.29900 8.98000 47.09700
C  42.73000 8.86700 47.18200
O  42.60700 10.12600 47.12200
C  41.41100 7.96500 47.29600
C  40.58000 8.27000 48.48300
O  40.61300 7.54100 49.53200
O  39.68000 9.21000 48.19000
C  38.49900 9.35600 49.15100
H  40.42300 1.10900 47.43800
H  46.86600 0.33300 47.67100
H  47.75000 6.45700 47.62200
H  39.34300 5.63400 48.12400
H  39.09900 3.28800 46.44100
H  39.20100 2.34200 49.15800
H  37.71900 2.65500 48.39400
H  38.39400 3.89600 49.36600
H  38.72900 6.87000 46.31100
H  38.00900 5.42500 46.03700
H  39.12800 4.76200 44.17900
H  40.62300 5.34000 44.73500
H  41.52400 -1.70400 46.59100
H  40.63200 -0.86200 47.85400
H  41.67400 -2.21800 48.20400
H  46.75300 -1.35300 48.58400
H  46.61100 -1.44300 46.89800
H  46.41400 -3.03800 47.82100
H  48.71100 1.99700 46.85900
H  49.16800 4.42800 48.45300
H  48.44800 1.37400 49.56200
H  49.91400 2.43500 49.47500
H  49.78900 0.97800 48.50300
H  48.51300 5.16700 45.88900
H  49.27300 3.49900 45.72500
H  50.93400 5.08000 47.40500
H  50.43900 6.18900 46.05500
H  51.18900 4.63200 45.68900
H  46.70900 9.16000 48.09000
H  45.80200 9.90500 46.80500
H  47.07500 8.67100 46.39600
H  40.79400 7.97800 46.39700
H  38.29100 10.42600 49.19200
H  38.68000 9.04300 50.18000
H  37.71500 8.82100 48.61700
Mg -6.77000 24.91900 25.47800
C  -5.06100 26.26200 28.16900
C  -8.45300 22.71000 27.66100
C  -7.95400 23.23500 22.82100
C  -4.73000 26.76300 23.32100
N  -6.82100 24.58300 27.70500
C  -6.09800 25.37500 28.52000
C  -6.47600 24.93400 30.04700
C  -7.36000 23.60600 29.82700
C  -7.61100 23.66500 28.36100
C  -6.70500 22.20000 30.15800
C  -7.23100 26.01400 30.84700
C  -7.00300 25.99200 32.29900
H  -6.27400 24.79500 32.97300
N  -8.20700 23.37300 25.22500
C  -8.75200 22.60400 26.24800
C  -9.72100 21.68400 25.65800
C  -9.54500 21.79300 24.22500
C  -8.50700 22.79800 24.05100
C  -10.64100 20.78000 26.51700
C  -10.16800 20.96100 23.13400
O  -9.92400 20.99100 21.92100
C  -11.04900 19.79900 23.60400
N  -6.42000 25.03700 23.40800
C  -7.04000 24.27000 22.51900
C  -6.38700 24.32300 21.11800
C  -5.52400 25.59100 21.25700
C  -5.61700 25.87700 22.75100
C  -5.62000 23.03200 20.64600
C  -5.93600 26.82600 20.35700
C  -4.97200 27.26600 19.26100
N  -5.12400 26.16400 25.66800
C  -4.50500 26.98000 24.74000
C  -3.46300 27.74600 25.37200
C  -3.63300 27.50000 26.73000
C  -4.64800 26.51600 26.80600
C  -2.45700 28.73000 24.75000
C  -3.11700 27.73900 28.03900
O  -2.20900 28.47400 28.39100
C  -4.04000 26.98200 29.01000
C  -3.24200 26.03700 29.81100
O  -2.81700 24.96800 29.39600
O  -2.97300 26.47100 31.07600
C  -2.11200 25.80600 32.00700
H  -9.01300 22.03300 28.30900
H  -8.34700 22.74900 21.92600
H  -4.23500 27.43000 22.61200
H  -5.51400 24.64300 30.46900
H  -8.31300 23.72400 30.34100
H  -5.69000 22.48700 30.43500
H  -6.55000 21.62000 29.24800
H  -7.13000 21.65800 31.00300
H  -8.30300 26.03900 30.65500
H  -6.84600 26.98900 30.54800
H  -7.99100 26.14600 32.73100
H  -6.41400 26.84300 32.64000
H  -11.03000 21.52800 27.20800
H  -10.10700 20.01200 27.07700
H  -11.49600 20.34400 26.00100
H  -11.22400 19.03000 22.85100
H  -12.01900 20.19700 23.90100
H  -10.58500 19.19600 24.38500
H  -7.11200 24.67200 20.38400
H  -4.49900 25.25400 21.10400
H  -5.92200 22.80800 19.62200
H  -6.06800 22.23200 21.23400
H  -4.55100 23.17700 20.80300
H  -6.08400 27.62300 21.08600
H  -6.81100 26.61600 19.74100
H  -3.95400 27.09900 19.61000
H  -4.93700 28.32700 19.01100
H  -5.03400 26.71500 18.32300
H  -2.16000 28.24700 23.81900
H  -1.51400 28.79300 25.29300
H  -2.96400 29.67500 24.55700
H  -4.59600 27.68000 29.63600
H  -2.48900 26.11500 32.98200
H  -1.03300 25.94700 31.94600
H  -2.39800 24.75800 31.91100

