158

Mg 41.70500 42.28800 27.51100
C  40.67900 44.73500 29.87900
C  42.05500 39.96000 29.93700
C  42.90800 40.32500 25.27800
C  41.63800 45.00600 25.17400
N  41.52200 42.39900 29.66900
C  40.93800 43.44700 30.36400
C  40.70900 42.93100 31.80600
C  41.23700 41.49800 31.86400
C  41.69900 41.28000 30.39800
C  42.29800 41.18200 32.89300
C  39.19800 43.07700 32.39800
C  38.78200 42.29600 33.66800
H  38.20000 43.05100 34.81600
N  42.38000 40.36400 27.60300
C  42.50100 39.48200 28.74500
C  42.93400 38.21600 28.29400
C  43.18100 38.29700 26.88700
C  42.86500 39.68100 26.52600
C  43.15600 37.09300 29.18500
C  43.77800 37.31600 25.91400
O  44.30000 37.60300 24.81500
C  43.89900 35.91000 26.26200
N  42.39000 42.71200 25.65100
C  42.60600 41.56600 24.91400
C  42.84200 42.00500 23.44200
C  42.23200 43.35700 23.37900
C  41.99400 43.70300 24.80900
C  44.26700 41.84000 22.94800
C  40.90000 43.48200 22.45700
C  39.83100 42.45800 22.66400
N  41.25800 44.48600 27.46900
C  41.24400 45.36100 26.47900
C  40.68600 46.62500 26.93300
C  40.47200 46.42500 28.23300
C  40.86800 45.11200 28.53800
C  40.21700 47.67000 25.97900
C  40.02400 47.13700 29.41400
O  39.62000 48.30000 29.51100
C  40.08100 46.01600 30.59900
C  40.88500 46.51100 31.64400
O  41.96500 46.99100 31.40700
O  40.25400 46.47600 32.91800
C  40.97600 46.72800 34.10900
H  42.03200 39.34900 30.84100
H  43.43000 39.82600 24.45800
H  41.53500 45.78700 24.41800
H  41.19800 43.58900 32.52500
H  40.38200 40.83500 31.99800
H  43.20600 40.68900 32.54400
H  42.12500 40.43100 33.66400
H  42.66000 42.09100 33.37400
H  38.50400 42.86200 31.58600
H  39.11200 44.10400 32.75400
H  39.61500 41.72700 34.08100
H  38.03700 41.55400 33.37700
H  43.21000 37.37300 30.23700
H  44.17800 36.75200 29.01900
H  42.36700 36.38100 28.94100
H  42.84600 35.63100 26.27100
H  44.45600 35.89400 27.19900
H  44.42900 35.27800 25.55000
H  42.33100 41.30200 22.78400
H  43.00800 44.02400 23.00200
H  44.21800 41.41600 21.94500
H  44.95000 41.26000 23.56800
H  44.66200 42.82400 22.69400
H  41.10600 43.45500 21.38700
H  40.27800 44.36500 22.60600
H  39.12900 42.89800 23.37200
H  40.19000 41.50500 23.05200
H  39.27200 42.31000 21.74000
H  39.59800 48.38700 26.51900
H  39.61700 47.21000 25.19300
H  41.10800 48.12700 25.54900
H  39.08600 45.97800 31.04200
H  41.49500 45.80900 34.37900
H  40.29900 47.17200 34.83800
H  41.71500 47.49900 33.89000
Mg -5.25900 24.63800 26.47900
C  -3.64400 26.64000 28.86700
C  -6.13300 22.42700 28.90400
C  -6.97900 22.92500 24.14000
C  -4.01200 26.80500 23.95200
N  -5.16100 24.69700 28.60200
C  -4.54200 25.64800 29.41500
C  -4.71100 25.36400 30.92900
C  -5.35800 23.95200 30.83000
C  -5.49200 23.60600 29.31400
C  -4.36100 22.94200 31.42900
C  -5.60600 26.45200 31.61800
C  -5.17100 26.90100 32.99700
H  -4.65700 25.77100 33.99400
N  -6.38900 22.86800 26.52300
C  -6.54800 22.07700 27.59400
C  -7.30800 20.86100 27.18800
C  -7.52800 21.02700 25.80400
C  -6.92300 22.30700 25.39200
C  -7.67500 19.79200 28.26500
C  -8.23200 20.03800 24.84900
O  -8.40900 20.28800 23.67400
C  -8.95300 18.88300 25.44800
N  -5.49000 24.88000 24.34200
C  -6.28700 24.05900 23.62200
C  -6.09200 24.42600 22.07900
C  -5.24700 25.72100 22.10100
C  -4.79400 25.76700 23.52600
C  -5.36100 23.29400 21.29900
C  -5.95400 26.95900 21.53700
C  -5.21800 27.77900 20.48100
N  -4.09400 26.35600 26.37200
C  -3.58600 27.06800 25.32700
C  -2.82700 28.17500 25.83700
C  -2.87200 28.07700 27.21200
C  -3.57800 26.92000 27.48700
C  -2.14400 29.19100 24.98000
C  -2.36300 28.66200 28.44500
O  -1.69000 29.66700 28.63800
C  -2.85700 27.74000 29.57600
C  -1.63100 27.20200 30.24600
O  -0.67000 26.72800 29.65300
O  -1.73900 27.32700 31.61000
C  -0.67000 26.75400 32.34500
H  -6.34100 21.77000 29.75200
H  -7.53000 22.37300 23.37600
H  -3.64400 27.57500 23.27100
H  -3.75100 25.51300 31.42400
H  -6.32000 23.84700 31.33100
H  -3.87100 22.43300 30.59900
H  -4.89800 22.24300 32.07000
H  -3.57500 23.42600 32.00900
H  -6.62600 26.11200 31.79800
H  -5.66300 27.37700 31.04400
H  -5.98000 27.38900 33.54100
H  -4.28900 27.53300 32.89400
H  -8.76300 19.73500 28.23200
H  -7.30500 20.07500 29.25000
H  -7.07800 18.90400 28.05700
H  -8.25400 18.21000 25.94400
H  -9.62400 18.32900 24.79100
H  -9.50800 19.36000 26.25600
H  -7.11800 24.55100 21.73400
H  -4.26400 25.66900 21.63400
H  -5.49300 22.28200 21.68200
H  -4.28200 23.44800 21.30400
H  -5.76800 23.30900 20.28800
H  -6.25400 27.58400 22.37800
H  -6.86900 26.56800 21.09300
H  -5.98000 28.18000 19.81300
H  -4.45300 27.28700 19.88100
H  -4.74400 28.53300 21.11000
H  -2.81000 29.73800 24.31400
H  -1.41200 28.68300 24.35200
H  -1.69200 29.90300 25.67100
H  -3.50500 28.28100 30.26700
H  0.29600 26.75300 31.84000
H  -0.91400 25.73300 32.63900
H  -0.48200 27.39000 33.21000

