158

Mg 3.47600 1.06200 44.35200
C  6.22600 3.25800 43.84700
C  1.53200 3.50200 42.71100
C  1.15700 -1.22200 43.80600
C  5.84900 -1.39100 45.26100
N  3.88500 3.03000 43.26000
C  5.00100 3.71500 43.36900
C  4.81500 5.11200 42.74300
C  3.31700 5.26900 42.80600
C  2.85800 3.86100 42.85700
C  2.74800 6.11300 43.97300
C  5.35500 5.25500 41.34200
C  5.42400 3.96700 40.51300
H  5.67000 4.10400 39.01400
N  1.59200 1.16000 43.52700
C  0.94400 2.25000 42.99900
C  -0.44700 1.93100 42.85600
C  -0.58400 0.54400 43.17200
C  0.75600 0.07400 43.57300
C  -1.43600 2.91800 42.29900
C  -1.90300 -0.26500 43.15100
O  -2.94900 0.22000 42.77400
C  -1.95900 -1.67600 43.41600
N  3.59100 -1.03100 44.38900
C  2.44600 -1.78500 44.16600
C  2.57600 -3.30900 44.57400
C  3.99400 -3.26300 45.23700
C  4.60300 -1.87600 44.90300
C  1.44100 -3.80100 45.50500
C  4.82400 -4.50300 44.86100
C  5.43200 -5.25100 45.99800
N  5.66100 0.95000 44.56500
C  6.44300 -0.13000 44.99300
C  7.82300 0.32900 44.94500
C  7.72100 1.69400 44.58200
C  6.43400 2.00900 44.30700
C  9.08400 -0.43800 45.44800
C  8.52600 2.87100 44.39800
O  9.76200 3.02400 44.44900
C  7.57600 3.92100 43.83800
C  7.63300 5.21900 44.58600
O  8.12200 6.27600 44.25600
O  6.94000 4.95300 45.79000
C  6.57500 6.20700 46.52500
H  0.85600 4.28000 42.34800
H  0.45700 -2.04000 43.62300
H  6.52100 -2.16900 45.62900
H  5.33200 5.90900 43.27700
H  2.81000 5.69300 41.93900
H  2.54900 7.15100 43.70700
H  3.38500 6.29400 44.83900
H  1.82100 5.76100 44.42500
H  6.31300 5.75500 41.48900
H  4.75100 5.94200 40.74900
H  4.45600 3.46700 40.55600
H  6.24600 3.31700 40.81200
H  -1.43100 2.98800 41.21100
H  -1.19100 3.91800 42.65700
H  -2.47900 2.70500 42.53400
H  -1.74100 -2.10700 44.39300
H  -1.40600 -2.11200 42.58300
H  -2.96400 -2.08900 43.32300
H  2.63400 -3.91000 43.66600
H  3.87100 -3.09100 46.30700
H  0.54200 -4.09400 44.96300
H  1.16000 -2.99200 46.18000
H  1.70000 -4.66700 46.11400
H  5.65300 -4.15300 44.24600
H  4.25600 -5.16200 44.20500
H  5.30300 -6.26600 45.62200
H  4.96800 -5.10100 46.97300
H  6.51900 -5.18800 46.04400
H  9.76100 -0.74400 44.65000
H  8.80100 -1.31800 46.02600
H  9.59900 0.12700 46.22500
H  8.06600 4.11200 42.88400
H  5.69400 5.92800 47.10300
H  6.43100 7.00700 45.79900
H  7.34200 6.40500 47.27400
Mg 46.43700 24.63500 28.16800
C  47.19900 26.81700 31.00900
C  45.74100 22.17100 30.48000
C  46.57000 22.43000 25.69300
C  47.43400 27.20100 26.14200
N  46.63600 24.49600 30.46600
C  46.76700 25.54200 31.38900
C  46.64600 24.99600 32.85800
C  46.26100 23.52000 32.60200
C  46.11100 23.34500 31.11100
C  47.10900 22.48400 33.27300
C  45.56800 25.79100 33.66200
C  45.86400 26.57900 34.90500
H  44.85800 26.49700 36.03500
N  46.09600 22.61900 28.09000
C  45.77900 21.77200 29.15400
C  45.58200 20.34700 28.65500
C  45.76400 20.44500 27.18100
C  46.19600 21.86300 26.90200
C  45.19200 19.12700 29.60100
C  45.74700 19.42600 26.20500
O  46.12400 19.51700 25.07100
C  45.31200 18.07100 26.70600
N  47.12800 24.76900 26.25100
C  46.96500 23.71500 25.33600
C  47.33800 24.25700 23.94100
C  47.17400 25.75900 24.07400
C  47.22300 25.97500 25.60100
C  48.78800 23.79900 23.64400
C  45.92000 26.35100 23.40200
C  44.59900 26.25900 24.27600
N  47.03300 26.64500 28.39100
C  47.43000 27.53600 27.41800
C  47.67000 28.80900 28.03500
C  47.63700 28.55500 29.47700
C  47.27900 27.25100 29.61000
C  48.03800 30.08700 27.36200
C  47.96500 29.15300 30.71300
O  48.35300 30.24900 31.02200
C  47.67000 28.03400 31.85100
C  48.92200 27.61900 32.55000
O  49.97100 27.36300 31.97500
O  48.75200 27.68100 33.92500
C  49.89300 27.28600 34.72500
H  45.36000 21.43000 31.18600
H  46.66900 21.72500 24.86500
H  47.46700 27.98300 25.38000
H  47.65500 25.07300 33.26300
H  45.29100 23.43400 33.09100
H  47.68300 21.91300 32.54300
H  46.53400 21.79700 33.89500
H  47.94600 22.91600 33.82200
H  44.65200 25.21700 33.79600
H  45.28000 26.59000 32.98000
H  45.95200 27.64300 34.68400
H  46.82000 26.23500 35.29900
H  46.07800 18.50900 29.74500
H  44.42100 18.55100 29.09000
H  44.78100 19.49000 30.54300
H  44.24400 17.95800 26.89300
H  45.96700 17.72100 27.50400
H  45.42200 17.43400 25.82900
H  46.69400 23.88900 23.14300
H  47.96000 26.33700 23.58900
H  49.46400 24.65200 23.58400
H  48.66500 23.44100 22.62200
H  49.23500 23.00800 24.24700
H  45.59700 25.95900 22.43700
H  46.11500 27.41500 23.26700
H  44.60300 27.17200 24.87200
H  44.70200 25.38500 24.91900
H  43.68200 26.20800 23.68800
H  47.72000 30.14100 26.32000
H  49.12800 30.09100 27.37000
H  47.74500 30.97800 27.91600
H  46.95100 28.44900 32.55800
H  50.69800 28.00500 34.87600
H  50.36000 26.41100 34.27200
H  49.58600 26.89700 35.69600

