158

Mg 24.32200 -5.39600 45.89900
C  26.37000 -3.00400 44.26700
C  21.77700 -4.48800 43.78200
C  22.59400 -7.87900 47.30900
C  27.21700 -6.31900 47.86800
N  24.10100 -3.98400 44.10600
C  25.08200 -3.09400 43.68600
C  24.54600 -2.24000 42.48400
C  22.99700 -2.57100 42.45500
C  22.95700 -3.78200 43.45200
C  21.96300 -1.43800 42.74000
C  25.29700 -2.57800 41.13900
C  25.50100 -1.39900 40.18300
H  24.90000 -1.51600 38.79600
N  22.41600 -5.98300 45.63700
C  21.55300 -5.54900 44.64100
C  20.38900 -6.30800 44.73700
C  20.52200 -7.23900 45.78600
C  21.87000 -7.02700 46.35000
C  19.21600 -5.97600 43.80900
C  19.42000 -8.11100 46.21600
O  18.36500 -8.16700 45.61800
C  19.50700 -9.00300 47.42700
N  24.90200 -6.97300 47.30500
C  23.94800 -7.81200 47.76000
C  24.46400 -8.81100 48.70800
C  25.93600 -8.35800 48.94100
C  26.04100 -7.06700 48.02600
C  23.58600 -9.05300 49.94300
C  27.08000 -9.40900 48.67600
C  27.15300 -9.82800 47.19300
N  26.35000 -4.82600 46.10700
C  27.34700 -5.24800 46.99500
C  28.47600 -4.36600 46.76400
C  28.15100 -3.48200 45.72000
C  26.86800 -3.81700 45.37800
C  29.71300 -4.33500 47.56900
C  28.55300 -2.37800 44.92100
O  29.59100 -1.75400 44.99700
C  27.46300 -2.09700 43.87400
C  27.07700 -0.66300 44.01500
O  26.39300 -0.19100 44.90100
O  27.51700 0.14400 42.98500
C  27.29900 1.52800 43.18100
H  20.98100 -4.13200 43.12400
H  22.08200 -8.78500 47.63800
H  28.13200 -6.63000 48.37700
H  24.68900 -1.18100 42.69800
H  22.78200 -2.98100 41.46900
H  21.17900 -1.70500 43.44900
H  21.50000 -1.17500 41.78900
H  22.53600 -0.56100 43.04000
H  24.80100 -3.35200 40.55300
H  26.31700 -2.91200 41.32900
H  26.56200 -1.29700 39.95600
H  25.26100 -0.42400 40.60800
H  18.62600 -6.87200 43.61800
H  19.66000 -5.70000 42.85200
H  18.64400 -5.17600 44.27800
H  18.64300 -9.65700 47.54300
H  19.58800 -8.30900 48.26400
H  20.36300 -9.66700 47.31300
H  24.45000 -9.74700 48.15000
H  26.01100 -7.93200 49.94100
H  23.30600 -10.10700 49.96900
H  22.69900 -8.42000 49.91300
H  24.16900 -8.78100 50.82300
H  27.05600 -10.24300 49.37800
H  28.05700 -8.99000 48.91600
H  27.00100 -10.90700 47.17200
H  28.22600 -9.85800 47.00600
H  26.66700 -9.24100 46.41400
H  30.60400 -4.33400 46.94100
H  29.78900 -5.18300 48.24800
H  29.68300 -3.43600 48.18500
H  27.81200 -2.09500 42.84200
H  28.12800 1.87500 43.79800
H  26.30100 1.76100 43.54900
H  27.31600 1.95500 42.17800
Mg 16.29900 -2.28100 27.72700
C  15.27600 -0.24100 30.26700
C  18.45100 -3.98000 29.97600
C  17.63700 -4.07600 25.20400
C  14.39200 -0.44300 25.39700
N  16.95800 -1.96100 29.88100
C  16.22700 -1.20600 30.73700
C  16.62600 -1.52400 32.25900
C  17.77300 -2.55000 32.05600
C  17.64900 -2.90900 30.58600
C  19.18800 -2.16900 32.48700
C  15.47500 -2.03100 33.15500
C  15.51400 -1.43500 34.52100
H  16.73700 -0.68400 35.03300
N  17.71100 -3.90700 27.60200
C  18.46100 -4.45300 28.64500
C  19.36700 -5.41600 28.08500
C  19.03300 -5.54600 26.72400
C  18.12100 -4.45400 26.43500
C  20.31300 -6.16400 29.01900
C  19.55700 -6.53400 25.70400
O  19.31700 -6.43300 24.54000
C  20.40600 -7.72300 26.08200
N  16.16500 -2.13100 25.59400
C  16.64900 -3.15700 24.83700
C  16.20000 -3.00100 23.36000
C  14.89500 -2.09900 23.54200
C  15.13600 -1.56200 24.95500
C  17.36000 -2.44200 22.46400
C  13.59200 -3.02900 23.43200
C  13.05500 -3.23200 21.98700
N  15.22000 -0.58700 27.74900
C  14.45800 0.03900 26.74300
C  13.64900 0.99400 27.37400
C  13.97200 0.96900 28.71800
C  14.88500 -0.02700 28.91900
C  12.64300 1.81800 26.71500
C  13.57600 1.50100 29.99100
O  12.70100 2.33800 30.23500
C  14.35000 0.63100 31.08300
C  15.13400 1.56700 31.90100
O  16.26100 1.95700 31.67600
O  14.28400 1.86800 32.99600
C  14.79100 2.86200 34.01100
H  19.18800 -4.49800 30.59200
H  17.85000 -4.76800 24.38700
H  13.62900 -0.04700 24.72400
H  17.05900 -0.57700 32.58100
H  17.69500 -3.50500 32.57600
H  19.21900 -1.51400 33.35700
H  19.57200 -1.63000 31.62100
H  19.82000 -3.04200 32.65100
H  15.59500 -3.11000 33.25400
H  14.54900 -1.98800 32.58100
H  15.31000 -2.24300 35.22300
H  14.64200 -0.82400 34.75500
H  19.84500 -7.11300 29.28100
H  20.76300 -5.59900 29.83600
H  21.21100 -6.47300 28.48400
H  20.08800 -8.11200 27.05000
H  21.45200 -7.41900 26.06800
H  20.24300 -8.46600 25.30100
H  15.90600 -3.97700 22.97600
H  14.85700 -1.33400 22.76600
H  17.50000 -3.05900 21.57600
H  18.28700 -2.30700 23.02000
H  17.13000 -1.42200 22.15400
H  12.90900 -2.52100 24.11300
H  13.83300 -3.98300 23.90100
H  12.19600 -2.58300 21.81800
H  12.78000 -4.28400 22.05500
H  13.83800 -2.93900 21.28800
H  11.78800 1.57300 27.34500
H  12.34700 1.40200 25.75300
H  12.81900 2.85500 26.42800
H  13.67800 0.14200 31.78900
H  14.96800 3.76300 33.42300
H  15.69600 2.42400 34.43100
H  14.02300 3.06900 34.75600

