158

Mg 24.83000 -6.90300 47.85600
C  27.41900 -5.01900 46.41200
C  22.79400 -5.85800 45.26700
C  22.74300 -9.56200 48.50600
C  27.34100 -8.50500 49.92200
N  25.13900 -5.61500 46.00000
C  26.25200 -4.88200 45.71300
C  25.95500 -3.86800 44.60100
C  24.37800 -3.97900 44.40600
C  24.04500 -5.15200 45.30900
C  23.53400 -2.71800 44.74800
C  26.73700 -3.95200 43.23900
C  26.96200 -2.67500 42.42200
H  25.93800 -2.27300 41.39000
N  22.95600 -7.51300 47.16000
C  22.32100 -6.97800 45.98200
C  21.03500 -7.55300 45.83900
C  21.04700 -8.69500 46.78200
C  22.26200 -8.67300 47.54100
C  19.88700 -7.14200 44.90600
C  19.87300 -9.69800 46.89500
O  19.00700 -9.67300 46.01000
C  19.70300 -10.71300 47.88400
N  24.97400 -8.59200 49.22300
C  23.92700 -9.52100 49.31000
C  24.39200 -10.76600 50.10500
C  25.73100 -10.37000 50.66600
C  26.11600 -9.15300 49.82700
C  23.34700 -11.21000 51.11500
C  26.82100 -11.51800 50.56900
C  26.32200 -12.97900 50.63000
N  26.92200 -6.70000 48.27500
C  27.75200 -7.34700 49.19500
C  29.09400 -6.81400 49.05100
C  28.98000 -5.77200 48.02900
C  27.70400 -5.89000 47.49300
C  30.19800 -7.16000 49.92100
C  29.70700 -4.77100 47.29900
O  30.84000 -4.41800 47.47000
C  28.75900 -4.23200 46.23900
C  28.72200 -2.78500 46.23700
O  29.46100 -2.06100 45.55600
O  27.91400 -2.23700 47.16900
C  27.84400 -0.79000 47.12800
H  22.03400 -5.45900 44.59300
H  22.11100 -10.44000 48.65500
H  28.19300 -8.90700 50.47500
H  26.11700 -2.88300 45.03700
H  24.16900 -4.35800 43.40600
H  22.86700 -2.88400 45.59300
H  22.85300 -2.34000 43.98500
H  24.17100 -1.87900 45.03100
H  26.18800 -4.56300 42.52300
H  27.67800 -4.39000 43.57200
H  27.99100 -2.75400 42.07000
H  26.84200 -1.78400 43.03800
H  19.13600 -6.51400 45.38500
H  19.40300 -7.97600 44.39900
H  20.24800 -6.49300 44.10800
H  18.68100 -11.04100 48.07600
H  19.92400 -10.36800 48.89400
H  20.38000 -11.56000 47.77300
H  24.52700 -11.56500 49.37600
H  25.75800 -9.93500 51.66500
H  23.67100 -11.21000 52.15600
H  23.05100 -12.22400 50.84700
H  22.39400 -10.68300 51.15000
H  27.72200 -11.39100 51.16800
H  27.10100 -11.48100 49.51600
H  25.54600 -13.14700 51.37700
H  27.18900 -13.56600 50.93500
H  26.03600 -13.24000 49.61100
H  30.31400 -8.23100 50.08700
H  30.01200 -6.73600 50.90700
H  31.07100 -6.75100 49.41200
H  29.23900 -4.51700 45.30200
H  28.87300 -0.43000 47.14900
H  27.16000 -0.42000 47.89100
H  27.45500 -0.37500 46.19800
Mg 41.68900 41.50500 26.98500
C  41.12200 43.80600 29.65800
C  42.37500 39.19500 29.52200
C  42.31700 39.29600 24.59700
C  40.87000 43.97500 24.73500
N  41.73200 41.56500 29.37700
C  41.34700 42.58000 30.17500
C  41.34700 42.19000 31.63100
C  41.98100 40.70500 31.58800
C  42.02500 40.45900 30.00900
C  43.45500 40.54300 32.17900
C  39.91500 42.23200 32.27000
C  39.69300 43.02800 33.57900
H  39.03200 42.41100 34.79800
N  42.41300 39.56400 27.09300
C  42.63000 38.77000 28.13700
C  43.22900 37.59000 27.71000
C  43.15500 37.53200 26.28100
C  42.58900 38.82600 25.92800
C  43.63500 36.48300 28.63400
C  43.53600 36.37400 25.33600
O  43.43500 36.41200 24.12200
C  44.36700 35.20900 25.84800
N  41.59000 41.58200 24.98000
C  41.89800 40.52900 24.18800
C  41.78900 40.96200 22.66900
C  41.12500 42.36000 22.71000
C  41.14000 42.69100 24.20300
C  43.20300 40.94100 22.00900
C  39.68300 42.38100 22.08700
C  38.54000 41.49700 22.81300
N  41.27300 43.43500 27.06200
C  41.01100 44.38400 26.06200
C  40.83200 45.68800 26.60700
C  40.82100 45.47600 28.00800
C  41.15000 44.14000 28.23800
C  40.66600 46.91000 25.86300
C  40.57600 46.18000 29.24400
O  40.20200 47.31900 29.41000
C  40.73500 45.09400 30.37400
C  41.69500 45.61300 31.47500
O  42.93100 45.63200 31.33400
O  41.01800 46.15600 32.55100
C  41.84800 46.62100 33.60600
H  42.60300 38.41900 30.25600
H  42.51400 38.47200 23.90900
H  40.70500 44.82400 24.06900
H  41.90900 43.01800 32.06500
H  41.36200 39.96400 32.09500
H  43.59300 41.33000 32.92000
H  44.25700 40.64800 31.44800
H  43.53000 39.56200 32.64900
H  39.70000 41.21700 32.60600
H  39.21500 42.44400 31.46200
H  39.07700 43.86200 33.24100
H  40.67500 43.39300 33.88100
H  44.54800 35.94900 28.36900
H  42.92000 35.66900 28.75800
H  43.92100 36.88900 29.60400
H  45.30500 35.61800 26.22100
H  44.54000 34.45900 25.07500
H  43.80800 34.81700 26.69800
H  41.10800 40.23100 22.23400
H  41.78700 42.98600 22.11200
H  43.65300 41.91700 21.82500
H  43.06800 40.49900 21.02200
H  43.95900 40.36000 22.53700
H  39.72300 42.07500 21.04200
H  39.37900 43.42800 22.07100
H  38.03700 40.88800 22.06200
H  37.79100 42.20100 23.17500
H  38.90600 40.80900 23.57500
H  41.31100 46.76000 24.99700
H  40.82400 47.83800 26.41200
H  39.60200 46.82400 25.64300
H  39.78100 45.10100 30.90200
H  42.86800 46.85800 33.30100
H  41.85200 46.06800 34.54500
H  41.38100 47.59600 33.74200

