158

Mg 10.36600 47.29800 25.92000
C  8.36700 47.64300 28.80400
C  12.95900 48.48900 27.66400
C  12.17400 47.07900 23.10300
C  7.38200 46.61900 24.02900
N  10.47600 48.20900 27.87700
C  9.60400 48.18200 28.93300
C  10.23700 48.73400 30.15300
C  11.56200 49.30700 29.68800
C  11.72100 48.65100 28.30500
C  11.60700 50.85600 29.64300
C  10.58400 47.68500 31.31000
C  10.19700 48.00700 32.76400
H  10.01200 46.92000 33.81800
N  12.34700 47.55800 25.46900
C  13.26600 47.97500 26.43900
C  14.56500 47.84900 25.94300
C  14.39400 47.41600 24.56500
C  12.95900 47.26200 24.31100
C  15.84900 48.14800 26.67300
C  15.50600 47.18200 23.48200
O  15.23400 46.70000 22.38800
C  16.91800 47.53000 23.90800
N  9.81600 47.14700 23.79800
C  10.82900 47.08500 22.85500
C  10.20200 46.77300 21.52300
C  8.67600 46.52100 21.84400
C  8.57900 46.76400 23.34000
C  10.50100 47.88400 20.41000
C  8.19600 45.08500 21.57400
C  8.76000 43.99600 22.52000
N  8.22900 47.17300 26.30100
C  7.22400 46.77100 25.44200
C  6.05500 46.52400 26.30200
C  6.43700 46.86800 27.65900
C  7.81200 47.19700 27.56800
C  4.68200 46.19100 25.88100
C  6.01700 46.99200 28.98900
O  4.94800 46.71300 29.44900
C  7.32900 47.35300 29.81200
C  7.62600 46.27100 30.83100
O  8.09500 45.20000 30.58100
O  7.15200 46.59800 32.08200
C  7.08900 45.43200 32.97400
H  13.77000 48.80800 28.32200
H  12.74800 46.92800 22.18600
H  6.53400 46.25500 23.44400
H  9.63600 49.52200 30.60500
H  12.38700 49.07200 30.36000
H  10.58900 51.24500 29.66200
H  12.13200 51.29300 28.79300
H  12.09700 51.19700 30.55400
H  11.63400 47.41600 31.42400
H  10.19200 46.70100 31.05600
H  9.23800 48.52000 32.70200
H  11.03000 48.64900 33.05100
H  16.64900 47.41000 26.61800
H  15.69600 48.18100 27.75200
H  16.22100 49.10500 26.30800
H  17.19200 48.53200 24.24000
H  17.51500 47.39900 23.00600
H  17.33700 46.83100 24.63200
H  10.65400 45.83700 21.19300
H  8.00300 47.19800 21.31800
H  11.14800 48.71200 20.70000
H  9.57400 48.38300 20.13000
H  10.87600 47.40400 19.50600
H  8.51600 44.77700 20.57800
H  7.10700 45.05900 21.61700
H  7.94100 43.56400 23.09600
H  9.60600 44.43100 23.05100
H  9.13900 43.19200 21.88800
H  4.18000 47.12300 25.62300
H  4.16300 45.54300 26.58800
H  4.68000 45.67500 24.92000
H  7.11200 48.31500 30.27700
H  6.18500 44.83400 32.86000
H  7.14100 45.78300 34.00500
H  7.91400 44.75400 32.75600
Mg -2.50900 34.33900 26.64500
C  -3.96200 32.60100 29.24100
C  -0.85400 36.28000 29.02200
C  -1.06100 35.98700 24.21300
C  -4.37100 32.47700 24.36500
N  -2.55500 34.41400 28.95400
C  -3.22300 33.62700 29.78500
C  -2.86700 33.84000 31.21900
C  -2.02600 35.24800 31.15100
C  -1.74100 35.35900 29.62200
C  -2.60400 36.51700 31.76800
C  -2.06500 32.68900 31.87000
C  -2.65000 32.15900 33.18900
H  -1.76600 32.32300 34.45400
N  -1.12600 35.91300 26.65900
C  -0.54200 36.51100 27.70900
C  0.40500 37.53000 27.21100
C  0.34000 37.48900 25.81400
C  -0.69500 36.46600 25.48300
C  1.24700 38.39700 28.12700
C  1.03700 38.37300 24.79600
O  0.80700 38.36400 23.59500
C  2.18200 39.25200 25.17500
N  -2.77900 34.29600 24.54700
C  -2.00800 35.05100 23.76400
C  -2.32100 34.82900 22.33600
C  -3.44800 33.74700 22.31200
C  -3.45800 33.40700 23.82200
C  -2.58700 36.05700 21.49200
C  -3.24900 32.52000 21.37000
C  -4.33500 32.03200 20.45000
N  -3.96400 32.93500 26.69400
C  -4.65900 32.28200 25.68600
C  -5.45900 31.23400 26.29800
C  -5.15200 31.27900 27.65700
C  -4.23500 32.35000 27.86600
C  -6.36100 30.17700 25.61100
C  -5.47000 30.62300 28.86400
O  -6.23600 29.71200 29.05800
C  -4.70000 31.40700 29.98200
C  -5.75500 31.87700 30.88800
O  -6.50200 32.80700 30.64100
O  -5.77800 31.14100 32.02200
C  -6.64700 31.58800 33.15700
H  -0.35500 36.81000 29.83600
H  -0.59900 36.58900 23.42800
H  -4.87700 31.84400 23.63300
H  -3.79000 34.01900 31.77000
H  -1.06800 35.07700 31.64100
H  -3.68100 36.68600 31.77100
H  -2.14500 37.38200 31.28900
H  -2.22600 36.70900 32.77200
H  -1.04500 32.93300 32.16700
H  -2.07900 31.84600 31.17900
H  -2.68200 31.07100 33.12000
H  -3.65200 32.54800 33.37100
H  1.28900 37.90400 29.09800
H  0.77700 39.37100 28.26000
H  2.25300 38.52100 27.72800
H  2.45000 39.89200 24.33500
H  2.97700 38.56500 25.46700
H  1.92300 39.94900 25.97200
H  -1.48400 34.33600 21.84000
H  -4.41700 34.20800 22.11900
H  -2.36200 36.95500 22.06700
H  -3.56900 36.02600 21.02000
H  -1.94100 35.80400 20.65100
H  -3.04400 31.62500 21.95700
H  -2.37900 32.69000 20.73600
H  -4.10400 32.33000 19.42700
H  -5.30200 32.35000 20.84000
H  -4.33000 30.94300 20.41300
H  -5.87600 29.23900 25.34000
H  -6.78000 30.56200 24.68100
H  -7.13000 29.89600 26.32900
H  -4.13900 30.66500 30.55100
H  -7.39900 32.23400 32.70500
H  -6.11800 32.19500 33.89200
H  -7.04500 30.67300 33.59700

