158

Mg 1.93900 -2.20900 44.56200
C  5.41900 -1.49000 44.28700
C  1.35800 0.93400 43.02100
C  -1.28300 -3.01200 44.37400
C  2.73100 -5.33400 45.77500
N  3.29200 -0.52900 43.60400
C  4.69400 -0.48400 43.68900
C  5.21500 0.86500 43.25900
C  3.87500 1.66900 43.00600
C  2.75900 0.64500 43.19400
C  3.68000 2.88800 43.93500
C  6.14400 0.77100 41.93200
C  5.77100 -0.33400 40.86300
H  5.41300 0.05800 39.40600
N  0.37900 -1.23100 43.67700
C  0.28200 0.01600 43.05600
C  -1.02800 0.21900 42.56300
C  -1.76200 -0.94200 42.91800
C  -0.88400 -1.80000 43.71400
C  -1.38200 1.52000 41.80100
C  -3.12900 -1.22500 42.44100
O  -3.71000 -0.36000 41.79100
C  -3.87700 -2.44600 42.64900
N  0.87400 -3.98300 44.94400
C  -0.48600 -3.99300 44.95400
C  -1.04000 -5.36900 45.29400
C  0.21800 -6.17400 45.64900
C  1.35800 -5.19400 45.42000
C  -2.31300 -5.31700 46.21700
C  0.48300 -7.51200 44.98300
C  0.39300 -8.76300 45.84400
N  3.63600 -3.25800 45.09000
C  3.82000 -4.47200 45.63900
C  5.16500 -4.71700 45.91100
C  5.88400 -3.57100 45.43900
C  4.89900 -2.67600 44.88900
C  5.76100 -5.94200 46.51400
C  7.15400 -2.93300 45.24500
O  8.30200 -3.32100 45.39100
C  6.93300 -1.58500 44.50800
C  7.32700 -0.49200 45.47100
O  6.76200 -0.36700 46.54800
O  8.29600 0.28700 44.91700
C  8.62000 1.43000 45.75900
H  1.23800 1.95800 42.66100
H  -2.32200 -3.32500 44.25000
H  2.84300 -6.35600 46.14300
H  5.81900 1.34900 44.02700
H  3.85500 1.94300 41.95100
H  3.47400 3.79200 43.36200
H  4.59700 3.03900 44.50300
H  2.91200 2.64000 44.66800
H  7.17200 0.47300 42.13700
H  6.20200 1.75000 41.45600
H  4.93400 -0.87900 41.30100
H  6.65300 -0.97500 40.85600
H  -1.36100 1.44400 40.71400
H  -0.76900 2.39300 42.02500
H  -2.37200 1.91400 42.02800
H  -4.80600 -2.63500 42.11100
H  -4.05900 -2.56900 43.71600
H  -3.21800 -3.25300 42.32700
H  -1.40700 -5.86800 44.39700
H  0.09300 -6.27900 46.72600
H  -3.10700 -5.73600 45.59900
H  -2.60800 -4.31800 46.53700
H  -2.28200 -5.93800 47.11200
H  1.51200 -7.60000 44.63300
H  -0.01900 -7.61000 44.02000
H  -0.62200 -9.14500 45.72600
H  0.47100 -8.58900 46.91700
H  1.11900 -9.49800 45.49800
H  5.78300 -6.79300 45.83400
H  5.14100 -6.04700 47.40400
H  6.79000 -5.68100 46.76200
H  7.43000 -1.57400 43.53800
H  8.42100 1.26600 46.81800
H  8.06100 2.32100 45.47500
H  9.69800 1.58900 45.72800
Mg 24.46400 -5.52200 46.43100
C  26.23900 -2.96100 44.61500
C  21.82100 -4.75500 44.48800
C  23.18600 -8.48500 47.39900
C  27.49400 -6.43300 47.97300
N  24.06000 -3.99200 44.70500
C  24.86400 -3.03700 44.22400
C  24.22300 -2.28800 43.07900
C  22.77300 -2.67400 43.28300
C  22.87200 -3.85500 44.15500
C  21.78700 -1.63800 43.87000
C  24.77700 -2.58200 41.68200
C  25.07600 -1.30300 40.88000
H  24.66200 -1.30100 39.41800
N  22.75800 -6.37800 46.00300
C  21.77800 -5.96000 45.18600
C  20.67100 -6.86400 45.19100
C  20.88700 -7.85600 46.13700
C  22.31100 -7.60800 46.56800
C  19.37900 -6.61800 44.42100
C  19.95300 -8.91800 46.47400
O  18.78700 -9.04400 46.02700
C  20.34000 -10.07500 47.42500
N  25.15000 -7.09800 47.68800
C  24.43900 -8.28200 47.86000
C  25.20300 -9.32900 48.79000
C  26.55400 -8.60000 49.00700
C  26.43800 -7.28600 48.15300
C  24.49500 -9.67100 50.14600
C  27.80700 -9.47800 48.87900
C  28.80100 -9.28700 50.09500
N  26.41500 -4.84700 46.39800
C  27.56500 -5.25000 47.08700
C  28.68700 -4.43300 46.78600
C  28.24200 -3.57900 45.78100
C  26.82800 -3.82000 45.60600
C  30.09300 -4.61200 47.34600
C  28.58000 -2.39100 44.87800
O  29.54300 -1.67900 44.76200
C  27.31000 -2.09700 44.06300
C  26.91000 -0.61500 44.08400
O  26.11800 0.01900 44.80500
O  27.67500 0.07600 43.19700
C  27.50500 1.46900 42.90800
H  20.89300 -4.35900 44.06900
H  22.84700 -9.48300 47.68500
H  28.41000 -6.80300 48.43600
H  24.33700 -1.24900 43.38700
H  22.31900 -2.90200 42.31900
H  22.29200 -0.78600 44.32600
H  21.15100 -2.02700 44.66500
H  21.16000 -1.18000 43.10500
H  24.15800 -3.24800 41.08100
H  25.74700 -3.07100 41.77200
H  26.15300 -1.29400 40.71400
H  24.70500 -0.46500 41.47000
H  18.56900 -6.20300 45.02000
H  19.06500 -7.56300 43.97600
H  19.60500 -5.99400 43.55600
H  20.87300 -9.74400 48.31600
H  21.00600 -10.75100 46.88900
H  19.51800 -10.74900 47.66600
H  25.42600 -10.26200 48.27200
H  26.48500 -8.03300 49.93500
H  25.18200 -9.33400 50.92200
H  24.56000 -10.75900 50.18500
H  23.49200 -9.25700 50.25100
H  28.36100 -9.13700 48.00400
H  27.61700 -10.54200 48.74200
H  28.48700 -8.45800 50.73000
H  29.77600 -8.95200 49.74100
H  28.96400 -10.19000 50.68300
H  30.77300 -3.85200 46.95900
H  30.24300 -5.65800 47.08000
H  30.00900 -4.60100 48.43200
H  27.72000 -2.36000 43.08800
H  27.86100 1.74100 41.91400
H  28.01600 2.06900 43.66200
H  26.47500 1.79700 43.04800

