158

Mg 24.30300 -5.47800 45.69800
C  26.52900 -3.25000 44.19100
C  21.88300 -4.52500 43.45200
C  22.46100 -8.13700 46.58400
C  27.10200 -6.74100 47.58400
N  24.18700 -3.98200 44.04400
C  25.30900 -3.29600 43.54000
C  24.87200 -2.46900 42.30700
C  23.32200 -2.78300 42.16600
C  23.07900 -3.85300 43.29200
C  22.36100 -1.63300 42.52000
C  25.68100 -2.82600 40.98000
C  26.27900 -1.57800 40.24500
H  25.79900 -1.19000 38.89500
N  22.35300 -6.06300 45.26600
C  21.52700 -5.60900 44.26900
C  20.25300 -6.40000 44.35400
C  20.40200 -7.29800 45.32100
C  21.74400 -7.16500 45.78200
C  19.10500 -6.20800 43.42100
C  19.32800 -8.29400 45.75600
O  18.22500 -8.29300 45.22300
C  19.49400 -9.39600 46.88500
N  24.76000 -7.20000 46.88700
C  23.83100 -8.23100 47.00500
C  24.46900 -9.48000 47.60600
C  25.78800 -8.90300 48.25300
C  25.96600 -7.58900 47.49700
C  23.64300 -10.16800 48.80500
C  27.04600 -9.86800 48.11200
C  27.65100 -10.40600 49.40700
N  26.36700 -5.06600 46.00000
C  27.33700 -5.51000 46.87000
C  28.58000 -4.86300 46.57200
C  28.26300 -3.98000 45.54400
C  26.91500 -4.11500 45.24600
C  29.86100 -5.22900 47.12200
C  28.84400 -3.00300 44.68900
O  30.06100 -2.69700 44.60100
C  27.68700 -2.44200 43.83900
C  27.69400 -0.94600 44.12000
O  27.20000 -0.42400 45.10400
O  28.38600 -0.25700 43.14200
C  28.80900 1.12900 43.29600
H  21.15400 -4.29900 42.67100
H  21.86700 -9.04400 46.71300
H  28.02500 -7.06000 48.07200
H  25.06000 -1.42300 42.55000
H  23.10600 -3.15200 41.16300
H  22.69400 -0.69500 42.07400
H  22.41500 -1.38400 43.57900
H  21.40000 -1.92300 42.09600
H  25.08900 -3.37800 40.25000
H  26.48700 -3.45400 41.36000
H  27.35900 -1.70400 40.16900
H  26.02500 -0.78600 40.95100
H  18.99500 -7.11900 42.83400
H  19.43500 -5.38400 42.78800
H  18.26500 -5.87000 44.02700
H  18.47500 -9.48000 47.26200
H  20.07700 -8.92800 47.67900
H  19.84900 -10.37300 46.55800
H  24.81200 -10.09200 46.77200
H  25.61600 -8.70600 49.31100
H  23.15800 -11.10700 48.53700
H  22.96200 -9.37900 49.12500
H  24.33700 -10.31400 49.63200
H  27.80900 -9.41500 47.48000
H  26.75200 -10.71900 47.49800
H  27.45300 -9.79000 50.28400
H  28.70200 -10.67500 49.30600
H  27.20800 -11.32300 49.79500
H  29.85700 -4.87300 48.15200
H  30.66800 -4.62400 46.70900
H  30.14100 -6.26700 46.93900
H  28.04900 -2.59000 42.82100
H  27.95900 1.74200 42.99300
H  29.62400 1.43100 42.63900
H  29.17800 1.61100 44.20000
Mg 30.92000 58.23400 40.06000
C  28.15800 56.52400 38.87400
C  32.90700 55.59700 39.13500
C  33.52300 60.24200 40.47300
C  28.86100 61.19600 40.24800
N  30.59500 56.28900 38.97400
C  29.38100 55.74800 38.78200
C  29.48600 54.18300 38.45600
C  31.05700 53.87200 38.74500
C  31.61500 55.36400 38.96800
C  31.15300 52.92200 39.91500
C  29.00600 53.75300 37.01100
C  29.73100 54.53500 35.82700
H  28.75600 55.36300 34.96000
N  32.92400 57.93200 39.89900
C  33.53100 56.81900 39.52200
C  34.96200 57.03800 39.51200
C  35.20700 58.35900 39.87300
C  33.89300 58.90100 40.16600
C  36.05000 56.01800 39.29800
C  36.60300 59.01100 39.97900
O  37.58500 58.34000 39.67100
C  36.82900 60.35700 40.52400
N  31.14300 60.48600 40.37600
C  32.38000 60.99500 40.56500
C  32.31600 62.49900 40.95500
C  30.75900 62.80400 40.75200
C  30.19800 61.40600 40.53200
C  32.93500 62.89900 42.34500
C  30.39500 63.75000 39.58700
C  30.32600 65.26500 39.79300
N  28.88600 58.75300 39.83400
C  28.28700 59.95500 39.88000
C  26.92700 59.75200 39.66600
C  26.77700 58.42500 39.34500
C  28.04700 57.86400 39.28500
C  25.79300 60.78600 39.68400
C  25.86100 57.32500 38.94800
O  24.61600 57.28200 38.78900
C  26.74200 56.05800 38.77100
C  26.51800 54.94700 39.76000
O  27.17500 54.71200 40.79600
O  25.56100 54.06400 39.27200
C  25.21400 52.98500 40.20700
H  33.47300 54.66700 39.04100
H  34.40200 60.86000 40.66600
H  28.18600 62.05200 40.30800
H  28.89900 53.66700 39.21500
H  31.61000 53.41400 37.92600
H  30.19300 52.69200 40.37700
H  31.62600 53.49900 40.71000
H  31.67500 52.00100 39.65300
H  27.94100 53.77700 36.78000
H  29.34300 52.72400 36.88700
H  30.22700 53.83700 35.15300
H  30.37100 55.28600 36.29000
H  36.73600 56.35600 38.52100
H  35.72300 54.97900 39.25600
H  36.66700 56.04100 40.19600
H  36.31600 60.55000 41.46600
H  36.60000 61.04600 39.71100
H  37.89900 60.42300 40.72000
H  32.79500 63.16300 40.23600
H  30.38200 63.25200 41.67200
H  32.21400 62.98600 43.15800
H  33.62800 63.73400 42.24800
H  33.59100 62.07000 42.61000
H  29.48100 63.43500 39.08400
H  31.09300 63.53300 38.77900
H  29.50400 65.71200 39.23400
H  31.23600 65.73900 39.42400
H  30.06800 65.44900 40.83600
H  26.20700 61.75300 39.39800
H  25.38300 60.86300 40.69100
H  25.08500 60.45400 38.92500
H  26.55000 55.69300 37.76200
H  24.40600 53.36100 40.83500
H  26.05900 52.63900 40.80300
H  24.94500 52.17500 39.52900

