158

Mg 43.24500 3.46400 46.98600
C  41.18300 6.23800 46.95800
C  40.33400 1.43200 47.26700
C  45.13800 0.73200 46.24500
C  46.03800 5.53300 46.40600
N  40.98400 3.80300 47.08100
C  40.45800 5.05900 47.09600
C  38.91700 4.98300 47.25000
C  38.70400 3.44000 47.77300
C  40.03000 2.79900 47.23600
C  38.58800 3.32100 49.29000
C  37.97900 5.24400 45.96600
C  38.61300 4.92700 44.60500
H  39.00800 5.99200 43.56300
N  42.82100 1.41700 46.75200
C  41.55100 0.73300 47.00600
C  41.72200 -0.69700 46.70300
C  43.10000 -0.88000 46.20600
C  43.75500 0.43500 46.34100
C  40.58700 -1.72300 46.82300
C  43.66100 -2.11800 45.63900
O  43.14300 -3.24700 45.69800
C  44.97900 -2.13600 44.83600
N  45.28500 3.11900 46.41600
C  45.80200 1.92600 46.27400
C  47.36500 1.92600 46.12800
C  47.74700 3.50500 46.20400
C  46.26000 4.14200 46.23700
C  48.15200 1.03700 47.15600
C  48.74200 4.06000 45.13000
C  49.99600 3.28000 44.74200
N  43.62200 5.48700 46.80400
C  44.78100 6.19000 46.46200
C  44.47800 7.58800 46.56000
C  43.11000 7.58800 46.77800
C  42.58000 6.36300 46.85700
C  45.37200 8.65000 46.41100
C  41.95600 8.51100 46.92300
O  41.96400 9.75900 46.96900
C  40.69500 7.70100 47.00300
C  39.97100 8.11200 48.21200
O  40.08400 7.64800 49.33600
O  39.16700 9.18800 47.91100
C  38.53900 9.71800 49.13200
H  39.39300 0.90000 47.41800
H  45.76100 -0.16200 46.16500
H  46.92900 6.14700 46.26100
H  38.69500 5.77900 47.96100
H  37.78600 3.01400 47.36900
H  38.61600 4.27900 49.81000
H  39.53600 2.85500 49.56000
H  37.74900 2.73400 49.66400
H  37.75000 6.31000 45.97900
H  37.03600 4.75000 46.20100
H  37.80300 4.28600 44.26000
H  39.50900 4.33400 44.78700
H  40.79500 -2.38500 47.66400
H  40.66200 -2.35500 45.93800
H  39.56900 -1.38500 47.01200
H  45.78900 -2.41300 45.51100
H  45.22500 -1.17700 44.38100
H  45.05500 -2.89200 44.05500
H  47.57800 1.61200 45.10600
H  48.07800 3.68900 47.22600
H  47.51900 0.63000 47.94400
H  49.04500 1.45700 47.61800
H  48.44200 0.08100 46.71900
H  49.12200 5.04700 45.39400
H  48.10600 4.26100 44.26700
H  50.07700 2.45600 45.45100
H  50.83200 3.96400 44.88600
H  50.19200 2.97600 43.71400
H  44.97500 9.53500 46.90700
H  45.47100 8.72500 45.32800
H  46.39400 8.44600 46.73200
H  40.16000 8.00900 46.10500
H  38.01100 10.56400 48.69300
H  39.14500 9.87800 50.02400
H  37.82200 8.91700 49.31400
Mg 9.71000 48.04900 26.62600
C  7.66300 48.19100 29.51800
C  12.19000 49.58400 28.53600
C  11.54800 48.02400 23.91100
C  6.83100 47.49800 24.71700
N  9.88100 48.88500 28.81000
C  8.97800 48.55300 29.77100
C  9.61200 48.91300 31.15300
C  10.76200 49.88700 30.74500
C  11.00100 49.43400 29.32000
C  10.43800 51.40400 30.90500
C  10.14800 47.72400 32.00500
C  9.92000 47.98700 33.48200
H  9.69900 46.81100 34.40700
N  11.62200 48.55800 26.31100
C  12.53500 49.09700 27.25100
C  13.86900 49.03600 26.59000
C  13.71000 48.65400 25.26100
C  12.22700 48.38800 25.06900
C  15.06600 49.38500 27.36900
C  14.79200 48.56100 24.15100
O  14.49000 48.29600 22.95900
C  16.21000 48.76200 24.48900
N  9.23000 47.99300 24.61100
C  10.16500 47.98300 23.65200
C  9.56500 47.76200 22.25300
C  8.09000 47.49100 22.46300
C  8.06400 47.57700 24.07100
C  9.78200 48.95300 21.26700
C  7.46600 46.18200 21.91300
C  7.41400 46.06700 20.39600
N  7.67500 47.82500 26.99700
C  6.59500 47.64200 26.08400
C  5.31800 47.56300 26.81900
C  5.74400 47.86100 28.13300
C  7.12700 47.96600 28.24900
C  3.99200 47.13300 26.28500
C  5.28900 47.93300 29.54800
O  4.18000 47.96300 30.10200
C  6.53900 48.02200 30.45300
C  6.58200 46.76700 31.31200
O  7.48000 45.92700 31.25100
O  5.54000 46.65800 32.15400
C  5.61000 45.73400 33.27900
H  12.99700 50.06700 29.09100
H  12.16300 47.82300 23.03100
H  5.91700 47.42700 24.12300
H  8.94600 49.50700 31.77900
H  11.66300 49.64600 31.30900
H  10.02000 51.67500 31.87500
H  9.74600 51.60600 30.08800
H  11.30500 51.99200 30.60200
H  11.22100 47.67600 31.81700
H  9.72000 46.75400 31.74800
H  9.00700 48.58200 33.51000
H  10.70900 48.58800 33.93300
H  15.78800 48.57200 27.29300
H  15.01500 49.56900 28.44200
H  15.44900 50.35900 27.06300
H  16.23400 49.72000 25.00900
H  16.83700 48.96400 23.62000
H  16.62200 47.95400 25.09500
H  10.01200 46.84800 21.85900
H  7.44900 48.30600 22.12700
H  8.86900 49.26400 20.75800
H  10.49800 48.61800 20.51700
H  10.33000 49.83000 21.61100
H  6.46100 45.99200 22.29100
H  8.03900 45.39600 22.40400
H  6.44800 45.61900 20.16200
H  8.09300 45.25200 20.14600
H  7.59900 46.96800 19.81200
H  3.60900 48.00900 25.76200
H  3.27600 46.98500 27.09400
H  4.12500 46.18900 25.75800
H  6.43200 48.92300 31.05600
H  6.44800 45.03700 33.27900
H  4.65300 45.23700 33.43700
H  5.83600 46.48400 34.03700

