158

Mg 9.43100 48.77700 26.06900
C  7.32500 48.68100 28.84800
C  11.81000 50.14600 27.95200
C  11.09300 49.04600 23.32000
C  6.41600 48.10500 24.13600
N  9.35900 49.52800 28.12300
C  8.54200 49.22600 29.13800
C  9.03800 49.67300 30.50700
C  10.36100 50.31800 30.13700
C  10.60600 49.94600 28.63300
C  10.44900 51.84700 30.40200
C  9.22900 48.61800 31.66100
C  8.25500 48.86500 32.78200
H  8.80100 49.65100 33.96800
N  11.27100 49.36500 25.74900
C  12.18600 49.83700 26.62500
C  13.47900 49.76900 25.94800
C  13.27800 49.48200 24.55400
C  11.84700 49.30100 24.50400
C  14.73500 50.00200 26.75000
C  14.23000 49.38700 23.37200
O  13.87500 49.36100 22.17800
C  15.76300 49.56500 23.58400
N  8.81200 48.79100 24.04800
C  9.71300 48.90100 23.05000
C  9.20900 48.60100 21.63500
C  7.71100 48.17400 22.02900
C  7.61500 48.40700 23.50800
C  9.28300 49.73100 20.55800
C  7.29400 46.70000 21.57100
C  7.43100 45.55600 22.52400
N  7.28600 48.45400 26.39500
C  6.20300 48.17500 25.56600
C  5.03900 47.92800 26.29400
C  5.47300 48.06100 27.63800
C  6.81900 48.44000 27.60900
C  3.66200 47.53600 25.71600
C  4.94600 48.14600 28.99200
O  3.81100 47.94300 29.39900
C  6.20400 48.44800 29.86200
C  6.38200 47.15400 30.58500
O  7.07000 46.22500 30.17600
O  5.73800 47.08500 31.83500
C  6.04400 45.83300 32.59200
H  12.60200 50.57100 28.57200
H  11.62600 48.88800 22.38000
H  5.60400 47.71900 23.51600
H  8.32000 50.43900 30.80000
H  11.17400 49.94300 30.75800
H  9.65500 52.12100 31.09700
H  10.27100 52.37700 29.46600
H  11.44100 52.15700 30.72900
H  10.21500 48.55900 32.12200
H  8.99700 47.65300 31.20900
H  7.84600 47.91300 33.12200
H  7.38600 49.30700 32.29600
H  14.54500 49.80800 27.80600
H  15.01000 51.01900 26.47000
H  15.67200 49.48400 26.54300
H  15.86800 48.83700 24.38800
H  16.02200 50.58700 23.86300
H  16.33700 49.30900 22.69400
H  9.63500 47.71200 21.17000
H  6.98400 48.82800 21.55000
H  9.65300 50.68200 20.94100
H  8.27700 49.93500 20.19300
H  9.94500 49.41300 19.75200
H  7.63800 46.44000 20.56900
H  6.23100 46.79500 21.35300
H  8.18000 45.67500 23.30600
H  7.57900 44.66100 21.91900
H  6.45200 45.30800 22.93500
H  3.68900 47.19800 24.68000
H  3.04300 48.43300 25.69400
H  3.18400 46.85700 26.42200
H  6.00500 49.15600 30.66600
H  5.41500 45.06900 32.13600
H  5.69600 45.95300 33.61800
H  7.08000 45.50600 32.68400
Mg -2.30900 34.95800 27.12000
C  -4.01800 33.27200 29.76400
C  -0.77600 36.88500 29.49500
C  -0.70000 36.65100 24.64700
C  -4.18700 33.20600 24.85300
N  -2.40000 35.09700 29.48800
C  -3.13600 34.22700 30.32300
C  -2.86900 34.54000 31.80900
C  -2.03100 35.93000 31.68600
C  -1.67500 35.97400 30.15700
C  -2.73600 37.23600 32.06400
C  -1.99400 33.37200 32.48400
C  -2.68300 32.79000 33.78900
H  -1.79900 32.66800 35.07700
N  -0.84300 36.47800 27.06300
C  -0.41600 37.18200 28.13600
C  0.54800 38.15400 27.68900
C  0.66000 38.06700 26.31900
C  -0.26400 37.00100 25.96800
C  1.23000 39.10500 28.65100
C  1.56500 38.80200 25.33000
O  1.73800 38.36200 24.22500
C  2.40400 39.99000 25.82400
N  -2.48100 35.00100 25.02700
C  -1.64600 35.73400 24.20100
C  -1.92900 35.49300 22.75900
C  -2.99100 34.34100 22.77900
C  -3.34000 34.15200 24.28600
C  -2.44100 36.76600 21.95000
C  -2.63200 32.98500 22.10300
C  -1.44300 32.22200 22.74500
N  -3.84400 33.63000 27.23100
C  -4.51200 32.94700 26.18100
C  -5.29500 31.88600 26.67300
C  -5.04500 32.02500 28.07300
C  -4.24100 33.08300 28.36600
C  -6.16800 30.87800 25.98900
C  -5.45700 31.35600 29.29600
O  -6.27200 30.45900 29.43600
C  -4.88000 32.17600 30.45600
C  -5.97200 32.49700 31.42700
O  -6.84100 33.28900 31.14700
O  -5.96400 31.67400 32.52500
C  -7.02300 31.71200 33.50200
H  -0.13600 37.40100 30.21300
H  -0.23900 37.19600 23.82100
H  -4.67600 32.52600 24.15400
H  -3.84900 34.73300 32.24500
H  -1.14200 35.85300 32.31200
H  -3.16700 37.75500 31.20700
H  -2.07100 37.90300 32.61300
H  -3.54200 36.99900 32.75900
H  -1.02800 33.68700 32.87900
H  -1.90600 32.56000 31.76200
H  -2.97000 31.76400 33.56000
H  -3.61300 33.34200 33.92600
H  0.83000 40.07500 28.35600
H  2.31500 39.06800 28.54700
H  0.95200 38.90800 29.68600
H  1.80000 40.66200 26.43300
H  2.86500 40.49200 24.97300
H  3.23300 39.52800 26.36000
H  -1.09100 35.12400 22.16800
H  -3.86100 34.74400 22.26100
H  -3.45500 36.58500 21.59400
H  -1.71000 37.03200 21.18700
H  -2.35200 37.63700 22.59900
H  -2.41900 33.22800 21.06200
H  -3.56100 32.41600 22.12500
H  -0.75800 32.00300 21.92700
H  -1.90800 31.28400 23.05100
H  -0.92400 32.65900 23.59900
H  -7.08100 30.60900 26.52000
H  -5.63800 30.02800 25.55700
H  -6.55200 31.45200 25.14700
H  -4.08000 31.60000 30.92200
H  -6.75500 32.42700 34.28000
H  -7.26500 30.75700 33.96800
H  -7.89400 32.18700 33.05000

