158

Mg -1.13000 17.41800 26.16800
C  -1.78900 14.86600 28.61800
C  -2.03800 19.70300 28.60500
C  -1.32900 19.81600 23.69400
C  -1.41900 14.97400 23.64200
N  -1.84200 17.19700 28.32600
C  -1.80100 16.09700 29.20100
C  -1.70700 16.44500 30.62300
C  -2.03200 17.95700 30.56100
C  -1.95000 18.32900 29.06400
C  -3.39400 18.28700 31.24500
C  -0.49400 16.04400 31.44800
C  -0.00600 16.89200 32.61400
H  0.25200 16.22900 33.95300
N  -1.37500 19.42600 26.20200
C  -1.71100 20.18100 27.26400
C  -1.93600 21.56400 26.91700
C  -1.83200 21.63000 25.50900
C  -1.41000 20.25800 25.05900
C  -2.31800 22.74800 27.86100
C  -2.16500 22.72500 24.58400
O  -2.15300 22.58300 23.38100
C  -2.28400 24.14500 25.15700
N  -1.21200 17.40300 23.96400
C  -1.23000 18.49100 23.18800
C  -1.17200 18.09900 21.70200
C  -1.57700 16.67900 21.76100
C  -1.36600 16.27300 23.20800
C  -2.07600 18.94100 20.73800
C  -0.71600 15.91500 20.78600
C  -1.43900 15.12800 19.65200
N  -1.45600 15.36600 26.07400
C  -1.47100 14.53000 25.00500
C  -1.61900 13.13500 25.46600
C  -1.64800 13.22700 26.87800
C  -1.63800 14.63000 27.20200
C  -1.80600 11.99900 24.67100
C  -1.80300 12.42400 28.06400
O  -1.85200 11.24700 28.25900
C  -1.97300 13.42200 29.22500
C  -0.76000 13.16600 30.08300
O  0.32000 13.61500 29.87200
O  -0.98900 12.28000 31.11700
C  -0.07000 12.20300 32.24600
H  -2.13400 20.43800 29.40700
H  -1.20200 20.56800 22.91200
H  -1.48400 14.23200 22.84300
H  -2.54400 15.97700 31.14100
H  -1.25800 18.63800 30.91500
H  -3.99400 19.02400 30.70900
H  -3.34000 18.57400 32.29500
H  -4.14600 17.50000 31.29800
H  0.33100 15.94300 30.74300
H  -0.72900 15.04100 31.80500
H  -0.76200 17.66600 32.74700
H  0.95400 17.36500 32.40500
H  -1.54900 23.48400 28.09900
H  -2.61200 22.32700 28.82300
H  -3.19500 23.29600 27.51700
H  -3.23500 24.26000 25.67700
H  -2.24900 24.89800 24.36900
H  -1.46000 24.37700 25.83200
H  -0.10300 18.18500 21.50900
H  -2.60400 16.44800 21.47700
H  -2.74300 19.56700 21.33100
H  -2.61700 18.21900 20.12600
H  -1.44800 19.61400 20.15300
H  -0.21000 15.07600 21.26400
H  0.01800 16.58400 20.33600
H  -1.21300 14.06300 19.67900
H  -1.08700 15.52000 18.69800
H  -2.51400 15.31100 19.63700
H  -2.15000 11.29500 25.42900
H  -0.92100 11.45400 24.34000
H  -2.50400 12.24000 23.86900
H  -2.92400 13.31900 29.74900
H  0.08900 11.12700 32.31300
H  -0.68900 12.57700 33.06200
H  0.85200 12.76700 32.10400
Mg 43.11000 41.95900 25.74100
C  41.98200 44.17200 27.96400
C  44.03600 39.71400 28.27900
C  43.83600 39.44600 23.44800
C  42.16500 44.07700 23.16300
N  43.04700 41.98500 27.84300
C  42.45800 42.99800 28.57400
C  42.46500 42.64000 30.03000
C  43.40800 41.32600 30.09300
C  43.60500 40.97900 28.62300
C  44.77900 41.40400 30.74900
C  40.96800 42.49400 30.53400
C  40.56000 43.02600 31.97300
H  41.53300 42.80500 33.22700
N  43.95700 39.88400 25.85100
C  44.14400 39.18800 26.94100
C  44.61300 37.86800 26.60300
C  44.60600 37.78700 25.20300
C  44.17400 39.08100 24.74300
C  44.95500 36.90000 27.67300
C  44.88900 36.59900 24.32500
O  44.86300 36.66400 23.12100
C  45.44000 35.27700 24.83900
N  42.96400 41.78800 23.58300
C  43.39600 40.68300 22.86200
C  43.32600 40.94100 21.36900
C  42.64900 42.42300 21.28600
C  42.60200 42.79000 22.77400
C  44.73000 40.75400 20.72100
C  41.21300 42.45000 20.62600
C  40.04000 41.78000 21.42500
N  42.38500 43.86300 25.48900
C  41.99200 44.62900 24.43000
C  41.55200 45.91800 24.85400
C  41.42000 45.82400 26.31200
C  41.96900 44.53100 26.59200
C  41.19000 47.05500 23.95700
C  40.93400 46.32700 27.51900
O  40.32300 47.41200 27.63400
C  41.31000 45.35300 28.60900
C  42.09700 46.10300 29.66800
O  43.30600 46.02800 29.75900
O  41.25500 46.65400 30.62400
C  41.89800 47.07300 31.88700
H  44.08400 39.04900 29.14400
H  44.02300 38.71400 22.66000
H  41.74600 44.78100 22.44100
H  42.93200 43.35600 30.70700
H  42.75700 40.55500 30.50400
H  44.72400 40.70700 31.58600
H  44.97300 42.40200 31.14100
H  45.57300 41.26600 30.01500
H  40.81900 41.42100 30.65800
H  40.26300 42.87800 29.79600
H  39.56900 42.65100 32.23100
H  40.42800 44.10200 31.86000
H  45.45700 37.49200 28.43900
H  45.54400 35.99700 27.51500
H  43.92500 36.69200 27.96100
H  45.10100 34.93000 25.81500
H  46.49900 35.53700 24.84100
H  45.23700 34.44300 24.16700
H  42.67100 40.30700 20.77200
H  43.28100 43.14600 20.77100
H  45.45800 40.37500 21.43800
H  45.07700 41.72400 20.36500
H  44.59800 40.05900 19.89200
H  41.09200 41.88400 19.70200
H  40.95400 43.46200 20.31700
H  39.38300 41.16700 20.80800
H  39.51100 42.59400 21.92200
H  40.49900 41.06000 22.10200
H  40.23900 46.96900 23.43100
H  41.94800 47.14800 23.17900
H  41.27100 48.03200 24.43400
H  40.33600 45.08400 29.01900
H  42.07800 46.24000 32.56600
H  41.43200 47.90100 32.42100
H  42.84800 47.51500 31.58800

