158

Mg -1.98300 17.14900 27.32100
C  -2.58700 14.98900 29.94100
C  -2.54200 19.80600 29.37900
C  -1.98700 19.19900 24.56400
C  -1.94600 14.37300 25.07500
N  -2.53300 17.25800 29.42300
C  -2.67700 16.27800 30.32900
C  -2.99100 16.84400 31.73700
C  -3.11800 18.40200 31.41900
C  -2.69700 18.56000 29.94400
C  -4.45200 19.07600 31.79900
C  -2.11100 16.41400 32.96900
C  -2.71800 15.77900 34.27000
H  -1.90100 15.78100 35.51400
N  -2.00600 19.16900 27.00000
C  -2.23500 20.09300 27.99300
C  -2.16900 21.44800 27.45000
C  -1.89800 21.34300 26.04400
C  -1.97700 19.84700 25.81000
C  -2.36900 22.70700 28.26800
C  -1.66100 22.39800 25.02100
O  -1.55800 22.25600 23.82700
C  -1.36800 23.83200 25.57000
N  -2.17800 16.85500 25.11500
C  -2.05000 17.83100 24.20500
C  -1.73800 17.41500 22.80100
C  -1.53700 15.89100 23.01100
C  -1.97300 15.67000 24.48600
C  -2.82500 17.83200 21.73800
C  -0.05800 15.48300 22.68300
C  0.93100 15.11600 23.75100
N  -2.26900 15.16900 27.40100
C  -2.15700 14.15900 26.43900
C  -2.26900 12.87000 27.09100
C  -2.45700 13.16900 28.43700
C  -2.52400 14.60000 28.57600
C  -2.13400 11.53900 26.48200
C  -2.62100 12.51900 29.68800
O  -2.61200 11.32700 29.99300
C  -2.68000 13.66400 30.69600
C  -1.64700 13.35700 31.65900
O  -0.40600 13.53100 31.45400
O  -2.14900 12.73200 32.75100
C  -1.11900 12.16600 33.63500
H  -2.65100 20.66900 30.04000
H  -1.96600 19.89900 23.72700
H  -1.68000 13.55700 24.39900
H  -3.96500 16.38700 31.91200
H  -2.36300 18.94000 31.99200
H  -4.32500 19.79300 32.61000
H  -5.18800 18.29100 31.97100
H  -4.85300 19.55400 30.90500
H  -1.71000 17.31100 33.44100
H  -1.15800 15.98100 32.66700
H  -2.92600 14.75300 33.96800
H  -3.71000 16.17600 34.48600
H  -2.69700 22.48700 29.28400
H  -3.15500 23.22800 27.72100
H  -1.49100 23.34600 28.35600
H  -0.93400 24.43200 24.77000
H  -0.59900 23.63600 26.31700
H  -2.28000 24.27300 25.97200
H  -0.86500 17.98800 22.48700
H  -2.16000 15.26100 22.37600
H  -3.20100 16.95700 21.20900
H  -2.25900 18.46600 21.05600
H  -3.51300 18.52400 22.22600
H  0.41700 16.26000 22.08300
H  -0.18000 14.64700 21.99400
H  0.46700 14.71300 24.65100
H  1.70600 15.84700 23.98300
H  1.39600 14.27700 23.23200
H  -1.11100 11.16700 26.44400
H  -2.58500 11.53800 25.49000
H  -2.76100 10.91300 27.11600
H  -3.63300 13.47500 31.19100
H  -0.79500 12.97700 34.28800
H  -0.29000 11.76300 33.05400
H  -1.63800 11.45300 34.27500
Mg 36.10000 50.30500 25.64400
C  35.96700 48.33200 28.55400
C  34.42300 52.72900 27.59800
C  36.00200 52.07900 22.93800
C  37.19400 47.40900 23.85600
N  35.19600 50.45100 27.83000
C  35.46200 49.59100 28.82500
C  35.00800 50.15800 30.13700
C  34.15300 51.37200 29.74400
C  34.52500 51.47200 28.23700
C  32.59800 51.24800 30.13800
C  36.19900 50.63500 30.99600
C  36.46700 49.75300 32.25800
H  35.16800 49.38300 33.05500
N  35.31800 52.19000 25.28100
C  34.75900 53.05200 26.21500
C  34.65000 54.34500 25.62200
C  35.08400 54.24100 24.21300
C  35.48600 52.80600 24.07000
C  34.20300 55.52800 26.42500
C  35.08100 55.28100 23.09900
O  35.54300 54.97200 21.97900
C  34.60300 56.69500 23.38800
N  36.30600 49.76600 23.61600
C  36.32800 50.74200 22.73200
C  36.91100 50.25600 21.40400
C  37.46200 48.85600 21.73200
C  36.91900 48.58300 23.16400
C  35.99900 50.34400 20.16100
C  38.95000 48.62200 21.58900
C  39.39000 47.92800 20.31700
N  36.53500 48.29400 26.02900
C  36.97000 47.22900 25.24300
C  37.26900 46.07300 26.06200
C  36.81300 46.45500 27.33800
C  36.46100 47.82800 27.31900
C  37.77400 44.67000 25.64200
C  36.63500 46.02200 28.70700
O  36.74200 44.86500 29.07100
C  36.15300 47.21200 29.56800
C  34.96500 46.75700 30.30800
O  33.81000 46.79600 29.88100
O  35.33900 46.24100 31.51300
C  34.36200 45.33400 32.14500
H  34.02700 53.54400 28.20800
H  36.23300 52.65400 22.03800
H  37.73300 46.65500 23.27900
H  34.31000 49.49400 30.64600
H  34.63000 52.28400 30.10200
H  32.25100 50.22200 30.25900
H  32.01600 51.65500 29.31100
H  32.37400 51.91100 30.97400
H  36.15600 51.65600 31.37700
H  37.07300 50.53500 30.35200
H  37.19800 50.23800 32.90600
H  36.98900 48.92900 31.77200
H  33.60500 55.15600 27.25700
H  33.46000 56.09600 25.86500
H  35.04300 56.12100 26.78600
H  35.31300 57.24800 24.00300
H  33.60800 56.69600 23.83400
H  34.47000 57.23100 22.44800
H  37.74000 50.94700 21.25200
H  36.95100 48.10400 21.13100
H  36.48100 51.08300 19.52100
H  35.06900 50.71700 20.59000
H  35.96900 49.40400 19.61200
H  39.27800 47.98400 22.40900
H  39.48800 49.52900 21.86300
H  39.28200 48.69700 19.55200
H  38.84100 46.99500 20.19200
H  40.43000 47.61200 20.40300
H  38.50100 44.35600 26.39100
H  38.25700 44.71200 24.66600
H  37.03700 43.86800 25.65200
H  36.91900 47.38500 30.32400
H  34.92700 44.76100 32.88000
H  33.98100 44.60600 31.42800
H  33.51200 45.85100 32.58900

