158

Mg 2.44800 -1.45900 44.17600
C  5.78700 -0.31900 43.96600
C  1.54200 1.41500 42.48700
C  -0.60400 -2.75600 43.71300
C  3.65100 -4.55300 45.29000
N  3.51600 0.28000 43.34300
C  4.86800 0.57800 43.42200
C  5.26300 1.85600 42.61200
C  3.90600 2.53000 42.42800
C  2.89500 1.30800 42.78700
C  3.55900 3.88600 43.20900
C  5.97500 1.42400 41.29600
C  7.20800 2.24200 40.85800
H  6.94200 3.32300 39.81300
N  0.68200 -0.64500 43.36400
C  0.53400 0.49800 42.69700
C  -0.80100 0.56800 42.33300
C  -1.52100 -0.52200 42.74900
C  -0.45700 -1.31700 43.32100
C  -1.39500 1.86300 41.74500
C  -3.03900 -0.69300 42.56400
O  -3.72700 0.16100 42.02400
C  -3.79000 -1.79900 43.27000
N  1.66700 -3.41000 44.51000
C  0.33400 -3.64700 44.24200
C  0.00700 -5.16900 44.60200
C  1.30100 -5.65200 45.35800
C  2.25300 -4.44200 45.12400
C  -1.28100 -5.35700 45.41700
C  1.85000 -7.08000 44.85100
C  2.26700 -8.09800 45.90400
N  4.35100 -2.33200 44.59800
C  4.61600 -3.60600 45.02700
C  6.06100 -3.61300 45.28100
C  6.58500 -2.36700 44.83200
C  5.50800 -1.66000 44.34300
C  6.83200 -4.75500 45.94300
C  7.76300 -1.48200 44.74700
O  8.98400 -1.74400 44.88600
C  7.30100 -0.21300 43.93600
C  7.85100 0.89800 44.73900
O  7.46900 1.11900 45.85000
O  8.78300 1.58200 44.03000
C  9.20700 2.88500 44.63800
H  1.38300 2.33900 41.92800
H  -1.49400 -3.36800 43.55500
H  3.97700 -5.52700 45.66100
H  5.90500 2.57600 43.11900
H  3.74000 2.73500 41.37000
H  3.00100 4.57900 42.57900
H  4.50700 4.32700 43.51700
H  3.00500 3.69800 44.12900
H  5.21100 1.47200 40.52000
H  6.40500 0.42400 41.34800
H  8.00400 1.53700 40.61700
H  7.60000 2.87400 41.65500
H  -1.74400 1.55300 40.76100
H  -0.62900 2.60700 41.52400
H  -2.08800 2.30100 42.46400
H  -4.86400 -1.63600 43.18400
H  -3.45600 -1.77100 44.30700
H  -3.53300 -2.70500 42.72000
H  -0.11500 -5.77400 43.70300
H  1.17600 -5.60500 46.44000
H  -1.94500 -6.08100 44.94400
H  -1.82700 -4.44700 45.66600
H  -0.98200 -5.81600 46.35900
H  2.68000 -6.92300 44.16200
H  1.08500 -7.58600 44.26100
H  1.69600 -9.02500 45.86000
H  1.88700 -7.72000 46.85300
H  3.34600 -8.12200 45.74900
H  6.19600 -5.31800 46.62700
H  7.69700 -4.37200 46.48400
H  7.15300 -5.48400 45.19900
H  7.70900 -0.13200 42.92800
H  8.27900 3.45600 44.63600
H  10.03000 3.40500 44.14600
H  9.35000 2.89600 45.71900
Mg -10.57600 39.94300 39.81100
C  -9.59400 36.83700 39.00400
C  -7.62200 41.23600 38.76600
C  -11.91600 43.06100 39.99100
C  -13.86700 38.61700 40.11300
N  -8.83000 39.14600 38.99000
C  -8.62200 37.77900 38.76500
C  -7.24700 37.56900 38.13500
C  -6.48400 38.93900 38.48900
C  -7.71200 39.82500 38.82800
C  -5.45700 38.84400 39.66300
C  -7.48800 37.48200 36.54100
C  -6.98800 36.15800 35.89100
H  -8.00100 35.62200 34.77400
N  -9.87000 41.87500 39.50800
C  -8.58400 42.19800 39.10400
C  -8.43600 43.66100 39.13700
C  -9.68400 44.22900 39.45000
C  -10.56200 43.04900 39.72200
C  -7.00600 44.29000 38.71000
C  -9.90400 45.66900 39.48300
O  -9.01700 46.50800 39.32800
C  -11.34300 46.33400 39.64900
N  -12.70200 40.70600 39.82500
C  -12.94300 42.09300 40.01800
C  -14.48000 42.40100 40.23500
C  -15.06800 40.92600 40.24000
C  -13.76800 40.01400 40.08200
C  -14.80000 43.25300 41.49500
C  -16.29200 40.50200 39.31000
C  -17.48100 39.83000 40.02300
N  -11.50200 38.08300 39.90200
C  -12.81800 37.74600 40.05400
C  -12.96900 36.35400 39.78600
C  -11.68000 35.91400 39.42900
C  -10.86000 37.03500 39.51400
C  -14.21100 35.54800 39.68300
C  -10.88000 34.77300 38.93000
O  -11.29600 33.64200 38.71900
C  -9.47700 35.29900 38.74800
C  -8.45000 34.40900 39.49700
O  -8.47400 34.23900 40.72800
O  -7.48500 33.87900 38.65200
C  -6.40400 33.16800 39.35200
H  -6.66500 41.66500 38.46400
H  -12.31900 44.06300 40.15000
H  -14.85600 38.16000 40.18200
H  -6.71600 36.65500 38.40100
H  -6.02600 39.37700 37.60200
H  -5.27100 37.79000 39.86700
H  -6.05500 39.23900 40.48500
H  -4.53400 39.34700 39.37400
H  -7.09800 38.33400 35.98300
H  -8.54600 37.60000 36.30700
H  -6.86100 35.40000 36.66500
H  -5.96700 36.22300 35.51400
H  -6.90100 45.26000 39.19600
H  -6.82600 44.25500 37.63500
H  -6.27900 43.70700 39.27600
H  -11.32100 47.42300 39.63300
H  -11.73700 46.01600 40.61400
H  -11.91500 45.99200 38.78600
H  -14.76400 43.00600 39.37400
H  -15.28200 40.62500 41.26500
H  -13.88800 43.69800 41.89200
H  -15.26700 42.64800 42.27200
H  -15.43100 44.10300 41.23600
H  -16.07100 39.91800 38.41700
H  -16.73600 41.46300 39.05000
H  -18.04000 39.09700 39.44200
H  -18.24800 40.53800 40.33800
H  -17.08700 39.43100 40.95700
H  -13.96200 34.48700 39.66100
H  -14.86500 35.68700 38.82200
H  -14.79200 35.73300 40.58700
H  -9.11900 35.20300 37.72300
H  -6.67500 32.24700 39.86900
H  -5.89100 33.87300 40.00600
H  -5.63400 32.77200 38.69000

