158

Mg 6.52800 53.84500 41.98100
C  5.98200 50.39800 41.86600
C  9.78900 53.27800 41.21000
C  6.94700 57.03900 41.74000
C  3.07600 54.31100 42.42700
N  7.67100 51.99300 41.46300
C  7.28200 50.70900 41.42600
C  8.45400 49.70700 41.13300
C  9.71300 50.68100 41.28000
C  9.02800 52.08300 41.41300
C  10.69000 50.40400 42.48700
C  8.39900 49.03800 39.70200
C  8.45200 50.04200 38.52100
H  7.68700 49.56000 37.25800
N  8.13500 54.99600 41.54400
C  9.41000 54.60100 41.21700
C  10.21700 55.71900 40.96500
C  9.36100 56.88900 41.20500
C  8.08800 56.35300 41.56100
C  11.67100 55.67500 40.60100
C  9.91300 58.25000 40.90900
O  10.95200 58.56500 40.40500
C  8.96900 59.44900 41.04500
N  5.17100 55.45700 41.90800
C  5.64300 56.69200 42.00700
C  4.58500 57.64400 42.30000
C  3.25200 56.82800 42.35700
C  3.81300 55.40100 42.25100
C  4.82800 58.65400 43.42000
C  2.14600 57.09800 41.28700
C  0.69200 57.15200 41.72700
N  4.86800 52.64800 42.31800
C  3.52800 52.96400 42.44500
C  2.76500 51.71900 42.71400
C  3.70900 50.76800 42.48200
C  4.94900 51.35400 42.10500
C  1.32400 51.54100 43.09500
C  3.90800 49.29500 42.43200
O  3.11200 48.40200 42.70300
C  5.38100 49.00400 42.01200
C  5.36700 48.23000 40.79500
O  4.83500 48.67200 39.75400
O  5.97600 47.06800 41.04700
C  5.94300 46.15900 39.84100
H  10.84800 53.12700 40.99000
H  7.06500 58.11500 41.59400
H  2.01700 54.54700 42.54700
H  8.49100 48.95500 41.92100
H  10.30600 50.64500 40.36600
H  10.38300 50.82000 43.44700
H  11.63300 50.86600 42.19400
H  10.73900 49.34600 42.74500
H  7.64700 48.25000 39.68600
H  9.28900 48.43000 39.53400
H  9.49300 50.03300 38.19800
H  8.14400 51.06300 38.74800
H  11.79900 55.79700 39.52500
H  12.03700 54.67200 40.81900
H  12.24000 56.38600 41.20100
H  8.09000 59.26900 40.42500
H  9.51600 60.32500 40.69500
H  8.68200 59.57000 42.08900
H  4.52400 58.25800 41.40200
H  2.90000 56.96700 43.37900
H  4.25600 58.40500 44.31300
H  4.65800 59.67500 43.08000
H  5.86900 58.74500 43.72900
H  2.04800 56.34800 40.50100
H  2.43100 57.97700 40.70900
H  0.30700 58.16600 41.83000
H  0.56600 56.66900 42.69600
H  0.05500 56.71100 40.96000
H  1.27000 51.21900 44.13500
H  0.80300 50.79900 42.48900
H  0.88900 52.53600 43.00100
H  5.90900 48.39700 42.74800
H  6.59200 45.30000 40.01100
H  6.31200 46.71800 38.98100
H  4.91200 45.82400 39.72900
Mg 0.14000 43.03300 26.46200
C  2.87000 42.89700 28.75700
C  -1.94200 42.64000 29.01300
C  -2.23200 42.94300 24.07200
C  2.55900 43.23100 23.87100
N  0.43400 42.80200 28.55400
C  1.62500 42.81300 29.27300
C  1.27000 42.73200 30.79400
C  -0.18200 42.19200 30.85000
C  -0.60500 42.51300 29.41000
C  -0.34700 40.62700 31.18600
C  1.45500 44.20400 31.48100
C  2.17400 44.13700 32.82800
H  1.71100 43.00900 33.78600
N  -1.80100 42.86400 26.56300
C  -2.52900 42.77900 27.71800
C  -3.91100 42.74500 27.34000
C  -4.06200 42.84600 25.91200
C  -2.68700 42.84300 25.45100
C  -5.02900 42.59800 28.33400
C  -5.30700 43.02200 25.01000
O  -5.32900 43.15000 23.73500
C  -6.62400 43.13200 25.70500
N  0.15200 43.08300 24.23100
C  -0.96100 42.98600 23.46900
C  -0.64700 42.86100 21.93400
C  0.91800 43.18600 21.94700
C  1.23800 43.27900 23.43700
C  -1.01800 41.48400 21.26100
C  1.40800 44.28000 21.05700
C  1.07800 45.67000 21.53700
N  2.28500 43.13500 26.28500
C  3.13500 43.20100 25.14000
C  4.50000 43.31900 25.58900
C  4.46800 43.07700 27.00100
C  3.08900 43.02200 27.35800
C  5.72600 43.33100 24.75600
C  5.24000 42.90500 28.16500
O  6.47900 42.83700 28.22000
C  4.28100 42.85100 29.39700
C  4.67200 41.67900 30.19300
O  4.34000 40.50800 29.92600
O  5.31500 42.03300 31.34600
C  5.66500 40.97300 32.27400
H  -2.58500 42.58300 29.89400
H  -3.03100 43.13200 23.35200
H  3.30700 43.07700 23.09100
H  1.95900 42.07900 31.33100
H  -0.68000 42.77800 31.62300
H  -0.72300 40.39400 32.18200
H  0.61500 40.11300 31.19700
H  -0.88900 40.08500 30.41100
H  0.54100 44.76800 31.66700
H  1.93100 44.86300 30.75500
H  2.13600 45.12100 33.29600
H  3.21000 43.93800 32.55400
H  -5.64100 41.75500 28.01300
H  -5.60700 43.52200 28.32600
H  -4.55800 42.43900 29.30500
H  -7.37300 43.47300 24.99100
H  -6.63400 43.97800 26.39200
H  -6.91300 42.28900 26.33400
H  -1.11300 43.66300 21.36100
H  1.40800 42.29700 21.54900
H  -0.28500 40.67800 21.21700
H  -1.41700 41.85600 20.31700
H  -1.84400 41.11300 21.86700
H  1.06500 44.16200 20.03000
H  2.49600 44.20900 21.07700
H  0.95700 46.28100 20.64200
H  1.85300 46.07700 22.18600
H  0.27200 45.60800 22.26800
H  5.47700 42.89600 23.78800
H  6.43700 42.65600 25.23300
H  6.19800 44.30000 24.59800
H  4.45200 43.72400 30.02700
H  6.18300 40.12100 31.83200
H  4.70200 40.68100 32.69200
H  6.19400 41.27000 33.18000

