158

Mg 30.91900 59.80200 39.44900
C  27.98900 58.32200 38.20200
C  32.71700 56.88600 38.48900
C  33.83400 61.46700 39.90000
C  29.19900 62.81700 39.71600
N  30.37200 57.90700 38.33700
C  29.10600 57.46800 38.04000
C  29.14200 56.17300 37.28500
C  30.62700 55.65100 37.56700
C  31.29300 56.84200 38.29100
C  30.75100 54.36800 38.49700
C  28.79700 56.08900 35.74900
C  27.50500 55.32600 35.40100
H  26.64400 55.83800 34.33500
N  33.05900 59.27000 39.15800
C  33.49400 58.00500 38.83600
C  34.87700 58.06800 38.80500
C  35.30400 59.43300 39.06600
C  34.08800 60.19200 39.41000
C  35.77400 56.85600 38.53400
C  36.77700 59.85500 39.13100
O  37.69700 59.12300 38.81500
C  37.09700 61.23500 39.57100
N  31.40800 61.65300 39.72200
C  32.65500 62.14200 39.99200
C  32.76600 63.68800 40.09400
C  31.24600 64.04800 39.99100
C  30.57100 62.74600 39.82000
C  33.44300 64.15800 41.44200
C  30.95200 65.13900 38.94800
C  30.22700 66.43200 39.46300
N  28.90900 60.52200 39.12400
C  28.38100 61.76500 39.19400
C  27.00300 61.68100 39.05200
C  26.74800 60.36200 38.57700
C  28.01100 59.67800 38.64700
C  26.07100 62.77300 39.46700
C  25.71900 59.35600 38.19000
O  24.51900 59.45500 38.17800
C  26.52600 58.06700 37.84900
C  25.95700 57.00200 38.68000
O  26.20100 56.83000 39.84200
O  25.23300 56.14600 37.87000
C  24.64000 55.03400 38.57000
H  33.23200 55.97800 38.16700
H  34.77000 62.00400 40.07100
H  28.70600 63.78000 39.86600
H  28.48200 55.50900 37.84200
H  31.09900 55.50500 36.59500
H  31.07300 53.46900 37.97300
H  29.81900 54.09900 38.99500
H  31.41500 54.63600 39.31800
H  29.58100 55.59800 35.17400
H  28.64900 57.12900 35.45500
H  27.00900 55.02100 36.32200
H  27.95500 54.42400 34.98800
H  36.48200 56.66400 39.34100
H  36.38500 57.23300 37.71400
H  35.28300 55.92400 38.25200
H  38.15200 61.50600 39.53400
H  36.61600 61.48600 40.51600
H  36.72200 61.89900 38.79200
H  33.30900 64.14400 39.26600
H  31.01300 64.34200 41.01500
H  33.81100 63.34700 42.07000
H  32.77000 64.78100 42.03200
H  34.27400 64.81800 41.19100
H  30.53400 64.54400 38.13500
H  31.91700 65.48200 38.57500
H  29.27100 66.21800 38.98500
H  30.70700 67.33200 39.07700
H  30.03600 66.33100 40.53200
H  26.54500 63.73200 39.67600
H  25.53600 62.46600 40.36500
H  25.26100 62.92800 38.75400
H  26.42300 57.76600 36.80600
H  23.88500 55.35000 39.28900
H  25.42000 54.40600 39.00000
H  24.24400 54.31900 37.84800
Mg 6.99300 56.31300 41.78300
C  7.09100 52.79500 42.02000
C  10.20000 56.12100 40.65500
C  6.68600 59.57000 40.92300
C  3.66500 56.35100 42.85300
N  8.38300 54.56100 41.15900
C  8.22700 53.22800 41.29600
C  9.39900 52.43500 40.70900
C  10.53700 53.55800 40.65800
C  9.67500 54.84600 40.83100
C  11.67900 53.55400 41.74000
C  8.99300 51.84400 39.34400
C  9.59300 50.52200 38.93000
H  8.88400 49.73300 37.79900
N  8.29400 57.62400 40.98100
C  9.63500 57.42600 40.61000
C  10.18600 58.66500 40.23500
C  9.18900 59.66800 40.26500
C  7.93900 58.96600 40.70400
C  11.58100 58.81800 39.95500
C  9.51500 61.13500 39.90000
O  10.67700 61.49800 39.68400
C  8.36300 62.06600 39.74400
N  5.36200 57.73500 41.80500
C  5.55800 58.98500 41.41800
C  4.29200 59.84600 41.64400
C  3.19700 58.79500 42.13200
C  4.07600 57.52300 42.23900
C  4.38200 61.10200 42.52800
C  1.95200 58.67800 41.19900
C  0.58100 59.01200 41.84700
N  5.66100 54.88700 42.37900
C  4.39300 55.10100 42.98200
C  4.03700 53.80800 43.68200
C  5.02800 52.90100 43.27100
C  5.98300 53.60000 42.51600
C  2.79100 53.63100 44.45800
C  5.55700 51.53200 43.41000
O  5.12200 50.65000 44.15800
C  6.81100 51.36900 42.52600
C  6.42100 50.47400 41.48800
O  5.51900 50.68300 40.72800
O  7.31600 49.42200 41.42700
C  6.98500 48.31600 40.51800
H  11.28900 56.09500 40.57100
H  6.62400 60.65900 40.96100
H  2.72700 56.40500 43.40900
H  9.66500 51.78800 41.54500
H  10.93200 53.50000 39.64400
H  11.88600 52.60300 42.23100
H  11.36200 54.18200 42.57300
H  12.57600 54.03900 41.35600
H  9.31300 52.45700 38.50100
H  7.91300 51.93800 39.22700
H  9.41400 49.87000 39.78500
H  10.65900 50.67400 38.75800
H  12.06900 57.88500 40.23800
H  12.13500 59.56100 40.52900
H  11.72900 58.97700 38.88700
H  7.79300 62.24400 40.65600
H  7.71300 61.61900 38.99200
H  8.64400 62.93700 39.15300
H  4.05700 60.18600 40.63600
H  2.98300 59.07900 43.16300
H  4.63100 62.06100 42.07400
H  5.14400 60.87600 43.27300
H  3.47100 61.19700 43.11900
H  1.87300 57.71400 40.69500
H  2.00000 59.46400 40.44600
H  -0.01300 58.09800 41.85000
H  0.15800 59.76500 41.18200
H  0.70200 59.51300 42.80800
H  2.84300 52.58100 44.74800
H  1.92100 53.88200 43.85100
H  2.71100 54.24300 45.35700
H  7.69900 51.01200 43.04800
H  6.14900 47.68400 40.81800
H  7.89800 47.80600 40.21300
H  6.56100 48.70100 39.59000

