158

Mg 40.66000 40.91500 26.88800
C  40.15900 43.35400 29.32500
C  41.54500 38.67400 29.31200
C  41.29100 38.80100 24.52500
C  40.07500 43.43100 24.36800
N  41.05900 41.07600 29.08600
C  40.60500 42.13500 29.88400
C  40.64300 41.67600 31.38900
C  41.31300 40.26400 31.34100
C  41.26300 39.93700 29.80300
C  42.82000 40.31400 31.72600
C  39.28800 41.72900 32.12400
C  39.13900 42.62400 33.41300
H  38.39900 42.07100 34.71800
N  41.25500 38.98700 26.86500
C  41.61500 38.23400 27.93600
C  41.97900 36.90100 27.47900
C  41.76900 36.93300 26.13600
C  41.31600 38.26200 25.76100
C  42.50500 35.92300 28.47700
C  41.96400 35.81400 25.22600
O  41.72500 35.86900 24.01400
C  42.59000 34.51300 25.78300
N  40.71800 41.15700 24.71500
C  41.00300 40.04200 24.03100
C  40.84000 40.25300 22.50100
C  40.11100 41.68800 22.49300
C  40.35400 42.14900 23.91200
C  42.12900 40.14500 21.63000
C  38.54500 41.64400 22.14900
C  37.72400 40.46700 22.68500
N  40.16600 42.98500 26.87600
C  39.97500 43.87900 25.74800
C  39.68700 45.22300 26.23200
C  39.74900 45.04200 27.63000
C  40.06900 43.72000 27.91500
C  39.20100 46.41700 25.47600
C  39.53700 45.73000 28.82900
O  39.22100 46.91500 29.05800
C  39.71400 44.60700 30.08200
C  40.57900 45.15900 31.14100
O  41.79500 45.15500 31.07200
O  39.83500 45.52900 32.20000
C  40.47500 46.21400 33.37400
H  41.68400 37.88800 30.05700
H  41.54800 38.06400 23.76200
H  39.82600 44.25100 23.69100
H  41.28300 42.33900 31.97100
H  40.83500 39.48000 31.92800
H  43.15400 41.31700 31.99400
H  43.60900 40.01000 31.03800
H  42.91900 39.61400 32.55500
H  38.96000 40.75000 32.47400
H  38.54400 42.13600 31.43900
H  38.37000 43.34600 33.13800
H  40.08900 43.11400 33.62600
H  42.31400 34.88100 28.22000
H  42.25100 36.02600 29.53200
H  43.57800 36.09500 28.39400
H  42.79200 33.91800 24.89300
H  41.86100 34.09200 26.47600
H  43.54700 34.70000 26.27100
H  40.10900 39.55100 22.10000
H  40.57500 42.36600 21.77600
H  41.81000 39.38500 20.91600
H  43.00900 39.77400 22.15500
H  42.23600 41.04500 21.02500
H  38.44600 41.59000 21.06500
H  38.09000 42.59100 22.43900
H  36.86300 40.92600 23.17000
H  38.28500 39.94000 23.45600
H  37.45600 39.73000 21.92700
H  38.38200 46.36000 24.75900
H  40.11700 46.68800 24.95100
H  38.89400 47.22300 26.14300
H  38.68700 44.47300 30.42300
H  40.65300 45.51100 34.18800
H  39.80900 46.96900 33.79000
H  41.46500 46.63700 33.20700
Mg 16.86300 53.48700 27.00900
C  18.77500 51.65000 29.23900
C  14.46600 53.95200 29.47100
C  14.64700 54.46300 24.70000
C  19.13700 52.68900 24.50000
N  16.59100 52.76300 29.02400
C  17.54700 52.13100 29.78300
C  17.27600 52.25200 31.30800
C  15.82100 52.60000 31.28300
C  15.58900 53.16800 29.85100
C  14.79100 51.51600 31.62100
C  18.08100 53.47200 31.91400
C  17.99100 53.85500 33.36900
H  17.07100 52.97900 34.31300
N  14.85100 54.30500 27.15300
C  14.05700 54.45900 28.20800
C  12.73700 55.02100 27.78700
C  12.84000 55.21300 26.35900
C  14.16300 54.59300 25.99300
C  11.66600 55.30500 28.70100
C  11.82900 55.82900 25.43900
O  11.94800 55.87200 24.19800
C  10.47200 56.23000 25.99500
N  16.83300 53.33700 24.91700
C  15.85100 53.96200 24.22100
C  16.16700 53.98700 22.72000
C  17.67500 53.57000 22.66100
C  17.96600 53.26700 24.13100
C  15.13700 53.09700 21.93500
C  18.65400 54.44800 21.84900
C  18.61400 55.93600 22.04700
N  18.65900 52.41100 26.81800
C  19.48900 52.15700 25.72200
C  20.64000 51.38200 26.16500
C  20.46200 51.21700 27.55200
C  19.20100 51.78500 27.87200
C  21.70600 50.79700 25.32900
C  21.01500 50.64400 28.77900
O  21.96800 50.03000 28.96600
C  20.06100 51.11900 29.89800
C  19.84300 49.96500 30.78800
O  19.40500 48.92500 30.35900
O  19.95400 50.32400 32.10600
C  19.74700 49.21100 33.00800
H  13.91700 54.07400 30.40700
H  13.98800 54.72100 23.86800
H  19.85300 52.66100 23.67600
H  17.50900 51.35100 31.87500
H  15.63800 53.34700 32.05500
H  15.42100 50.81200 32.16500
H  14.31600 50.97100 30.80500
H  13.98900 51.82800 32.29000
H  17.92900 54.31300 31.23700
H  19.13300 53.27100 31.71300
H  17.55500 54.85200 33.42500
H  18.94600 53.90600 33.89000
H  10.72500 54.80800 28.46700
H  11.53000 56.38600 28.72800
H  11.83100 54.97600 29.72700
H  10.04600 55.47900 26.66100
H  9.83600 56.32300 25.11500
H  10.42100 57.14900 26.57900
H  16.06300 55.02400 22.40200
H  17.86500 52.57200 22.26600
H  14.77800 53.57600 21.02400
H  14.24400 52.94000 22.53900
H  15.59100 52.15100 21.63900
H  18.57400 54.13300 20.80900
H  19.64500 54.19800 22.22900
H  19.61300 56.35600 21.93000
H  18.21700 56.40800 22.94600
H  18.04100 56.32300 21.20400
H  21.58100 49.71400 25.35000
H  22.66500 50.98500 25.81200
H  21.77000 51.13100 24.29300
H  20.57100 51.80500 30.57400
H  20.20400 49.57400 33.92800
H  20.32400 48.35200 32.66400
H  18.67800 49.04100 33.14000

