158

Mg -0.68400 7.64900 25.39400
C  0.49700 9.21300 28.30600
C  -0.98400 4.67400 27.05600
C  -1.21400 6.08600 22.40900
C  -0.02500 10.54400 23.66800
N  -0.17100 6.97100 27.40300
C  0.04200 7.88100 28.41300
C  -0.11500 7.17800 29.74300
C  -0.47700 5.61100 29.40500
C  -0.61800 5.76000 27.87600
C  0.65300 4.57100 29.74500
C  -1.06000 7.72900 30.83900
C  -0.32600 7.71000 32.27400
H  0.75900 6.59800 32.50400
N  -1.03300 5.64300 24.77700
C  -1.16000 4.52000 25.62700
C  -1.50800 3.30300 24.93900
C  -1.46300 3.67700 23.58000
C  -1.24600 5.17600 23.53100
C  -1.72500 1.98700 25.68800
C  -1.69000 2.86500 22.34200
O  -1.58300 3.35200 21.24900
C  -2.01500 1.43400 22.36400
N  -0.58500 8.24500 23.30100
C  -1.02000 7.47800 22.32000
C  -1.20100 8.27400 21.04100
C  -1.01200 9.75000 21.46000
C  -0.50400 9.53000 22.90600
C  -0.12600 7.85800 19.86100
C  -2.29800 10.69700 21.51600
C  -2.49000 11.59600 20.33000
N  0.12000 9.53500 25.87400
C  0.35800 10.60700 25.06800
C  0.90100 11.70600 25.85300
C  0.86500 11.15200 27.19900
C  0.41600 9.87700 27.13400
C  1.19900 13.11900 25.41900
C  1.23200 11.49200 28.53900
O  1.70500 12.51200 29.01400
C  0.93800 10.15800 29.33800
C  2.18000 9.62600 30.01600
O  3.08100 9.17300 29.36300
O  2.16400 9.89200 31.37200
C  3.43100 9.72100 32.10300
H  -0.95300 3.71100 27.57000
H  -1.51100 5.67300 21.44200
H  -0.02200 11.50400 23.14700
H  0.90600 7.09700 30.11600
H  -1.41400 5.30700 29.87300
H  1.48800 4.90400 30.36200
H  1.11400 4.30500 28.79300
H  0.12000 3.72000 30.16800
H  -1.98100 7.14500 30.83200
H  -1.16100 8.78300 30.58100
H  -1.01500 7.61100 33.11300
H  0.05900 8.71600 32.44800
H  -1.92400 2.28400 26.71800
H  -0.79800 1.43600 25.53100
H  -2.54200 1.41000 25.25600
H  -1.41900 0.91700 23.11700
H  -1.76000 0.95900 21.41700
H  -3.08400 1.36200 22.56300
H  -2.18900 8.10700 20.61200
H  -0.24600 10.27700 20.89100
H  0.75900 7.35600 20.25100
H  0.15300 8.72700 19.26600
H  -0.58700 7.15700 19.16500
H  -2.28400 11.30200 22.42200
H  -3.18300 10.06500 21.58900
H  -3.26400 11.14100 19.71100
H  -1.61100 11.62700 19.68700
H  -2.80400 12.57200 20.70100
H  0.24700 13.60500 25.20500
H  1.99400 13.13100 24.67400
H  1.59400 13.74600 26.21800
H  0.14700 10.32800 30.06800
H  3.63600 10.72000 32.48700
H  4.26000 9.41800 31.46300
H  3.46600 9.02800 32.94400
Mg 26.01800 0.95600 28.55400
C  27.80100 0.35700 31.52000
C  23.16500 1.26700 30.40800
C  24.28900 0.81400 25.78300
C  28.91400 0.20500 26.67800
N  25.57900 0.77500 30.83400
C  26.45000 0.68300 31.83900
C  25.83200 0.88400 33.22600
C  24.34000 1.24300 32.81000
C  24.30700 1.07200 31.23100
C  23.27100 0.35500 33.46300
C  26.52700 1.97400 34.10000
C  27.09100 1.50300 35.51300
H  26.76900 2.38400 36.73100
N  24.01500 0.96200 28.14500
C  23.00500 1.21600 29.01200
C  21.72400 1.31500 28.31400
C  22.03000 1.15300 26.92100
C  23.50800 0.98600 26.91500
C  20.39300 1.45100 28.96500
C  21.16700 1.06700 25.68000
O  21.59100 0.93800 24.54300
C  19.62800 0.99400 25.98400
N  26.54100 0.59000 26.50200
C  25.62200 0.61800 25.55500
C  26.16500 0.57000 24.14500
C  27.73500 0.70500 24.41500
C  27.77500 0.41900 25.96300
C  25.62500 -0.58400 23.27900
C  28.25100 2.16200 24.03000
C  28.15000 3.42100 24.91000
N  27.98500 0.55200 28.94200
C  29.03300 0.22200 28.07100
C  30.16800 -0.07900 28.90600
C  29.81100 0.00600 30.20100
C  28.42300 0.35500 30.21400
C  31.61100 -0.51100 28.35800
C  30.23500 -0.15200 31.59000
O  31.28200 -0.53000 32.08300
C  28.94300 0.16800 32.42500
C  28.69700 -0.95700 33.30500
O  27.90900 -1.88900 33.05100
O  29.32700 -0.74400 34.43700
C  29.02000 -1.66300 35.52000
H  22.25900 1.53900 30.95300
H  23.81900 0.84200 24.79800
H  29.82700 -0.01500 26.12200
H  25.79800 -0.09900 33.69500
H  24.19700 2.31600 32.93900
H  23.53100 -0.70100 33.38800
H  22.31900 0.52300 32.96000
H  23.11000 0.62400 34.50700
H  25.78100 2.73000 34.34500
H  27.30100 2.47100 33.51500
H  28.17300 1.63300 35.46700
H  26.75300 0.48800 35.72400
H  20.47000 1.65200 30.03400
H  19.84300 0.52800 28.78000
H  19.73000 2.21700 28.56200
H  19.37300 0.33200 26.81100
H  19.23700 0.37800 25.17400
H  19.27200 2.00600 26.17500
H  25.80100 1.51200 23.73600
H  28.27400 -0.05300 23.84700
H  24.92100 -1.17200 23.87000
H  26.48700 -1.14000 22.91000
H  25.25900 -0.00700 22.43000
H  27.95900 2.53300 23.04700
H  29.32700 2.09600 23.87200
H  28.06900 3.21300 25.97700
H  27.28700 4.02200 24.62400
H  29.02100 4.07600 24.90900
H  32.07700 0.30400 27.80400
H  31.54700 -1.30600 27.61500
H  32.23800 -0.85300 29.18100
H  29.28700 1.04300 32.97800
H  27.94200 -1.60700 35.66800
H  29.60100 -1.41900 36.41000
H  29.09600 -2.72300 35.27400

