158

Mg 49.75000 46.57000 42.40400
C  46.42400 46.98900 41.76700
C  49.39800 43.37100 40.66000
C  53.13500 46.14200 42.39500
C  50.15200 49.80300 43.33600
N  48.13800 45.36900 41.16200
C  46.88000 45.84000 41.07800
C  46.09900 45.01300 40.14100
C  46.98000 43.72400 39.86700
C  48.26900 44.17700 40.53600
C  46.32000 42.49400 40.48900
C  45.69800 45.71900 38.83500
C  44.11300 45.73700 38.54800
H  43.71000 45.66300 37.08300
N  51.03900 45.03800 41.77100
C  50.64800 43.76000 41.16800
C  51.77000 42.84600 41.34400
C  52.93300 43.66200 41.69600
C  52.39400 45.09000 41.95900
C  51.66600 41.33500 41.06300
C  54.35100 43.07000 41.76700
O  54.57800 41.83200 41.67300
C  55.51100 43.96000 41.97200
N  51.44300 47.77800 42.80000
C  52.74500 47.39600 42.77700
C  53.69700 48.57100 43.11700
C  52.66200 49.72300 43.52800
C  51.30400 49.06800 43.24800
C  54.78500 48.18600 44.23900
C  52.84300 51.03700 42.72800
C  52.72300 52.33900 43.61800
N  48.58200 48.11200 42.63300
C  48.86500 49.41600 43.05400
C  47.58200 50.10200 43.17100
C  46.67000 49.09300 42.79200
C  47.29400 47.96900 42.37000
C  47.25600 51.44600 43.75100
C  45.29000 48.96900 42.62300
O  44.35300 49.67500 42.92400
C  45.07800 47.62200 41.93100
C  44.14100 46.70400 42.76400
O  44.27400 46.32700 43.90100
O  43.15300 46.24600 41.95800
C  42.18200 45.36000 42.61000
H  49.27900 42.38300 40.21000
H  54.16600 45.92800 42.68400
H  50.28500 50.86300 43.56100
H  45.16300 44.73200 40.62300
H  47.16800 43.59400 38.80100
H  45.63800 42.63100 41.32800
H  47.13200 41.93600 40.95400
H  45.84800 41.92500 39.68800
H  46.37900 45.38500 38.05200
H  46.00600 46.74300 39.04900
H  43.73300 46.67500 38.95500
H  43.54200 45.06100 39.18500
H  50.64600 40.95100 41.10500
H  52.37600 40.76500 41.66200
H  51.94900 41.29200 40.01100
H  55.52100 44.28600 43.01200
H  55.55100 44.75300 41.22500
H  56.47700 43.46000 41.89000
H  54.20500 48.78300 42.17600
H  52.63800 49.84000 44.61100
H  54.99500 47.11600 44.25200
H  54.56100 48.58500 45.22800
H  55.70700 48.76500 44.18300
H  52.13100 51.13100 41.90800
H  53.86500 51.10900 42.35600
H  53.51800 52.31600 44.36300
H  51.81800 52.54300 44.19100
H  52.83200 53.13100 42.87700
H  46.70600 52.13600 43.11200
H  48.15500 51.86300 44.20600
H  46.54400 51.24300 44.55100
H  44.75300 47.65200 40.89100
H  41.30000 45.40500 41.97200
H  42.00800 45.78500 43.59900
H  42.61800 44.37200 42.75600
Mg -11.36500 39.01400 41.43200
C  -9.17900 36.15000 40.73000
C  -9.16500 40.88200 39.53000
C  -13.72100 41.22300 41.43800
C  -13.65300 36.48100 42.72100
N  -9.46600 38.53000 40.14200
C  -8.77500 37.28100 39.99600
C  -7.68400 37.38300 38.99700
C  -7.57900 38.97900 38.82300
C  -8.76600 39.53600 39.53000
C  -6.16200 39.57200 39.21000
C  -7.92600 36.58800 37.70600
C  -6.80400 35.59100 37.38000
H  -5.49200 36.11100 36.74600
N  -11.40300 40.93400 40.74400
C  -10.37200 41.51900 40.07300
C  -10.71700 42.93200 39.96300
C  -12.05800 43.05700 40.46100
C  -12.51800 41.71200 40.88700
C  -9.82400 43.88100 39.35500
C  -12.88500 44.28700 40.59200
O  -12.38000 45.40700 40.22300
C  -14.27700 44.29800 40.92600
N  -13.36600 38.79600 41.92600
C  -14.10000 39.94400 41.95900
C  -15.50400 39.73100 42.52500
C  -15.55100 38.21300 42.67400
C  -14.09600 37.75700 42.49600
C  -15.86100 40.57100 43.79600
C  -16.63300 37.56000 41.83600
C  -17.98000 37.81900 42.40000
N  -11.40800 36.90900 41.76900
C  -12.36200 36.03800 42.32000
C  -11.82300 34.67400 42.58200
C  -10.57700 34.68600 41.93400
C  -10.37100 36.06000 41.49500
C  -12.50900 33.59200 43.28700
C  -9.46600 33.84800 41.58200
O  -9.38600 32.62000 41.79200
C  -8.50500 34.86000 40.83600
C  -7.22400 34.82200 41.61200
O  -6.43000 33.92700 41.53000
O  -7.15700 35.85300 42.46300
C  -6.02200 35.78600 43.33600
H  -8.42100 41.54900 39.09100
H  -14.56500 41.88600 41.64200
H  -14.41700 35.83800 43.16300
H  -6.81900 36.98900 39.53100
H  -7.71100 39.26100 37.77800
H  -5.47000 38.78100 39.50200
H  -6.31700 40.32500 39.98200
H  -5.68700 40.04700 38.35200
H  -7.87900 37.30200 36.88400
H  -8.87900 36.06300 37.75700
H  -7.17800 34.81500 36.71300
H  -6.44500 35.06300 38.26400
H  -9.25200 44.23400 40.21300
H  -10.49500 44.56300 38.83400
H  -9.16100 43.55600 38.55200
H  -14.76800 43.62300 40.22500
H  -14.67000 45.28600 40.68400
H  -14.55600 44.01000 41.93900
H  -16.26500 40.02900 41.80500
H  -15.74600 38.06800 43.73600
H  -16.22400 41.52800 43.42200
H  -14.86700 40.71800 44.22000
H  -16.60200 40.11800 44.45400
H  -16.41900 36.49300 41.76500
H  -16.59900 37.99500 40.83700
H  -18.43300 36.95400 42.88400
H  -18.69800 37.99900 41.60000
H  -18.03000 38.65700 43.09500
H  -11.75700 32.87200 43.60800
H  -13.20700 33.14400 42.58000
H  -13.06900 33.87000 44.18000
H  -8.21400 34.35000 39.91800
H  -6.16600 36.70200 43.90800
H  -5.15200 35.83200 42.68100
H  -6.12900 34.91400 43.98100

