158

Mg 1.79300 8.98900 26.98100
C  2.32600 10.79000 29.93100
C  1.55800 6.16100 28.96900
C  1.45000 7.23400 24.25000
C  2.15700 11.80900 25.20100
N  2.11000 8.50900 29.34300
C  2.05200 9.48600 30.30000
C  1.74200 8.86800 31.69300
C  1.83300 7.32900 31.30300
C  1.75100 7.27500 29.79800
C  3.08400 6.65900 32.02000
C  0.42200 9.35500 32.24400
C  0.16100 9.29100 33.73300
H  1.26400 8.85200 34.62900
N  1.67100 6.89600 26.62200
C  1.50400 5.94900 27.52700
C  1.29600 4.68400 26.79700
C  1.33500 4.96100 25.39400
C  1.50700 6.39700 25.36800
C  1.06500 3.37300 27.52800
C  1.22000 4.05400 24.23100
O  1.28200 4.33800 23.01400
C  1.33300 2.56000 24.56700
N  1.70900 9.46700 24.92400
C  1.50900 8.60200 23.99000
C  1.42600 9.22500 22.58300
C  1.37400 10.73900 23.02500
C  1.80700 10.71000 24.44800
C  2.63500 8.90400 21.63000
C  0.02600 11.50000 22.92700
C  -0.64600 11.78300 21.58600
N  2.09700 10.90300 27.39300
C  2.26400 11.99800 26.59200
C  2.52900 13.18400 27.37600
C  2.59300 12.70600 28.68500
C  2.32200 11.29900 28.61600
C  2.78600 14.58400 26.88900
C  2.81800 13.21900 30.00700
O  3.10500 14.29800 30.45600
C  2.51800 11.97000 30.89900
C  3.60500 11.84900 31.86500
O  4.75500 11.80000 31.57100
O  3.03400 11.96800 33.12600
C  4.01600 12.17400 34.18100
H  1.50100 5.23700 29.54700
H  1.32200 6.65100 23.33500
H  2.43200 12.68900 24.61700
H  2.54900 9.36000 32.23700
H  0.89500 6.93300 31.69300
H  3.11100 6.88400 33.08700
H  3.98900 7.10000 31.60100
H  3.15200 5.59600 31.79000
H  -0.42100 8.83200 31.79200
H  0.27900 10.38700 31.92200
H  -0.66000 8.58000 33.82500
H  -0.12000 10.29000 34.06600
H  2.04200 3.07200 27.90500
H  0.57100 2.57000 26.98200
H  0.54400 3.57000 28.46500
H  2.04500 2.34900 25.36500
H  1.49700 2.04900 23.61800
H  0.31600 2.30800 24.86400
H  0.47300 8.92100 22.14900
H  2.18900 11.27300 22.53600
H  3.41300 8.62600 22.34100
H  2.96100 9.76900 21.05200
H  2.31500 8.09100 20.97800
H  0.19700 12.49900 23.32800
H  -0.60800 10.89300 23.57300
H  -0.58600 12.83500 21.30500
H  -1.68800 11.46500 21.61600
H  -0.11300 11.29400 20.77100
H  3.31500 14.58200 25.93600
H  3.24300 15.16900 27.68700
H  1.79000 15.00200 26.73900
H  1.57800 12.28000 31.35600
H  4.81400 12.83500 33.84100
H  4.50700 11.22700 34.40700
H  3.43100 12.49100 35.04300
Mg 29.61100 57.36100 40.97400
C  26.74000 55.42800 39.95000
C  31.51200 54.84100 39.61500
C  32.02200 59.59300 40.80000
C  27.24100 59.94900 41.68300
N  29.14700 55.34700 39.86200
C  27.92000 54.77100 39.60100
C  28.02400 53.54100 38.62200
C  29.57600 53.19300 38.89100
C  30.11600 54.51300 39.44600
C  29.92500 52.10700 39.97000
C  27.88400 53.97300 37.15800
C  26.76700 53.25300 36.34900
H  25.96400 54.14800 35.48000
N  31.54400 57.24300 40.39700
C  32.15500 56.07100 39.95300
C  33.52900 56.39700 39.74500
C  33.77800 57.75600 40.17400
C  32.38900 58.28300 40.47700
C  34.54400 55.28600 39.26500
C  35.14500 58.45900 40.29300
O  36.14600 57.90900 39.87300
C  35.27600 59.73100 40.92300
N  29.63400 59.56100 41.05000
C  30.76600 60.19900 41.04200
C  30.59600 61.68400 41.40400
C  29.02900 61.77900 41.63600
C  28.55200 60.38400 41.46600
C  31.53700 62.26000 42.49600
C  28.23900 62.69900 40.65200
C  27.42800 63.90000 41.22700
N  27.44700 57.62100 41.09800
C  26.69300 58.70700 41.39100
C  25.28400 58.36400 41.17600
C  25.22200 57.06900 40.65300
C  26.59200 56.70500 40.52100
C  24.13100 59.29400 41.26100
C  24.42300 55.98000 40.15900
O  23.23200 55.79100 40.11800
C  25.33300 54.91500 39.59300
C  25.04000 53.67900 40.26000
O  25.19900 53.32600 41.45400
O  24.48400 52.89200 39.37700
C  23.66000 51.69000 39.82600
H  32.13000 53.98400 39.34000
H  32.82900 60.31200 40.64200
H  26.60600 60.77200 42.01700
H  27.35800 52.77900 39.02800
H  30.25300 52.85100 38.10900
H  30.47600 52.61000 40.76400
H  30.49600 51.22100 39.69300
H  28.98600 51.77600 40.41300
H  28.87600 53.83100 36.73000
H  27.60000 55.02300 37.22700
H  26.05500 52.72100 36.97900
H  27.28400 52.52600 35.72200
H  34.36000 54.87200 38.27300
H  34.52300 54.41100 39.91500
H  35.56100 55.65800 39.38200
H  35.20000 60.62500 40.30400
H  36.26800 59.75800 41.37300
H  34.66600 59.86200 41.81700
H  30.77300 62.31800 40.53500
H  28.85600 62.10500 42.66100
H  31.09000 63.06300 43.08100
H  32.54600 62.47600 42.14300
H  31.72900 61.46600 43.21800
H  27.52200 62.11800 40.07200
H  28.86600 63.16900 39.89500
H  27.25800 63.60000 42.26100
H  26.41400 63.93900 40.82800
H  27.88400 64.88300 41.11200
H  24.29300 59.70100 40.26200
H  24.03400 60.01500 42.07100
H  23.21300 58.71300 41.17500
H  25.31500 54.80700 38.50800
H  22.68400 51.99700 39.45100
H  23.53000 51.47500 40.88700
H  23.94600 50.77700 39.30400

