158

Mg 44.41100 5.03800 47.25700
C  42.10900 7.93000 46.90000
C  41.52500 3.01800 46.76000
C  46.37600 2.47500 46.98400
C  46.95700 7.19100 46.55400
N  42.06600 5.45500 47.00100
C  41.45100 6.65200 46.86100
C  39.95400 6.40700 46.61900
C  39.76200 4.85900 46.92300
C  41.24500 4.42100 46.88200
C  38.86900 4.47200 48.17000
C  39.53200 6.78500 45.20300
C  38.42300 7.80300 45.09400
H  37.60700 7.78700 43.81400
N  43.99500 3.02100 47.18800
C  42.81800 2.35300 46.90600
C  43.12400 0.97700 46.71700
C  44.52800 0.71400 46.77300
C  45.00300 2.07600 47.09300
C  42.04200 -0.13100 46.59100
C  45.27200 -0.63500 46.58600
O  44.73200 -1.64300 46.23700
C  46.82000 -0.82600 46.58900
N  46.42400 4.87300 46.75400
C  47.06300 3.69100 46.81300
C  48.56700 3.89800 47.00000
C  48.75500 5.37700 46.49200
C  47.29500 5.89400 46.64100
C  49.05500 3.59200 48.46800
C  49.34900 5.64000 45.01700
C  50.82500 5.99700 44.98100
N  44.57900 7.13200 47.03100
C  45.72200 7.85300 46.75600
C  45.39700 9.32500 46.74800
C  44.04800 9.38500 46.89900
C  43.54100 8.04700 46.93600
C  46.36100 10.42900 46.61500
C  42.85300 10.27600 46.99200
O  42.84100 11.52900 46.95700
C  41.62600 9.38500 46.95900
C  40.70500 9.58500 48.12300
O  40.59300 8.84900 49.11600
O  39.97700 10.66600 47.86300
C  38.88200 10.99500 48.70900
H  40.69900 2.31300 46.64900
H  47.15100 1.70800 46.93400
H  47.84600 7.80200 46.38100
H  39.37000 6.98900 47.33300
H  39.27400 4.21700 46.18900
H  39.54000 4.54200 49.02600
H  38.54400 3.43500 48.09400
H  38.04900 5.18200 48.28900
H  39.19800 5.93000 44.61400
H  40.46600 7.11500 44.74900
H  38.76700 8.79000 45.40300
H  37.77100 7.43300 45.88500
H  41.95900 -0.78400 47.45900
H  42.31700 -0.77400 45.75500
H  40.99300 0.13800 46.46300
H  47.02600 -1.82700 46.21000
H  47.32900 -0.53100 47.50700
H  47.22900 -0.22100 45.77900
H  49.06000 3.15100 46.37900
H  49.33800 5.93400 47.22500
H  48.12700 3.47900 49.03000
H  49.59800 4.46800 48.82100
H  49.69200 2.71200 48.37800
H  48.66500 6.40900 44.65800
H  49.30600 4.75700 44.37900
H  51.07500 6.54000 44.07000
H  51.31500 5.02500 44.92400
H  51.14900 6.48400 45.90200
H  47.35100 10.15400 46.97900
H  45.95700 11.31100 47.11200
H  46.48700 10.82900 45.60900
H  41.08600 9.66200 46.05300
H  38.99600 12.03700 49.00700
H  38.55000 10.46900 49.60400
H  37.91800 11.00300 48.20000
Mg -12.57100 16.87700 42.58500
C  -9.59300 15.30600 41.77100
C  -11.38400 19.69100 40.84000
C  -15.84500 18.22000 42.18500
C  -14.05000 13.73900 43.39200
N  -10.70300 17.40400 41.43800
C  -9.57400 16.62500 41.37600
C  -8.31300 17.41400 40.83200
C  -8.88300 18.84200 40.68800
C  -10.42200 18.68900 41.07400
C  -8.13700 19.85200 41.55900
C  -7.68600 16.75400 39.56700
C  -6.23300 16.18100 39.80500
H  -5.94900 14.84900 39.01600
N  -13.45300 18.75300 41.84800
C  -12.72800 19.74700 41.25000
C  -13.66700 20.85900 40.97600
C  -14.97900 20.42900 41.26800
C  -14.86100 19.07200 41.72100
C  -13.19700 22.09100 40.26700
C  -16.23500 21.28500 41.01400
O  -16.14900 22.42500 40.49600
C  -17.56700 20.81000 41.36900
N  -14.66200 16.07800 42.89000
C  -15.71800 16.85500 42.67300
C  -17.01900 15.98100 42.83100
C  -16.52700 14.65400 43.45700
C  -14.99600 14.79100 43.25500
C  -18.22300 16.62000 43.65200
C  -17.16800 13.45000 42.76000
C  -17.98400 12.55300 43.61000
N  -11.95100 14.96300 42.70700
C  -12.63500 13.83300 43.15400
C  -11.74700 12.73700 43.08400
C  -10.50200 13.28600 42.69800
C  -10.71400 14.64500 42.37700
C  -11.97400 11.25300 43.37700
C  -9.08600 12.97200 42.55500
O  -8.51000 11.92100 42.74000
C  -8.41600 14.27900 41.91400
C  -7.34700 14.54700 42.94700
O  -7.44200 15.36000 43.83100
O  -6.18200 13.85500 42.73400
C  -5.17200 14.08000 43.73500
H  -10.94200 20.57200 40.36900
H  -16.89700 18.50400 42.10800
H  -14.43800 12.79800 43.78800
H  -7.65800 17.40300 41.70300
H  -8.81500 19.17000 39.65100
H  -8.70900 20.08800 42.45600
H  -8.13400 20.75400 40.94800
H  -7.14700 19.46900 41.80900
H  -7.58000 17.42700 38.71600
H  -8.30800 15.88800 39.34200
H  -5.98000 16.05600 40.85800
H  -5.54700 16.92900 39.40600
H  -13.73900 22.26800 39.33800
H  -12.11100 22.17900 40.21900
H  -13.56400 22.87700 40.92600
H  -17.81900 19.86200 40.89300
H  -18.21800 21.57800 40.95300
H  -17.53300 20.71500 42.45500
H  -17.37400 15.84900 41.80900
H  -16.64800 14.70500 44.53900
H  -18.02100 17.65000 43.94600
H  -18.43100 16.02500 44.54200
H  -19.16100 16.63700 43.09700
H  -16.37200 12.82900 42.34800
H  -17.83300 13.76300 41.95600
H  -19.04300 12.65400 43.37100
H  -17.94100 12.67600 44.69200
H  -17.82100 11.50800 43.34400
H  -11.03500 10.83600 43.74200
H  -12.38300 10.70500 42.52800
H  -12.76300 11.14800 44.12200
H  -7.93000 14.18000 40.94400
H  -5.60800 14.08900 44.73500
H  -4.50800 14.93300 43.59700
H  -4.37300 13.35300 43.59000

