158

Mg 1.74400 -3.42000 44.39700
C  5.17500 -2.78500 44.13200
C  0.97700 -0.90100 42.27800
C  -1.42200 -4.67300 44.10900
C  2.74300 -6.41600 46.15700
N  2.98800 -2.08200 43.28700
C  4.36000 -1.91100 43.38700
C  4.76700 -0.70200 42.39900
C  3.38100 0.00900 42.24400
C  2.34900 -1.05900 42.58200
C  3.28900 1.40300 43.05200
C  5.46900 -1.32300 41.07000
C  7.03500 -1.08000 40.97300
H  7.53100 -0.58800 39.59900
N  -0.04000 -2.78400 43.48200
C  -0.15700 -1.71200 42.61900
C  -1.54700 -1.53200 42.14200
C  -2.30400 -2.54700 42.73600
C  -1.24600 -3.40300 43.51300
C  -1.93900 -0.47000 41.19900
C  -3.76200 -2.81500 42.52500
O  -4.40700 -2.05700 41.84800
C  -4.49000 -3.87800 43.17700
N  0.82600 -5.31700 44.94500
C  -0.54900 -5.41900 44.89800
C  -1.06100 -6.55200 45.74600
C  0.26300 -7.19600 46.37400
C  1.36200 -6.24000 45.81100
C  -2.14800 -6.32700 46.88200
C  0.58700 -8.67200 45.85900
C  0.99400 -9.69500 46.94100
N  3.62100 -4.49000 45.04500
C  3.82600 -5.57800 45.75900
C  5.22000 -5.78400 45.90200
C  5.79000 -4.60700 45.35400
C  4.75000 -3.89800 44.80200
C  5.87700 -6.94400 46.67300
C  7.03200 -3.96400 45.21000
O  8.16700 -4.15000 45.59800
C  6.71200 -2.71400 44.25500
C  7.12200 -1.51200 44.90300
O  8.19200 -0.92800 44.59800
O  6.24900 -0.95800 45.84900
C  6.77100 0.27200 46.46000
H  0.63400 0.02400 41.81100
H  -2.44000 -5.06900 44.10500
H  3.02600 -7.29900 46.73500
H  5.45400 0.05000 42.78600
H  3.32000 0.27500 41.18900
H  3.44900 2.19000 42.31500
H  4.05200 1.51300 43.82200
H  2.35600 1.36200 43.61300
H  4.92600 -0.98300 40.18700
H  5.21500 -2.38000 41.15500
H  7.52400 -2.04400 41.11400
H  7.46400 -0.44500 41.74800
H  -1.67200 -0.66900 40.16100
H  -1.46000 0.43300 41.57600
H  -2.97700 -0.14900 41.27900
H  -4.36600 -3.80400 44.25700
H  -4.09900 -4.82900 42.81300
H  -5.55600 -3.80900 42.96100
H  -1.53700 -7.20600 45.01500
H  0.28600 -7.13200 47.46100
H  -1.85200 -5.48900 47.51200
H  -2.50200 -7.11900 47.54100
H  -2.99500 -6.06800 46.24500
H  1.27900 -8.69700 45.01800
H  -0.36500 -8.96000 45.41400
H  0.71300 -9.33300 47.93000
H  2.05400 -9.93200 46.85700
H  0.58500 -10.69400 46.78700
H  6.91500 -6.90600 46.34400
H  5.37900 -7.87700 46.40900
H  5.71000 -6.58400 47.68800
H  7.17200 -2.71500 43.26700
H  6.20400 0.75000 47.25900
H  6.82700 1.08300 45.73300
H  7.81400 0.20000 46.76900
Mg 46.52600 16.83500 28.32900
C  44.51000 16.87600 31.11600
C  49.03700 18.33000 30.25000
C  48.42600 17.45500 25.44000
C  43.89700 15.74500 26.41200
N  46.69300 17.62100 30.33800
C  45.82400 17.38700 31.38100
C  46.29200 17.63700 32.76300
C  47.65200 18.35300 32.42600
C  47.82700 18.10700 30.87000
C  47.73800 19.91200 32.76400
C  46.26500 16.31100 33.64600
C  45.39700 16.30700 34.88800
H  45.12800 17.67300 35.50500
N  48.50400 17.65000 27.84900
C  49.32800 18.18300 28.81600
C  50.62500 18.55000 28.13500
C  50.50100 18.30700 26.78100
C  49.09600 17.78300 26.59400
C  51.76800 19.34200 28.87600
C  51.48300 18.55200 25.59200
O  51.19100 18.29800 24.43800
C  52.84500 19.11100 25.88800
N  46.20200 16.63400 26.22900
C  47.09300 16.94700 25.22700
C  46.52400 16.73100 23.84300
C  45.16700 16.13200 24.18400
C  45.12300 16.03000 25.72300
C  46.41600 18.02200 22.97800
C  44.96200 14.80600 23.40500
C  45.52300 13.52100 23.88900
N  44.68800 16.30100 28.66000
C  43.81000 15.79200 27.82900
C  42.62900 15.33600 28.56100
C  42.79600 15.86200 29.86800
C  44.07300 16.38700 29.86500
C  41.49100 14.59300 28.06500
C  42.14600 16.02400 31.10600
O  40.99900 15.63200 31.44000
C  43.22800 16.69200 31.99400
C  42.60100 17.90400 32.65000
O  42.52400 19.07400 32.23600
O  41.98200 17.48300 33.84900
C  41.06900 18.44400 34.50000
H  49.84000 18.79800 30.82400
H  48.79300 17.79800 24.47000
H  43.08800 15.31300 25.81900
H  45.54000 18.26500 33.24100
H  48.55300 17.93600 32.87600
H  46.82300 20.19600 33.28400
H  47.63400 20.50600 31.85600
H  48.63700 20.16200 33.32800
H  47.25600 16.21700 34.09000
H  45.94900 15.43700 33.07800
H  45.90400 15.74300 35.67100
H  44.46600 15.75000 34.77700
H  52.75600 18.91800 28.69800
H  51.54000 19.26900 29.93900
H  51.67100 20.40200 28.64100
H  53.28400 18.51000 26.68500
H  52.71000 20.15300 26.17700
H  53.43300 19.17900 24.97300
H  47.16300 15.99300 23.35800
H  44.35600 16.78200 23.85700
H  45.45100 18.52600 23.03600
H  46.53000 17.74400 21.93100
H  47.18200 18.77200 23.17800
H  45.44100 14.97800 22.44200
H  43.89800 14.71300 23.18900
H  46.25400 13.08700 23.20700
H  44.67000 12.84900 23.98100
H  46.08600 13.56700 24.82200
H  41.29300 13.82700 28.81500
H  41.60900 14.15900 27.07200
H  40.65300 15.28600 27.99000
H  43.50700 15.95900 32.75100
H  40.14300 18.54400 33.93500
H  41.54700 19.42400 34.48900
H  40.87000 18.14500 35.52900

