158

Mg 23.76700 -7.81600 47.05200
C  26.24100 -5.79600 45.68300
C  21.49500 -6.43600 44.71300
C  21.55000 -10.33500 47.86300
C  26.23500 -9.46300 48.98600
N  23.90500 -6.24300 45.48800
C  25.04000 -5.51800 45.10200
C  24.71400 -4.49900 44.07400
C  23.11300 -4.59000 43.94500
C  22.81600 -5.87800 44.74300
C  22.28600 -3.40100 44.47500
C  25.50600 -4.70900 42.77700
C  26.04300 -3.48400 42.05700
H  25.60600 -3.05600 40.71000
N  21.81300 -8.35100 46.35600
C  21.02500 -7.60500 45.48200
C  19.64800 -8.26500 45.41900
C  19.68800 -9.40400 46.32200
C  21.06700 -9.40000 46.97600
C  18.61300 -7.86000 44.46600
C  18.46300 -10.32500 46.52600
O  17.46100 -10.13500 45.91400
C  18.29600 -11.42600 47.54700
N  23.87700 -9.64900 48.21200
C  22.81000 -10.50700 48.43100
C  23.27000 -11.74000 49.29900
C  24.66900 -11.32900 49.77300
C  24.98400 -10.03700 48.97400
C  22.29500 -12.02100 50.50500
C  25.82700 -12.41800 49.46800
C  26.85500 -12.73700 50.55900
N  25.77800 -7.66800 47.37200
C  26.67200 -8.35400 48.21800
C  27.93500 -7.71900 48.14400
C  27.84500 -6.74900 47.14100
C  26.50100 -6.75700 46.70500
C  29.11700 -8.12700 48.87900
C  28.56200 -5.72800 46.44000
O  29.75800 -5.44200 46.43100
C  27.55100 -5.07400 45.43700
C  27.42100 -3.58100 45.83600
O  27.06700 -3.14700 46.95100
O  27.68000 -2.74400 44.74100
C  27.41300 -1.29600 45.02600
H  20.84000 -5.82600 44.08700
H  20.82800 -11.12100 48.09500
H  26.85300 -9.92100 49.76200
H  25.00300 -3.54200 44.51000
H  22.87000 -4.82000 42.90800
H  21.63900 -3.48100 45.34900
H  21.63700 -3.38300 43.59900
H  22.91800 -2.51700 44.56100
H  24.73400 -5.07200 42.09800
H  26.25400 -5.49500 42.88200
H  27.13000 -3.57200 42.06100
H  25.79800 -2.62500 42.68200
H  18.72700 -8.67900 43.75500
H  18.82400 -6.92300 43.95200
H  17.58000 -7.84700 44.81300
H  18.14600 -10.88800 48.48300
H  19.00400 -12.25400 47.58400
H  17.30300 -11.86900 47.48600
H  23.27300 -12.67400 48.73700
H  24.67400 -11.00800 50.81400
H  22.86100 -12.10400 51.43300
H  21.79700 -12.98100 50.37100
H  21.59700 -11.18300 50.51800
H  26.35900 -12.24300 48.53300
H  25.36900 -13.40100 49.35500
H  26.64800 -12.31200 51.54100
H  27.88800 -12.50300 50.30300
H  26.88800 -13.82000 50.68100
H  29.09800 -7.74100 49.89800
H  30.00500 -7.77400 48.35500
H  29.09000 -9.21700 48.88100
H  27.91500 -5.21500 44.42000
H  26.34000 -1.10800 44.99800
H  27.81000 -0.78400 44.15000
H  27.81100 -0.97800 45.99000
Mg 30.52100 59.17900 39.53000
C  27.67800 57.32400 38.67500
C  32.49900 56.48900 38.80300
C  33.13600 61.23800 39.08800
C  28.50700 61.96200 39.90500
N  30.08700 57.21900 38.59800
C  28.90500 56.61500 38.40200
C  29.07000 55.23300 37.82600
C  30.53900 54.92900 38.35100
C  31.11100 56.31900 38.64300
C  30.52800 54.08800 39.59700
C  28.94600 55.28000 36.27500
C  28.07100 54.10300 35.74000
H  27.07400 54.45300 34.59900
N  32.56700 58.87200 39.08000
C  33.19300 57.69400 38.90200
C  34.59700 57.88900 38.76400
C  34.78900 59.30300 38.76900
C  33.43500 59.86000 38.87400
C  35.55000 56.73200 38.80600
C  36.14000 59.98900 38.60500
O  37.21800 59.39600 38.67600
C  36.24100 61.45200 38.41000
N  30.78500 61.31600 39.39000
C  31.94500 61.86500 39.31500
C  31.87600 63.40400 39.48700
C  30.44100 63.60800 39.85900
C  29.84400 62.20400 39.78700
C  32.96900 63.91900 40.55100
C  29.51100 64.47700 39.03700
C  29.86700 65.96000 38.75100
N  28.49600 59.58800 39.62600
C  27.84900 60.75500 39.68200
C  26.48400 60.54400 39.47000
C  26.32000 59.15400 39.13900
C  27.63200 58.65200 39.15800
C  25.47200 61.60100 39.43400
C  25.33700 58.09200 38.82900
O  24.08400 58.09000 38.62300
C  26.26200 56.81800 38.49500
C  25.85800 55.87400 39.63100
O  26.21300 55.87700 40.77800
O  24.94200 55.00300 39.17500
C  24.73200 53.92000 40.15800
H  33.02900 55.53800 38.71900
H  33.88200 62.01100 38.89400
H  27.82500 62.79700 40.07900
H  28.29700 54.56700 38.20900
H  31.12700 54.36800 37.62500
H  31.23500 54.44200 40.34800
H  30.62000 53.06200 39.24200
H  29.51700 54.14600 40.00000
H  29.92900 55.01400 35.88600
H  28.66000 56.25600 35.88200
H  27.40400 53.66400 36.48200
H  28.77200 53.29900 35.51600
H  36.08200 56.78100 39.75600
H  36.23100 56.81900 37.95800
H  35.12500 55.73400 38.69700
H  37.25800 61.71200 38.11700
H  35.97300 61.97500 39.32900
H  35.56300 61.80800 37.63400
H  32.06800 63.83700 38.50500
H  30.26100 63.91700 40.88800
H  33.43000 64.83800 40.19100
H  33.64600 63.13900 40.90000
H  32.39800 64.16300 41.44700
H  28.48500 64.63400 39.37000
H  29.52400 63.91100 38.10600
H  30.85800 66.19500 39.13700
H  29.17000 66.73000 39.08200
H  29.89100 66.10200 37.67000
H  25.10400 61.87100 40.42400
H  24.66200 61.32800 38.75800
H  25.99300 62.53300 39.21900
H  26.01700 56.36300 37.53500
H  24.55700 53.08200 39.48300
H  23.79100 54.10500 40.67500
H  25.50600 53.63000 40.87000

