158

Mg 24.40100 -5.30100 46.30200
C  26.51700 -2.98200 44.36800
C  21.81800 -4.49200 44.28700
C  23.03700 -8.15400 47.28700
C  27.47700 -6.28000 47.88600
N  24.27400 -4.09000 44.43100
C  25.16800 -3.07800 44.00800
C  24.53100 -2.34900 42.85800
C  23.02200 -2.47000 43.21000
C  22.99800 -3.73100 44.00800
C  22.37800 -1.28400 44.06300
C  24.93100 -2.82600 41.39500
C  25.57800 -1.72200 40.49100
H  25.43000 -1.83800 38.96500
N  22.59400 -6.07400 45.99300
C  21.62700 -5.62200 45.09900
C  20.52500 -6.58900 45.08100
C  20.82800 -7.61700 46.03700
C  22.17800 -7.30500 46.51000
C  19.41000 -6.59200 44.04500
C  19.98800 -8.84800 46.33300
O  18.87800 -8.97100 45.79100
C  20.35700 -9.91600 47.25900
N  25.17400 -6.96300 47.45900
C  24.36800 -7.99300 47.72600
C  24.98700 -8.94600 48.75600
C  26.33600 -8.22000 49.17000
C  26.33500 -7.07900 48.12300
C  24.05200 -9.53500 49.88000
C  27.58500 -9.20900 49.11200
C  28.58000 -9.08000 50.25700
N  26.53600 -4.67500 46.37200
C  27.57600 -5.17600 47.06800
C  28.77800 -4.36600 46.79700
C  28.38400 -3.53400 45.77400
C  27.05000 -3.77400 45.50900
C  30.13200 -4.56800 47.49900
C  28.74600 -2.41600 44.91100
O  29.76600 -1.78200 44.90500
C  27.64300 -2.11900 43.83900
C  27.39200 -0.67100 43.99800
O  27.17800 -0.03400 45.04000
O  27.49200 -0.07100 42.73600
C  27.27500 1.40900 42.74200
H  20.96700 -4.09400 43.72900
H  22.70000 -9.16200 47.53900
H  28.29700 -6.39200 48.59900
H  24.67000 -1.26800 42.84700
H  22.41700 -2.51200 42.30400
H  23.10400 -0.53200 44.36900
H  21.78700 -1.62800 44.91200
H  21.62900 -0.79400 43.44100
H  24.20700 -3.42300 40.84200
H  25.69100 -3.55100 41.68700
H  26.65100 -1.65800 40.67400
H  25.10900 -0.85200 40.95000
H  19.60100 -7.24900 43.19700
H  19.25100 -5.57300 43.69000
H  18.50100 -7.00300 44.48400
H  19.58800 -10.68700 47.29900
H  20.49800 -9.48900 48.25200
H  21.22700 -10.42300 46.84100
H  25.25300 -9.83800 48.18900
H  26.26500 -7.69200 50.12100
H  24.56600 -9.55100 50.84100
H  23.92300 -10.60600 49.72100
H  23.12600 -8.96100 49.92800
H  28.10100 -9.18000 48.15200
H  27.05000 -10.15500 49.20300
H  28.33300 -9.85800 50.97900
H  28.53200 -8.09600 50.72200
H  29.60000 -9.30600 49.94500
H  30.21000 -4.11200 48.48600
H  30.93200 -4.13700 46.89700
H  30.24800 -5.64500 47.61400
H  28.05300 -2.38800 42.86600
H  26.46100 1.58900 43.44400
H  27.04500 1.77800 41.74200
H  28.21500 1.88900 43.01200
Mg 17.64000 52.64300 26.40100
C  19.69900 51.31800 28.92000
C  15.24500 53.29700 28.85200
C  15.81700 53.97300 24.07000
C  19.99100 51.80200 24.06400
N  17.49400 52.19100 28.72900
C  18.45000 51.69000 29.49700
C  18.13100 51.91100 31.00900
C  16.56200 52.19500 30.95300
C  16.35700 52.58000 29.40300
C  15.65500 51.02100 31.41500
C  19.10700 53.08200 31.56200
C  19.43000 52.96200 33.09500
H  18.52700 52.16500 34.13400
N  15.89200 53.61800 26.52500
C  14.99200 53.77200 27.49300
C  13.92400 54.64100 27.13100
C  13.98700 54.71800 25.72100
C  15.32700 54.07500 25.37500
C  12.89100 55.10300 28.15300
C  13.00000 55.32100 24.75400
O  13.24400 55.42300 23.58200
C  11.80900 56.09800 25.20500
N  18.01100 53.04300 24.31500
C  16.97000 53.43300 23.55700
C  17.32100 53.39400 22.02400
C  18.76100 52.83900 22.10700
C  18.98600 52.58400 23.60800
C  16.25300 52.50000 21.27400
C  19.88300 53.81500 21.46500
C  20.72700 54.69200 22.35300
N  19.40000 51.70400 26.41300
C  20.25600 51.40800 25.38200
C  21.46200 50.74200 25.89800
C  21.30300 50.71500 27.25900
C  19.99400 51.33500 27.50900
C  22.62500 50.27800 25.05900
C  21.89900 50.28200 28.48500
O  22.95200 49.72200 28.64100
C  20.91600 50.72000 29.61700
C  20.51700 49.63500 30.55100
O  20.10900 48.58500 30.20200
O  20.87100 49.98000 31.83800
C  20.64000 48.92600 32.76800
H  14.43200 53.45700 29.56400
H  15.14600 54.44000 23.34600
H  20.70700 51.52200 23.28900
H  18.30400 50.97400 31.53700
H  16.22700 53.03900 31.55600
H  14.73900 51.35200 31.90300
H  16.21000 50.47600 32.17900
H  15.47100 50.33300 30.58900
H  18.47400 53.95300 31.38900
H  19.93700 53.22100 30.87000
H  19.68900 53.96400 33.43600
H  20.41600 52.49600 33.10800
H  13.60000 55.30100 28.95600
H  12.21000 54.28100 28.37100
H  12.33800 56.00300 27.88200
H  11.17200 55.56800 25.91300
H  11.29500 56.47200 24.31900
H  12.22600 56.94000 25.75800
H  17.27500 54.41200 21.63800
H  18.78300 51.88200 21.58600
H  15.62400 52.00600 22.01400
H  16.81800 51.71000 20.77900
H  15.68500 53.01700 20.50000
H  19.39600 54.36200 20.65800
H  20.56800 53.15200 20.93600
H  20.73300 55.70500 21.95100
H  21.76800 54.38100 22.43300
H  20.36200 54.77600 23.37700
H  22.61400 49.20500 24.87000
H  23.54700 50.54900 25.57300
H  22.62600 50.79400 24.09800
H  21.43300 51.50900 30.16400
H  20.78500 49.28300 33.78800
H  21.27800 48.05700 32.61000
H  19.60300 48.59900 32.69200

