158

Mg 1.45100 8.60200 27.23700
C  2.15400 10.60400 30.11500
C  1.40200 5.81700 29.17000
C  1.09600 6.94500 24.39800
C  1.96700 11.51400 25.36800
N  1.82600 8.21000 29.46700
C  1.90600 9.22500 30.46800
C  1.76700 8.53600 31.82400
C  1.78200 6.95600 31.45900
C  1.71400 6.94700 29.92600
C  2.92400 6.08500 32.05900
C  0.43600 9.00100 32.57700
C  0.34600 8.98000 34.06900
H  1.45200 8.31800 34.94400
N  1.11900 6.63700 26.84500
C  1.09900 5.60600 27.77200
C  0.68900 4.42800 27.10100
C  0.58900 4.71600 25.70600
C  0.99800 6.14000 25.57200
C  0.51900 3.09300 27.85200
C  0.07300 3.82400 24.61100
O  0.08300 4.30300 23.46000
C  -0.70100 2.47700 24.80000
N  1.60800 9.15100 25.23200
C  1.44200 8.25800 24.18500
C  1.74900 8.95000 22.85200
C  1.41100 10.44600 23.19400
C  1.67900 10.37400 24.67700
C  3.15000 8.82300 22.25800
C  -0.08400 10.71100 23.08800
C  -0.61900 12.02200 22.54100
N  2.09400 10.60800 27.62800
C  2.25200 11.62700 26.74600
C  2.63500 12.87800 27.42100
C  2.57800 12.49100 28.77700
C  2.24200 11.15100 28.82100
C  2.72800 14.27400 26.81200
C  2.74500 12.99900 30.08800
O  2.91700 14.16400 30.45300
C  2.42000 11.76000 31.01500
C  3.63200 11.57500 31.87400
O  4.67400 11.04500 31.61200
O  3.29000 12.03100 33.14300
C  4.13900 11.80200 34.30600
H  1.39200 4.86800 29.71100
H  0.78800 6.46500 23.46700
H  1.94000 12.41200 24.74700
H  2.49500 8.88200 32.55900
H  0.83900 6.54500 31.82000
H  2.46400 5.19900 32.49700
H  3.55300 6.51200 32.83900
H  3.66100 5.77100 31.32100
H  -0.30900 8.34100 32.13500
H  0.02700 9.89000 32.09900
H  -0.54900 8.46300 34.41600
H  0.17800 10.01500 34.36700
H  1.13400 3.08600 28.75200
H  0.83600 2.30100 27.17300
H  -0.55600 2.95600 27.96800
H  -0.03100 1.75800 25.27200
H  -0.92500 2.15800 23.78200
H  -1.58100 2.82200 25.34400
H  1.04100 8.61000 22.09700
H  1.97000 11.25300 22.72200
H  3.37500 9.73100 21.69800
H  3.17300 8.02600 21.51500
H  3.86800 8.73000 23.07300
H  -0.52600 10.44300 24.04800
H  -0.53700 9.94400 22.46100
H  -0.28000 12.88400 23.11700
H  -1.70700 11.97800 22.58100
H  -0.41400 12.12400 21.47500
H  1.74300 14.68600 26.59400
H  3.31600 14.12200 25.90700
H  3.09300 15.08000 27.44800
H  1.52100 12.05700 31.55500
H  3.43500 11.40700 35.03900
H  4.54400 12.68800 34.79400
H  4.94000 11.09500 34.09100
Mg 9.00600 4.13500 27.97500
C  10.31700 2.44300 30.70300
C  7.00400 6.03300 30.01000
C  7.57700 5.60700 25.25100
C  10.53000 1.79900 25.77200
N  8.75000 4.15500 30.10200
C  9.41000 3.47200 31.08200
C  8.97300 3.76200 32.46100
C  7.86700 4.87600 32.19400
C  7.84500 5.06200 30.66700
C  6.46900 4.60700 32.83200
C  10.11200 4.15000 33.40600
C  9.61600 4.78100 34.75000
H  10.73700 5.04100 35.79100
N  7.66100 5.68400 27.65800
C  6.95800 6.34100 28.65500
C  6.13100 7.42700 28.12900
C  6.30100 7.41100 26.64200
C  7.17100 6.16700 26.45500
C  5.30200 8.42100 28.87200
C  5.77700 8.32900 25.55000
O  5.99300 8.18700 24.34500
C  5.14700 9.46300 25.93500
N  9.02200 3.70100 25.76100
C  8.44900 4.50700 24.87700
C  8.51900 3.92100 23.43200
C  9.58900 2.76200 23.70600
C  9.73300 2.75500 25.21300
C  7.07500 3.42100 22.92100
C  10.89900 2.80700 22.87200
C  11.43800 1.59800 22.14800
N  10.22700 2.44800 28.15300
C  10.73200 1.61900 27.17600
C  11.58900 0.66900 27.91200
C  11.40700 0.87200 29.28200
C  10.62800 2.05300 29.33300
C  12.31100 -0.50800 27.26800
C  11.79600 0.48800 30.60500
O  12.46300 -0.52300 30.88600
C  11.05000 1.43500 31.58000
C  10.01000 0.68400 32.31400
O  8.94600 0.30400 31.88800
O  10.54600 0.47500 33.58000
C  9.47600 -0.06100 34.48000
H  6.51600 6.66900 30.75200
H  7.04100 5.97600 24.37400
H  11.03700 1.10600 25.09700
H  8.53500 2.82500 32.80200
H  8.28500 5.76100 32.67400
H  6.38500 5.33700 33.63700
H  6.45700 3.59700 33.24100
H  5.60100 4.64400 32.17400
H  10.78000 4.78800 32.82700
H  10.63800 3.22900 33.65700
H  8.81900 4.21000 35.22600
H  9.26100 5.79600 34.57300
H  5.62300 9.45700 28.76000
H  5.39800 8.16100 29.92600
H  4.23700 8.44000 28.64100
H  4.12000 9.24600 26.23000
H  4.96800 10.15400 25.11100
H  5.67300 9.94100 26.76100
H  9.03700 4.50600 22.67200
H  9.21900 1.73900 23.63500
H  7.00900 2.33800 23.02800
H  6.76800 3.78000 21.93900
H  6.36100 3.81900 23.64200
H  11.69600 3.17800 23.51600
H  10.81200 3.54600 22.07600
H  12.46500 1.58700 22.51300
H  11.38200 1.69400 21.06400
H  10.99300 0.70400 22.58500
H  12.12400 -0.59100 26.19800
H  12.03300 -1.45800 27.72500
H  13.39700 -0.48300 27.35600
H  11.80300 1.92600 32.19700
H  8.88300 0.84600 34.59800
H  9.89300 -0.30300 35.45700
H  8.90600 -0.92600 34.14300

