158

Mg 47.43700 34.88000 27.18700
C  45.80100 33.28700 29.83600
C  47.50800 37.66200 29.23700
C  48.59800 36.50900 24.67400
C  46.53700 32.12000 25.08400
N  46.71100 35.36900 29.32200
C  46.32900 34.50500 30.25000
C  46.58000 35.01500 31.71800
C  46.60200 36.52200 31.40000
C  46.97000 36.56000 29.94100
C  45.35400 37.32600 31.75200
C  47.93300 34.39400 32.20400
C  48.12900 34.27400 33.72100
H  47.40100 35.23300 34.69300
N  47.95500 36.81200 26.97100
C  47.99000 37.80700 27.93400
C  48.75400 38.93800 27.43000
C  49.01900 38.65200 26.05300
C  48.47600 37.29300 25.81300
C  48.97200 40.21100 28.24600
C  49.81300 39.48100 25.07600
O  49.99200 39.07800 23.95600
C  50.42900 40.84600 25.42200
N  47.36300 34.47400 25.23700
C  48.07700 35.26400 24.38100
C  48.41600 34.53400 23.06900
C  47.55800 33.21900 23.15400
C  47.10500 33.23500 24.57700
C  48.10000 35.38700 21.77800
C  48.38400 31.90700 22.84900
C  49.33700 31.35600 23.93600
N  46.42400 33.01100 27.40400
C  46.14600 32.01200 26.43200
C  45.45600 30.96900 27.13200
C  45.27400 31.47200 28.38800
C  45.89300 32.67900 28.56400
C  45.09500 29.68700 26.64000
C  44.64800 31.10800 29.59200
O  44.03500 30.17900 29.92300
C  44.84800 32.35000 30.58800
C  45.28100 31.92000 31.94000
O  46.36100 31.51300 32.28300
O  44.24700 31.98900 32.82000
C  44.59200 31.81800 34.24900
H  47.57800 38.52700 29.89900
H  49.17700 36.97000 23.87100
H  46.23600 31.22000 24.54300
H  45.75800 34.63500 32.32400
H  47.38900 37.07500 31.91400
H  45.23500 38.23900 31.16900
H  45.61100 37.61600 32.77100
H  44.35600 36.89300 31.68400
H  48.79100 35.00800 31.93300
H  47.97600 33.37300 31.82400
H  49.19800 34.45500 33.83400
H  48.11300 33.23700 34.05500
H  49.06100 39.98000 29.30700
H  48.14200 40.90700 28.11800
H  49.85400 40.72700 27.86700
H  49.77700 41.53900 25.95400
H  50.54300 41.31100 24.44300
H  51.40600 40.74600 25.89500
H  49.47100 34.26300 23.04100
H  46.69900 33.27500 22.48600
H  49.01700 35.86500 21.43100
H  47.36900 36.16700 21.99100
H  47.64500 34.84500 20.94900
H  48.88500 32.03800 21.89000
H  47.67000 31.13600 22.56000
H  49.13300 30.29800 24.09900
H  49.33700 31.95100 24.84900
H  50.32400 31.30200 23.47700
H  44.07300 29.60700 26.26900
H  45.23900 29.04500 27.50900
H  45.75400 29.48800 25.79500
H  43.89900 32.84700 30.79100
H  45.28900 32.53700 34.68000
H  44.98800 30.81800 34.42500
H  43.65700 31.93800 34.79700
Mg -2.18700 35.14500 26.19600
C  -3.62700 33.41900 28.90400
C  -1.03600 37.58300 28.53900
C  -1.30100 37.24000 23.77300
C  -4.25600 33.39800 23.96500
N  -2.22600 35.45100 28.45100
C  -2.85300 34.56900 29.34000
C  -2.67100 35.05700 30.74900
C  -1.91100 36.43400 30.59100
C  -1.72700 36.56900 29.13700
C  -2.62500 37.64000 31.28700
C  -1.95800 33.91800 31.67100
C  -2.70700 33.43900 32.95400
H  -1.97200 33.39500 34.31500
N  -1.14500 36.96100 26.18000
C  -0.68100 37.73900 27.17400
C  0.27600 38.76000 26.69900
C  0.24500 38.68200 25.27300
C  -0.77600 37.62700 25.02200
C  0.94700 39.78900 27.65900
C  1.11100 39.37600 24.33600
O  0.93600 39.35000 23.13600
C  2.36600 40.15900 24.77100
N  -2.95900 35.37000 24.26300
C  -2.14100 36.16300 23.43300
C  -2.48900 35.92200 21.92300
C  -3.26600 34.56200 21.96300
C  -3.54800 34.41600 23.45900
C  -3.20800 37.16000 21.24900
C  -2.64000 33.36200 21.23400
C  -1.51000 32.56500 21.99800
N  -3.61600 33.61600 26.35400
C  -4.36700 32.95600 25.34500
C  -5.12200 31.89400 25.96500
C  -4.90000 32.03400 27.36000
C  -3.94900 33.09500 27.53500
C  -6.04300 30.91400 25.25300
C  -5.26600 31.59200 28.62500
O  -6.00400 30.69200 28.96200
C  -4.49900 32.45500 29.62400
C  -5.55400 33.21700 30.34300
O  -6.09100 34.28900 30.04200
O  -5.88800 32.52800 31.50800
C  -7.09700 32.95700 32.20100
H  -0.76700 38.31800 29.30000
H  -1.07700 37.69200 22.80400
H  -4.61300 32.68100 23.22400
H  -3.64100 35.23100 31.21400
H  -0.94400 36.47600 31.09200
H  -3.16100 38.16600 30.49700
H  -2.02600 38.41300 31.76800
H  -3.33600 37.26000 32.02100
H  -1.01100 34.40000 31.91500
H  -1.69200 33.04600 31.07300
H  -3.04600 32.41200 32.81800
H  -3.66100 33.96000 33.04500
H  0.28200 39.83100 28.52200
H  0.92500 40.74800 27.14200
H  1.93500 39.39800 27.90300
H  2.81100 39.43300 25.45200
H  2.08100 41.01100 25.38900
H  3.05000 40.47900 23.98600
H  -1.47900 35.79000 21.53600
H  -4.24500 34.75500 21.52500
H  -2.47800 37.95300 21.08600
H  -3.93300 37.60000 21.93300
H  -3.57400 37.00600 20.23300
H  -2.06400 33.73500 20.38700
H  -3.41600 32.72300 20.81500
H  -1.58300 32.72100 23.07400
H  -0.53200 32.86400 21.61900
H  -1.67200 31.51600 21.75000
H  -6.15100 31.25000 24.22100
H  -7.05100 30.88800 25.66400
H  -5.72100 29.90200 25.49800
H  -3.86100 31.85600 30.27500
H  -7.92000 33.00100 31.48800
H  -6.99300 33.86300 32.79900
H  -7.39800 32.12600 32.83900

