158

Mg 24.14600 -4.64300 45.99700
C  26.10700 -2.18400 44.64500
C  21.58500 -3.78200 43.95700
C  22.58500 -7.48600 46.85300
C  27.19600 -5.94500 47.57200
N  23.92700 -3.17700 44.62400
C  24.85300 -2.33300 44.12600
C  24.18400 -1.36200 43.11400
C  22.63800 -1.60700 43.20300
C  22.72800 -2.96000 43.91500
C  21.79200 -0.49100 43.88600
C  24.78600 -1.67600 41.70600
C  25.32100 -0.55400 40.82100
H  25.08700 -0.76200 39.32900
N  22.26200 -5.47300 45.53300
C  21.33100 -4.91900 44.66600
C  20.23800 -5.79200 44.50900
C  20.38800 -6.89900 45.41700
C  21.80800 -6.73100 45.95100
C  19.07800 -5.48500 43.64200
C  19.38600 -8.04600 45.74400
O  18.37000 -8.18900 45.10300
C  19.67700 -9.04800 46.76600
N  24.89500 -6.52200 46.94500
C  23.92500 -7.34200 47.41000
C  24.51900 -8.52100 48.21700
C  26.01800 -8.07500 48.38000
C  26.08400 -6.71500 47.62900
C  23.77000 -8.81500 49.54300
C  27.14100 -9.08000 47.81900
C  28.49100 -9.18300 48.64400
N  26.25900 -4.16200 46.20400
C  27.28900 -4.72400 46.88600
C  28.42400 -3.87600 46.73300
C  28.03800 -2.91700 45.83600
C  26.70000 -3.06800 45.55500
C  29.73400 -4.24700 47.31800
C  28.55500 -1.86600 44.92800
O  29.63700 -1.39900 44.79600
C  27.25500 -1.34300 44.16300
C  27.17000 0.17500 44.55600
O  26.47100 0.71400 45.43800
O  28.16600 0.82700 43.87200
C  28.39200 2.22700 44.15600
H  20.79400 -3.43700 43.28800
H  22.24200 -8.51800 46.95500
H  28.10600 -6.19700 48.12000
H  24.26000 -0.30000 43.34900
H  22.16400 -1.77700 42.23600
H  20.88700 -0.22000 43.34200
H  22.35100 0.43200 44.04000
H  21.62100 -0.88700 44.88600
H  23.96000 -2.21200 41.24100
H  25.57800 -2.42400 41.74000
H  26.36500 -0.52200 41.13300
H  24.68200 0.28200 41.10600
H  18.71200 -6.43200 43.24600
H  19.46700 -4.98200 42.75700
H  18.38400 -4.75700 44.06100
H  20.27900 -9.81800 46.28300
H  18.72100 -9.51900 46.99400
H  20.07000 -8.60100 47.67900
H  24.45100 -9.44900 47.64900
H  26.33500 -7.66900 49.34000
H  24.01700 -9.72400 50.09200
H  22.72400 -8.61300 49.31300
H  24.21100 -8.04400 50.17500
H  27.24600 -8.73100 46.79200
H  26.72700 -10.06700 47.61300
H  28.56700 -10.25100 48.84900
H  28.51200 -8.55800 49.53600
H  29.36900 -8.88400 48.07200
H  29.71500 -4.06700 48.39200
H  30.43800 -3.65400 46.73400
H  30.05200 -5.28000 47.17300
H  27.48900 -1.32000 43.09900
H  29.46000 2.28100 44.36700
H  27.79800 2.62900 44.97600
H  28.26000 2.68500 43.17500
Mg 47.75600 25.08100 28.20300
C  48.96700 27.28600 30.74600
C  46.79800 22.96100 30.62600
C  47.27000 22.86300 25.71600
C  49.17800 27.30200 25.80300
N  47.93400 25.07800 30.45800
C  48.25600 26.19800 31.27600
C  47.97600 25.91200 32.69400
C  47.43800 24.48200 32.73600
C  47.30200 24.18000 31.23800
C  48.28200 23.36800 33.41400
C  47.00300 27.06300 33.26500
C  46.15100 26.76900 34.48400
H  45.95400 27.80800 35.59000
N  47.19800 23.22200 28.17500
C  46.85300 22.47200 29.29500
C  46.39800 21.15700 28.92200
C  46.60200 21.08300 27.49700
C  47.08000 22.44300 27.04600
C  45.73600 20.15100 29.88300
C  46.18300 19.96600 26.54100
O  46.57000 19.92900 25.40200
C  45.28400 18.87200 27.01400
N  48.16900 25.08700 26.06900
C  47.88800 24.05000 25.28900
C  48.26200 24.26600 23.80000
C  48.67900 25.79600 23.80200
C  48.72200 26.10100 25.30300
C  49.32100 23.29200 23.17000
C  47.78200 26.76600 23.04700
C  48.33200 28.00900 22.41400
N  48.81800 26.90600 28.19100
C  49.35300 27.64000 27.17900
C  49.98200 28.76200 27.73900
C  49.90800 28.70600 29.13700
C  49.18000 27.50600 29.35000
C  50.58800 29.84700 26.94400
C  50.23300 29.36100 30.38700
O  50.83300 30.44700 30.52400
C  49.60900 28.45100 31.47600
C  50.63600 28.16100 32.48300
O  51.29900 27.17300 32.39100
O  50.72000 29.11600 33.38700
C  51.84100 28.83000 34.31000
H  46.37600 22.42000 31.47500
H  47.10400 22.18300 24.87800
H  49.72100 28.05000 25.22100
H  48.94700 25.95400 33.18800
H  46.43400 24.37500 33.14800
H  47.69900 22.70100 34.04900
H  48.99000 23.84700 34.09000
H  48.68900 22.72600 32.63300
H  46.29600 27.39100 32.50300
H  47.78500 27.77800 33.52200
H  46.44900 25.86200 35.01000
H  45.17500 26.57600 34.04000
H  46.41500 19.31300 30.03800
H  44.80600 19.72800 29.50300
H  45.58100 20.60900 30.86000
H  45.73500 18.24300 27.78100
H  45.05300 18.22200 26.17000
H  44.30600 19.20900 27.35600
H  47.34500 24.31400 23.21300
H  49.68800 25.89400 23.40200
H  49.82600 22.68900 23.92400
H  50.08600 23.76800 22.55600
H  48.73500 22.63400 22.52900
H  47.04000 27.12200 23.76300
H  47.32000 26.14400 22.28000
H  47.76700 28.15900 21.49400
H  49.40100 27.95800 22.20900
H  48.19200 28.86100 23.07900
H  49.86700 30.13700 26.17900
H  51.45400 29.38800 26.46800
H  50.83900 30.64900 27.63700
H  49.00700 29.12600 32.08400
H  52.78400 28.84600 33.76300
H  51.77100 27.97900 34.98700
H  51.88800 29.74700 34.89700

