158

Mg 36.48500 49.27900 24.91900
C  36.15200 47.45500 27.79000
C  35.30300 52.09000 26.40200
C  36.32600 50.73500 21.86400
C  37.35200 46.20000 23.26600
N  35.61100 49.66400 26.88800
C  35.86700 48.83700 27.99300
C  35.41800 49.54200 29.26200
C  35.18800 51.06300 28.78000
C  35.45200 50.95200 27.23000
C  33.73500 51.77800 29.13400
C  36.36900 49.38800 30.56300
C  35.77700 48.87400 31.93500
H  34.26400 49.03700 32.18000
N  35.83600 51.12900 24.23800
C  35.46500 52.16500 24.99900
C  35.17400 53.31200 24.25200
C  35.36200 52.97100 22.85900
C  35.86800 51.62200 22.94200
C  34.60400 54.59700 24.92400
C  35.25100 53.80300 21.67000
O  35.40900 53.38400 20.51600
C  34.95800 55.26300 21.75200
N  37.03600 48.62000 22.83400
C  36.70800 49.41100 21.83800
C  37.08500 48.74900 20.52400
C  37.75400 47.41000 21.01300
C  37.40400 47.34300 22.45800
C  35.89900 48.58100 19.62100
C  39.30900 47.36900 20.73200
C  40.27500 48.01600 21.68900
N  36.79400 47.29100 25.41000
C  37.17200 46.15700 24.65100
C  37.28400 44.96600 25.54800
C  36.76000 45.41100 26.78700
C  36.56800 46.85400 26.63700
C  37.63800 43.53100 25.13400
C  36.41800 45.08600 28.15100
O  36.51000 44.03000 28.79100
C  36.08900 46.42300 28.88900
C  34.85200 46.27400 29.75500
O  33.75700 46.66600 29.55200
O  35.18800 45.46400 30.79300
C  34.07700 45.05900 31.61900
H  35.14900 53.02600 26.94400
H  36.11700 51.16500 20.88200
H  37.72100 45.29300 22.78200
H  34.45100 49.15000 29.58000
H  35.98000 51.71500 29.14800
H  33.12800 51.84700 28.23100
H  33.78900 52.71900 29.68300
H  33.32500 51.03000 29.81300
H  36.88400 50.30400 30.85400
H  37.15500 48.72100 30.20700
H  36.33800 49.28600 32.77400
H  35.97700 47.80400 31.88900
H  33.97000 55.22400 24.29700
H  35.36100 55.21100 25.41200
H  33.86400 54.32500 25.67700
H  33.90500 55.19100 22.02500
H  35.05900 55.78000 20.79800
H  35.52600 55.79900 22.51100
H  37.85900 49.37600 20.08100
H  37.45700 46.47000 20.54700
H  35.05900 49.24400 19.82900
H  35.48600 47.57200 19.61800
H  36.10600 48.83100 18.58000
H  39.40000 47.70400 19.69900
H  39.48900 46.29500 20.76700
H  39.83700 48.72100 22.39600
H  41.11600 48.48100 21.17400
H  40.64600 47.13000 22.20500
H  38.69200 43.27400 25.03400
H  37.19300 43.28600 24.17000
H  37.21800 42.86100 25.88400
H  36.84800 46.71100 29.61600
H  33.09500 44.98700 31.15200
H  34.09400 45.73000 32.47800
H  34.33300 44.06500 31.98500
Mg -5.81700 25.50600 26.18300
C  -4.10500 26.70300 28.95900
C  -7.15500 22.95100 28.14700
C  -6.96400 23.93200 23.37700
C  -4.00900 27.75900 24.22500
N  -5.47400 24.80600 28.28300
C  -4.93900 25.55900 29.28300
C  -5.42000 25.12000 30.63600
C  -6.21600 23.80300 30.34700
C  -6.31500 23.86900 28.83800
C  -5.57100 22.44600 30.88200
C  -6.26100 26.24400 31.34400
C  -5.88400 26.69400 32.78400
H  -5.55500 25.68100 33.86100
N  -6.93700 23.73100 25.84900
C  -7.40700 22.87500 26.82500
C  -8.31400 21.96800 26.20800
C  -8.11300 22.08100 24.82100
C  -7.33400 23.29800 24.63300
C  -9.26000 21.06400 27.01400
C  -8.74300 21.27900 23.72700
O  -8.58800 21.45800 22.47900
C  -9.50100 19.99200 24.17100
N  -5.49300 25.82000 24.02800
C  -6.11900 25.06000 23.14000
C  -5.94900 25.63300 21.71100
C  -5.14500 26.99100 21.92900
C  -4.94900 26.93900 23.46800
C  -5.26400 24.63700 20.79000
C  -5.88600 28.29200 21.50400
C  -5.40400 29.12400 20.32900
N  -4.30900 26.93700 26.48800
C  -3.68200 27.79700 25.59700
C  -2.76500 28.65700 26.31700
C  -2.90000 28.23400 27.71400
C  -3.87400 27.25700 27.73100
C  -2.01100 29.66500 25.73800
C  -2.56200 28.56700 29.01500
O  -1.87700 29.44200 29.48000
C  -3.34200 27.52800 29.93400
C  -2.26300 26.73300 30.63300
O  -1.33100 26.12300 30.05700
O  -2.45200 26.80900 32.01900
C  -1.38700 26.34700 32.90300
H  -7.66800 22.21000 28.76400
H  -7.52400 23.67100 22.47700
H  -3.47300 28.47400 23.59700
H  -4.51800 24.94700 31.22300
H  -7.26600 23.79800 30.63900
H  -6.22500 22.34600 31.74800
H  -4.54500 22.71200 31.13900
H  -5.59900 21.54500 30.27000
H  -7.32200 25.99600 31.34900
H  -6.15100 27.14400 30.74000
H  -6.82000 27.16500 33.08600
H  -5.12900 27.48000 32.75800
H  -8.83600 20.06100 27.07100
H  -10.29400 21.08200 26.66800
H  -9.33700 21.43400 28.03700
H  -9.74400 19.52400 23.21700
H  -10.41900 20.28500 24.68200
H  -8.92000 19.32300 24.80500
H  -6.91600 25.98900 21.35500
H  -4.20100 27.01800 21.38600
H  -5.91300 23.79400 20.55400
H  -4.35900 24.21400 21.22800
H  -5.03500 25.11500 19.83700
H  -5.80300 29.02600 22.30600
H  -6.96900 28.18800 21.43400
H  -5.09500 30.09300 20.72200
H  -6.25000 29.17700 19.64400
H  -4.51500 28.63500 19.92900
H  -2.38000 30.60500 26.14800
H  -2.03600 29.72900 24.65000
H  -1.06500 29.39100 26.20500
H  -4.03100 28.12100 30.53400
H  -0.73400 25.55200 32.54300
H  -1.96800 26.06700 33.78300
H  -0.90600 27.29700 33.13600

