158

Mg -2.43500 17.17100 26.50500
C  -2.96000 14.98500 29.31500
C  -3.03500 19.83000 28.63800
C  -2.26100 19.05700 23.81600
C  -2.39200 14.29800 24.36100
N  -2.84600 17.38200 28.74800
C  -2.99500 16.34600 29.69200
C  -3.26000 17.00200 31.06400
C  -3.06500 18.51900 30.92200
C  -3.00700 18.64000 29.35700
C  -3.99000 19.48900 31.56700
C  -2.50700 16.27400 32.31300
C  -2.35000 17.15600 33.57900
H  -1.80100 16.51000 34.82000
N  -2.61700 19.12600 26.24100
C  -2.90000 20.10800 27.19100
C  -2.80400 21.46000 26.59900
C  -2.41600 21.24200 25.22500
C  -2.42600 19.77100 25.01100
C  -3.00700 22.73200 27.35300
C  -2.10000 22.20600 24.13900
O  -1.99600 21.96400 22.94500
C  -1.88800 23.71200 24.42000
N  -2.43000 16.72400 24.35900
C  -2.24300 17.69500 23.46900
C  -2.30300 17.12800 22.00900
C  -2.11200 15.60600 22.23000
C  -2.35100 15.52800 23.76900
C  -3.44700 17.63900 21.11200
C  -0.67200 14.98500 21.86200
C  0.58500 15.58300 22.52000
N  -2.43200 15.09500 26.77500
C  -2.58900 14.04700 25.79000
C  -2.81400 12.78600 26.46400
C  -2.85300 13.18600 27.81900
C  -2.64600 14.54600 27.97100
C  -2.98000 11.37100 25.98600
C  -3.11700 12.59500 29.19200
O  -3.44000 11.48300 29.59000
C  -3.08200 13.77000 30.15400
C  -1.95500 13.49100 31.08300
O  -0.75000 13.76200 30.91000
O  -2.45200 12.83300 32.19200
C  -1.48800 12.50400 33.27900
H  -3.04700 20.67100 29.33500
H  -2.23700 19.74000 22.96400
H  -2.46200 13.32300 23.87300
H  -4.31500 16.86600 31.30100
H  -2.04600 18.77300 31.21400
H  -4.51100 20.18600 30.91000
H  -3.47000 20.12200 32.28500
H  -4.74300 18.89000 32.07900
H  -1.54400 15.90700 31.95700
H  -3.15000 15.44700 32.61400
H  -3.30900 17.62500 33.80100
H  -1.51800 17.81800 33.33900
H  -3.25600 22.49100 28.38700
H  -3.81300 23.30700 26.89600
H  -2.12400 23.37100 27.34000
H  -1.10700 23.94300 25.14500
H  -2.84600 24.03600 24.82600
H  -1.64800 24.28800 23.52700
H  -1.42300 17.51000 21.49100
H  -2.97600 15.10800 21.79000
H  -4.11200 16.83900 20.78800
H  -2.98500 18.14000 20.26200
H  -4.14700 18.21100 21.72100
H  -0.53600 15.11800 20.78800
H  -0.72800 13.91500 22.05700
H  0.22800 16.27700 23.28200
H  1.24300 16.09200 21.81600
H  1.16900 14.77900 22.96800
H  -4.00100 11.00500 26.09600
H  -2.30200 10.67500 26.47900
H  -2.73100 11.26200 24.93000
H  -3.98300 13.83700 30.76400
H  -0.96900 11.56500 33.08600
H  -2.07700 12.38000 34.18800
H  -0.80200 13.33400 33.44400
Mg 16.18500 -1.33300 28.51100
C  15.06700 0.64300 31.11000
C  18.32300 -3.00800 30.65800
C  17.55100 -2.94000 25.80600
C  14.36100 0.74800 26.39300
N  16.82700 -0.96300 30.65600
C  16.01900 -0.30400 31.55800
C  16.55500 -0.59000 32.95600
C  17.57700 -1.77600 32.71900
C  17.59100 -1.96800 31.25800
C  18.99000 -1.63500 33.40600
C  15.35600 -1.01500 33.93000
C  15.75500 -1.13900 35.39600
H  16.94800 -0.41800 35.95900
N  17.80200 -2.79900 28.21000
C  18.45300 -3.38300 29.29000
C  19.27700 -4.40600 28.75200
C  19.09300 -4.50600 27.33100
C  18.12900 -3.44000 27.00900
C  20.18400 -5.23400 29.70000
C  19.81700 -5.45300 26.35100
O  19.53500 -5.56300 25.09100
C  20.94200 -6.33300 26.83800
N  15.91000 -1.25200 26.38000
C  16.72800 -1.89100 25.50400
C  16.60300 -1.29600 24.08200
C  15.39200 -0.29600 24.30700
C  15.21100 -0.22300 25.79900
C  17.90800 -0.76500 23.44200
C  14.09200 -0.52400 23.53700
C  12.83700 -1.11600 24.23900
N  14.98800 0.33200 28.61000
C  14.14200 0.99900 27.73100
C  13.35100 2.02000 28.31900
C  13.66200 1.89900 29.68800
C  14.70700 0.92300 29.78100
C  12.47700 2.96200 27.65800
C  13.40900 2.49500 30.94900
O  12.63800 3.39400 31.29800
C  14.24300 1.67400 31.98100
C  15.16900 2.55600 32.74400
O  16.17200 3.08300 32.28100
O  14.68800 2.80200 33.99200
C  15.42700 3.80800 34.72000
H  18.79100 -3.61400 31.43600
H  18.02100 -3.54600 25.02800
H  13.75900 1.36700 25.72500
H  17.15300 0.20100 33.41000
H  17.30000 -2.77600 33.05100
H  19.73900 -1.74100 32.62100
H  19.15300 -2.37800 34.18700
H  19.02000 -0.71000 33.98200
H  15.11400 -2.06000 33.73900
H  14.56600 -0.27600 33.79400
H  15.95000 -2.19400 35.59000
H  14.84000 -0.84600 35.91100
H  21.26300 -5.22700 29.54600
H  19.81000 -6.22100 29.42800
H  19.97400 -5.20600 30.76900
H  21.29700 -7.02300 26.07200
H  20.48200 -7.01500 27.55300
H  21.77900 -5.77300 27.25400
H  16.26200 -2.17900 23.54100
H  15.71300 0.72700 24.11000
H  18.74200 -1.12900 24.04200
H  17.71800 0.30800 23.41100
H  17.90700 -1.10000 22.40500
H  14.39800 -1.29800 22.83300
H  13.69700 0.35100 23.02100
H  12.14900 -0.37500 24.64800
H  13.08000 -1.68100 25.13800
H  12.25800 -1.74000 23.55700
H  12.82500 3.16500 26.64500
H  12.55600 3.91500 28.18100
H  11.47100 2.55400 27.75900
H  13.59100 1.09800 32.63700
H  16.48700 3.55900 34.69000
H  14.92500 4.01800 35.66400
H  15.31100 4.72200 34.13700

