158

Mg 25.97100 0.41300 29.80000
C  27.70300 0.18800 32.74900
C  23.04500 0.68700 31.43400
C  24.48900 0.48800 26.78800
C  29.08100 -0.30000 28.04500
N  25.49300 0.43500 31.83000
C  26.29500 0.39800 32.87200
C  25.51600 0.71000 34.22800
C  24.06300 0.54600 33.76400
C  24.17900 0.54300 32.25200
C  23.42100 -0.83500 34.22100
C  25.98500 2.12200 34.73500
C  26.68900 2.15700 36.05300
H  26.22000 3.28500 37.09200
N  24.07400 0.44200 29.18800
C  22.92600 0.57600 29.98700
C  21.70900 0.58700 29.22600
C  22.19200 0.41000 27.85500
C  23.66500 0.50500 27.87100
C  20.32800 0.65000 29.87400
C  21.30800 0.31800 26.55900
O  21.76700 0.21800 25.42100
C  19.79000 0.37400 26.77700
N  26.75900 0.17000 27.67200
C  25.82400 0.18800 26.65000
C  26.58300 0.19900 25.34000
C  28.08100 -0.06000 25.70500
C  28.04700 -0.01100 27.22300
C  26.04700 -0.99100 24.52800
C  29.16200 0.88300 25.21100
C  28.90600 1.57100 23.90800
N  27.93900 -0.01100 30.28000
C  29.05200 -0.34400 29.50200
C  30.24500 -0.40300 30.37100
C  29.76600 -0.10400 31.66500
C  28.36900 0.04100 31.55900
C  31.57800 -0.70000 29.86300
C  30.15300 0.11500 33.04400
O  31.27200 0.21800 33.53300
C  28.85800 0.29200 33.80400
C  28.91900 -0.67900 34.90200
O  28.57100 -1.82400 34.74000
O  29.29400 -0.16800 36.11800
C  29.18200 -0.91400 37.37400
H  22.15500 0.76300 32.06100
H  24.12000 0.64400 25.77200
H  30.01400 -0.52200 27.52300
H  25.80900 -0.04300 34.96000
H  23.45300 1.33600 34.20200
H  22.94300 -0.63000 35.17900
H  24.24000 -1.51900 34.44500
H  22.73600 -1.40100 33.59000
H  25.06700 2.69700 34.85600
H  26.64200 2.52400 33.96400
H  27.77200 2.23600 35.95100
H  26.47700 1.21300 36.55600
H  20.28500 0.10500 30.81700
H  19.55400 0.09300 29.34700
H  19.97800 1.67300 30.00700
H  19.40900 -0.41000 27.43100
H  19.33300 0.28400 25.79100
H  19.50800 1.35500 27.15800
H  26.26900 1.06200 24.75300
H  28.38900 -1.09500 25.55700
H  25.32800 -1.56100 25.11600
H  26.85600 -1.62400 24.16200
H  25.44700 -0.64800 23.68500
H  30.10900 0.34500 25.17000
H  29.33300 1.61300 26.00300
H  29.69800 1.18300 23.26600
H  29.10900 2.63800 24.00300
H  27.95000 1.47300 23.39400
H  31.67600 -1.63600 29.31300
H  32.23200 -0.83300 30.72500
H  31.76200 0.08300 29.12800
H  28.83800 1.28600 34.25200
H  28.83600 -1.92800 37.17600
H  28.58400 -0.31900 38.06400
H  30.11800 -1.07300 37.91100
Mg 26.66900 50.88300 27.29200
C  24.48600 51.74000 29.89800
C  28.88100 49.69200 29.76700
C  28.68100 49.96500 24.81800
C  24.16600 51.92500 25.00500
N  26.69200 50.84300 29.53100
C  25.62000 51.21100 30.36800
C  25.94300 50.77700 31.82200
C  27.46400 50.27600 31.79700
C  27.68600 50.29300 30.28500
C  28.43100 51.15700 32.63400
C  24.89400 49.75900 32.49500
C  24.12000 50.24500 33.73900
H  23.95200 49.24800 34.87200
N  28.55800 50.03400 27.26800
C  29.31500 49.61300 28.42100
C  30.60100 49.25400 27.91300
C  30.67700 49.34300 26.48500
C  29.26500 49.80400 26.09400
C  31.64200 48.76300 28.89200
C  31.81200 49.09400 25.51000
O  31.63200 49.05000 24.30300
C  33.20900 48.82600 26.10100
N  26.45400 51.10500 25.23100
C  27.50200 50.58000 24.37900
C  27.07000 50.62800 22.88400
C  25.63100 51.24000 22.98500
C  25.37100 51.40600 24.48800
C  27.94500 51.56500 22.05100
C  24.62700 50.22000 22.38800
C  23.81000 50.74300 21.19800
N  24.76200 51.77200 27.31300
C  23.84800 52.05100 26.33300
C  22.71600 52.66200 26.93000
C  22.87100 52.57600 28.29900
C  24.16300 52.05600 28.56300
C  21.51400 53.26700 26.19200
C  22.17200 52.73900 29.57000
O  21.09000 53.20600 29.95000
C  23.21500 52.23400 30.60700
C  23.54800 53.35600 31.43200
O  24.07200 54.39400 31.06000
O  23.09400 53.07300 32.75300
C  23.39700 53.94900 33.87700
H  29.44900 49.28000 30.60400
H  29.24100 49.55900 23.97400
H  23.29000 52.16000 24.39700
H  25.86400 51.66500 32.44900
H  27.55200 49.26800 32.20100
H  28.70500 50.62000 33.54200
H  27.89800 52.01700 33.03800
H  29.31400 51.58200 32.15700
H  25.28600 48.76500 32.71200
H  24.09600 49.62500 31.76500
H  23.14300 50.66600 33.50100
H  24.71100 51.03900 34.19600
H  32.42600 49.47800 29.14300
H  32.18700 47.97400 28.37500
H  31.18700 48.32400 29.78000
H  33.45500 49.27800 27.06200
H  33.80600 49.32300 25.33600
H  33.38800 47.75000 26.11100
H  27.12700 49.58300 22.57900
H  25.54200 52.25800 22.60700
H  28.59500 52.15600 22.69600
H  27.45100 52.12100 21.25400
H  28.62900 50.90300 21.52000
H  23.94500 49.81800 23.13700
H  25.12200 49.31600 22.03200
H  23.92900 51.80900 21.00400
H  22.73900 50.65200 21.37700
H  24.19900 50.23900 20.31300
H  20.73300 53.41900 26.93700
H  21.17100 52.49100 25.50800
H  21.70300 54.22500 25.70700
H  22.70200 51.40800 31.10000
H  23.95800 54.82700 33.55700
H  23.99600 53.36800 34.57800
H  22.47200 54.20200 34.39400

