158

Mg 26.43100 -1.55900 29.58300
C  28.49900 -1.41600 32.40300
C  23.68500 -1.27300 31.55400
C  24.37900 -1.73400 26.78200
C  29.20700 -2.34900 27.66900
N  26.11700 -1.50100 31.80900
C  27.10000 -1.26700 32.71400
C  26.55800 -0.83100 34.07000
C  24.98100 -0.82400 33.77200
C  24.90000 -1.30900 32.32500
C  24.12900 -1.72900 34.72400
C  27.00300 0.52600 34.66600
C  27.86200 0.40600 35.89100
H  27.66500 1.38800 37.02300
N  24.31900 -1.53300 29.20200
C  23.34900 -1.32700 30.21500
C  22.06200 -1.29600 29.60100
C  22.25200 -1.32000 28.20300
C  23.63400 -1.60800 28.00100
C  20.78000 -1.32000 30.39600
C  21.18600 -1.23400 27.03900
O  21.41500 -1.48500 25.84300
C  19.75500 -0.96700 27.39200
N  26.74100 -1.88500 27.60600
C  25.69500 -1.98000 26.62400
C  26.36000 -2.11500 25.18900
C  27.85200 -2.25400 25.50700
C  27.95200 -2.13300 27.02800
C  25.72600 -3.31700 24.35400
C  28.82300 -1.34300 24.67500
C  29.00200 0.14400 25.18100
N  28.44200 -1.82300 29.92500
C  29.46800 -2.13900 29.07400
C  30.73400 -2.17900 29.79500
C  30.33100 -1.82500 31.08500
C  28.98000 -1.66200 31.12800
C  32.03500 -2.46700 29.18500
C  30.89400 -1.75000 32.36600
O  32.02600 -1.88400 32.81500
C  29.68400 -1.44800 33.34900
C  29.66200 -2.42300 34.49000
O  29.11000 -3.51200 34.50200
O  30.22000 -1.88500 35.60600
C  30.21900 -2.78600 36.77100
H  22.79300 -1.04600 32.14200
H  23.78800 -1.88800 25.87700
H  30.02100 -2.54700 26.96900
H  26.82400 -1.67000 34.71300
H  24.66900 0.21900 33.72600
H  23.26600 -1.12300 34.99800
H  24.64800 -2.12400 35.59800
H  23.70800 -2.55200 34.14500
H  26.11000 1.14500 34.75600
H  27.69500 0.90800 33.91600
H  28.90700 0.53100 35.60600
H  27.72400 -0.57600 36.34300
H  20.37800 -0.30900 30.46100
H  20.98200 -1.56900 31.43700
H  20.16000 -2.05900 29.88900
H  19.23700 -1.89000 27.65200
H  19.17500 -0.59800 26.54600
H  19.77500 -0.20600 28.17200
H  26.13500 -1.14700 24.74100
H  28.21400 -3.27600 25.39900
H  26.39800 -4.17500 24.38200
H  25.67800 -3.14400 23.27900
H  24.72300 -3.64800 24.62400
H  28.42600 -1.20700 23.67000
H  29.82800 -1.72100 24.48700
H  30.06700 0.37300 25.19000
H  28.67400 0.22600 26.21700
H  28.51300 0.84000 24.49900
H  31.81800 -2.60600 28.12600
H  32.53900 -3.27000 29.72300
H  32.49200 -1.49700 29.38000
H  29.79300 -0.47900 33.83600
H  29.21400 -3.04700 37.10200
H  30.76400 -2.23800 37.53900
H  30.76200 -3.69400 36.50800
Mg -0.96900 44.01500 26.54800
C  1.34000 43.65700 29.18000
C  -3.34200 42.71000 28.56500
C  -3.12200 43.88800 23.92600
C  1.74200 44.73300 24.30400
N  -1.02600 43.47600 28.69200
C  0.02800 43.46700 29.60800
C  -0.47100 43.12700 30.98400
C  -1.91700 42.56900 30.71700
C  -2.10900 42.91400 29.21900
C  -2.05800 41.08400 31.02600
C  -0.53300 44.43200 31.89500
C  -0.86800 44.44800 33.38100
H  -0.83800 43.14100 34.09700
N  -2.95900 43.54500 26.30200
C  -3.80400 43.05500 27.29200
C  -5.08600 42.94100 26.76100
C  -5.13600 43.23700 25.38600
C  -3.70600 43.60900 25.18200
C  -6.31300 42.53600 27.65200
C  -6.21000 43.02200 24.32800
O  -5.97400 43.25100 23.14900
C  -7.58400 42.71500 24.81500
N  -0.67200 44.29400 24.45500
C  -1.80500 44.23200 23.60200
C  -1.34800 44.45200 22.14500
C  0.21200 44.90000 22.27200
C  0.47000 44.65400 23.74500
C  -1.54900 43.25200 21.13300
C  0.52300 46.36800 21.85100
C  1.81600 46.64600 21.09000
N  1.16700 44.13400 26.62100
C  2.08100 44.46200 25.68100
C  3.30500 44.53700 26.39500
C  3.09300 44.19900 27.69200
C  1.73400 44.01800 27.80100
C  4.59900 45.03000 25.72000
C  3.77300 44.18900 29.02200
O  4.93500 44.30500 29.40300
C  2.65000 43.82300 30.03400
C  2.92500 42.45500 30.59700
O  2.32300 41.43400 30.23800
O  3.96000 42.47500 31.47700
C  4.03400 41.28200 32.36500
H  -4.03500 42.14700 29.19500
H  -3.68600 43.86800 22.99100
H  2.63400 45.01200 23.74000
H  0.11400 42.38200 31.52200
H  -2.54600 43.12800 31.41000
H  -2.99900 40.93500 31.55700
H  -1.22400 40.85900 31.69000
H  -2.02700 40.61200 30.04400
H  -0.94400 45.30000 31.37900
H  0.52600 44.68200 31.84700
H  -1.81000 44.98800 33.48100
H  -0.14100 45.12600 33.82500
H  -7.15300 43.18900 27.42000
H  -6.14200 42.74900 28.70700
H  -6.62900 41.49500 27.58000
H  -7.52200 41.68300 25.16200
H  -8.20100 42.91000 23.93800
H  -7.90200 43.40900 25.59300
H  -1.82900 45.26200 21.59600
H  0.92300 44.24000 21.77400
H  -1.62900 42.27100 21.60100
H  -0.78000 43.29200 20.36200
H  -2.47500 43.42500 20.58500
H  0.53600 46.91800 22.79200
H  -0.24700 46.76600 21.19000
H  2.66300 46.28500 21.67400
H  1.81800 47.72600 20.94300
H  1.77800 46.14000 20.12600
H  4.96200 45.84600 26.34500
H  4.33800 45.31600 24.70100
H  5.45600 44.35900 25.67600
H  2.57000 44.48700 30.89400
H  3.02100 40.88700 32.44900
H  4.44500 41.52800 33.34400
H  4.76200 40.60300 31.92200

