158

Mg 2.35400 -0.64200 43.94200
C  5.74400 0.12000 43.24900
C  1.43900 2.22900 42.46100
C  -0.60700 -1.80500 44.10600
C  3.67200 -3.78100 45.34300
N  3.48600 0.94500 43.00300
C  4.84400 1.12300 42.88100
C  5.20500 2.49100 42.30600
C  3.81500 3.26400 42.28600
C  2.85700 2.08600 42.56900
C  3.62600 4.47100 43.27900
C  5.82900 2.42500 40.94000
C  6.91300 3.50100 40.55100
H  6.71600 4.04600 39.14300
N  0.57000 0.12400 43.46100
C  0.37000 1.32700 42.81200
C  -1.05600 1.51000 42.57300
C  -1.68400 0.37900 43.13100
C  -0.60700 -0.48600 43.60900
C  -1.66100 2.80000 41.97600
C  -3.14700 0.18000 43.27600
O  -3.99600 1.01800 43.03000
C  -3.79600 -1.08700 43.80800
N  1.68500 -2.54400 44.63500
C  0.35500 -2.74800 44.46900
C  0.04000 -4.24400 44.91000
C  1.36200 -4.86800 45.36500
C  2.33300 -3.67600 45.09200
C  -1.20600 -4.37000 45.88700
C  1.70600 -6.19000 44.72300
C  2.17100 -7.25500 45.73800
N  4.28900 -1.70000 44.25000
C  4.62200 -2.84700 44.90800
C  6.09500 -2.94000 44.98500
C  6.54800 -1.81300 44.32700
C  5.41300 -1.07100 43.89000
C  6.94200 -4.05400 45.58200
C  7.79300 -1.13700 43.90300
O  8.93200 -1.48400 43.99800
C  7.30500 0.14000 43.18300
C  7.74300 1.17600 44.10600
O  7.31900 1.36400 45.22000
O  8.64500 1.97400 43.53800
C  9.15000 3.02300 44.37600
H  1.25200 3.26900 42.18300
H  -1.58900 -2.25600 43.95200
H  4.05300 -4.69900 45.79400
H  5.91100 2.98600 42.97300
H  3.55900 3.67500 41.30900
H  4.36900 4.53400 44.07400
H  2.68600 4.45700 43.83200
H  3.68200 5.32200 42.60100
H  5.04900 2.32600 40.18500
H  6.26000 1.44900 40.71600
H  7.84200 2.94300 40.67100
H  6.75300 4.27500 41.30100
H  -0.97100 3.30900 41.30400
H  -1.76700 3.52800 42.78000
H  -2.47500 2.58500 41.28300
H  -4.85000 -0.83200 43.91800
H  -3.37400 -1.20100 44.80700
H  -3.61900 -2.01800 43.26900
H  -0.30200 -4.72700 43.99400
H  1.37500 -4.99600 46.44800
H  -0.84800 -4.68600 46.86600
H  -1.95900 -5.03000 45.45600
H  -1.71100 -3.42700 46.09700
H  2.61500 -6.03300 44.14300
H  1.01800 -6.54900 43.95700
H  2.18700 -8.26400 45.32700
H  1.53000 -7.26000 46.62000
H  3.21500 -7.01900 45.94700
H  6.87300 -4.91200 44.91300
H  6.58700 -4.38400 46.55900
H  7.94600 -3.68200 45.78400
H  7.75700 0.27700 42.20100
H  9.93200 3.41000 43.72300
H  9.71000 2.77800 45.27800
H  8.39200 3.77300 44.60000
Mg -2.53200 34.28000 26.62500
C  -4.44100 32.89700 29.25900
C  -1.72900 36.94500 28.64400
C  -0.88700 35.73200 24.07300
C  -4.06900 31.98000 24.55800
N  -3.21500 34.81200 28.68000
C  -3.76700 33.99200 29.63600
C  -3.75400 34.73200 30.98700
C  -2.97300 36.09600 30.62100
C  -2.65300 35.97400 29.17200
C  -3.75800 37.36100 30.97400
C  -3.09600 34.02600 32.15700
C  -2.67200 34.84800 33.42500
H  -3.19700 34.53000 34.83800
N  -1.45300 36.12100 26.37100
C  -1.22100 37.06000 27.29400
C  -0.29000 38.09400 26.82300
C  0.00600 37.71800 25.48200
C  -0.83400 36.53300 25.20900
C  0.30800 39.23400 27.72000
C  0.93500 38.34900 24.42200
O  1.03500 37.96100 23.28500
C  1.76000 39.51200 24.86600
N  -2.62500 33.98500 24.63600
C  -1.79300 34.67700 23.79600
C  -1.69100 33.95400 22.40900
C  -2.65800 32.73100 22.57400
C  -3.15200 32.93000 24.04700
C  -2.02300 34.75800 21.10300
C  -1.82300 31.40800 22.46500
C  -2.59600 30.24800 21.90200
N  -3.99300 32.75400 26.80900
C  -4.49100 31.87500 25.88500
C  -5.38100 30.85500 26.50000
C  -5.40200 31.27800 27.89900
C  -4.56200 32.40300 27.98200
C  -6.03000 29.71000 25.76700
C  -5.94600 30.95600 29.21600
O  -6.67400 30.04100 29.47700
C  -5.26900 31.93700 30.19500
C  -6.29900 32.60200 31.04700
O  -7.11100 33.40200 30.57600
O  -6.26900 32.15700 32.32600
C  -7.39400 32.50700 33.25200
H  -1.41400 37.72600 29.34000
H  -0.31000 36.01100 23.18900
H  -4.45400 31.19800 23.90000
H  -4.81200 34.89900 31.18700
H  -2.00200 36.14500 31.11300
H  -3.47800 38.19000 30.32400
H  -3.56900 37.63900 32.01000
H  -4.81900 37.19900 30.77900
H  -2.35600 33.31200 31.79500
H  -3.78200 33.29500 32.58600
H  -2.84900 35.91900 33.33100
H  -1.58800 34.77100 33.50500
H  1.34100 38.94800 27.91400
H  -0.30700 39.32100 28.61700
H  0.23000 40.19500 27.21200
H  2.21100 39.35900 25.84600
H  1.11400 40.38500 24.95600
H  2.55500 39.75700 24.16100
H  -0.65400 33.65200 22.26100
H  -3.55800 32.78300 21.96200
H  -2.37100 35.78000 21.25500
H  -2.68900 34.27300 20.39000
H  -1.14400 34.90200 20.47500
H  -1.54700 31.21800 23.50200
H  -0.87700 31.55500 21.94600
H  -1.96100 29.72500 21.18700
H  -3.55800 30.49500 21.45200
H  -2.73500 29.56100 22.73700
H  -7.02500 29.90300 25.36600
H  -6.10200 28.86600 26.45400
H  -5.38500 29.55400 24.90300
H  -4.57600 31.45500 30.88400
H  -8.03200 33.19800 32.70000
H  -7.04400 32.89100 34.21000
H  -7.98300 31.61600 33.47200

