158

Mg 55.83600 24.40400 45.05200
C  53.12800 26.15700 43.49000
C  54.40300 21.38400 43.96400
C  58.70700 22.85900 45.69500
C  57.29700 27.56400 45.59400
N  54.11200 23.88900 43.64800
C  53.06900 24.72600 43.28500
C  51.85300 23.86600 42.82000
C  52.22400 22.44800 43.23800
C  53.69800 22.53900 43.56400
C  51.29300 21.87700 44.31900
C  51.43600 23.99000 41.29800
C  49.87100 24.06000 41.10400
H  49.48300 23.28600 39.90200
N  56.42800 22.41400 44.91200
C  55.71500 21.34200 44.44300
C  56.47900 20.09400 44.55900
C  57.70700 20.50400 45.03000
C  57.66200 21.98000 45.27900
C  56.01700 18.75100 43.98300
C  58.95500 19.60500 45.19000
O  58.91000 18.42200 44.94000
C  60.29300 20.07600 45.73200
N  57.64300 25.12900 45.86900
C  58.74100 24.25000 46.01000
C  60.01900 25.03700 46.30100
C  59.58400 26.57700 46.14000
C  58.07900 26.45500 45.89600
C  60.79400 24.75900 47.57900
C  60.32400 27.39100 44.94600
C  59.79300 27.18400 43.54900
N  55.31500 26.47300 44.67000
C  55.98900 27.61400 45.05400
C  55.06200 28.79200 44.96900
C  53.96700 28.25400 44.31400
C  54.15100 26.87600 44.11800
C  55.30500 30.20700 45.25800
C  52.63400 28.56000 43.76000
O  51.97300 29.59900 43.73200
C  52.14600 27.17200 43.25600
C  51.82400 27.49700 41.79500
O  52.56600 27.47300 40.86900
O  50.48300 27.68100 41.70000
C  49.83600 27.91100 40.37900
H  53.87700 20.44200 43.79600
H  59.73000 22.48500 45.77000
H  57.86000 28.49400 45.70000
H  51.06800 24.27400 43.45700
H  52.30000 21.76400 42.39300
H  50.39100 22.46800 44.47900
H  51.87200 21.81700 45.24000
H  50.78200 20.96600 44.00500
H  51.94300 23.18500 40.76600
H  51.89900 24.94700 41.05900
H  49.38700 25.03100 41.00100
H  49.54100 23.61700 42.04400
H  56.75600 18.34100 43.29400
H  55.00400 18.80900 43.58400
H  55.93800 18.01300 44.78100
H  60.76000 20.91200 45.21100
H  61.06000 19.31200 45.60800
H  60.05300 20.31800 46.76700
H  60.70300 24.77800 45.49300
H  59.71200 27.14000 47.06400
H  60.77400 23.69300 47.80300
H  60.32400 25.30200 48.39800
H  61.85100 24.99400 47.44700
H  61.40000 27.21700 44.95200
H  60.16300 28.40100 45.32200
H  60.61700 26.90800 42.89000
H  59.34500 28.10600 43.17700
H  59.07100 26.38200 43.39300
H  55.20700 30.62300 44.25500
H  56.36400 30.44700 45.35100
H  54.69100 30.72700 45.99400
H  51.23500 26.81200 43.73400
H  50.54800 28.45500 39.75900
H  48.97300 28.56200 40.51700
H  49.40300 27.09900 39.79400
Mg 6.08600 53.50600 40.68300
C  5.20200 50.10000 40.50800
C  9.34300 52.66700 39.83300
C  6.64300 56.76800 39.82400
C  2.67000 54.30700 41.17400
N  7.12900 51.56800 40.12900
C  6.60100 50.30100 40.17000
C  7.57400 49.27100 39.74700
C  8.94300 50.05500 39.83900
C  8.46700 51.53300 39.90500
C  9.83800 49.60900 41.07600
C  7.40000 48.58400 38.35500
C  6.98000 49.46500 37.12600
H  6.00200 48.89400 36.10600
N  7.70600 54.60300 39.96800
C  9.03900 54.06200 39.76400
C  9.95100 55.14600 39.32800
C  9.12800 56.35300 39.41800
C  7.75000 55.93700 39.76100
C  11.34600 55.08000 38.80500
C  9.58700 57.80000 39.00300
O  10.76200 57.99200 38.75400
C  8.65800 58.96300 38.94800
N  4.77200 55.28100 40.38600
C  5.28100 56.45700 40.18800
C  4.22300 57.59800 40.25200
C  2.99100 56.81800 40.74400
C  3.47600 55.35400 40.84200
C  4.64200 58.81100 41.22600
C  1.75500 56.97200 39.71200
C  0.46800 57.63300 40.26700
N  4.30900 52.44000 40.98300
C  2.99100 52.90300 41.12100
C  2.08700 51.75900 41.28100
C  2.89800 50.63400 41.05500
C  4.26100 51.13600 40.86100
C  0.61200 51.88300 41.52200
C  2.97000 49.20400 40.94300
O  2.09300 48.38600 41.17700
C  4.44300 48.78400 40.71000
C  4.38500 47.86200 39.55400
O  4.14200 48.21800 38.42700
O  4.75100 46.53400 39.88700
C  5.07300 45.71200 38.72200
H  10.38900 52.47800 39.58200
H  6.77800 57.83900 39.65700
H  1.67100 54.61300 41.49200
H  7.49900 48.53500 40.54800
H  9.55000 49.87600 38.95100
H  10.71100 49.07800 40.69600
H  9.28000 48.88900 41.67400
H  10.23400 50.42600 41.67900
H  6.62100 47.83800 38.51100
H  8.33200 48.07100 38.11700
H  7.87800 49.82000 36.62000
H  6.59300 50.42100 37.48100
H  11.50900 55.26100 37.74200
H  11.76900 54.10900 39.06500
H  12.01700 55.75100 39.34100
H  9.22100 59.87200 38.73500
H  8.35300 59.24900 39.95500
H  7.81900 58.93100 38.25300
H  4.10100 58.04300 39.26400
H  2.76300 57.11100 41.76900
H  3.89100 58.99800 41.99400
H  4.74100 59.78100 40.73800
H  5.56400 58.50000 41.71700
H  1.49700 55.96000 39.40100
H  1.97800 57.52000 38.79700
H  -0.24800 56.82400 40.41600
H  0.04800 58.40100 39.61900
H  0.68200 58.08100 41.23800
H  0.19100 51.50800 40.58900
H  0.23600 52.89900 41.63800
H  0.54900 51.24100 42.40100
H  4.80500 48.22700 41.57400
H  5.94900 46.02800 38.15500
H  4.17900 45.74500 38.09800
H  5.21400 44.66700 38.99900

