158

Mg 49.01500 35.07300 27.17300
C  46.82400 34.42000 29.84000
C  49.92000 38.00200 28.78100
C  50.86400 35.78300 24.59000
C  47.76900 32.18300 25.63300
N  48.52100 36.10100 29.14400
C  47.66200 35.58900 30.09600
C  47.55200 36.47700 31.32900
C  48.31300 37.79000 30.85200
C  49.00300 37.27900 29.50500
C  47.47600 39.08800 30.66300
C  48.23900 35.88500 32.63100
C  47.44500 35.77300 33.86600
H  47.60600 36.81900 34.99900
N  50.20400 36.69100 26.74800
C  50.50800 37.73000 27.55500
C  51.32300 38.70300 26.80000
C  51.67900 38.03600 25.62000
C  50.98400 36.77900 25.62000
C  51.77500 39.99000 27.33900
C  52.61100 38.54500 24.50900
O  52.85700 37.80300 23.54500
C  53.25700 39.93300 24.54800
N  49.28800 34.14200 25.25900
C  50.10900 34.63000 24.34600
C  50.18700 33.81400 23.10600
C  49.26600 32.56600 23.40900
C  48.79000 32.88800 24.85600
C  49.76800 34.59000 21.89600
C  49.93000 31.15400 23.42500
C  51.09900 30.77700 22.47300
N  47.43100 33.66700 27.50400
C  47.13900 32.51800 26.88400
C  46.07900 31.78000 27.63200
C  45.87100 32.59100 28.72900
C  46.74300 33.66400 28.64500
C  45.55800 30.38800 27.42500
C  45.16800 32.60200 29.98400
O  44.43100 31.74200 30.43000
C  45.70200 33.83500 30.71100
C  46.18800 33.27700 31.97300
O  47.29300 32.80000 32.13800
O  45.18100 33.30500 32.89500
C  45.46500 32.61700 34.18400
H  50.13600 38.93800 29.30000
H  51.43800 36.11500 23.72200
H  47.54000 31.24300 25.12700
H  46.53300 36.76500 31.58800
H  49.09400 38.07500 31.55700
H  46.46500 38.85900 31.00000
H  47.38400 39.45600 29.64100
H  47.91200 39.87300 31.28200
H  49.02500 36.57300 32.94200
H  48.79800 34.95500 32.52900
H  47.58100 34.83200 34.40000
H  46.39000 35.84400 33.60200
H  51.46700 40.76700 26.63900
H  52.85000 40.16500 27.34600
H  51.48600 40.20600 28.36800
H  52.42700 40.63800 24.51100
H  53.84000 39.97700 23.62900
H  53.90600 39.90500 25.42300
H  51.21200 33.44900 23.03000
H  48.39100 32.56100 22.76000
H  49.20000 35.47500 22.18200
H  49.07200 34.14100 21.18800
H  50.59300 35.01700 21.32500
H  49.05400 30.59300 23.09800
H  50.27100 30.94100 24.43800
H  51.18500 31.48000 21.64400
H  51.05500 29.75100 22.10900
H  51.93900 30.82200 23.16600
H  46.07200 30.02900 26.53400
H  44.55300 30.35300 27.00500
H  45.68500 29.70300 28.26300
H  44.88600 34.55100 30.81000
H  46.44800 32.16600 34.32400
H  44.60300 32.05400 34.54300
H  45.57600 33.47800 34.84300
Mg 0.45700 43.28300 25.43700
C  2.23000 43.05900 28.28600
C  -2.46300 42.52500 27.23200
C  -1.16400 42.26400 22.59900
C  3.33100 43.87100 23.54000
N  -0.06600 42.81000 27.56100
C  0.82800 42.91800 28.59700
C  0.21800 42.83300 30.00900
C  -1.29800 42.72300 29.54100
C  -1.28800 42.61400 28.03800
C  -2.13800 41.56300 30.27800
C  0.51900 44.02800 31.07700
C  0.92200 43.74100 32.46600
H  0.61300 42.30600 33.16400
N  -1.47200 42.57900 24.92500
C  -2.49800 42.51800 25.83300
C  -3.75000 42.43600 25.08500
C  -3.39300 42.20700 23.73600
C  -1.96000 42.35100 23.73400
C  -5.08200 42.63300 25.81800
C  -4.32100 41.98200 22.42900
O  -3.92100 42.11800 21.29700
C  -5.72700 41.74900 22.66700
N  1.05000 42.99500 23.31600
C  0.15800 42.57600 22.40200
C  0.83700 42.64400 20.98400
C  2.13600 43.50900 21.31300
C  2.18000 43.46100 22.83900
C  1.14800 41.31700 20.29200
C  2.19800 44.99400 20.75700
C  2.26000 46.12300 21.76100
N  2.46900 43.41900 25.80200
C  3.51800 43.70300 24.93500
C  4.70100 43.83100 25.77300
C  4.26200 43.61800 27.08200
C  2.85100 43.30200 27.05800
C  6.10000 44.19300 25.35000
C  4.67300 43.51300 28.45700
O  5.79000 43.62500 28.95100
C  3.43900 43.09800 29.28900
C  3.73300 41.89300 30.14700
O  3.38100 40.75300 29.88200
O  4.37700 42.30500 31.33100
C  4.83400 41.19700 32.18900
H  -3.35700 42.47400 27.85700
H  -1.69900 41.78100 21.77800
H  4.23100 44.26800 23.06600
H  0.60100 41.93900 30.50100
H  -1.81200 43.64200 29.82300
H  -2.84600 42.08700 30.92000
H  -1.48800 40.88200 30.82800
H  -2.74600 41.09900 29.50200
H  -0.41000 44.58500 31.20100
H  1.23500 44.72300 30.63800
H  0.37900 44.30800 33.22100
H  1.97500 44.00300 32.57500
H  -5.83400 43.09000 25.17500
H  -4.99500 43.32000 26.66000
H  -5.56300 41.78500 26.30500
H  -5.85200 41.03300 23.48000
H  -6.22900 41.42700 21.75500
H  -6.26200 42.69200 22.77200
H  0.09800 43.20200 20.40900
H  3.05100 42.98000 21.04900
H  1.24500 40.60500 21.11200
H  2.13500 41.32000 19.83100
H  0.39900 41.11100 19.52800
H  1.45000 45.31600 20.03200
H  3.16000 44.93000 20.24700
H  1.28600 46.14400 22.25000
H  2.38000 47.14800 21.41200
H  2.93600 46.04700 22.61200
H  6.32500 45.11800 25.88100
H  6.24400 44.21700 24.27000
H  6.85500 43.50500 25.73000
H  3.48000 43.90200 30.02500
H  5.54400 40.63700 31.58200
H  3.93800 40.67100 32.51800
H  5.28200 41.73000 33.02800

