158

Mg 25.67300 1.49000 29.04000
C  27.53800 0.78700 31.98600
C  22.86800 1.68100 30.88300
C  23.99900 1.66400 26.12300
C  28.61700 0.46600 27.21900
N  25.30200 1.24500 31.25200
C  26.17600 1.11000 32.27500
C  25.46800 1.24600 33.62700
C  23.97700 1.57000 33.18800
C  24.05200 1.58200 31.70300
C  22.95700 0.45800 33.62800
C  26.17200 2.31500 34.58100
C  26.92700 1.92900 35.90500
H  26.57800 2.81500 37.11400
N  23.68700 1.70000 28.52900
C  22.69400 1.78100 29.42200
C  21.43900 2.01200 28.75500
C  21.72500 2.04300 27.34200
C  23.17300 1.76000 27.25600
C  20.08900 2.25200 29.46900
C  20.80500 2.24300 26.11700
O  21.13900 2.03000 24.95200
C  19.25400 2.55300 26.24300
N  26.24400 0.97000 26.94100
C  25.30000 1.24200 25.97400
C  26.01900 1.26100 24.56100
C  27.48000 0.88800 24.87900
C  27.48000 0.71300 26.40300
C  25.38500 0.44200 23.45700
C  28.53000 1.80900 24.20500
C  29.02300 1.51300 22.77200
N  27.72700 0.85900 29.43500
C  28.73800 0.41000 28.62400
C  29.81800 -0.09800 29.47200
C  29.49700 0.16300 30.75900
C  28.12000 0.66800 30.74000
C  31.00400 -0.73900 28.91900
C  29.94800 0.01400 32.09600
O  31.03000 -0.27900 32.57100
C  28.68700 0.44500 32.98400
C  28.23400 -0.68000 33.73800
O  27.39900 -1.50200 33.32500
O  28.87600 -0.69300 34.95500
C  28.42200 -1.65000 35.92000
H  21.87000 1.70100 31.32600
H  23.50400 1.86400 25.17000
H  29.43900 0.23100 26.53900
H  25.59500 0.27500 34.10500
H  23.57600 2.48100 33.63100
H  22.07700 0.94100 34.05300
H  23.47500 -0.12600 34.38900
H  22.61800 -0.17500 32.80800
H  25.40300 2.99100 34.95700
H  26.76100 2.97400 33.94400
H  27.97100 1.77700 35.63000
H  26.53100 0.92100 36.03200
H  20.15400 1.60500 30.34400
H  19.17500 1.97600 28.94400
H  19.90900 3.27900 29.78700
H  18.88500 2.66500 25.22400
H  19.18900 3.50500 26.77000
H  18.68100 1.83900 26.83500
H  25.86100 2.30400 24.28500
H  27.69800 -0.09600 24.46300
H  25.65300 -0.61400 23.45100
H  25.58900 0.78600 22.44300
H  24.31200 0.48700 23.64200
H  29.44800 1.72200 24.78600
H  28.28300 2.86600 24.29800
H  30.09200 1.69200 22.65600
H  28.37300 2.18100 22.20500
H  28.65500 0.51000 22.55500
H  30.82100 -1.05200 27.89100
H  31.36100 -1.59600 29.49000
H  31.78500 0.00300 29.09000
H  28.82700 1.32000 33.61800
H  29.24400 -1.80500 36.61900
H  28.29400 -2.63500 35.47000
H  27.59800 -1.31400 36.54900
Mg 17.16000 52.45800 26.21500
C  19.11700 50.78500 28.78200
C  14.84000 53.05000 28.58900
C  15.37900 53.54700 23.83900
C  19.53700 51.07900 23.95200
N  16.98100 51.84600 28.40500
C  17.91900 51.31700 29.25800
C  17.60000 51.61000 30.70400
C  16.04200 51.90000 30.58000
C  15.96800 52.35800 29.13900
C  15.01300 50.81400 30.90800
C  18.60000 52.67500 31.41500
C  19.08900 52.37100 32.80800
H  18.06400 51.67600 33.67000
N  15.39700 53.30100 26.17900
C  14.51800 53.47000 27.28600
C  13.34300 54.11300 26.88200
C  13.54100 54.34400 25.42000
C  14.76000 53.70600 25.07400
C  12.20400 54.53000 27.81100
C  12.66700 55.23800 24.53200
O  12.93700 55.51600 23.35900
C  11.44600 55.74800 25.07400
N  17.21300 52.05300 24.14000
C  16.42800 52.79800 23.35300
C  17.05000 53.02800 21.92600
C  18.38800 52.24700 22.09300
C  18.42200 51.85200 23.53800
C  16.03800 52.51900 20.84500
C  19.65900 52.98400 21.45000
C  20.01900 54.40700 21.93900
N  18.97600 51.28900 26.29900
C  19.72900 50.80600 25.31500
C  20.99900 50.22300 25.83700
C  20.70100 50.14200 27.15000
C  19.52300 50.85500 27.48100
C  22.12600 49.61000 24.95700
C  21.25100 49.70800 28.38800
O  22.30800 48.99900 28.54900
C  20.25500 50.08700 29.48100
C  19.74600 48.93700 30.28100
O  18.64100 48.39500 30.12800
O  20.55400 48.73900 31.35500
C  20.08200 47.76700 32.39300
H  13.97700 53.23900 29.23100
H  14.85000 54.07800 23.04500
H  20.39300 50.73800 23.36500
H  17.69000 50.62600 31.16400
H  15.77500 52.78100 31.16400
H  14.68100 50.89700 31.94300
H  15.41700 49.81800 30.72800
H  14.19800 50.85700 30.18500
H  18.11000 53.64500 31.32400
H  19.42900 52.70700 30.70900
H  19.44100 53.23600 33.37100
H  20.00400 51.78900 32.69700
H  12.18200 55.56100 28.16200
H  12.32800 54.17200 28.83400
H  11.21400 54.34000 27.39700
H  11.78500 56.44000 25.84500
H  10.83500 54.92000 25.43400
H  10.92600 56.28500 24.28000
H  17.19400 54.10400 21.82800
H  18.29800 51.27900 21.60000
H  15.58100 53.39700 20.38800
H  15.35500 51.78900 21.28000
H  16.60600 52.12100 20.00500
H  19.38800 53.04400 20.39600
H  20.57200 52.38900 21.49100
H  20.08200 55.10700 21.10600
H  21.05500 54.44900 22.27600
H  19.42700 54.77400 22.77800
H  22.44500 50.31600 24.19000
H  21.88400 48.63500 24.53400
H  22.94500 49.38000 25.63900
H  20.73100 50.73400 30.21700
H  19.99100 46.74400 32.03000
H  19.13800 48.23200 32.67600
H  20.80500 47.69600 33.20600

