158

Mg 16.28700 -1.91300 27.82700
C  15.19600 0.04100 30.52200
C  18.44000 -3.52500 30.04300
C  17.24700 -3.76200 25.39100
C  14.39500 0.26500 25.68200
N  16.75400 -1.73700 30.05700
C  16.16000 -0.84900 30.96900
C  16.73600 -1.08400 32.40300
C  17.96600 -1.95200 32.13800
C  17.71800 -2.43300 30.62900
C  19.22800 -1.10500 32.20300
C  15.75700 -1.62100 33.43300
C  15.71100 -0.84600 34.78100
H  17.02700 -0.35300 35.34600
N  17.51700 -3.53700 27.74300
C  18.31900 -4.06100 28.72800
C  18.98200 -5.24600 28.18500
C  18.73500 -5.24800 26.78300
C  17.75800 -4.20100 26.56900
C  19.88500 -6.27300 28.95900
C  19.25500 -6.16200 25.69100
O  18.86100 -6.03700 24.54200
C  20.25200 -7.25200 26.01000
N  15.95900 -1.68900 25.88700
C  16.51800 -2.60300 25.04500
C  16.31400 -2.14400 23.55400
C  15.22000 -0.99700 23.69100
C  15.20200 -0.73900 25.20700
C  17.57400 -1.79400 22.67400
C  13.85300 -1.37000 23.26800
C  13.06300 -0.28900 22.44100
N  15.05300 -0.18900 28.01700
C  14.30700 0.54400 27.09600
C  13.47700 1.48300 27.73300
C  13.75700 1.30800 29.06600
C  14.71500 0.27500 29.19300
C  12.48600 2.39600 27.16100
C  13.47700 1.85700 30.40800
O  12.81800 2.83600 30.81100
C  14.39700 1.08100 31.38700
C  15.27200 2.00200 32.25000
O  16.41000 2.33700 32.00400
O  14.61000 2.35400 33.40500
C  15.34200 3.34500 34.22700
H  19.19000 -3.97100 30.70000
H  17.43200 -4.32300 24.47300
H  13.90800 0.81800 24.87600
H  16.98200 -0.15200 32.91100
H  18.23800 -2.79900 32.76800
H  19.98200 -1.41600 31.48000
H  19.64600 -1.23200 33.20100
H  18.89300 -0.06800 32.21600
H  16.01700 -2.65200 33.67400
H  14.72400 -1.59600 33.08500
H  15.20400 -1.47000 35.51800
H  15.12000 0.06600 34.69900
H  19.98500 -6.05800 30.02300
H  20.87900 -6.34700 28.51700
H  19.54000 -7.28500 28.74900
H  20.54700 -7.66100 25.04400
H  19.69600 -8.04200 26.51500
H  21.12600 -6.91000 26.56500
H  15.91200 -3.04400 23.08900
H  15.58400 -0.09000 23.20900
H  18.45900 -2.02200 23.26900
H  17.43200 -0.78200 22.29300
H  17.50800 -2.54000 21.88200
H  13.33700 -1.61900 24.19600
H  13.84800 -2.31600 22.72700
H  12.19800 -0.01000 23.04200
H  12.67800 -0.69900 21.50700
H  13.61200 0.64800 22.34700
H  12.96100 3.07200 26.45000
H  12.12400 3.07000 27.93600
H  11.60300 1.93700 26.71500
H  13.69500 0.60300 32.07100
H  15.49600 4.25500 33.64700
H  16.23900 2.97200 34.72300
H  14.62800 3.72400 34.95800
Mg 49.54600 46.36000 43.08300
C  46.40600 47.02900 41.57500
C  49.49900 43.30200 41.26200
C  52.75700 46.06400 43.70200
C  49.51900 49.70500 44.26600
N  48.18000 45.37000 41.44700
C  46.91200 45.81200 41.07200
C  46.26900 44.86300 40.07400
C  47.14300 43.54300 40.27000
C  48.38500 44.09800 41.06000
C  46.48700 42.40100 40.99000
C  46.36600 45.47700 38.62800
C  45.22100 44.90300 37.70100
H  45.69300 44.34900 36.32400
N  50.99500 44.87300 42.64600
C  50.70600 43.65800 41.97600
C  51.96600 42.91500 41.97100
C  52.96900 43.64500 42.63300
C  52.27700 44.92500 43.01400
C  52.16200 41.62300 41.31500
C  54.48300 43.27300 42.86400
O  54.95800 42.18700 42.55100
C  55.37000 44.21400 43.55200
N  50.94100 47.76700 43.62300
C  52.15600 47.31500 43.92300
C  53.05700 48.50400 44.49300
C  52.02400 49.65000 44.78000
C  50.76100 49.01900 44.22300
C  53.95800 48.14400 45.73000
C  52.40300 51.08800 44.09300
C  52.11900 52.35400 44.99500
N  48.16900 47.97500 43.19400
C  48.31000 49.23300 43.72800
C  46.95600 49.82400 43.66000
C  46.20300 49.01800 42.87700
C  46.96500 47.90400 42.53100
C  46.48700 51.18200 44.08500
C  44.87200 48.92200 42.25600
O  43.91700 49.70300 42.27300
C  44.96000 47.58300 41.32700
C  43.96400 46.72300 41.92600
O  44.17600 45.93200 42.86400
O  42.77700 46.96200 41.38000
C  41.67900 46.04000 41.73200
H  49.57200 42.29600 40.84300
H  53.80500 46.06200 44.01200
H  49.48300 50.64200 44.82600
H  45.24000 44.67500 40.38100
H  47.41500 43.18900 39.27500
H  46.06400 41.60000 40.38400
H  45.79300 42.73100 41.76300
H  47.10800 41.94200 41.76000
H  47.29500 45.32500 38.07800
H  46.19000 46.55300 38.61700
H  44.42600 45.63200 37.54900
H  44.89800 43.93600 38.08700
H  52.71000 40.94400 41.96700
H  52.76900 41.93600 40.46500
H  51.38500 41.07400 40.78300
H  55.02200 44.28800 44.58200
H  55.44100 45.21300 43.12200
H  56.39700 43.85900 43.63800
H  53.69200 49.04200 43.78900
H  51.89900 49.73400 45.85900
H  53.93300 47.08600 45.99200
H  53.67000 48.72500 46.60600
H  54.96900 48.45100 45.46300
H  51.74300 51.24300 43.24000
H  53.41900 51.17900 43.70900
H  53.10400 52.61700 45.38100
H  51.57000 52.01700 45.87500
H  51.58800 53.14500 44.46700
H  45.64200 51.43700 43.44600
H  47.27300 51.93700 44.04600
H  46.05600 51.00500 45.07100
H  44.83900 47.86200 40.28000
H  40.74100 46.36000 41.27900
H  41.45800 46.18700 42.78900
H  41.87000 44.99800 41.47800

