158

Mg 17.70600 -1.51300 26.84900
C  16.48100 0.50500 29.31300
C  19.61500 -3.31900 29.17900
C  18.99100 -3.21800 24.31700
C  16.21200 0.73600 24.30100
N  18.16400 -1.28700 28.90300
C  17.35700 -0.53800 29.76700
C  17.72000 -0.75300 31.20900
C  18.75700 -1.82200 31.12700
C  18.90300 -2.20400 29.68400
C  20.16500 -1.52000 31.73300
C  16.55000 -1.07500 32.06500
C  16.50900 -0.39100 33.52800
H  17.88700 0.12500 34.17200
N  18.98200 -3.18400 26.73500
C  19.70300 -3.79400 27.79600
C  20.42500 -4.91500 27.21500
C  20.15300 -4.93300 25.80200
C  19.24900 -3.80900 25.59600
C  21.27100 -5.80400 28.14000
C  20.67100 -5.88400 24.70700
O  20.44500 -5.75600 23.49200
C  21.61500 -6.98500 25.06700
N  17.39500 -1.40500 24.52800
C  18.20400 -2.17900 23.77600
C  18.21300 -1.77200 22.23200
C  17.31500 -0.55100 22.30800
C  16.88200 -0.36700 23.79200
C  19.66700 -1.49900 21.69900
C  16.14000 -0.57100 21.27700
C  14.70800 -0.94300 21.69400
N  16.51400 0.23600 26.74900
C  15.99400 1.00100 25.71700
C  15.22800 2.10300 26.30500
C  15.46400 1.99700 27.71700
C  16.16800 0.81100 27.96800
C  14.41300 3.13100 25.58600
C  15.28700 2.60800 28.95600
O  14.80300 3.64000 29.35300
C  15.82100 1.64300 30.08000
C  16.80600 2.52200 30.73900
O  17.90700 2.80300 30.31700
O  16.28600 2.95800 31.99000
C  17.14900 3.70700 32.86500
H  20.21300 -3.83200 29.93500
H  19.58800 -3.70600 23.54400
H  15.87900 1.43600 23.53200
H  18.12600 0.18400 31.59000
H  18.39200 -2.72300 31.61900
H  20.27100 -0.48300 32.05000
H  21.00200 -1.78900 31.08900
H  20.34500 -2.22700 32.54400
H  16.34300 -2.13400 32.21800
H  15.72400 -0.64600 31.49800
H  16.23700 -1.16800 34.24200
H  15.69300 0.33100 33.54600
H  21.55600 -5.22800 29.02000
H  22.14500 -6.20700 27.62800
H  20.64600 -6.64200 28.44800
H  21.21200 -7.80800 25.65700
H  22.41500 -6.58400 25.69000
H  21.90200 -7.41800 24.10900
H  17.55600 -2.48300 21.73200
H  17.88500 0.32200 21.98900
H  20.42300 -1.61900 22.47400
H  19.74800 -0.44900 21.41700
H  19.83500 -2.22000 20.89900
H  16.50800 -1.09300 20.39400
H  15.94500 0.43700 20.91100
H  14.36300 -0.15900 22.37000
H  14.66500 -1.88300 22.24400
H  14.19500 -1.02800 20.73600
H  14.00300 2.71700 24.66500
H  15.06200 3.93400 25.23500
H  13.64300 3.52200 26.25000
H  15.11700 1.26300 30.82000
H  18.19400 3.64800 32.56200
H  16.98000 3.36500 33.88500
H  16.94800 4.77400 32.76400
Mg 46.87600 24.61600 29.33700
C  47.49700 27.18300 31.66900
C  45.75800 22.65100 31.93700
C  46.72700 22.05400 27.19400
C  48.37300 26.61900 26.88000
N  46.68900 24.93700 31.59800
C  46.99400 26.07900 32.34300
C  46.37000 25.91800 33.79700
C  45.94000 24.39800 33.84200
C  46.07000 23.96800 32.36800
C  46.91800 23.52400 34.70000
C  45.29800 26.93700 34.29200
C  45.64200 27.61900 35.63400
H  46.35400 26.83300 36.70100
N  46.51000 22.60600 29.58500
C  45.99100 22.00100 30.73200
C  45.49400 20.65900 30.34400
C  45.64000 20.53000 28.98500
C  46.38200 21.71400 28.53400
C  44.78400 19.67900 31.34600
C  45.33700 19.30800 28.03300
O  45.64300 19.26300 26.87100
C  44.62200 18.11500 28.51900
N  47.60100 24.30700 27.29800
C  47.30500 23.17200 26.62800
C  47.89100 23.19600 25.20900
C  48.28700 24.73400 25.02000
C  48.06500 25.28600 26.50400
C  48.95600 22.08900 24.90500
C  47.48000 25.54300 23.91500
C  46.21700 26.22800 24.33500
N  47.67700 26.50900 29.20700
C  48.30500 27.13300 28.15800
C  48.79000 28.47500 28.60700
C  48.39500 28.52500 29.94600
C  47.78900 27.28600 30.27400
C  49.47100 29.47300 27.84300
C  48.56300 29.34500 31.12700
O  48.97400 30.46600 31.27100
C  47.86000 28.51700 32.29800
C  48.77800 28.26100 33.41500
O  49.62900 27.39100 33.40000
O  48.64100 29.17700 34.41600
C  49.58000 29.08800 35.53700
H  45.20100 22.06800 32.67400
H  46.74500 21.20100 26.51200
H  48.67300 27.25500 26.04400
H  47.29100 26.15400 34.33000
H  44.91000 24.25400 34.16800
H  47.52100 24.17900 35.32800
H  47.62400 22.89900 34.15200
H  46.37800 22.84500 35.35900
H  44.41000 26.36800 34.56500
H  45.18400 27.67300 33.49600
H  44.71800 27.82100 36.17500
H  45.98700 28.62200 35.38100
H  45.21300 18.70600 31.10700
H  43.73100 19.85500 31.12800
H  44.93800 19.90800 32.40000
H  45.32200 17.58000 29.16200
H  44.36700 17.45500 27.69000
H  43.66300 18.43300 28.92700
H  46.96800 22.88700 24.71800
H  49.36000 24.82800 24.85800
H  49.23000 21.49200 25.77500
H  49.79900 22.62500 24.47000
H  48.48600 21.34200 24.26600
H  47.37600 24.89800 23.04300
H  48.25000 26.28900 23.72000
H  45.37000 25.66200 23.94800
H  46.14100 27.27800 24.05100
H  46.08900 26.20800 25.41700
H  48.71200 29.75400 27.11300
H  50.31300 29.00400 27.33500
H  49.91500 30.31400 28.37600
H  46.91600 28.98400 32.57600
H  49.15000 28.50700 36.35200
H  49.70900 30.09000 35.94600
H  50.59000 28.74800 35.30800

