158

Mg 6.54100 54.65100 39.84600
C  6.24600 51.13400 39.77000
C  9.86300 54.24100 39.02100
C  6.75600 57.94800 39.31500
C  3.08400 54.80400 40.31800
N  7.83700 52.88200 39.25400
C  7.54600 51.59400 39.43900
C  8.75900 50.77700 39.22900
C  9.89400 51.75800 39.51200
C  9.18700 53.03300 39.25200
C  10.58400 51.65600 40.86900
C  8.76500 50.03900 37.81500
C  8.52700 50.99000 36.64600
H  7.19500 50.94200 35.96200
N  8.11300 55.90600 39.18200
C  9.42000 55.58300 38.96200
C  10.25100 56.74800 38.78600
C  9.35700 57.85000 38.87700
C  7.97600 57.28300 39.10400
C  11.72900 56.79400 38.43700
C  9.75100 59.31900 38.53500
O  10.87200 59.66300 38.38500
C  8.63900 60.44600 38.58100
N  5.08300 56.21200 39.67200
C  5.42700 57.51800 39.57200
C  4.20300 58.43600 39.55700
C  3.08600 57.44700 40.10100
C  3.75800 56.06000 40.03900
C  4.45100 59.67900 40.46400
C  1.83600 57.53700 39.27500
C  0.49800 57.71300 39.94900
N  4.94900 53.29400 39.97700
C  3.61000 53.46900 40.22600
C  2.93800 52.17200 40.56200
C  3.95200 51.24800 40.37500
C  5.11800 51.97000 40.02500
C  1.48300 52.00700 40.98700
C  4.28200 49.80600 40.41700
O  3.60600 48.85200 40.77100
C  5.80000 49.63300 39.98600
C  5.62900 48.94600 38.63100
O  4.95000 49.29800 37.66700
O  6.32600 47.77000 38.68200
C  6.17200 46.77700 37.59900
H  10.94800 54.12700 39.07700
H  6.72200 59.03700 39.24300
H  2.01400 54.87600 40.52700
H  8.77300 50.05300 40.04400
H  10.65900 51.58600 38.75600
H  10.60300 52.64300 41.33100
H  11.60700 51.29800 40.74900
H  10.11500 50.91300 41.51400
H  7.91500 49.37300 37.66400
H  9.68100 49.47100 37.65200
H  9.17900 50.60700 35.86100
H  8.81200 52.00200 36.93300
H  11.62900 57.07800 37.39000
H  12.13200 55.78400 38.36100
H  12.41000 57.49300 38.92300
H  9.11100 61.40500 38.36600
H  8.19600 60.44600 39.57700
H  7.96200 60.19400 37.76400
H  3.98400 58.74200 38.53500
H  2.88200 57.68500 41.14500
H  4.10700 60.52000 39.86400
H  5.47200 59.83100 40.81500
H  3.89500 59.61000 41.39900
H  1.80300 56.68500 38.59600
H  1.95400 58.44500 38.68400
H  0.58400 57.44500 41.00200
H  -0.20100 57.05700 39.43100
H  0.14500 58.73100 39.78400
H  0.91500 52.54200 40.22500
H  1.30500 52.38300 41.99400
H  1.29900 50.93300 40.97800
H  6.33300 48.96500 40.66200
H  7.10500 46.21900 37.51300
H  5.84400 47.26200 36.68000
H  5.42800 46.08300 37.98900
Mg -10.47700 17.22800 42.08900
C  -6.95400 16.81300 42.32300
C  -9.75200 20.61800 41.24600
C  -13.59500 17.55100 41.00100
C  -10.70400 13.73300 41.78500
N  -8.56200 18.54800 41.74600
C  -7.30400 18.07900 41.84700
C  -6.31400 19.20100 41.35900
C  -7.18400 20.47300 41.57800
C  -8.59300 19.87300 41.52500
C  -6.95600 21.11800 42.96700
C  -5.93400 18.85400 39.82800
C  -4.48200 18.35400 39.53300
H  -4.26700 17.03700 38.80100
N  -11.53100 18.93800 41.46400
C  -11.05900 20.20800 41.15600
C  -12.24600 21.03300 40.86300
C  -13.35800 20.17400 40.81700
C  -12.91100 18.79800 41.11800
C  -12.17300 22.58300 40.68200
C  -14.73700 20.58000 40.35800
O  -14.80100 21.66700 39.80900
C  -15.96400 19.69800 40.48800
N  -11.93400 15.85900 41.46800
C  -13.16900 16.21300 41.19400
C  -14.11700 15.00000 41.08800
C  -13.06300 13.81200 40.94500
C  -11.81700 14.48600 41.54500
C  -15.28700 14.82100 42.14200
C  -12.81100 13.13700 39.50400
C  -13.75600 11.89000 39.28400
N  -9.17400 15.58000 42.30800
C  -9.38600 14.20100 42.20300
C  -8.14400 13.47600 42.45700
C  -7.14000 14.43300 42.49000
C  -7.78600 15.69200 42.36200
C  -7.92900 12.03800 42.61100
C  -5.73900 14.73800 42.68400
O  -4.83000 14.00200 42.92400
C  -5.53000 16.32000 42.46900
C  -4.85600 16.99900 43.64000
O  -5.15200 16.89400 44.81200
O  -3.77100 17.69100 43.26400
C  -2.98000 18.50200 44.24800
H  -9.73200 21.70900 41.21100
H  -14.57200 17.61600 40.51800
H  -10.73500 12.67300 41.52500
H  -5.36100 19.26500 41.88500
H  -6.86300 21.18700 40.82000
H  -7.78900 21.15500 43.66800
H  -6.60700 22.13800 42.80300
H  -6.20100 20.59000 43.55000
H  -6.07300 19.74400 39.21400
H  -6.61000 18.14500 39.35000
H  -3.89000 18.35800 40.44900
H  -3.99200 19.10700 38.91600
H  -12.53200 22.88900 39.69900
H  -11.19700 23.06800 40.68600
H  -12.81100 22.95800 41.48300
H  -16.74100 20.46300 40.46400
H  -15.74700 19.28700 41.47400
H  -16.11500 19.06700 39.61200
H  -14.47500 15.19600 40.07700
H  -13.48300 13.05200 41.60400
H  -14.96700 15.41300 43.00000
H  -15.59400 13.79500 42.34400
H  -16.16900 15.37500 41.82100
H  -11.77100 12.81600 39.44500
H  -12.89300 13.97400 38.81100
H  -14.30200 11.53300 40.15700
H  -13.20900 11.11000 38.75400
H  -14.61100 12.00400 38.61700
H  -7.06600 11.73600 42.01700
H  -8.78800 11.36700 42.62100
H  -7.55100 11.86300 43.61800
H  -4.90000 16.56700 41.61500
H  -1.97500 18.11400 44.41600
H  -3.40700 18.62800 45.24300
H  -2.84700 19.49500 43.81800

