158

Mg 17.08800 -2.99200 27.57900
C  16.24900 -1.02400 30.24400
C  18.65700 -5.19000 29.68900
C  17.88600 -4.76600 24.89000
C  15.55500 -0.56100 25.42100
N  17.37600 -3.10800 29.69000
C  16.93000 -2.18600 30.60600
C  17.27200 -2.68900 32.06900
C  18.09500 -3.98900 31.81600
C  18.01500 -4.13400 30.29700
C  19.54200 -4.04400 32.45300
C  16.01100 -2.92100 32.93900
C  16.11800 -2.54200 34.48600
H  17.43500 -1.91800 35.07600
N  18.05300 -4.83000 27.34300
C  18.72100 -5.51700 28.32300
C  19.34200 -6.73400 27.70400
C  19.04900 -6.67200 26.27400
C  18.29400 -5.40300 26.11800
C  20.00000 -7.80400 28.55100
C  19.42000 -7.72300 25.25000
O  19.16200 -7.61400 24.01100
C  20.17600 -8.95100 25.55400
N  16.81200 -2.73100 25.42800
C  17.25300 -3.55500 24.52500
C  17.00000 -3.07500 23.03600
C  16.21700 -1.70200 23.27900
C  16.22400 -1.63400 24.82000
C  18.23100 -2.92700 22.11000
C  14.67000 -1.71300 22.88200
C  13.52200 -2.19600 23.79600
N  15.99300 -1.18200 27.77200
C  15.43300 -0.30700 26.82500
C  14.78700 0.79700 27.50400
C  15.05700 0.53200 28.89200
C  15.83300 -0.64800 28.96800
C  14.01200 1.94400 26.84400
C  14.91400 1.06900 30.16100
O  14.43300 2.08200 30.48900
C  15.61400 0.09000 31.17700
C  16.60400 0.80800 31.93300
O  17.77500 1.08000 31.59400
O  15.95400 1.19200 33.07700
C  16.79100 2.08000 33.95900
H  19.18800 -5.84500 30.38300
H  18.14900 -5.29100 23.97000
H  15.11300 0.20800 24.78500
H  17.96100 -2.00900 32.56900
H  17.53800 -4.85800 32.16600
H  19.80200 -3.06800 32.86300
H  20.28600 -4.28800 31.69500
H  19.66900 -4.78700 33.24100
H  15.66000 -3.95100 32.88200
H  15.19900 -2.34000 32.50000
H  15.85100 -3.37600 35.13500
H  15.36900 -1.75700 34.58400
H  19.41400 -8.72200 28.53700
H  20.13100 -7.45500 29.57500
H  20.98100 -8.01400 28.12400
H  21.11000 -8.90200 26.11300
H  20.40900 -9.43600 24.60600
H  19.43700 -9.55400 26.08200
H  16.22900 -3.74700 22.66200
H  16.64900 -0.76100 22.93700
H  18.49200 -1.88000 21.95600
H  18.14900 -3.59400 21.25200
H  19.16700 -3.15400 22.62000
H  14.62800 -2.24900 21.93300
H  14.45300 -0.66800 22.66200
H  12.68300 -2.45200 23.14900
H  13.16300 -1.33200 24.35600
H  13.83600 -2.98400 24.48100
H  13.94800 1.80300 25.76500
H  14.41200 2.89800 27.18800
H  12.99500 1.89300 27.23200
H  14.82100 -0.27400 31.83100
H  17.80400 1.71600 34.12800
H  16.39700 2.13000 34.97300
H  16.96700 3.06000 33.51500
Mg 47.53500 15.18800 28.62100
C  45.33000 15.18500 31.33200
C  49.73100 17.03500 30.31200
C  49.26800 15.13500 25.84000
C  45.03400 13.25600 26.81500
N  47.42100 16.17400 30.55200
C  46.55700 15.91200 31.56500
C  46.99400 16.51800 32.87100
C  48.32200 17.22800 32.49700
C  48.50900 16.87800 31.03000
C  48.49200 18.77300 32.73600
C  47.20700 15.50700 33.95300
C  46.86500 16.05600 35.38800
H  46.99600 17.50200 35.69100
N  49.25900 16.00600 28.12600
C  50.05400 16.80400 28.94100
C  51.27700 17.20500 28.19500
C  51.11400 16.66700 26.87700
C  49.86000 15.87400 26.88800
C  52.40400 17.92000 28.90600
C  52.03400 16.94200 25.66700
O  51.80400 16.36300 24.58000
C  53.22400 17.86400 25.81300
N  47.11900 14.40500 26.53600
C  48.09900 14.43800 25.66800
C  47.75500 13.77400 24.33100
C  46.32700 13.17000 24.66800
C  46.11700 13.57800 26.09700
C  47.75400 14.62800 23.03300
C  46.30900 11.66300 24.38500
C  47.11700 10.79300 25.33400
N  45.67200 14.48300 28.91900
C  44.80200 13.81000 28.11500
C  43.61500 13.39400 28.81600
C  43.77200 13.95700 30.07300
C  45.01900 14.59100 30.11400
C  42.39000 12.76200 28.24500
C  43.12300 14.07300 31.35700
O  41.99200 13.68800 31.74000
C  44.16300 14.77200 32.22100
C  43.52600 15.93500 32.76900
O  43.23200 16.94000 32.10700
O  43.13200 15.70000 34.06100
C  42.26600 16.76000 34.61200
H  50.42600 17.68600 30.84700
H  49.89300 15.05000 24.94800
H  44.26100 12.68200 26.30100
H  46.18200 17.18500 33.16100
H  49.15400 16.84700 33.08900
H  48.61900 19.25300 31.76500
H  49.42400 19.10600 33.19200
H  47.64100 19.22600 33.24500
H  48.22800 15.12700 33.99100
H  46.61000 14.66600 33.60200
H  47.63200 15.59200 36.00800
H  45.88500 15.64200 35.62600
H  52.29900 17.82600 29.98700
H  52.40100 18.97700 28.64100
H  53.39500 17.53800 28.66000
H  53.69900 18.17700 24.88300
H  53.89900 17.24600 26.40400
H  52.96500 18.73600 26.41300
H  48.45900 12.94700 24.23900
H  45.55300 13.75300 24.16800
H  48.24800 15.57400 23.25700
H  46.73800 14.88700 22.73600
H  48.20200 13.98900 22.27200
H  46.61200 11.51200 23.34800
H  45.27600 11.33000 24.48900
H  46.32300 10.26100 25.85600
H  47.67200 11.26200 26.14600
H  47.84200 10.24600 24.73100
H  42.33200 13.15500 27.23000
H  41.51600 12.93300 28.87300
H  42.63600 11.70100 28.27900
H  44.48300 14.07000 32.99100
H  41.30900 16.88500 34.10500
H  42.81400 17.69200 34.74500
H  42.04200 16.50500 35.64800

