158

Mg 0.72700 7.75400 26.84600
C  1.54200 9.71100 29.66000
C  0.65100 5.05900 28.84500
C  0.46900 5.93100 24.09300
C  1.38300 10.58900 24.75700
N  1.04800 7.45700 29.01500
C  1.31700 8.35200 30.02800
C  1.22800 7.75200 31.44700
C  1.27600 6.18900 31.09400
C  0.99600 6.25300 29.50400
C  2.69500 5.51300 31.25300
C  -0.15600 8.27100 31.96400
C  -0.37200 8.60600 33.48000
H  0.67500 8.23300 34.51200
N  0.55000 5.86300 26.51300
C  0.51500 4.85800 27.46700
C  0.15200 3.55400 26.88000
C  0.22200 3.80600 25.49600
C  0.39600 5.21600 25.29100
C  -0.25600 2.32700 27.71000
C  -0.23100 2.84100 24.41700
O  -0.48100 3.11300 23.23700
C  -0.41300 1.34800 24.76500
N  0.77100 8.20900 24.74100
C  0.63900 7.27000 23.79400
C  0.76200 7.80600 22.37300
C  0.67600 9.36600 22.68200
C  0.98100 9.38200 24.16800
C  2.03900 7.36300 21.63000
C  -0.73000 9.95400 22.38100
C  -0.87100 11.44800 22.10800
N  1.32200 9.77500 27.12600
C  1.58000 10.80700 26.17700
C  1.94900 12.05300 26.85600
C  2.01600 11.65300 28.24200
C  1.54900 10.32400 28.34900
C  2.05100 13.48500 26.23000
C  2.18700 12.14400 29.66600
O  2.45200 13.26500 30.10100
C  1.84100 10.91900 30.54800
C  2.77200 10.84100 31.77100
O  3.86800 10.23400 31.75000
O  2.29200 11.48700 32.85800
C  3.26600 11.85300 33.92700
H  0.60800 4.21500 29.53600
H  0.62000 5.34100 23.18700
H  1.59400 11.39200 24.04600
H  2.11600 8.01200 32.02400
H  0.58100 5.57500 31.66700
H  2.73600 5.03300 32.23000
H  3.32800 6.39900 31.29200
H  3.00700 4.83700 30.45700
H  -0.83600 7.42600 31.86100
H  -0.52100 9.07600 31.32600
H  -1.32300 8.17600 33.79500
H  -0.34000 9.69500 33.49400
H  -0.96800 1.62500 27.27600
H  -0.79100 2.84200 28.50800
H  0.72300 1.92600 27.97400
H  0.40300 1.00600 25.40200
H  -0.36200 0.80000 23.82400
H  -1.39300 1.18500 25.21200
H  -0.08000 7.57900 21.71900
H  1.46100 9.87200 22.12100
H  2.47800 8.13500 20.99600
H  1.81700 6.52600 20.96800
H  2.75000 6.94100 22.34000
H  -1.39200 9.73400 23.21800
H  -1.08800 9.37900 21.52800
H  -0.88500 11.63800 21.03400
H  0.04300 11.79500 22.58900
H  -1.79500 11.90800 22.46000
H  1.94200 13.58800 25.15000
H  2.91900 14.00000 26.64100
H  1.16900 13.93700 26.68500
H  0.81100 11.12300 30.84200
H  4.32100 11.64000 33.75300
H  2.93400 11.48100 34.89600
H  3.26300 12.93800 34.02500
Mg -11.47400 37.88400 43.30900
C  -9.52100 35.23800 42.14000
C  -9.40300 40.05900 41.98900
C  -13.80600 40.26900 43.94300
C  -14.00700 35.44800 44.12600
N  -9.70900 37.59100 42.13400
C  -9.03100 36.47800 41.87900
C  -7.63700 36.80200 41.23000
C  -7.49200 38.36100 41.33100
C  -8.89300 38.70900 41.89100
C  -6.34500 38.79500 42.29500
C  -7.66500 36.29800 39.76400
C  -6.53700 35.55800 39.24600
H  -5.76000 36.33200 38.15700
N  -11.68000 39.91400 42.94800
C  -10.65800 40.62100 42.28700
C  -11.02600 42.02700 42.16100
C  -12.36600 42.14300 42.79100
C  -12.69700 40.75400 43.27100
C  -10.07300 43.11000 41.67200
C  -13.23700 43.38700 42.94800
O  -12.71600 44.53900 42.78800
C  -14.66200 43.26100 43.27200
N  -13.55900 37.84400 43.94100
C  -14.21000 38.97900 44.20800
C  -15.61700 38.68400 44.78800
C  -15.72300 37.14500 44.92400
C  -14.36500 36.79100 44.23800
C  -15.81900 39.43000 46.23000
C  -17.05800 36.47400 44.50100
C  -17.32600 36.33100 43.00800
N  -11.77200 35.73000 43.25000
C  -12.81300 34.87600 43.63600
C  -12.47700 33.53400 43.37300
C  -11.21300 33.61600 42.64700
C  -10.81500 34.99100 42.68300
C  -13.19100 32.28300 43.77200
C  -10.08100 32.79900 42.09400
O  -9.87200 31.60400 41.94500
C  -8.99100 33.85100 41.64900
C  -7.68500 33.37100 42.21800
O  -7.05000 32.40800 41.77900
O  -7.20100 34.17600 43.24000
C  -5.90900 33.78200 43.71800
H  -8.61400 40.78500 41.78000
H  -14.57000 41.01700 44.16400
H  -14.65900 34.60600 44.36500
H  -6.81000 36.36000 41.78600
H  -7.32600 38.94400 40.42500
H  -5.40600 38.94300 41.76100
H  -6.20900 38.12900 43.14800
H  -6.58900 39.80000 42.63900
H  -7.82700 37.15000 39.10300
H  -8.49400 35.62400 39.54900
H  -6.88900 34.58700 38.89900
H  -5.84900 35.27000 40.04000
H  -10.17400 43.43800 40.63800
H  -9.02400 42.88800 41.86900
H  -10.23500 44.02000 42.25000
H  -15.30100 42.48500 42.85000
H  -15.12800 44.20000 42.97400
H  -14.75800 43.08100 44.34200
H  -16.36800 39.15400 44.15300
H  -15.42700 36.81900 45.92100
H  -15.13100 40.25000 46.43400
H  -15.66300 38.75500 47.07200
H  -16.80400 39.89700 46.21600
H  -17.90900 37.01500 44.91400
H  -16.88800 35.52000 45.00000
H  -16.84600 37.17100 42.50600
H  -18.39200 36.27400 42.78600
H  -16.89800 35.41600 42.59800
H  -13.72300 32.39900 44.71600
H  -12.56100 31.39600 43.83100
H  -14.00200 32.11200 43.06500
H  -9.01800 33.85200 40.55900
H  -6.11300 32.81800 44.18600
H  -5.50100 34.50500 44.42400
H  -5.17200 33.73200 42.91700

