158

Mg 26.09100 1.44100 29.15300
C  27.90400 0.86200 31.99400
C  23.30400 1.90700 30.98400
C  24.36700 1.53400 26.17100
C  29.02300 0.41700 27.29200
N  25.75800 1.61000 31.31200
C  26.62700 1.35800 32.29100
C  26.01700 1.52400 33.63900
C  24.51800 1.65600 33.36000
C  24.49100 1.72400 31.74600
C  23.63800 0.46100 33.80400
C  26.49000 2.72100 34.54300
C  27.05300 2.36200 35.93600
H  26.99400 3.42400 37.09300
N  24.12000 1.76800 28.61900
C  23.11100 1.90500 29.54000
C  21.78900 1.94400 28.81800
C  22.11600 1.79500 27.37300
C  23.59700 1.69800 27.31700
C  20.48700 1.99400 29.57400
C  21.09900 1.75500 26.15900
O  21.47800 1.45300 25.04200
C  19.69400 1.90300 26.45800
N  26.58600 1.03500 27.04500
C  25.78800 1.42000 26.06200
C  26.47200 1.39900 24.72700
C  27.92800 1.52500 25.21800
C  27.90900 1.00900 26.58900
C  26.14200 0.14400 23.87700
C  28.59500 2.96300 25.14000
C  29.86400 3.11000 24.41100
N  28.13200 0.69800 29.54100
C  29.14200 0.33700 28.69800
C  30.26800 -0.03600 29.55100
C  29.87400 0.20200 30.91800
C  28.54800 0.61500 30.82300
C  31.50600 -0.51100 28.99700
C  30.24500 0.27400 32.29500
O  31.26400 0.02800 32.87400
C  28.94200 0.54700 33.05200
C  28.50400 -0.63600 33.90500
O  27.89300 -1.63600 33.51700
O  29.11600 -0.53400 35.07100
C  28.92200 -1.51500 36.13900
H  22.47200 2.06800 31.67400
H  23.89000 1.59800 25.19100
H  29.93300 0.13100 26.76000
H  26.33300 0.67000 34.23700
H  24.17700 2.64500 33.66600
H  23.67300 -0.38500 33.11700
H  22.61500 0.82900 33.87500
H  23.98400 0.07300 34.76300
H  25.86200 3.60900 34.61500
H  27.40300 3.05700 34.05100
H  28.12600 2.24600 35.78300
H  26.59700 1.43400 36.28100
H  20.21300 3.04800 29.52800
H  20.72300 1.66900 30.58700
H  19.75700 1.34400 29.09000
H  19.50700 1.07800 27.14500
H  19.13800 1.76800 25.53000
H  19.57800 2.93600 26.78500
H  26.19900 2.30300 24.18200
H  28.46400 0.83100 24.57000
H  25.42800 -0.51200 24.37500
H  27.00200 -0.50900 23.73000
H  25.73100 0.43500 22.90900
H  28.76800 3.33500 26.15000
H  27.94400 3.64800 24.59500
H  29.77200 3.80800 23.57900
H  30.16900 2.19000 23.91200
H  30.68300 3.40400 25.06700
H  31.16800 -1.23300 28.25300
H  32.15700 -0.93500 29.76100
H  32.02600 0.27700 28.45200
H  29.11800 1.42500 33.67500
H  29.64600 -1.31300 36.92900
H  29.00300 -2.51500 35.71300
H  27.99000 -1.29500 36.66000
Mg 44.39200 4.00000 47.49600
C  42.50900 6.76900 47.04700
C  41.57000 2.11700 46.75200
C  46.34400 1.14400 47.44700
C  47.21800 5.87400 47.58400
N  42.29800 4.43200 46.90900
C  41.70300 5.66900 46.80400
C  40.24100 5.64000 46.56800
C  39.92600 4.11500 46.80400
C  41.31800 3.49400 46.89400
C  39.14800 3.87700 48.06700
C  39.79900 6.17300 45.15600
C  40.53300 5.67900 43.85200
H  40.66200 6.71000 42.67700
N  43.95300 1.91200 47.13000
C  42.78200 1.38400 46.76000
C  42.91900 -0.02900 46.61000
C  44.29800 -0.39600 46.81000
C  44.94700 0.92300 47.20600
C  41.77100 -0.92000 46.19700
C  44.86700 -1.76200 46.77700
O  44.19600 -2.69400 46.31600
C  46.28500 -2.17400 47.18000
N  46.47400 3.62600 47.42400
C  47.01200 2.35400 47.55700
C  48.53900 2.37800 47.87100
C  48.82700 3.91900 47.96100
C  47.42100 4.52500 47.63700
C  49.03300 1.43700 49.10000
C  50.09100 4.41100 47.12000
C  50.99500 5.51400 47.78100
N  44.83700 5.95500 47.39200
C  46.03400 6.60200 47.43400
C  45.77700 8.01700 47.49800
C  44.33600 8.11400 47.43700
C  43.85600 6.82800 47.22200
C  46.81500 9.13900 47.51500
C  43.29700 9.03600 47.40500
O  43.33800 10.27200 47.46700
C  41.99400 8.21600 47.20900
C  41.11800 8.39600 48.40800
O  40.97400 7.67700 49.38100
O  40.55000 9.65200 48.23700
C  39.53600 9.98200 49.25200
H  40.69800 1.46300 46.68200
H  46.97200 0.25500 47.53200
H  48.15200 6.43400 47.65200
H  39.68600 6.35500 47.17500
H  39.31200 3.63700 46.04100
H  38.82700 4.87200 48.37600
H  39.78600 3.51000 48.87100
H  38.32500 3.18000 47.90600
H  39.63700 7.25100 45.19100
H  38.84500 5.69200 44.94100
H  40.07200 4.75600 43.50100
H  41.47400 5.42200 44.33900
H  40.99000 -0.28500 45.77800
H  41.45700 -1.46900 47.08500
H  42.09200 -1.56600 45.37900
H  46.38300 -3.25900 47.18700
H  46.43200 -1.76700 48.18100
H  47.02100 -1.70900 46.52400
H  48.99600 2.00200 46.95600
H  49.03100 4.19200 48.99600
H  49.35000 0.48200 48.68000
H  48.19900 1.25900 49.77800
H  49.89800 1.82100 49.64100
H  49.73500 4.97400 46.25700
H  50.79900 3.65600 46.78000
H  51.40800 6.26700 47.10900
H  51.86300 5.07200 48.27100
H  50.55200 6.01000 48.64400
H  46.30600 10.06900 47.26200
H  47.51200 8.96100 46.69600
H  47.37200 9.32600 48.43300
H  41.45300 8.54500 46.32200
H  39.00000 9.12700 49.66300
H  38.71900 10.63600 48.94600
H  40.11400 10.45400 50.04700

