158

Mg 8.84500 3.37900 27.08600
C  10.12000 1.55900 29.75600
C  7.44900 5.61100 29.16300
C  7.10900 4.48800 24.44500
C  10.16900 0.70500 24.94100
N  8.88100 3.53900 29.31000
C  9.37700 2.70800 30.18300
C  9.13700 3.18800 31.58900
C  8.21300 4.44300 31.33700
C  8.19100 4.59400 29.85600
C  6.87200 4.42800 32.01600
C  10.41400 3.50200 32.48500
C  10.24500 4.51200 33.64300
H  11.06800 4.30600 34.90100
N  7.45200 4.86800 26.80500
C  7.14100 5.78700 27.79600
C  6.27700 6.83200 27.28800
C  6.07300 6.43300 25.91800
C  6.85300 5.16000 25.63600
C  5.81600 8.07200 28.02900
C  5.31500 7.15700 24.78400
O  5.18500 6.79300 23.60900
C  4.71100 8.54800 25.00300
N  8.63900 2.68700 24.98000
C  7.87700 3.39900 24.09100
C  7.88200 2.69100 22.77400
C  8.98200 1.60400 22.96600
C  9.35000 1.73200 24.35000
C  6.48800 2.13800 22.42700
C  10.14200 1.73600 21.89900
C  10.37200 0.61600 20.88700
N  10.05900 1.54900 27.21600
C  10.50100 0.61700 26.29000
C  11.08200 -0.53800 27.00400
C  11.03700 -0.16600 28.36300
C  10.41300 1.12200 28.43900
C  11.53600 -1.80900 26.45400
C  11.36700 -0.49700 29.64000
O  12.00900 -1.46400 30.05400
C  10.76400 0.58800 30.63400
C  9.87600 -0.09000 31.52800
O  8.74300 -0.48700 31.28600
O  10.52100 -0.25500 32.77900
C  9.68400 -0.81300 33.86600
H  6.85900 6.22000 29.85300
H  6.58000 4.88800 23.57700
H  10.47300 -0.14900 24.33200
H  8.55600 2.47100 32.16900
H  8.71200 5.35900 31.65200
H  6.67300 5.47900 32.22900
H  6.85600 3.80500 32.91000
H  6.09800 3.93000 31.43100
H  11.27500 3.79400 31.88400
H  10.66500 2.56700 32.98500
H  9.19000 4.47000 33.91400
H  10.38100 5.52700 33.27000
H  6.08600 8.00000 29.08300
H  4.72700 8.03500 27.99600
H  6.22300 9.02000 27.67600
H  5.46000 9.34000 24.98200
H  4.11100 8.54300 25.91300
H  4.00000 8.66500 24.18500
H  8.16200 3.37200 21.97000
H  8.52100 0.61900 22.88700
H  6.17700 2.50800 21.45000
H  5.63500 2.31500 23.08200
H  6.60600 1.07300 22.22900
H  11.07100 1.87600 22.45000
H  10.04600 2.66100 21.33000
H  9.99600 1.09900 19.98600
H  9.71700 -0.23800 21.05800
H  11.37300 0.22300 20.70800
H  12.57400 -1.85000 26.12500
H  10.79900 -2.01200 25.67800
H  11.42600 -2.45100 27.32800
H  11.58700 1.07200 31.15900
H  8.61400 -0.62600 33.78500
H  10.01700 -0.50500 34.85700
H  9.87200 -1.88700 33.84700
Mg 6.58000 56.60200 42.28700
C  5.85100 53.16900 42.49800
C  9.55700 55.74900 40.82000
C  6.90300 59.79800 41.37100
C  3.60800 57.29600 43.94200
N  7.57400 54.66500 41.75600
C  7.10600 53.37300 41.90700
C  8.09500 52.38200 41.16500
C  9.47700 53.13100 41.10400
C  8.86600 54.62700 41.21100
C  10.51200 52.73700 42.24000
C  7.58900 52.09100 39.66700
C  7.78200 50.57800 39.27300
H  6.77100 50.04300 38.36100
N  8.05100 57.65600 41.20900
C  9.18500 57.15200 40.74400
C  10.00600 58.22700 40.23200
C  9.17800 59.42700 40.33300
C  7.92000 59.00000 40.94100
C  11.35000 57.93500 39.66200
C  9.66300 60.84300 39.85900
O  10.75800 60.89700 39.33300
C  8.82200 62.05400 39.94800
N  5.27500 58.23000 42.37200
C  5.74800 59.51200 42.09200
C  4.95000 60.64000 42.82000
C  4.05800 59.79100 43.78900
C  4.35300 58.36000 43.35200
C  5.80600 61.72700 43.51600
C  2.49500 60.13100 43.80300
C  1.88900 60.36300 45.22100
N  4.93600 55.50900 42.97300
C  3.78600 55.94400 43.62800
C  2.85800 54.77800 43.80000
C  3.70300 53.62400 43.42000
C  4.91300 54.15300 42.97400
C  1.58600 54.79900 44.51800
C  3.77400 52.22700 43.27600
O  2.89500 51.37700 43.48400
C  5.25400 51.88800 42.93100
C  5.26600 50.75600 41.93500
O  4.67500 50.76300 40.86900
O  6.04200 49.67900 42.35400
C  5.97000 48.40600 41.67600
H  10.57800 55.49200 40.53200
H  6.97400 60.86400 41.14900
H  2.76800 57.63600 44.55100
H  8.23500 51.50100 41.79200
H  10.07600 53.12100 40.19300
H  10.56500 53.58400 42.92400
H  11.38600 52.46000 41.65100
H  10.14500 51.93700 42.88400
H  8.25800 52.62200 38.98900
H  6.53100 52.34200 39.59200
H  7.90600 49.97700 40.17300
H  8.76100 50.50200 38.80000
H  11.19900 57.73700 38.60000
H  11.84800 57.09500 40.14700
H  11.95900 58.83900 39.65500
H  8.37500 62.11300 40.94100
H  8.13300 61.85500 39.12800
H  9.49100 62.90200 39.79900
H  4.36100 61.20300 42.09600
H  4.40200 59.85600 44.82100
H  5.74700 62.72000 43.07200
H  6.86700 61.52200 43.37600
H  5.64000 61.81600 44.59000
H  2.02400 59.23300 43.40400
H  2.35700 61.01600 43.18200
H  1.22900 61.21600 45.06400
H  2.69900 60.66400 45.88400
H  1.31900 59.48500 45.52400
H  1.67400 55.36700 45.44500
H  1.32000 53.75800 44.70200
H  0.77600 55.20400 43.91200
H  5.65500 51.44200 43.84100
H  6.15100 47.69700 42.48400
H  6.78700 48.27500 40.96600
H  4.99400 48.16300 41.25400

