158

Mg 29.30200 59.77500 40.84200
C  26.24000 58.36500 40.06200
C  30.81700 56.90000 39.78100
C  32.29900 61.33200 41.11900
C  27.62900 62.77200 41.50300
N  28.59700 57.87100 40.12500
C  27.35100 57.63500 39.70000
C  27.41300 56.28700 38.88900
C  28.69500 55.56400 39.35500
C  29.41500 56.83100 39.73900
C  28.54700 54.53100 40.46400
C  27.26500 56.48100 37.36400
C  26.70600 55.28600 36.57800
H  25.92100 55.70100 35.39100
N  31.28500 59.17300 40.47200
C  31.73200 57.98000 40.05200
C  33.16800 57.95400 39.93000
C  33.62800 59.19200 40.30600
C  32.36600 59.91900 40.69800
C  33.96200 56.73800 39.48000
C  35.05700 59.58300 40.49600
O  35.93600 58.75100 40.31000
C  35.43600 60.98000 40.85700
N  29.85900 61.79800 41.29400
C  31.19700 62.13700 41.39000
C  31.33400 63.66600 41.71600
C  29.79300 63.96600 42.02300
C  29.01000 62.78900 41.54300
C  32.28000 64.05200 42.84400
C  29.17100 65.31500 41.49000
C  28.28400 66.15200 42.42100
N  27.25300 60.41600 41.10000
C  26.79200 61.67700 41.26700
C  25.40400 61.61400 41.18500
C  25.11500 60.29400 40.65500
C  26.27800 59.62900 40.62500
C  24.40300 62.61800 41.44000
C  24.01900 59.37200 40.23400
O  22.81200 59.43500 40.26700
C  24.71800 58.05600 39.84300
C  24.27900 56.91300 40.84900
O  24.32700 57.14600 42.04800
O  23.78200 55.81900 40.21500
C  23.49300 54.73000 41.17100
H  31.18400 55.92300 39.46100
H  33.25600 61.84300 41.24300
H  27.13100 63.70100 41.78700
H  26.58100 55.66100 39.21500
H  29.16200 55.09200 38.49100
H  28.80700 54.94100 41.44000
H  29.19100 53.66100 40.33300
H  27.51200 54.19400 40.40400
H  28.23200 56.76200 36.94700
H  26.52900 57.24900 37.12800
H  26.10200 54.58600 37.15600
H  27.57000 54.69700 36.27000
H  33.34000 55.97900 39.00400
H  34.61200 56.25500 40.20900
H  34.63600 57.17000 38.74000
H  34.95000 61.62600 40.12600
H  36.49400 61.23300 40.92900
H  35.14800 61.08000 41.90300
H  31.76300 64.21000 40.87500
H  29.77200 63.92700 43.11200
H  32.97000 63.26700 43.15500
H  31.72900 64.15100 43.77900
H  32.94100 64.86800 42.55100
H  28.58800 65.03800 40.61200
H  30.02700 65.89200 41.14000
H  28.57700 67.20100 42.37400
H  28.41800 65.85200 43.46000
H  27.21900 66.06000 42.20800
H  23.46200 62.55700 40.89300
H  24.71500 63.54000 40.95100
H  24.38100 62.82200 42.51000
H  24.52200 57.68600 38.83700
H  24.46800 54.29500 41.39000
H  22.90900 53.89000 40.79400
H  23.00900 54.99100 42.11200
Mg -8.05200 19.36400 42.64800
C  -4.62000 18.78800 42.74700
C  -7.35400 22.71700 42.34400
C  -11.31900 19.89800 42.52000
C  -8.51400 15.87600 42.43900
N  -6.19000 20.55400 42.48800
C  -4.89900 20.08600 42.47600
C  -3.87200 21.16400 42.23200
C  -4.79700 22.48200 42.32700
C  -6.19300 21.92000 42.45300
C  -4.46600 23.48500 43.53400
C  -3.16400 21.15100 40.84900
C  -3.72500 20.35100 39.64300
H  -3.30300 20.84600 38.17100
N  -9.19200 21.08900 42.46900
C  -8.70800 22.33500 42.35100
C  -9.82400 23.23700 42.22700
C  -10.95900 22.43900 42.29600
C  -10.55800 21.06300 42.46800
C  -9.61200 24.69000 42.09600
C  -12.39600 22.93900 42.30900
O  -12.62400 24.10100 42.68100
C  -13.64100 21.98400 41.91400
N  -9.64100 18.11600 42.50200
C  -10.87800 18.60700 42.67800
C  -11.94600 17.41400 42.54200
C  -10.98400 16.16700 42.44200
C  -9.63300 16.74300 42.47500
C  -12.90000 17.47100 43.75100
C  -11.27300 15.29900 41.21500
C  -11.47200 13.84900 41.56100
N  -6.82200 17.59100 42.65900
C  -7.14500 16.26700 42.70700
C  -5.94400 15.46700 42.92500
C  -4.95200 16.46800 42.94500
C  -5.55200 17.67800 42.75600
C  -5.77500 14.05000 43.28500
C  -3.52100 16.67400 43.15000
O  -2.61300 15.83200 43.49300
C  -3.19800 18.20600 42.97100
C  -2.40900 18.66500 44.18200
O  -1.27800 19.09100 44.17600
O  -3.19000 18.51800 45.34400
C  -2.53100 19.02000 46.61300
H  -7.18000 23.77700 42.14700
H  -12.39000 20.03100 42.68400
H  -8.76800 14.82300 42.57900
H  -3.11800 21.17500 43.01900
H  -4.71500 22.96400 41.35300
H  -5.29300 23.87900 44.12400
H  -4.04900 24.37400 43.06000
H  -3.73200 23.11500 44.25000
H  -2.19200 20.66500 40.92100
H  -3.02100 22.17200 40.49300
H  -4.80600 20.24000 39.72100
H  -3.42100 19.32600 39.85700
H  -10.55000 25.03000 41.65800
H  -8.84800 24.98200 41.37600
H  -9.45700 25.24800 43.02000
H  -14.00300 21.44000 42.78600
H  -13.46600 21.24000 41.13600
H  -14.47500 22.62300 41.62200
H  -12.51400 17.67000 41.64800
H  -11.13800 15.52500 43.31000
H  -13.27800 16.45600 43.87500
H  -13.82700 18.02900 43.62300
H  -12.29900 17.69000 44.63300
H  -10.46800 15.53200 40.51800
H  -12.12100 15.66900 40.63800
H  -12.39000 13.50500 42.03800
H  -10.74600 13.50000 42.29500
H  -11.10600 13.21300 40.75500
H  -5.29100 13.64500 42.39600
H  -6.65900 13.44800 43.49100
H  -4.96300 13.87800 43.99200
H  -2.55200 18.28000 42.09600
H  -3.03800 19.95300 46.85800
H  -1.46900 19.25600 46.54800
H  -2.45700 18.24700 47.37800

