158

Mg 48.96700 35.21600 28.48400
C  46.68000 33.87800 30.95000
C  49.12700 38.01600 30.61800
C  50.15500 37.03700 25.96200
C  48.20800 32.58100 26.44300
N  48.01400 35.78800 30.63000
C  47.24300 35.04200 31.47000
C  47.27900 35.56900 32.89600
C  47.71100 37.08400 32.61200
C  48.37200 36.98700 31.18400
C  46.51100 37.98700 32.61600
C  48.11400 34.66800 33.84600
C  49.09500 35.44700 34.96400
H  48.55500 36.54500 35.85300
N  49.73000 37.13400 28.34800
C  49.70100 38.08700 29.30700
C  50.46500 39.18100 28.88200
C  50.75700 39.01100 27.50900
C  50.16700 37.70800 27.19100
C  50.87300 40.18100 29.86200
C  51.36400 39.80700 26.46400
O  51.45500 39.45800 25.29600
C  52.16400 41.03800 26.85900
N  49.12500 34.90000 26.47400
C  49.70500 35.77100 25.62700
C  49.67200 35.22400 24.14800
C  49.16500 33.72900 24.32900
C  48.80800 33.69000 25.83800
C  48.85700 36.03500 23.06400
C  50.27800 32.64300 24.15800
C  49.98000 31.44300 23.25500
N  47.81800 33.57000 28.62500
C  47.68000 32.54600 27.74700
C  46.90700 31.46000 28.24300
C  46.44900 32.03400 29.41100
C  47.05900 33.29100 29.66600
C  46.52700 30.23000 27.57500
C  45.52400 31.69300 30.53000
O  44.89400 30.71000 30.78200
C  45.53800 32.96600 31.46900
C  45.71700 32.61700 32.91300
O  46.63400 31.95800 33.33500
O  44.65100 33.03100 33.68500
C  44.48600 32.64000 35.07400
H  49.01400 38.93300 31.19900
H  50.58900 37.54500 25.09800
H  48.06400 31.66600 25.86500
H  46.23500 35.69700 33.18400
H  48.42200 37.51200 33.31900
H  45.92200 37.60300 31.78300
H  46.80800 39.03000 32.50300
H  46.09200 37.90800 33.62000
H  48.81500 34.08500 33.24800
H  47.49600 34.12400 34.56100
H  49.95300 35.91800 34.48400
H  49.46400 34.71600 35.68400
H  51.15600 39.64800 30.76900
H  50.08400 40.86900 30.16800
H  51.63200 40.89700 29.54800
H  52.43500 41.78600 26.11400
H  53.02300 40.79000 27.48300
H  51.43300 41.64400 27.39400
H  50.73700 35.26200 23.92000
H  48.21500 33.45200 23.87400
H  49.57200 36.22300 22.26300
H  48.32600 36.93600 23.36900
H  48.20400 35.23700 22.71100
H  50.48700 32.24300 25.15000
H  51.17500 33.05400 23.69500
H  49.08400 31.66400 22.67500
H  49.51300 30.57900 23.72700
H  50.76300 31.26200 22.51900
H  46.67600 29.41400 28.28300
H  47.13900 30.05400 26.69000
H  45.47300 30.42200 27.37200
H  44.60600 33.52900 31.43700
H  44.78100 33.49000 35.68800
H  45.17400 31.82500 35.29800
H  43.45500 32.40400 35.33800
Mg -2.77400 33.98700 26.07400
C  -4.52100 32.50100 28.76900
C  -1.00800 35.97100 28.35600
C  -1.54700 35.80000 23.45700
C  -4.85400 32.37000 23.89600
N  -2.86200 34.31700 28.21600
C  -3.62400 33.50300 29.10600
C  -3.44000 34.02400 30.56300
C  -2.43800 35.19700 30.43100
C  -2.09500 35.17500 28.95500
C  -2.97800 36.57600 30.99000
C  -2.91500 32.82200 31.40700
C  -2.28800 33.21700 32.83100
H  -2.70100 32.40900 34.08000
N  -1.38800 35.57000 25.93600
C  -0.70000 36.19100 27.00300
C  0.25500 37.20200 26.34300
C  0.13300 37.05000 24.97600
C  -0.99200 36.10100 24.70400
C  1.16100 38.02000 27.21400
C  0.91100 37.81200 23.92800
O  0.68000 37.69900 22.76000
C  1.98300 38.68700 24.38500
N  -3.29300 34.23200 24.01200
C  -2.67100 35.04800 23.15600
C  -3.11600 34.86200 21.67900
C  -4.01200 33.53800 21.79000
C  -4.03000 33.34000 23.33900
C  -3.91700 36.07100 21.11600
C  -3.63900 32.27100 21.01100
C  -2.79700 31.22900 21.79800
N  -4.30500 32.62300 26.21200
C  -5.08700 32.05200 25.25200
C  -5.92800 31.05600 25.85100
C  -5.74200 31.24900 27.21400
C  -4.81200 32.22600 27.41200
C  -6.71600 30.04000 25.08800
C  -6.18500 30.75900 28.54300
O  -6.88500 29.82300 28.82900
C  -5.42200 31.58200 29.59400
C  -6.41700 32.24300 30.47200
O  -7.27800 33.01100 30.12200
O  -6.24800 31.79300 31.81400
C  -7.31500 32.14100 32.77000
H  -0.39100 36.55100 29.04500
H  -1.14100 36.27800 22.56300
H  -5.45000 31.75000 23.22400
H  -4.40300 34.37900 30.93100
H  -1.49400 35.10100 30.96700
H  -2.71500 37.43000 30.36600
H  -2.42900 36.86700 31.88600
H  -4.02100 36.57800 31.30900
H  -2.11700 32.36300 30.82200
H  -3.59500 32.01500 31.67800
H  -2.74300 34.17900 33.06800
H  -1.21600 33.38400 32.72200
H  1.03900 37.77400 28.26900
H  0.92900 39.07400 27.06400
H  2.23500 38.02400 27.02900
H  1.65500 39.68900 24.66100
H  2.68700 38.80100 23.56100
H  2.65900 38.15800 25.05700
H  -2.22800 34.52400 21.14500
H  -5.03500 33.79800 21.51800
H  -3.92000 36.91800 21.80200
H  -4.96400 35.94000 20.84200
H  -3.40200 36.36500 20.20100
H  -3.07300 32.63500 20.15400
H  -4.57900 31.82600 20.68500
H  -2.26100 31.66300 22.64200
H  -2.07100 30.68700 21.19100
H  -3.42200 30.42000 22.17500
H  -6.14300 29.16300 24.78700
H  -7.26000 30.49500 24.26100
H  -7.53800 29.75000 25.74200
H  -4.79600 30.87400 30.13700
H  -6.72600 32.26300 33.67900
H  -7.95500 31.28500 32.98800
H  -7.87600 33.01300 32.43500

