158

Mg 35.58800 2.15800 29.90600
C  33.25300 3.08100 32.29700
C  37.95700 2.03600 32.41700
C  37.98000 1.43100 27.57300
C  33.25000 2.62400 27.43900
N  35.63000 2.67800 32.01600
C  34.48800 2.84700 32.86000
C  34.86900 2.69400 34.36500
C  36.42100 2.63700 34.33700
C  36.71000 2.43200 32.83000
C  37.18500 3.80900 34.97800
C  34.16500 1.44500 35.06500
C  33.63900 1.71700 36.46000
H  34.31900 2.73300 37.34000
N  37.71800 1.76300 29.98900
C  38.47800 1.79400 31.06500
C  39.88000 1.42700 30.70800
C  39.87700 1.19600 29.30500
C  38.46200 1.45500 28.87200
C  40.97800 1.49100 31.73400
C  41.14300 0.92000 28.34900
O  41.05500 0.69700 27.13900
C  42.48200 0.80300 28.94000
N  35.63100 2.08000 27.83100
C  36.76000 1.77600 27.04400
C  36.36600 1.80600 25.57300
C  34.88200 2.11200 25.57100
C  34.50800 2.22600 27.03800
C  37.22100 2.75300 24.79800
C  33.96100 1.04100 24.85300
C  33.35200 -0.22200 25.61700
N  33.60000 2.67700 29.86100
C  32.78300 2.78000 28.78500
C  31.51400 3.13200 29.27300
C  31.60600 3.24600 30.67700
C  32.91700 3.00200 30.93000
C  30.37900 3.65000 28.49000
C  30.93800 3.64000 31.81800
O  29.76500 3.91500 32.04600
C  32.00000 3.43800 32.97300
C  32.15300 4.78300 33.68900
O  32.39800 5.82700 33.18400
O  31.95900 4.70500 35.02100
C  32.19000 6.01500 35.71500
H  38.79100 2.03900 33.12200
H  38.74400 1.17300 26.83700
H  32.46000 2.81300 26.70900
H  34.53100 3.57700 34.90700
H  36.78300 1.74300 34.84500
H  37.94700 3.51100 35.69800
H  36.51900 4.40200 35.60500
H  37.60400 4.43600 34.19000
H  34.81200 0.57600 35.18400
H  33.33700 1.07800 34.45800
H  33.60300 0.80800 37.06000
H  32.61500 2.04900 36.29300
H  41.74300 0.71600 31.67600
H  40.62400 1.48400 32.76500
H  41.44200 2.47400 31.65400
H  42.58400 1.80200 29.36400
H  43.22400 0.66400 28.15400
H  42.57000 -0.01700 29.65400
H  36.69600 0.85100 25.16400
H  34.61400 3.07100 25.12800
H  36.73400 3.26800 23.97000
H  38.10200 2.21500 24.44700
H  37.57900 3.53500 25.46700
H  34.40800 0.80600 23.88700
H  33.02500 1.55800 24.64400
H  33.87000 -0.30900 26.57200
H  33.56900 -1.15600 25.09700
H  32.26500 -0.15800 25.65400
H  30.54000 3.68000 27.41200
H  30.17500 4.69000 28.74300
H  29.46800 3.05600 28.56500
H  31.60600 2.77100 33.73900
H  31.38600 6.74900 35.75900
H  33.07900 6.54900 35.38000
H  32.39700 5.85000 36.77200
Mg 54.94600 23.47600 44.39500
C  52.31000 25.89100 43.42000
C  52.62600 21.09500 43.51800
C  57.48600 21.52100 44.50400
C  56.97300 26.30600 45.00800
N  52.72200 23.55300 43.50800
C  51.93500 24.58700 43.12200
C  50.53900 24.09300 42.66100
C  50.49700 22.65500 43.33600
C  52.03600 22.38100 43.51600
C  49.70700 22.53200 44.80800
C  50.46400 24.04600 41.10700
C  49.01800 24.51000 40.63300
H  48.67200 24.43500 39.12300
N  55.12700 21.56900 44.12600
C  54.02800 20.74200 43.69500
C  54.57300 19.44800 43.46100
C  56.01800 19.51700 43.71700
C  56.29200 20.92400 44.10500
C  53.73600 18.24200 43.14300
C  56.91500 18.28700 43.79800
O  56.44400 17.18700 43.54000
C  58.41900 18.47000 44.04300
N  56.91500 23.83900 44.78700
C  57.84000 22.82100 44.88800
C  59.27800 23.28200 44.99900
C  59.06400 24.85000 44.75400
C  57.56300 25.00700 44.90300
C  59.95100 23.03800 46.42100
C  59.65700 25.28400 43.35600
C  60.45700 26.54000 43.28700
N  54.70100 25.61400 44.45400
C  55.56400 26.59100 44.80900
C  54.91200 27.89500 44.70900
C  53.67700 27.60500 44.16200
C  53.58700 26.22300 44.01600
C  55.51200 29.23400 45.10200
C  52.45400 28.28900 43.78400
O  52.17200 29.48000 43.99400
C  51.56500 27.17900 43.15000
C  51.47800 27.42000 41.67400
O  52.42200 27.45800 40.92000
O  50.19100 27.72200 41.28700
C  50.13500 27.95100 39.85600
H  51.93100 20.30800 43.21900
H  58.35900 20.86700 44.45100
H  57.71000 27.10800 44.93300
H  49.72700 24.65900 43.11900
H  50.03700 21.88700 42.71500
H  50.37200 22.19500 45.60300
H  48.78700 21.95700 44.70200
H  49.61400 23.57700 45.10300
H  50.40700 22.99200 40.83200
H  51.24300 24.54100 40.52600
H  48.87500 25.49800 41.07000
H  48.35300 23.88700 41.23000
H  52.72900 18.55700 42.87100
H  53.71900 17.49100 43.93300
H  54.20800 17.78800 42.27200
H  58.88600 19.27900 43.48200
H  58.83900 17.47900 43.86800
H  58.49500 18.68900 45.10800
H  59.86500 22.95100 44.14200
H  59.45200 25.50700 45.53300
H  60.91500 23.51100 46.23200
H  60.04800 21.96200 46.56500
H  59.48700 23.57800 47.24600
H  58.86700 25.41300 42.61600
H  60.18200 24.43600 42.91600
H  61.44800 26.30500 42.90000
H  60.54500 26.95000 44.29300
H  59.94100 27.26400 42.65600
H  56.05700 29.09500 46.03500
H  54.64000 29.86800 45.25900
H  56.17100 29.47200 44.26600
H  50.56200 27.19100 43.57600
H  49.07100 27.91200 39.62300
H  50.59200 27.18200 39.23400
H  50.44400 28.95800 39.57500

