158

Mg -1.57100 18.38600 26.89100
C  -2.32500 16.35600 29.75600
C  -2.39500 21.17000 28.76200
C  -1.17100 20.16300 23.99800
C  -1.32900 15.38100 25.03000
N  -2.27400 18.67800 29.02200
C  -2.25600 17.74000 30.05200
C  -2.48800 18.40100 31.38400
C  -2.93600 19.91800 30.99200
C  -2.54400 19.97100 29.46900
C  -4.42400 20.34800 31.15500
C  -1.28200 18.25600 32.40600
C  -1.64200 17.72400 33.86800
H  -0.43400 17.53700 34.86200
N  -1.79400 20.31400 26.41500
C  -2.02600 21.33000 27.36100
C  -1.95400 22.60300 26.70200
C  -1.46200 22.32500 25.36500
C  -1.40700 20.91100 25.22300
C  -2.25800 23.95600 27.35600
C  -1.18900 23.30800 24.21700
O  -0.90300 22.93500 23.06100
C  -1.06600 24.77800 24.50400
N  -1.07000 17.86400 24.82500
C  -1.02300 18.78600 23.81800
C  -0.94200 18.08200 22.40600
C  -0.95100 16.60300 22.79800
C  -1.14700 16.56200 24.34100
C  -2.14700 18.58000 21.43000
C  0.41000 15.87300 22.33200
C  0.15100 14.49600 21.76800
N  -1.72800 16.27600 27.29100
C  -1.58900 15.20400 26.40600
C  -1.93200 14.02000 27.11000
C  -2.16900 14.37900 28.40600
C  -2.02900 15.78200 28.45100
C  -2.16100 12.64500 26.48900
C  -2.56100 13.84500 29.69300
O  -2.70500 12.68900 29.98700
C  -2.61200 15.15000 30.68800
C  -1.53300 14.81300 31.67200
O  -0.33300 14.64100 31.36700
O  -1.98800 14.60600 32.92800
C  -1.26700 13.63400 33.75500
H  -2.45900 22.04300 29.41600
H  -1.16300 20.60200 22.99800
H  -1.33700 14.49200 24.39600
H  -3.33500 17.89000 31.84200
H  -2.25200 20.60000 31.49800
H  -4.77400 20.71200 30.18900
H  -4.54200 21.10500 31.93100
H  -4.96400 19.45400 31.46600
H  -0.78000 19.21500 32.53700
H  -0.49500 17.64200 31.96800
H  -2.15000 16.76300 33.78700
H  -2.31800 18.41800 34.36700
H  -3.15100 24.34300 26.86600
H  -1.30800 24.48300 27.44200
H  -2.52300 23.85800 28.40900
H  -1.26400 25.38100 23.61800
H  -0.13900 25.00100 25.03100
H  -1.92600 25.06800 25.10700
H  -0.00800 18.41000 21.95100
H  -1.73300 16.12900 22.20500
H  -2.90100 17.79400 21.37500
H  -1.77000 18.75000 20.42200
H  -2.63000 19.49800 21.76500
H  1.10500 15.82700 23.16900
H  0.82800 16.54700 21.58400
H  0.86900 14.34100 20.96200
H  -0.87500 14.43800 21.40500
H  0.24400 13.70000 22.50600
H  -2.18900 12.59200 25.40100
H  -3.10700 12.20200 26.80000
H  -1.46300 11.94300 26.94600
H  -3.52600 15.23700 31.27500
H  -0.60200 14.25200 34.35900
H  -0.64700 12.93500 33.19500
H  -1.89300 13.08500 34.45800
Mg -1.62200 34.95100 26.90600
C  -3.65000 33.06700 29.04400
C  -0.71500 36.99300 29.50200
C  -0.16300 37.05100 24.63000
C  -3.05100 33.29200 24.16200
N  -2.20300 35.10700 28.97700
C  -2.97800 34.12800 29.67600
C  -2.85300 34.42200 31.19800
C  -2.13700 35.86100 31.20000
C  -1.74600 36.06400 29.78500
C  -2.90700 37.06300 31.86000
C  -2.22400 33.30100 32.07600
C  -3.03300 32.48800 33.10000
H  -2.45400 32.42600 34.56000
N  -0.45500 36.75100 27.08900
C  -0.15800 37.32300 28.27300
C  0.71700 38.42600 27.99800
C  0.87000 38.49800 26.56100
C  0.07300 37.41600 25.99100
C  1.35500 39.27000 29.03900
C  1.73500 39.46800 25.74100
O  1.82500 39.45800 24.53400
C  2.39900 40.58800 26.48200
N  -1.49800 35.05500 24.66000
C  -0.89300 36.10800 23.96400
C  -1.20900 36.09800 22.49400
C  -2.01500 34.78100 22.35100
C  -2.18000 34.32300 23.82600
C  -1.94900 37.39400 22.08200
C  -1.41900 33.69000 21.42100
C  -0.48800 32.64200 21.97000
N  -2.91200 33.45400 26.60000
C  -3.50000 32.90800 25.43200
C  -4.43600 31.82400 25.77100
C  -4.53000 31.87000 27.21900
C  -3.58900 32.86800 27.66100
C  -5.09900 30.86100 24.82900
C  -5.20700 31.31800 28.36200
O  -6.16100 30.51600 28.36800
C  -4.51100 31.89800 29.55800
C  -5.67700 32.32200 30.44700
O  -6.20800 33.44500 30.50500
O  -5.97100 31.18700 31.19100
C  -6.97700 31.36200 32.21500
H  -0.31200 37.52800 30.36500
H  0.24300 37.77800 23.92400
H  -3.59800 32.66800 23.45200
H  -3.84500 34.59600 31.61300
H  -1.14600 35.74200 31.63800
H  -2.22300 37.66700 32.45700
H  -3.76700 36.74300 32.44900
H  -3.29600 37.70900 31.07200
H  -1.29300 33.60900 32.55100
H  -1.85200 32.58900 31.33900
H  -3.19400 31.45000 32.80900
H  -3.98200 33.02400 33.07800
H  1.36500 38.68300 29.95700
H  1.00200 40.30000 29.09200
H  2.41400 39.37000 28.80300
H  1.78900 41.16100 27.18100
H  2.74400 41.27000 25.70500
H  3.31700 40.19100 26.91500
H  -0.32000 36.19800 21.87100
H  -3.03100 34.84900 21.96000
H  -1.69400 38.21600 22.75100
H  -3.02700 37.41700 22.24000
H  -1.77500 37.71600 21.05500
H  -1.10100 34.13200 20.47700
H  -2.28200 33.14500 21.03900
H  -1.00800 31.70000 22.14300
H  -0.15200 32.96500 22.95600
H  0.40500 32.42300 21.38500
H  -5.40800 29.97500 25.38500
H  -4.37500 30.61400 24.05300
H  -5.95700 31.32100 24.33900
H  -4.03600 31.06900 30.08300
H  -6.66800 31.89000 33.11600
H  -7.42400 30.45500 32.62400
H  -7.77800 32.01700 31.87300

