158

Mg 8.61300 3.17300 27.39600
C  9.65600 1.78000 30.44500
C  6.24300 5.02900 29.12400
C  7.59300 4.46700 24.55000
C  10.32700 0.71700 25.81200
N  8.03500 3.29200 29.48400
C  8.64400 2.74100 30.55700
C  8.06400 3.16000 31.91800
C  6.90800 4.06200 31.42000
C  7.05200 4.16400 29.86000
C  5.44000 3.84200 31.91000
C  8.99600 3.91800 32.81600
C  8.51900 4.73000 34.02100
H  9.11800 4.55700 35.35700
N  7.06600 4.56200 26.85200
C  6.31600 5.32500 27.76000
C  5.52500 6.23700 26.98600
C  5.93900 6.19900 25.65000
C  6.91800 5.03000 25.56500
C  4.48700 7.16900 27.66900
C  5.61400 7.05700 24.43200
O  6.07900 6.86300 23.28500
C  4.59900 8.15900 24.64900
N  8.86100 2.65500 25.43400
C  8.58900 3.49600 24.44800
C  9.17400 2.97600 23.15000
C  9.87300 1.72200 23.49300
C  9.67200 1.71300 25.01400
C  8.13000 2.74400 22.03400
C  11.34700 1.54300 23.01400
C  11.48500 0.77200 21.66200
N  9.79100 1.58200 27.97100
C  10.43600 0.66800 27.21500
C  11.26200 -0.19900 28.02400
C  10.97700 0.19900 29.31500
C  10.02500 1.26200 29.22000
C  12.18200 -1.26600 27.45700
C  11.21100 0.00600 30.73800
O  11.85200 -0.89100 31.23400
C  10.34300 0.96400 31.53800
C  9.55100 0.05200 32.53800
O  8.73700 -0.80700 32.32300
O  10.10600 0.29900 33.75800
C  9.64800 -0.33400 34.97700
H  5.57300 5.62000 29.75300
H  7.35200 4.90300 23.57800
H  10.91800 -0.04600 25.30200
H  7.66700 2.28300 32.42800
H  7.13400 5.09300 31.69500
H  4.91400 3.33000 31.10500
H  5.02500 4.78000 32.28100
H  5.52900 3.30200 32.85300
H  9.57300 4.62000 32.21300
H  9.76400 3.20100 33.10700
H  7.46400 4.46800 34.09600
H  8.65700 5.76500 33.70800
H  3.55500 7.19200 27.10300
H  4.72500 8.23300 27.66600
H  4.22100 6.89100 28.68900
H  4.35700 8.71200 23.74200
H  5.03300 8.91900 25.29900
H  3.68600 7.68600 25.01100
H  9.85900 3.73100 22.76500
H  9.17600 0.92500 23.23200
H  7.85500 1.71300 21.81000
H  8.63600 3.01300 21.10600
H  7.34500 3.49000 22.15100
H  11.94300 1.20500 23.86100
H  11.66100 2.52800 22.66800
H  10.52200 0.50100 21.22900
H  12.09800 -0.11300 21.83400
H  11.84200 1.48700 20.92100
H  12.29900 -1.14300 26.38000
H  11.94700 -2.30400 27.69400
H  13.14200 -1.07700 27.93700
H  11.13600 1.52800 32.02900
H  9.42700 0.55000 35.57600
H  10.50900 -0.89700 35.33500
H  8.75500 -0.93900 34.82100
Mg 46.80100 16.79900 27.86700
C  44.97300 16.22400 30.88500
C  48.94800 18.76500 29.71300
C  48.37100 17.65700 25.02800
C  44.24100 15.57400 26.15000
N  46.82100 17.56200 30.12300
C  46.05900 17.06300 31.19200
C  46.58700 17.58800 32.53200
C  47.75100 18.54600 32.10700
C  47.90600 18.18700 30.56200
C  47.83600 20.03500 32.50400
C  46.89300 16.36700 33.47900
C  46.00000 16.29400 34.72100
H  45.69800 17.55900 35.43200
N  48.45100 18.04100 27.45600
C  49.21400 18.74000 28.35900
C  50.28700 19.32400 27.60100
C  50.14700 19.00200 26.25000
C  48.94800 18.18400 26.18200
C  51.31800 20.26600 28.27400
C  51.08200 19.28900 25.03100
O  50.84700 18.91600 23.90800
C  52.37600 19.96400 25.23200
N  46.49700 16.44100 25.92100
C  47.25900 16.85000 24.89700
C  46.65700 16.66500 23.52800
C  45.49000 15.68100 23.83000
C  45.37100 15.89200 25.40300
C  46.28000 17.98000 22.72900
C  45.75200 14.24200 23.26000
C  46.01300 13.10000 24.28300
N  44.95600 15.95600 28.33300
C  44.00200 15.46000 27.51700
C  42.90100 14.91300 28.31200
C  43.22000 15.15600 29.62800
C  44.46900 15.84700 29.58800
C  41.87300 14.09300 27.57600
C  42.76100 14.99300 30.96600
O  41.72300 14.48800 31.43800
C  43.88600 15.71100 31.86100
C  43.14200 16.78200 32.58600
O  43.03700 17.92400 32.22100
O  42.51600 16.25400 33.65800
C  41.64000 17.15300 34.37600
H  49.60400 19.42100 30.28800
H  48.91400 17.83800 24.09900
H  43.47100 15.13700 25.51100
H  45.84500 18.28000 32.93000
H  48.58000 18.09400 32.65300
H  46.96000 20.22100 33.12600
H  47.79800 20.70100 31.64200
H  48.66400 20.15800 33.20200
H  47.94300 16.37000 33.77000
H  46.69200 15.45100 32.92300
H  46.59500 15.65700 35.37500
H  45.05300 15.79400 34.51700
H  51.56900 21.09500 27.61200
H  52.18400 19.65700 28.53400
H  50.85400 20.60200 29.20100
H  53.06700 19.43500 25.88900
H  52.03900 20.92100 25.62900
H  53.04100 20.12600 24.38400
H  47.39100 16.15700 22.90300
H  44.63400 16.06500 23.27600
H  45.31000 17.99800 22.23200
H  47.03500 18.34000 22.03000
H  46.19100 18.77800 23.46600
H  46.64100 14.13900 22.63800
H  44.85300 13.90800 22.74200
H  46.75100 13.49100 24.98300
H  46.32800 12.21600 23.72800
H  45.07100 12.96000 24.81400
H  41.05500 14.66900 27.14400
H  41.46200 13.44300 28.34900
H  42.31100 13.46800 26.79700
H  44.06000 14.85100 32.50800
H  42.16700 18.06000 34.67100
H  41.23300 16.65400 35.25600
H  40.78700 17.40600 33.74600

