158

Mg 53.61600 24.44800 44.96400
C  50.68500 26.15200 44.18800
C  52.16400 21.65300 43.81500
C  56.62700 22.84600 45.04000
C  55.09500 27.37200 46.04300
N  51.68600 24.03700 43.69800
C  50.58000 24.79600 43.75900
C  49.33600 24.02000 43.22300
C  49.77300 22.54400 43.59900
C  51.31500 22.75000 43.72700
C  49.17100 21.94800 44.91200
C  49.19100 24.34700 41.73400
C  47.82000 24.33000 41.09900
H  47.46800 22.96200 40.49900
N  54.28400 22.51600 44.42300
C  53.49300 21.52900 43.98000
C  54.21900 20.28700 43.79800
C  55.56800 20.63000 44.11000
C  55.54100 22.03000 44.57600
C  53.53000 18.99400 43.56900
C  56.77100 19.77400 43.99700
O  56.63700 18.64600 43.67300
C  58.16900 20.14500 44.39100
N  55.71000 25.08800 45.17600
C  56.69300 24.19900 45.41700
C  57.93200 24.91800 45.97000
C  57.46800 26.42500 46.10600
C  55.97500 26.33100 45.73400
C  58.44400 24.30100 47.35800
C  58.35200 27.45400 45.31000
C  57.79100 28.29400 44.13800
N  53.05700 26.36900 45.17500
C  53.73300 27.44000 45.77100
C  52.73700 28.50400 45.94100
C  51.62300 28.09900 45.33300
C  51.85400 26.78200 44.87400
C  52.88600 29.81100 46.68300
C  50.22200 28.45500 44.88800
O  49.51000 29.43300 45.17700
C  49.64200 27.22200 44.18100
C  49.29400 27.74800 42.79200
O  50.06000 27.82300 41.80700
O  48.00800 28.01900 42.79100
C  47.24000 28.39800 41.59200
H  51.55700 20.78100 43.56400
H  57.60700 22.38400 45.17700
H  55.49900 28.27500 46.50600
H  48.42300 24.33600 43.72800
H  49.57000 21.85500 42.78000
H  49.95200 21.55400 45.56200
H  48.37800 21.24900 44.64400
H  48.73600 22.75300 45.50500
H  49.84400 23.57700 41.32500
H  49.57300 25.33900 41.49400
H  47.78200 25.09300 40.32200
H  47.06900 24.57300 41.85100
H  54.09000 18.10800 43.86700
H  53.30400 18.91800 42.50500
H  52.62800 18.96900 44.17900
H  58.57300 21.04300 43.92300
H  58.82000 19.27600 44.29700
H  58.12500 20.32900 45.46500
H  58.70200 24.85800 45.20000
H  57.47300 26.82600 47.11900
H  58.38100 25.09600 48.10100
H  59.42100 23.83100 47.24700
H  57.71400 23.59900 47.76300
H  59.03500 26.79200 44.78000
H  58.83900 28.09500 46.04500
H  56.75300 28.09900 43.86700
H  58.28500 28.00500 43.21000
H  57.73900 29.37200 44.29400
H  53.69600 29.72700 47.40900
H  51.90000 30.02800 47.09300
H  53.02000 30.45700 45.81600
H  48.80400 26.84000 44.76300
H  47.37500 29.47800 41.54000
H  46.18900 28.11500 41.65000
H  47.68900 27.84300 40.76900
Mg -1.52200 34.68800 27.35000
C  -3.28600 32.77200 29.99800
C  -0.29000 36.63600 29.80000
C  -0.84800 36.68400 24.97500
C  -3.41100 32.63600 25.07800
N  -1.84300 34.71100 29.68600
C  -2.49000 33.86100 30.49000
C  -2.18000 34.19000 32.00200
C  -1.24500 35.43000 31.89200
C  -1.10000 35.64600 30.36400
C  -1.68200 36.67800 32.65800
C  -1.45100 33.07200 32.77000
C  -2.21900 32.18400 33.72700
H  -1.69200 32.08700 35.21000
N  -0.57700 36.33200 27.39900
C  -0.08300 37.03200 28.49000
C  0.58900 38.22100 27.98300
C  0.46600 38.25500 26.57100
C  -0.35600 37.07300 26.26500
C  1.54200 39.06400 28.84400
C  1.04400 39.20900 25.59600
O  0.95800 39.09500 24.36600
C  1.57700 40.43700 26.04100
N  -2.14100 34.65300 25.26200
C  -1.62400 35.63000 24.51200
C  -1.96700 35.37300 23.00100
C  -2.48600 33.91700 23.06600
C  -2.69800 33.70200 24.54200
C  -3.01500 36.38300 22.44800
C  -1.53900 32.80600 22.41800
C  -0.34800 32.33300 23.36000
N  -2.99200 32.99200 27.46600
C  -3.59500 32.39200 26.44400
C  -4.30600 31.23500 26.91400
C  -4.31200 31.31700 28.37700
C  -3.44800 32.44100 28.62900
C  -4.97500 30.20400 25.95600
C  -4.79900 30.78500 29.64900
O  -5.47100 29.78000 29.89500
C  -4.11500 31.71800 30.72100
C  -5.14100 32.29100 31.59500
O  -5.88800 33.20900 31.29200
O  -5.21600 31.62600 32.77700
C  -6.25900 31.92400 33.71300
H  0.32600 37.11700 30.56400
H  -0.66200 37.40500 24.17600
H  -3.72500 31.96400 24.27700
H  -3.10800 34.55400 32.44300
H  -0.23700 35.24400 32.26300
H  -2.65300 36.96200 32.25100
H  -0.80900 37.33000 32.68800
H  -1.98100 36.37600 33.66200
H  -0.56900 33.41300 33.31300
H  -1.25900 32.40500 31.93000
H  -2.14300 31.21000 33.24200
H  -3.22800 32.57500 33.85700
H  2.37800 39.50100 28.29800
H  1.95600 38.58500 29.73200
H  1.08300 40.01700 29.10900
H  1.05800 40.85800 26.90100
H  1.71100 41.11800 25.20000
H  2.57100 40.08600 26.31800
H  -0.98200 35.35600 22.53500
H  -3.40000 33.74500 22.49800
H  -2.49700 36.84200 21.60500
H  -3.37200 37.07200 23.21300
H  -3.88200 35.85400 22.05100
H  -0.98200 33.11900 21.53500
H  -1.97800 31.85900 22.10300
H  -0.32700 32.87700 24.30500
H  0.62900 32.30400 22.87600
H  -0.45600 31.34500 23.80700
H  -4.31300 29.51400 25.43300
H  -5.41500 30.67900 25.07900
H  -5.68500 29.58600 26.50500
H  -3.57000 30.99500 31.32800
H  -6.86400 32.78300 33.42200
H  -5.80100 32.19600 34.66400
H  -6.83900 31.03600 33.96400

