158

Mg -1.69300 16.89800 25.82100
C  -2.10100 14.40400 28.34400
C  -2.24800 19.31400 28.18900
C  -1.71700 19.17800 23.30800
C  -1.80400 14.28000 23.50400
N  -2.09500 16.76700 28.09700
C  -2.25300 15.71800 28.92400
C  -2.60600 16.15200 30.33300
C  -2.78200 17.70400 30.17900
C  -2.28400 17.97200 28.77500
C  -4.13600 18.37500 30.63400
C  -1.52600 15.66800 31.43100
C  -1.30100 16.71200 32.55600
H  -1.03200 16.14400 33.99500
N  -1.90100 18.98300 25.78700
C  -2.13300 19.80000 26.85800
C  -2.08500 21.15400 26.39300
C  -1.95500 21.10700 24.97900
C  -1.81100 19.68700 24.63100
C  -2.29900 22.30800 27.35700
C  -1.91100 22.32400 23.97800
O  -1.65700 22.20400 22.81800
C  -2.07900 23.68500 24.48600
N  -1.81000 16.71400 23.73900
C  -1.67900 17.79500 22.90300
C  -1.72600 17.34700 21.40200
C  -1.88300 15.82500 21.52100
C  -1.79300 15.57000 22.99600
C  -2.66600 18.17400 20.49600
C  -0.98000 14.92500 20.54000
C  -1.80400 13.94100 19.65100
N  -1.79500 14.73000 25.90600
C  -1.84900 13.81600 24.84800
C  -2.03200 12.55700 25.37000
C  -2.04000 12.68100 26.75700
C  -1.96500 14.04900 27.00400
C  -2.17000 11.31300 24.54800
C  -2.07500 11.98300 28.01200
O  -2.06100 10.79100 28.27100
C  -2.23000 13.10800 29.12300
C  -1.27600 12.78600 30.15600
O  -0.08600 13.12200 30.16700
O  -1.88400 12.06800 31.15900
C  -1.02200 11.73500 32.29800
H  -2.41800 19.97200 29.04400
H  -1.66100 19.91000 22.50000
H  -1.82800 13.46200 22.78200
H  -3.58500 15.69400 30.47300
H  -2.06200 18.21700 30.81700
H  -4.88100 17.66000 30.98300
H  -4.60200 19.04200 29.90800
H  -3.84700 19.08800 31.40600
H  -0.52700 15.53400 31.01600
H  -1.62500 14.70900 31.93900
H  -2.20800 17.31000 32.64000
H  -0.52000 17.45000 32.36900
H  -3.32400 22.66000 27.24500
H  -1.71100 23.18100 27.07400
H  -2.11000 22.10900 28.41200
H  -2.97500 23.69300 25.10600
H  -2.25000 24.34000 23.63100
H  -1.20600 24.08000 25.00500
H  -0.70600 17.62100 21.13400
H  -2.90500 15.58000 21.23100
H  -3.42500 18.65000 21.11800
H  -3.14300 17.57700 19.72000
H  -2.02200 18.88600 19.97900
H  -0.08700 14.46800 20.96500
H  -0.60900 15.62800 19.79400
H  -1.65500 12.92900 20.02800
H  -1.49600 13.92200 18.60500
H  -2.86100 14.16200 19.50600
H  -1.27600 11.17300 23.94100
H  -3.10300 11.47200 24.00600
H  -2.32000 10.43300 25.17300
H  -3.23400 13.07700 29.54700
H  -1.15100 12.44200 33.11800
H  0.02500 11.56300 32.05000
H  -1.39500 10.80200 32.72200
Mg 1.22800 7.48500 25.22000
C  1.94600 9.54000 27.88100
C  1.29400 4.72600 27.26200
C  0.68600 5.60700 22.43400
C  1.57600 10.33500 23.08800
N  1.52600 7.23900 27.31100
C  1.79200 8.20100 28.25700
C  1.69900 7.63900 29.68900
C  1.97900 6.09100 29.39800
C  1.54000 5.95700 27.92100
C  3.51600 5.70100 29.76700
C  0.37200 7.89300 30.32600
C  0.45600 8.31700 31.78700
H  1.59600 7.76500 32.67400
N  0.84900 5.45500 24.92100
C  0.95500 4.50400 25.87000
C  0.63900 3.19600 25.31700
C  0.56900 3.41500 23.89200
C  0.70800 4.88400 23.69100
C  0.33200 2.12400 26.24000
C  0.37000 2.38300 22.81500
O  0.17000 2.70400 21.65200
C  0.43700 0.93900 23.11300
N  0.96300 7.95900 23.05500
C  0.77200 6.96000 22.15600
C  0.81200 7.51600 20.76600
C  1.15800 9.07200 20.94400
C  1.30200 9.14500 22.46000
C  1.78400 6.79600 19.83300
C  0.07200 10.07900 20.35200
C  -1.26500 10.12800 21.06400
N  1.75400 9.47600 25.38400
C  1.69900 10.49600 24.48500
C  1.94500 11.77800 25.16100
C  2.07100 11.40400 26.45700
C  1.94600 10.00300 26.52800
C  2.05100 13.19600 24.54900
C  2.32200 11.94800 27.77600
O  2.64200 13.06200 28.12500
C  2.15500 10.80000 28.71900
C  3.22900 10.81100 29.68300
O  4.22800 10.08100 29.62400
O  2.77800 11.40900 30.81100
C  3.31200 11.34900 32.11300
H  1.32500 3.95000 28.03000
H  0.59400 4.98900 21.53800
H  1.53500 11.19900 22.42100
H  2.51800 8.15300 30.19200
H  1.28000 5.48800 29.97800
H  3.87000 6.51000 30.40600
H  4.20700 5.75200 28.92500
H  3.64000 4.79700 30.36400
H  -0.29700 7.03200 30.30400
H  -0.13600 8.74400 29.87100
H  -0.47800 8.10000 32.30500
H  0.57900 9.39800 31.85400
H  -0.68800 2.16700 26.62100
H  1.03100 2.14300 27.07600
H  0.59500 1.16500 25.79400
H  -0.34500 0.66500 23.82200
H  1.35300 0.81100 23.68900
H  0.42900 0.25200 22.26700
H  -0.19300 7.47300 20.34600
H  2.12600 9.32100 20.50700
H  2.67400 7.41200 19.70200
H  1.34700 6.75900 18.83500
H  2.08000 5.82000 20.21500
H  -0.17000 9.85800 19.31300
H  0.50900 11.07400 20.43600
H  -1.35400 9.16000 21.55600
H  -2.03800 10.27000 20.30900
H  -1.31200 10.96700 21.75900
H  1.63900 13.18800 23.54000
H  3.03000 13.67200 24.59400
H  1.35600 13.67900 25.23700
H  1.26700 11.01300 29.31500
H  4.15900 10.66400 32.15300
H  2.63300 10.95600 32.87000
H  3.61800 12.36200 32.37500

