158

Mg -1.63300 16.93900 25.81100
C  -2.27800 14.65400 28.44700
C  -2.67600 19.48000 27.78100
C  -1.53100 18.96100 23.04100
C  -1.24300 14.18300 23.69500
N  -2.37800 17.01800 27.81700
C  -2.42600 16.01300 28.81100
C  -2.93200 16.56000 30.13400
C  -3.24900 18.04600 29.85200
C  -2.72900 18.24400 28.39700
C  -4.70700 18.50500 30.19800
C  -2.01300 16.13300 31.33200
C  -1.95600 17.11600 32.52400
H  -1.76000 16.53800 33.87300
N  -1.81200 19.02400 25.55200
C  -2.29000 19.91100 26.46700
C  -2.16600 21.25200 25.95900
C  -1.91700 21.01500 24.50500
C  -1.82000 19.60400 24.29200
C  -2.28700 22.51800 26.73900
C  -1.69600 22.10600 23.39800
O  -1.42100 21.91400 22.24200
C  -1.76700 23.57300 23.74000
N  -1.30700 16.63100 23.60700
C  -1.28600 17.60700 22.73800
C  -1.12900 17.02600 21.31800
C  -0.72400 15.52300 21.57400
C  -1.08900 15.41200 23.02900
C  -2.38900 17.26700 20.40600
C  0.77900 15.16800 21.29400
C  1.73600 15.56900 22.47800
N  -1.78600 14.89000 25.99500
C  -1.54200 13.83600 25.06500
C  -1.58700 12.57800 25.71200
C  -1.95100 12.87400 27.02700
C  -1.94100 14.26400 27.14600
C  -1.41200 11.29200 25.04300
C  -2.27800 12.18600 28.25300
O  -2.33200 11.01100 28.54000
C  -2.57200 13.41400 29.22700
C  -1.62700 13.10900 30.29900
O  -0.38900 13.17300 30.23900
O  -2.34000 12.69300 31.37900
C  -1.69900 12.28700 32.60900
H  -2.91000 20.26400 28.50300
H  -1.68100 19.65700 22.21300
H  -1.04100 13.28200 23.11000
H  -3.89000 16.06300 30.28500
H  -2.64300 18.74800 30.42400
H  -4.60600 19.11700 31.09400
H  -5.35300 17.63800 30.33800
H  -5.07900 19.16500 29.41500
H  -0.98100 16.06400 30.98700
H  -2.44800 15.25500 31.80900
H  -2.94300 17.56600 32.63200
H  -1.20600 17.89200 32.37100
H  -2.37200 22.37600 27.81600
H  -3.23300 23.01100 26.51400
H  -1.46700 23.22000 26.58900
H  -1.14900 23.87400 24.58600
H  -2.78300 23.75000 24.09100
H  -1.66100 24.09700 22.79100
H  -0.30600 17.45900 20.74900
H  -1.34500 14.91400 20.91700
H  -2.04800 17.50900 19.39900
H  -2.92800 18.11400 20.82800
H  -2.87100 16.29800 20.27400
H  1.18200 15.66500 20.41200
H  0.94500 14.09600 21.18600
H  1.37200 16.46600 22.97800
H  2.75300 15.81500 22.17100
H  1.72000 14.75900 23.20700
H  -0.72500 10.69300 25.64100
H  -1.10100 11.41500 24.00600
H  -2.35200 10.75200 24.92600
H  -3.58900 13.48300 29.61400
H  -1.76700 13.03000 33.40300
H  -0.68500 11.92000 32.44500
H  -2.28100 11.45400 33.00300
Mg -9.91000 17.43800 41.65000
C  -6.52800 16.35800 41.20200
C  -8.89200 20.61900 40.64300
C  -13.11600 18.27800 41.28100
C  -10.80200 14.10800 41.94300
N  -7.83500 18.37100 40.86100
C  -6.65300 17.74000 40.91400
C  -5.51000 18.76400 40.75800
C  -6.31400 20.22300 40.65300
C  -7.80100 19.68600 40.73600
C  -5.96700 21.12600 41.85700
C  -4.70700 18.42400 39.38900
C  -5.53000 17.97900 38.12700
H  -5.10700 18.57900 36.78000
N  -10.87900 19.24000 41.05600
C  -10.25900 20.39300 40.69700
C  -11.32800 21.41100 40.51200
C  -12.58400 20.79400 40.67100
C  -12.25700 19.36500 41.02600
C  -11.10500 22.92800 40.15200
C  -14.02700 21.43600 40.51800
O  -14.15700 22.61900 40.16100
C  -15.18300 20.68200 40.91100
N  -11.74800 16.27900 41.51900
C  -12.97500 16.87500 41.48400
C  -14.17600 15.77700 41.49300
C  -13.35900 14.51400 41.70600
C  -11.88500 14.95800 41.64800
C  -15.23200 16.04700 42.58900
C  -13.58900 13.38100 40.68400
C  -13.30700 11.93100 41.11900
N  -8.94600 15.59700 41.65000
C  -9.43700 14.34700 41.80700
C  -8.37600 13.35600 41.98500
C  -7.26400 14.14100 41.72400
C  -7.58300 15.48000 41.50800
C  -8.44500 11.84900 42.29700
C  -5.75700 14.08600 41.66600
O  -5.00500 13.13700 41.85000
C  -5.24700 15.53400 41.30700
C  -4.34500 15.91800 42.40900
O  -3.11200 16.05800 42.29700
O  -5.06100 16.18200 43.60100
C  -4.24500 16.69200 44.76400
H  -8.62800 21.66000 40.44700
H  -14.19400 18.43800 41.21600
H  -10.96100 13.02700 41.94300
H  -4.89400 18.65100 41.65000
H  -6.01200 20.67800 39.70900
H  -6.84900 21.28100 42.47800
H  -5.64500 22.08600 41.45300
H  -5.20000 20.69400 42.50000
H  -4.19600 17.50400 39.67200
H  -3.90000 19.11500 39.14400
H  -6.56100 18.31600 38.23300
H  -5.54400 16.89000 38.06600
H  -11.33000 23.00000 39.08800
H  -10.02500 23.06300 40.19600
H  -11.66000 23.71200 40.66700
H  -15.05000 20.36000 41.94400
H  -15.27200 19.91500 40.14200
H  -16.09100 21.28600 40.90900
H  -14.58400 15.98500 40.50300
H  -13.47200 14.21500 42.74800
H  -15.90400 16.84100 42.26200
H  -14.82300 16.22000 43.58500
H  -15.97300 15.26900 42.76900
H  -12.96500 13.57300 39.81100
H  -14.56600 13.54900 40.23200
H  -12.73800 11.41600 40.34600
H  -14.24900 11.41900 41.31700
H  -12.85800 11.96600 42.11200
H  -8.50900 11.37200 41.31900
H  -9.28400 11.55500 42.92700
H  -7.66500 11.50400 42.97600
H  -4.74400 15.39100 40.35100
H  -3.60300 15.84300 45.00200
H  -4.77100 16.88100 45.70000
H  -3.76700 17.63200 44.48700

