158

Mg 47.56000 34.32600 28.22400
C  45.76500 32.48300 30.47900
C  47.49600 37.02800 30.33700
C  48.59600 36.46600 25.62400
C  47.11000 31.82000 25.82700
N  46.61400 34.74500 30.04100
C  46.06300 33.75700 30.89500
C  45.98500 34.29400 32.30100
C  46.12800 35.86300 32.01900
C  46.83300 35.87400 30.74200
C  44.70900 36.55900 31.95700
C  47.04900 33.67400 33.32700
C  47.88200 34.59700 34.18300
H  47.06800 35.34600 35.31400
N  48.17200 36.38000 28.07100
C  48.13400 37.26400 29.11800
C  48.80300 38.50400 28.77200
C  49.11100 38.37600 27.38700
C  48.61400 37.03700 26.93800
C  49.06700 39.71100 29.80500
C  49.74300 39.40100 26.50500
O  50.04800 39.16200 25.35400
C  50.11900 40.70200 27.00700
N  47.67400 34.23300 25.99100
C  48.17300 35.17500 25.18600
C  48.36600 34.74400 23.73700
C  48.28100 33.16900 23.91400
C  47.66200 33.02800 25.36600
C  47.27200 35.29400 22.82200
C  49.57600 32.37000 23.78800
C  49.50400 31.03700 23.02300
N  46.69400 32.42100 28.11900
C  46.60500 31.54200 27.10100
C  45.89000 30.35200 27.53300
C  45.50200 30.68000 28.88400
C  46.09700 31.92000 29.14200
C  45.46500 29.23500 26.64700
C  44.84200 30.22800 30.13300
O  44.34800 29.18400 30.41100
C  44.82600 31.50400 31.14600
C  45.18300 31.14400 32.57900
O  46.08300 30.42800 32.96700
O  44.20500 31.68500 33.42700
C  44.21000 31.27600 34.82000
H  47.54100 37.87500 31.02500
H  49.14200 37.00500 24.84700
H  47.13200 30.94600 25.17200
H  45.03500 33.96500 32.72200
H  46.83800 36.32100 32.70800
H  44.85200 37.31700 31.18700
H  44.46500 37.01600 32.91700
H  43.92600 35.87600 31.62900
H  47.73400 33.05200 32.75100
H  46.53200 33.00700 34.01700
H  48.58500 35.15100 33.56000
H  48.59500 34.03900 34.79100
H  48.74400 40.69700 29.46900
H  50.14300 39.85800 29.90400
H  48.67100 39.49300 30.79700
H  50.82700 40.55000 27.82200
H  49.26900 41.26600 27.39000
H  50.59500 41.29000 26.22200
H  49.32500 35.11700 23.37600
H  47.58900 32.77600 23.17000
H  46.71000 36.05400 23.36600
H  46.54600 34.62400 22.36200
H  47.63800 35.71600 21.88700
H  49.86200 32.16400 24.82000
H  50.37000 32.98300 23.36400
H  50.03100 31.10100 22.07100
H  48.45200 30.79100 22.87700
H  49.83300 30.23800 23.68800
H  45.56900 28.27100 27.14400
H  45.93500 29.28000 25.66400
H  44.43300 29.32300 26.30700
H  43.86500 32.01800 31.12300
H  43.77300 32.14100 35.31700
H  45.19500 31.23000 35.28500
H  43.72100 30.36400 35.16400
Mg 0.51500 43.35000 25.29500
C  2.55400 42.89200 28.25800
C  -2.25100 42.31800 27.20600
C  -1.25300 43.32200 22.51800
C  3.44700 43.91400 23.49100
N  0.23100 42.51200 27.52300
C  1.21600 42.57700 28.49200
C  0.47100 42.13700 29.75900
C  -0.96700 41.94800 29.45400
C  -1.01300 42.25000 28.03600
C  -1.47100 40.47600 29.71700
C  0.81300 43.14700 30.88600
C  1.32700 42.55100 32.26400
H  0.58000 41.30600 32.75600
N  -1.50400 43.01500 24.92200
C  -2.46500 42.57000 25.80800
C  -3.71500 42.44700 25.03500
C  -3.42200 42.79600 23.65100
C  -2.02300 43.01000 23.65900
C  -5.04400 42.12600 25.72000
C  -4.39800 42.90500 22.50800
O  -4.18100 43.29300 21.33600
C  -5.78200 42.47600 22.68800
N  1.05800 43.47700 23.27000
C  0.05000 43.59600 22.35500
C  0.55100 44.16000 21.00900
C  2.07400 44.51800 21.31400
C  2.21500 43.96000 22.77200
C  0.36500 43.09300 19.87800
C  2.55000 46.02500 21.41400
C  1.80100 47.05900 22.26700
N  2.56100 43.52600 25.71900
C  3.62400 43.69000 24.86300
C  4.86700 43.64100 25.61900
C  4.45800 43.35000 26.93700
C  3.09100 43.26100 26.94900
C  6.27500 43.64800 25.10900
C  5.01400 43.01400 28.20600
O  6.11600 42.86000 28.66000
C  3.75000 42.72800 29.19500
C  3.96000 41.46500 29.95700
O  3.49400 40.35000 29.63100
O  4.80700 41.58800 31.03100
C  4.82600 40.53800 31.97900
H  -3.17900 42.13100 27.75100
H  -1.81200 43.23900 21.58300
H  4.37100 44.27500 23.03600
H  0.80600 41.13200 30.01700
H  -1.53700 42.63600 30.07700
H  -0.83500 39.84400 30.33700
H  -1.49600 39.93100 28.77300
H  -2.46700 40.57100 30.14700
H  -0.06500 43.77600 31.03500
H  1.55100 43.88400 30.57000
H  1.31700 43.33000 33.02700
H  2.32600 42.16200 32.07200
H  -4.87600 41.68000 26.70000
H  -5.77700 41.48000 25.23700
H  -5.58500 43.07000 25.79100
H  -6.45200 42.65700 21.84800
H  -6.09000 43.18000 23.46100
H  -5.77500 41.46300 23.09100
H  -0.05200 45.02500 20.73100
H  2.73100 43.97600 20.63500
H  0.43900 42.05000 20.18600
H  1.13100 43.27300 19.12500
H  -0.62600 43.32900 19.48900
H  2.19100 46.32400 20.42900
H  3.63300 46.14500 21.46000
H  2.47200 47.35100 23.07500
H  0.81900 46.73300 22.60900
H  1.43000 47.91500 21.70400
H  6.97200 43.51000 25.93600
H  6.46400 44.56500 24.55100
H  6.38200 42.74000 24.51700
H  3.67600 43.50300 29.95800
H  5.38700 40.82200 32.86900
H  5.30500 39.63900 31.59100
H  3.91600 40.13100 32.42000

