158

Mg 43.98100 3.46100 47.84900
C  41.38300 5.92400 46.85400
C  41.61200 1.14300 47.24100
C  46.34300 1.36100 47.83800
C  46.19000 6.25800 47.54700
N  41.79700 3.60000 47.01700
C  40.96500 4.64100 46.90100
C  39.52900 4.21700 46.62900
C  39.53700 2.70900 47.16300
C  41.04300 2.44000 47.13700
C  38.88500 2.50700 48.55400
C  39.13000 4.32400 45.15500
C  37.64900 4.42300 44.87900
H  37.20800 5.39700 43.80100
N  43.95300 1.52900 47.74000
C  42.90600 0.70500 47.48500
C  43.31500 -0.68800 47.58500
C  44.71600 -0.68400 47.84800
C  45.11300 0.78500 47.83500
C  42.39200 -1.84400 47.30400
C  45.65100 -1.90300 48.03900
O  45.16000 -3.03600 47.84400
C  47.04900 -1.85700 48.52500
N  45.97100 3.80100 47.60500
C  46.74900 2.67400 47.66300
C  48.22200 3.02600 47.90900
C  48.19500 4.59800 47.87900
C  46.76900 4.97200 47.61000
C  48.84900 2.36600 49.14300
C  49.27800 5.26900 46.93100
C  50.06800 6.56000 47.42600
N  43.86700 5.69700 47.44000
C  44.84600 6.64700 47.34500
C  44.28800 8.02100 47.11200
C  42.94500 7.77900 47.03800
C  42.72400 6.34100 47.06500
C  44.87500 9.29700 47.00800
C  41.63000 8.38200 46.82200
O  41.24900 9.57000 46.75500
C  40.58600 7.20200 46.68300
C  39.47600 7.39700 47.62000
O  39.52700 7.36600 48.81700
O  38.31100 7.61900 46.97900
C  37.07100 7.66000 47.79200
H  40.85600 0.39200 47.00000
H  47.13800 0.61400 47.88400
H  46.92600 7.06400 47.58900
H  38.82600 4.83400 47.18900
H  39.16900 1.98200 46.43900
H  38.12200 1.73200 48.49100
H  38.20400 3.26300 48.94500
H  39.69600 2.30700 49.25500
H  39.51100 3.41000 44.70200
H  39.61400 5.16500 44.65900
H  36.98900 4.61800 45.72400
H  37.43200 3.40600 44.55300
H  42.18200 -2.03400 46.25100
H  41.42100 -1.65600 47.76300
H  42.71800 -2.75900 47.79900
H  47.64600 -1.92800 47.61600
H  47.16700 -2.73500 49.15900
H  47.17600 -0.94500 49.10900
H  48.63600 2.71000 46.95100
H  48.45700 4.90500 48.89100
H  49.34800 3.09000 49.78700
H  49.45200 1.52700 48.79700
H  48.06000 1.88800 49.72300
H  48.73100 5.66800 46.07600
H  50.02900 4.52700 46.66200
H  51.12200 6.32100 47.56700
H  49.65200 7.02300 48.32000
H  50.06500 7.35200 46.67700
H  45.83900 9.40700 46.51200
H  45.14000 9.76900 47.95400
H  44.20700 9.98500 46.49100
H  40.24600 7.20000 45.64800
H  37.01100 6.84300 48.51100
H  36.26700 7.38200 47.11100
H  36.92400 8.59300 48.33700
Mg 47.08400 24.47000 28.48700
C  47.90900 26.55700 31.20900
C  46.34600 21.94300 30.75600
C  46.65800 22.49400 25.91700
C  48.10800 27.04100 26.35600
N  47.15500 24.31300 30.69800
C  47.34400 25.33800 31.64600
C  47.00400 24.84300 33.10900
C  46.72600 23.33800 32.87600
C  46.71400 23.15000 31.37700
C  47.82300 22.49600 33.54100
C  45.85000 25.64700 33.89600
C  46.18600 26.35900 35.24500
H  45.03500 26.56200 36.26600
N  46.74600 22.45500 28.35800
C  46.32400 21.61300 29.35700
C  46.00300 20.35200 28.71900
C  46.26100 20.51000 27.31400
C  46.56100 21.90200 27.19800
C  45.59800 19.09500 29.51900
C  46.06900 19.47200 26.21200
O  46.19300 19.67800 25.00600
C  45.75700 17.97500 26.53700
N  47.62600 24.67100 26.37600
C  47.20700 23.68100 25.57500
C  47.37100 24.08200 24.07900
C  47.39100 25.62300 24.24100
C  47.70400 25.83400 25.70000
C  48.67300 23.40400 23.47100
C  46.13900 26.45800 23.88500
C  44.90900 26.27700 24.79100
N  47.70600 26.40800 28.65700
C  48.17200 27.32900 27.71400
C  48.50800 28.60700 28.27300
C  48.38900 28.34400 29.68500
C  47.99200 26.94100 29.83500
C  49.05900 29.96200 27.70300
C  48.50000 28.99800 30.97900
O  48.68300 30.16500 31.38300
C  48.22900 27.84900 31.97500
C  49.48300 27.57700 32.76200
O  50.50200 27.10300 32.26100
O  49.22600 27.85700 34.06200
C  50.29300 27.79200 35.07800
H  46.11900 21.16700 31.49000
H  46.52200 21.83400 25.05700
H  48.23500 27.94700 25.75900
H  48.03500 24.96000 33.44400
H  45.73000 23.16400 33.28500
H  48.68400 22.24200 32.92200
H  47.25700 21.58500 33.73600
H  48.23900 22.79700 34.50200
H  45.07200 24.95300 34.21400
H  45.22400 26.29500 33.28300
H  46.63100 27.31800 34.98000
H  46.97800 25.74100 35.66900
H  44.62400 18.68900 29.24400
H  45.55600 19.13800 30.60700
H  46.19000 18.25100 29.16600
H  45.70500 17.39200 25.61700
H  44.73700 17.87800 26.90700
H  46.46600 17.60500 27.27800
H  46.45300 23.72600 23.61000
H  48.21200 25.98200 23.62100
H  48.44200 22.56000 22.82100
H  49.46000 23.24000 24.20700
H  48.93900 24.16600 22.73900
H  45.80800 26.14100 22.89600
H  46.42200 27.51100 23.88500
H  44.88900 25.46700 25.52100
H  44.06300 26.20000 24.10800
H  44.95400 27.18600 25.39000
H  48.55900 30.22300 26.77100
H  50.11200 29.91300 27.42400
H  48.98600 30.85400 28.32500
H  47.46800 28.14800 32.69500
H  49.88000 27.20600 35.89900
H  50.41800 28.75200 35.57700
H  51.25100 27.46000 34.67800

