158

Mg 54.61900 23.94300 45.03400
C  52.11100 26.26500 44.20900
C  52.67700 21.45000 43.80600
C  57.48800 22.01800 45.08800
C  56.64400 26.80000 46.09400
N  52.72300 23.95500 43.96500
C  51.82700 24.91800 43.75400
C  50.58900 24.46400 42.94500
C  50.71500 22.94100 43.37500
C  52.13800 22.74700 43.74700
C  49.83700 22.60900 44.61800
C  50.64200 24.81100 41.44400
C  49.27300 25.26800 40.88900
H  48.94500 24.70500 39.48100
N  55.00100 22.00100 44.55800
C  54.02100 21.13300 44.10400
C  54.71100 19.79400 43.91600
C  56.08200 19.94400 44.31700
C  56.29600 21.37300 44.69800
C  54.05500 18.53800 43.36900
C  57.12600 18.87200 44.11100
O  56.82800 17.75100 43.65100
C  58.58100 19.02100 44.58700
N  56.77400 24.32200 45.68700
C  57.70700 23.34500 45.54200
C  59.09100 23.94500 45.75800
C  58.86400 25.36100 46.33700
C  57.36300 25.57800 45.98400
C  60.02000 23.14700 46.69600
C  59.94500 26.40600 45.98300
C  60.90500 26.97400 47.01900
N  54.35800 26.09900 45.24400
C  55.24500 27.09200 45.71000
C  54.59500 28.35900 45.71000
C  53.36100 28.08700 45.10300
C  53.28900 26.70000 44.83000
C  55.08100 29.62100 46.27100
C  52.10200 28.67900 44.71600
O  51.71900 29.85100 44.83100
C  51.35300 27.56300 43.97600
C  51.49100 27.90400 42.49900
O  52.60900 27.91200 41.95500
O  50.31100 28.38000 41.98700
C  50.36300 29.17500 40.81400
H  52.03400 20.60900 43.53600
H  58.38000 21.41900 44.89100
H  57.20900 27.64300 46.49500
H  49.75400 25.02900 43.35800
H  50.43700 22.22600 42.59900
H  49.14500 23.39200 44.92900
H  50.58500 22.49600 45.40300
H  49.39500 21.62800 44.44500
H  51.03100 23.92200 40.94900
H  51.40500 25.58700 41.38700
H  49.20900 26.35500 40.84100
H  48.49400 24.98500 41.59700
H  54.20800 17.80600 44.16200
H  54.52400 17.94800 42.58200
H  52.98200 18.64400 43.21100
H  59.18700 19.65300 43.93800
H  59.02800 18.02700 44.61100
H  58.75100 19.42700 45.58400
H  59.46400 23.94400 44.73400
H  58.72800 25.37300 47.41800
H  60.54200 23.85300 47.34200
H  60.69000 22.44200 46.20400
H  59.40600 22.54400 47.36600
H  59.54800 27.26900 45.44700
H  60.66300 25.95300 45.29900
H  61.83000 26.48500 47.32400
H  60.23500 27.06300 47.87500
H  61.24700 27.96800 46.73100
H  54.19300 30.24800 46.34900
H  55.81800 30.14300 45.66100
H  55.64800 29.66400 47.20100
H  50.35400 27.56200 44.41300
H  51.36500 29.58400 40.68800
H  49.78700 30.06700 41.05800
H  49.89800 28.62500 39.99600
Mg -10.63400 39.24900 41.07300
C  -9.16700 36.23100 39.80600
C  -8.15900 40.88300 39.39400
C  -12.61400 41.93300 41.06000
C  -13.21400 37.21300 42.19600
N  -8.98400 38.62300 39.77900
C  -8.56600 37.36800 39.31300
C  -7.47200 37.42500 38.30700
C  -6.97200 38.84700 38.43100
C  -8.07300 39.48000 39.27800
C  -5.67800 39.04500 39.25100
C  -7.92500 36.91800 36.82100
C  -7.06000 35.91500 35.94900
H  -6.66400 36.37100 34.54000
N  -10.35900 41.20500 40.55600
C  -9.27100 41.71000 39.91000
C  -9.35500 43.13600 39.78200
C  -10.68800 43.49700 40.07900
C  -11.27100 42.20600 40.64000
C  -8.27500 44.00500 39.24700
C  -11.29000 44.91300 39.94000
O  -10.55500 45.88500 39.64800
C  -12.67100 45.16900 40.47200
N  -12.66400 39.54100 41.57500
C  -13.25400 40.79500 41.53500
C  -14.67300 40.76200 42.02100
C  -14.83400 39.26500 42.48000
C  -13.49200 38.57500 41.94800
C  -15.09400 41.73000 43.14300
C  -16.01500 38.33500 42.01000
C  -16.76000 37.52700 43.00100
N  -10.99600 37.13400 41.28300
C  -12.12400 36.49200 41.78700
C  -11.86500 35.03300 41.77100
C  -10.76100 34.89900 40.94000
C  -10.31400 36.26500 40.58600
C  -12.76700 33.89700 42.30700
C  -9.90000 33.93100 40.30700
O  -9.95700 32.68100 40.35400
C  -8.82500 34.77400 39.44800
C  -7.42300 34.32400 39.88600
O  -6.54700 34.02400 39.07600
O  -7.31800 34.18200 41.28100
C  -6.10400 33.46800 41.75800
H  -7.27900 41.28200 38.88500
H  -13.15500 42.88100 41.03700
H  -14.06600 36.60300 42.50100
H  -6.66200 36.77200 38.63200
H  -6.90400 39.38400 37.48400
H  -5.51000 38.13700 39.82900
H  -5.69700 39.88200 39.94900
H  -4.78400 39.18300 38.64300
H  -7.93800 37.82300 36.21300
H  -8.94600 36.55300 36.93700
H  -7.57300 34.97800 35.73300
H  -6.15700 35.69400 36.51900
H  -8.79300 44.78100 38.68400
H  -7.68700 43.42300 38.53700
H  -7.67600 44.57500 39.95700
H  -13.53200 44.73900 39.96100
H  -12.88000 46.23900 40.45600
H  -12.63300 44.87600 41.52100
H  -15.33400 40.89600 41.16500
H  -14.66800 39.13300 43.54900
H  -15.52100 42.60300 42.64900
H  -14.18900 42.05200 43.65800
H  -15.80100 41.34100 43.87600
H  -15.67800 37.76900 41.14200
H  -16.65100 39.07600 41.52600
H  -16.36700 36.51300 42.93100
H  -17.82800 37.49500 42.78300
H  -16.66800 37.89100 44.02400
H  -12.91900 34.07800 43.37100
H  -12.16700 32.98700 42.29100
H  -13.65900 33.68400 41.71800
H  -8.88300 34.70600 38.36200
H  -6.17600 33.16000 42.80100
H  -5.16500 34.00400 41.61900
H  -6.09800 32.60300 41.09500

