158

Mg 46.70600 24.74500 29.03900
C  47.11300 26.80400 31.70900
C  45.49200 22.32200 31.17500
C  46.59000 22.57700 26.48600
C  47.70800 27.22500 26.76600
N  46.37000 24.59000 31.21500
C  46.55100 25.59200 32.06100
C  46.18700 25.17800 33.45600
C  45.64700 23.71000 33.32700
C  45.87400 23.49300 31.86300
C  46.43200 22.62100 34.14500
C  45.15700 26.10500 34.19600
C  45.66100 26.60300 35.58300
H  44.69700 26.71500 36.86000
N  46.18900 22.70700 28.88800
C  45.74100 21.88900 29.88000
C  45.40000 20.60900 29.40100
C  45.86100 20.57500 28.04400
C  46.21100 21.97600 27.67500
C  44.82400 19.57300 30.20700
C  45.99600 19.44700 27.08400
O  46.28400 19.53500 25.88900
C  45.78100 18.07700 27.66700
N  47.14500 24.86900 27.06200
C  47.07100 23.78400 26.17200
C  47.64900 24.12300 24.77200
C  47.42300 25.67200 24.80300
C  47.39900 25.92600 26.32800
C  49.15800 23.65200 24.61500
C  46.15300 26.11300 24.10800
C  44.77600 26.11500 24.86800
N  47.29700 26.66000 29.11000
C  47.66500 27.52800 28.12200
C  47.98000 28.85900 28.77100
C  47.79900 28.56600 30.17300
C  47.37200 27.26000 30.35300
C  48.51200 30.13300 28.21300
C  48.05600 29.04200 31.45300
O  48.43400 30.11300 31.81100
C  47.64800 27.98800 32.50000
C  48.88500 27.68400 33.18700
O  49.80000 26.99400 32.72000
O  48.74700 28.15400 34.46400
C  49.95000 27.87600 35.31000
H  44.97100 21.74900 31.94500
H  46.66000 21.86200 25.66300
H  47.93000 27.97400 26.00300
H  47.15000 25.08000 33.95700
H  44.57600 23.53800 33.42900
H  47.17900 23.08000 34.79200
H  46.89800 21.89900 33.47500
H  45.69500 22.11700 34.76900
H  44.27100 25.50200 34.39800
H  44.88800 27.00400 33.64000
H  46.04900 27.62100 35.58300
H  46.50800 25.96800 35.84300
H  45.42400 18.66300 30.23000
H  43.88000 19.25900 29.76000
H  44.39800 19.82100 31.17900
H  44.79600 17.99900 28.12700
H  46.53900 17.83400 28.41100
H  45.98200 17.26500 26.96800
H  47.00400 23.72600 23.98900
H  48.19800 26.30200 24.36700
H  49.43000 23.38900 25.63700
H  49.83300 24.46000 24.33400
H  49.31600 22.84700 23.89600
H  46.08600 25.61800 23.13900
H  46.17200 27.14600 23.76000
H  44.57400 27.16200 25.09400
H  44.79200 25.54200 25.79500
H  44.08500 25.72300 24.12200
H  47.90900 30.37500 27.33800
H  49.53400 29.98900 27.86100
H  48.50100 30.97300 28.90700
H  46.84800 28.32900 33.15700
H  50.93300 28.18600 34.95400
H  50.02500 26.83800 35.63200
H  49.73400 28.55400 36.13600
Mg -5.02400 24.80900 26.70700
C  -3.76400 26.81600 29.44700
C  -6.01300 22.56400 29.18300
C  -6.16100 22.88900 24.16200
C  -3.39900 26.84400 24.50400
N  -4.90800 24.75600 29.10800
C  -4.51600 25.77900 29.97900
C  -5.07700 25.52600 31.38100
C  -5.57500 24.00900 31.31000
C  -5.56100 23.77900 29.82400
C  -4.61400 23.01400 32.11700
C  -6.19200 26.57500 31.84900
C  -5.97600 27.22100 33.21500
H  -6.96300 26.80400 34.25600
N  -5.96000 22.97000 26.64400
C  -6.29500 22.24400 27.77000
C  -6.83600 21.02300 27.26500
C  -6.83500 21.04200 25.84900
C  -6.35700 22.35700 25.45000
C  -7.42800 20.07200 28.13700
C  -7.30800 20.07200 24.75100
O  -7.38900 20.34200 23.53200
C  -7.59400 18.64300 25.22400
N  -4.99000 24.85400 24.65400
C  -5.54900 24.06700 23.74100
C  -5.24600 24.35100 22.31700
C  -4.32800 25.66800 22.43600
C  -4.24800 25.80500 23.95700
C  -4.56000 23.17200 21.57000
C  -4.88600 26.96700 21.75300
C  -3.99100 27.71300 20.79800
N  -3.91400 26.53400 26.86300
C  -3.27900 27.20200 25.85700
C  -2.55600 28.26500 26.41000
C  -2.68400 28.13800 27.77400
C  -3.54600 27.08900 28.06900
C  -1.71500 29.26300 25.55200
C  -2.37200 28.77400 29.02000
O  -1.63000 29.72500 29.25100
C  -3.02100 27.92400 30.20600
C  -1.88700 27.37900 31.06500
O  -0.77700 27.08900 30.63200
O  -2.27900 27.21300 32.35400
C  -1.26400 26.72400 33.32000
H  -6.30300 21.81000 29.91800
H  -6.40400 22.26900 23.29700
H  -2.76700 27.38300 23.79400
H  -4.28200 25.49800 32.12700
H  -6.56300 23.71300 31.66200
H  -4.18300 22.20900 31.52100
H  -5.19000 22.58200 32.93500
H  -3.80200 23.59300 32.55800
H  -7.17900 26.11100 31.84900
H  -6.22100 27.36200 31.09500
H  -5.98200 28.29700 33.04100
H  -5.02300 26.89800 33.63400
H  -8.44300 19.89800 27.77900
H  -7.45300 20.30600 29.20100
H  -6.87000 19.14900 27.97900
H  -7.86200 17.88000 24.49300
H  -8.39100 18.71700 25.96300
H  -6.62800 18.43400 25.68400
H  -6.25300 24.47600 21.92000
H  -3.33200 25.36500 22.11500
H  -4.00300 22.55700 22.27700
H  -3.92500 23.41600 20.71900
H  -5.37000 22.49400 21.29900
H  -5.11900 27.69100 22.53400
H  -5.81600 26.81700 21.20500
H  -3.60000 28.61500 21.26900
H  -4.47200 27.90400 19.83900
H  -3.15300 27.07700 20.51600
H  -2.20800 29.81100 24.75000
H  -0.81800 28.74900 25.20600
H  -1.47900 29.91900 26.39000
H  -3.68800 28.51000 30.83800
H  -0.31000 27.25000 33.27700
H  -1.22900 25.66400 33.06900
H  -1.76400 26.85200 34.27900

