158

Mg 36.31600 49.74200 24.92000
C  36.65100 48.05500 28.01800
C  35.00200 52.30200 26.75000
C  35.56700 51.18000 22.02400
C  37.32600 46.87300 23.34300
N  35.78700 50.11900 27.13900
C  36.14000 49.32700 28.19900
C  35.83900 49.96200 29.55200
C  35.02700 51.22900 29.11000
C  35.25700 51.24800 27.58100
C  33.56200 51.18500 29.46800
C  37.04300 50.27600 30.49800
C  36.83800 50.03200 32.00800
H  35.43800 50.24400 32.58300
N  35.57800 51.52500 24.42900
C  35.07200 52.43600 25.34000
C  34.74400 53.64600 24.65600
C  34.94300 53.37800 23.21900
C  35.33300 51.96700 23.17900
C  33.99100 54.85000 25.28500
C  34.60700 54.23500 22.02800
O  34.68100 53.89400 20.84300
C  34.34900 55.71800 22.19500
N  36.29700 49.11700 22.97300
C  35.98900 49.91500 21.91800
C  36.21200 49.22800 20.52700
C  37.10800 47.97700 21.00000
C  36.99200 48.02100 22.54700
C  34.87800 48.89600 19.90400
C  38.49900 48.03600 20.33000
C  39.81500 48.01800 21.21900
N  36.94400 47.82800 25.50700
C  37.30600 46.76100 24.73500
C  37.68500 45.60700 25.52600
C  37.43600 46.08200 26.83900
C  36.92300 47.44300 26.78000
C  38.15100 44.35300 25.08900
C  37.31000 45.66100 28.22400
O  37.64700 44.59100 28.69200
C  36.89300 46.94000 28.93900
C  35.73300 46.56800 29.85400
O  34.55800 46.43100 29.54400
O  36.24900 46.18500 31.08300
C  35.23900 45.45700 31.97100
H  34.55900 53.17100 27.24200
H  35.35300 51.71500 21.09600
H  37.62700 45.91200 22.92100
H  35.20800 49.25200 30.08800
H  35.46600 52.16900 29.44400
H  33.16100 50.22800 29.80000
H  32.94100 51.61300 28.68000
H  33.35900 51.82600 30.32600
H  37.32900 51.31900 30.36000
H  37.83200 49.62500 30.12300
H  37.51600 50.75100 32.46700
H  37.22800 49.04900 32.27100
H  34.43200 55.80100 24.98500
H  33.94200 54.92600 26.37100
H  32.95900 54.68300 24.97900
H  34.33000 56.17500 21.20500
H  35.05500 56.29900 22.78900
H  33.37100 55.77800 22.67200
H  36.75300 49.92900 19.89100
H  36.55800 47.07100 20.74400
H  34.86500 49.21800 18.86300
H  34.08900 49.46300 20.39800
H  34.63700 47.83600 19.82500
H  38.47800 48.84300 19.59700
H  38.52700 47.09800 19.77500
H  40.37900 47.18600 20.79800
H  39.59400 47.91700 22.28200
H  40.37200 48.94700 21.10300
H  37.31200 43.74200 24.75500
H  38.64500 43.75100 25.85200
H  38.84500 44.63000 24.29600
H  37.69000 47.31300 29.58200
H  34.78700 44.59900 31.47200
H  34.48000 46.15000 32.33500
H  35.77100 45.18100 32.88100
Mg 17.27000 51.86900 26.86400
C  19.31100 50.23100 29.25400
C  14.87900 52.39400 29.20000
C  15.32100 52.72100 24.37100
C  19.71100 50.59900 24.39600
N  17.08600 51.19900 28.87000
C  18.08500 50.72300 29.67500
C  17.71400 50.79700 31.08300
C  16.17200 51.13100 31.04000
C  15.98800 51.68400 29.63700
C  15.20000 49.92500 31.23500
C  18.58000 52.02800 31.65800
C  19.21500 51.79800 33.07500
H  18.64000 52.45600 34.36100
N  15.38100 52.55500 26.78600
C  14.52100 52.73700 27.83600
C  13.31000 53.44300 27.36200
C  13.53800 53.61000 25.94900
C  14.78900 52.92500 25.65000
C  12.18700 53.68700 28.29100
C  12.51000 54.34400 24.95400
O  12.85400 54.40700 23.76200
C  11.14900 54.94000 25.48500
N  17.50000 51.66600 24.69200
C  16.53600 52.17900 23.90400
C  16.99000 52.14700 22.45700
C  18.55000 51.75400 22.49000
C  18.61400 51.39000 23.96200
C  15.96500 51.30000 21.55300
C  19.47600 52.96200 22.00500
C  20.24900 52.69500 20.71300
N  19.18300 50.78700 26.74700
C  19.97700 50.32900 25.76400
C  21.05600 49.43800 26.31200
C  20.86000 49.50300 27.66300
C  19.74900 50.32600 27.89400
C  22.14400 48.74000 25.54100
C  21.31100 48.88400 28.90700
O  22.24000 48.13700 29.13400
C  20.40100 49.43800 29.99900
C  19.78100 48.13700 30.57800
O  18.87700 47.44300 30.06800
O  20.44100 47.88100 31.74000
C  19.87100 46.84800 32.53800
H  14.11700 52.50400 29.97400
H  14.74900 53.08000 23.51300
H  20.34600 50.01800 23.72300
H  17.82600 49.86900 31.64300
H  15.82800 51.84600 31.78700
H  14.20000 50.30100 31.45100
H  15.44600 49.35600 32.13200
H  15.17700 49.29500 30.34600
H  17.90400 52.87000 31.80800
H  19.37900 52.31500 30.97400
H  20.29300 51.95800 33.05100
H  19.18600 50.74000 33.33700
H  11.28600 53.34700 27.78100
H  12.06400 54.76400 28.41300
H  12.27500 53.17800 29.25100
H  11.48500 55.54000 26.33100
H  10.41200 54.18100 25.74800
H  10.76700 55.47400 24.61500
H  16.96100 53.15800 22.05200
H  18.80600 50.83600 21.96000
H  15.42300 51.94800 20.86500
H  15.19100 50.83800 22.16600
H  16.45900 50.48000 21.03300
H  20.23100 52.94800 22.79100
H  19.04300 53.96300 22.00900
H  20.40800 53.66800 20.24900
H  19.77000 51.97500 20.05000
H  21.23200 52.31700 20.99300
H  21.64700 48.04300 24.86700
H  22.83800 48.31700 26.26600
H  22.74500 49.42900 24.94700
H  20.95300 49.98300 30.76500
H  19.37900 46.07500 31.94600
H  19.30500 47.27400 33.36600
H  20.77900 46.35300 32.88100

