158

Mg 40.48000 9.51700 29.00900
C  42.75800 10.56900 31.40700
C  38.42200 8.39900 31.37000
C  38.58800 8.13900 26.54300
C  42.94700 10.14700 26.60900
N  40.69300 9.35900 31.23500
C  41.59700 10.00700 32.01600
C  41.16200 9.95700 33.42600
C  39.78600 9.23100 33.34900
C  39.60000 8.96200 31.89600
C  39.66000 7.99600 34.26100
C  40.93600 11.42000 34.04000
C  40.36400 11.49200 35.49800
H  41.35700 11.48300 36.62100
N  38.59800 8.51900 28.93900
C  37.94400 8.16000 30.07900
C  36.69900 7.50700 29.67700
C  36.73700 7.42200 28.22200
C  37.99000 8.02900 27.82200
C  35.69400 6.91800 30.64500
C  35.65600 6.93000 27.24600
O  35.84000 6.88700 26.05600
C  34.28700 6.37100 27.74200
N  40.73400 9.28500 26.89000
C  39.80800 8.60600 26.12100
C  40.25400 8.61400 24.64700
C  41.66600 9.35400 24.71500
C  41.72600 9.64200 26.15600
C  40.40200 7.17500 24.03900
C  41.71500 10.58000 23.86700
C  41.41900 11.96900 24.52400
N  42.47800 10.19200 28.95300
C  43.34100 10.38600 27.94200
C  44.58500 10.90700 28.48300
C  44.35100 11.14300 29.84600
C  43.08500 10.56900 30.11700
C  45.77900 11.38000 27.61700
C  44.86200 11.66100 31.09800
O  45.93600 12.14000 31.33900
C  43.79400 11.40900 32.23900
C  44.45000 10.58400 33.28600
O  44.77400 9.40700 33.24200
O  44.84700 11.44600 34.28200
C  45.26500 10.81900 35.49900
H  37.62600 8.33100 32.11500
H  37.91200 7.79000 25.75900
H  43.71500 10.18800 25.83300
H  41.87200 9.36200 34.00000
H  38.94500 9.82600 33.70300
H  39.35300 7.11200 33.70300
H  38.94300 8.20100 35.05600
H  40.56400 7.73300 34.81000
H  40.35400 11.96000 33.29400
H  41.82200 12.04400 34.15700
H  39.76500 10.58700 35.59800
H  39.59700 12.26100 35.60100
H  34.86100 7.61700 30.57400
H  36.11800 6.87000 31.64800
H  35.25600 5.99000 30.27800
H  34.30600 5.66100 28.56900
H  33.78400 5.84500 26.93100
H  33.62800 7.17300 28.07400
H  39.46900 9.10100 24.06900
H  42.52700 8.72800 24.48000
H  40.27000 6.42200 24.81500
H  41.39100 7.08900 23.59000
H  39.57000 7.08800 23.34100
H  41.06800 10.52300 22.99100
H  42.69800 10.63000 23.39900
H  40.72000 12.54500 23.91900
H  42.30400 12.60400 24.54700
H  40.96400 11.97500 25.51500
H  45.88600 12.45200 27.77700
H  45.64300 11.11200 26.56900
H  46.63600 10.88700 28.07600
H  43.51900 12.38200 32.64700
H  45.15000 11.47800 36.35900
H  46.33700 10.68600 35.35900
H  44.73800 9.89300 35.73000
Mg -12.28400 38.14600 41.49400
C  -9.89200 35.86500 41.03100
C  -10.32600 40.49500 39.84900
C  -14.99100 40.17900 41.09000
C  -14.52200 35.59700 42.57700
N  -10.35500 38.06100 40.48400
C  -9.60700 37.00100 40.33000
C  -8.36000 37.32400 39.54300
C  -8.47600 38.85500 39.26300
C  -9.82600 39.18300 39.85200
C  -7.36400 39.72300 39.87900
C  -8.09600 36.34200 38.42400
C  -6.75100 35.71800 38.39900
H  -5.86700 36.33400 37.19600
N  -12.53500 40.11800 40.75600
C  -11.59500 40.94900 40.29800
C  -12.11700 42.26100 40.19300
C  -13.46900 42.21400 40.43200
C  -13.71400 40.79000 40.85100
C  -11.33200 43.47700 39.66100
C  -14.47600 43.42100 40.35400
O  -14.16000 44.47400 39.74600
C  -15.83800 43.34100 40.97800
N  -14.55900 37.88300 41.64800
C  -15.40200 38.91500 41.54500
C  -16.90300 38.45000 41.57400
C  -16.74600 36.99600 42.06100
C  -15.17700 36.80000 42.16000
C  -18.00400 39.31600 42.28200
C  -17.31200 35.86900 41.11000
C  -18.04000 34.71600 41.86800
N  -12.31300 36.10800 41.73100
C  -13.16800 35.24500 42.39800
C  -12.48900 34.03800 42.74000
C  -11.17300 34.18300 42.21400
C  -11.14300 35.48800 41.54900
C  -13.04000 32.84200 43.44500
C  -9.95000 33.56100 41.96500
O  -9.54000 32.45800 42.38300
C  -9.05100 34.62800 41.18800
C  -7.75200 34.81500 41.85400
O  -6.82400 34.03200 41.85300
O  -7.72000 36.08100 42.45900
C  -6.42400 36.48300 43.06900
H  -9.70900 41.17600 39.26000
H  -15.85300 40.82200 40.89900
H  -15.19400 34.88000 43.05400
H  -7.55600 37.27600 40.27700
H  -8.45900 39.12300 38.20700
H  -7.62600 40.28300 40.77600
H  -6.87100 40.34300 39.13100
H  -6.53900 39.05000 40.11300
H  -8.44400 36.78900 37.49300
H  -8.87900 35.59000 38.52000
H  -6.81100 34.65300 38.17200
H  -6.17300 35.87500 39.31000
H  -11.37500 44.28400 40.39300
H  -11.61900 43.80700 38.66300
H  -10.27700 43.26800 39.48500
H  -15.91800 42.93500 41.98600
H  -16.48400 42.84600 40.25200
H  -16.16200 44.38100 41.00100
H  -17.13800 38.35400 40.51400
H  -17.23200 36.99400 43.03600
H  -17.49200 40.01600 42.94100
H  -18.61600 38.70100 42.94200
H  -18.60200 39.84500 41.53900
H  -16.48400 35.37200 40.60500
H  -18.02100 36.20900 40.35500
H  -19.04800 34.71700 41.45500
H  -18.13600 34.84400 42.94600
H  -17.60600 33.74900 41.61400
H  -13.80000 32.45600 42.76600
H  -13.57200 33.12000 44.35500
H  -12.27500 32.09000 43.63800
H  -8.76700 34.00500 40.33900
H  -6.42300 37.55300 42.86000
H  -5.52200 36.08300 42.60700
H  -6.37700 36.36100 44.15100

