158

Mg 24.83500 -5.26700 46.71400
C  27.27300 -3.22700 45.38000
C  22.64800 -4.11500 44.43500
C  22.76500 -7.69900 47.65900
C  27.34200 -6.58000 48.79500
N  25.03900 -3.94200 45.00500
C  26.07600 -3.11800 44.66700
C  25.71900 -2.12500 43.54000
C  24.15700 -2.18700 43.57800
C  23.88600 -3.46200 44.44300
C  23.46200 -0.95000 44.16300
C  26.36200 -2.45900 42.17300
C  26.61900 -1.15100 41.24200
H  26.02500 -1.15100 39.81300
N  22.97200 -5.85400 46.08300
C  22.16900 -5.19200 45.24200
C  20.91800 -5.95400 45.10000
C  20.94300 -7.04600 45.97900
C  22.27600 -6.95200 46.58800
C  19.96700 -5.66000 44.07300
C  19.76900 -8.09000 46.20700
O  18.77100 -8.02200 45.48500
C  19.89100 -9.24100 47.13500
N  25.05000 -6.89300 48.06500
C  23.96700 -7.70800 48.27800
C  24.44600 -8.91000 49.15800
C  25.89800 -8.54200 49.60000
C  26.10300 -7.27000 48.81900
C  23.50200 -9.23900 50.42400
C  26.84400 -9.75200 49.21000
C  28.11600 -9.83400 50.11300
N  26.84900 -4.91900 47.12500
C  27.72700 -5.55500 47.98600
C  28.98600 -4.91200 47.91000
C  28.86800 -3.96600 46.94100
C  27.57900 -4.05300 46.46600
C  30.21600 -5.30000 48.74800
C  29.57700 -2.98000 46.18600
O  30.68200 -2.39500 46.32600
C  28.57500 -2.38700 45.10900
C  28.33600 -0.96200 45.41900
O  27.49600 -0.46900 46.18300
O  29.26900 -0.17100 44.76200
C  28.93800 1.18500 44.89800
H  21.79900 -3.61100 43.96700
H  22.08400 -8.43700 48.08800
H  28.06000 -6.90000 49.55200
H  26.12000 -1.15100 43.82200
H  23.86000 -2.30400 42.53500
H  24.06300 -0.38200 44.87300
H  22.72900 -1.30500 44.88800
H  23.11900 -0.28200 43.37300
H  25.63900 -3.08100 41.64400
H  27.26400 -3.03700 42.37500
H  27.70200 -1.21300 41.14200
H  26.48300 -0.19100 41.73900
H  20.27100 -4.98600 43.27100
H  19.10500 -5.19100 44.54700
H  19.66400 -6.50900 43.46100
H  19.98400 -8.90400 48.16800
H  20.77100 -9.80700 46.83000
H  18.98600 -9.82200 46.96000
H  24.51500 -9.74700 48.46300
H  25.99000 -8.27800 50.65300
H  22.43800 -9.07100 50.26100
H  23.89000 -8.88300 51.37900
H  23.55900 -10.32000 50.55000
H  27.19900 -9.62800 48.18700
H  26.37100 -10.73300 49.25400
H  28.03000 -10.65700 50.82200
H  28.26900 -8.90100 50.65500
H  28.98900 -9.83100 49.46100
H  30.44000 -6.31700 48.42500
H  29.84200 -5.40200 49.76600
H  31.18300 -4.79800 48.72100
H  28.81700 -2.50100 44.05200
H  28.96800 1.45600 45.95400
H  27.92300 1.37900 44.55100
H  29.57300 1.83300 44.29400
Mg 41.71500 41.05000 26.51300
C  40.99500 43.44100 28.98800
C  43.13300 38.96700 28.83300
C  42.56400 39.11300 23.91800
C  41.07400 43.74100 24.09500
N  42.09800 41.24000 28.65200
C  41.56500 42.20100 29.45900
C  41.76500 41.84600 30.97200
C  42.74900 40.62700 30.86500
C  42.66400 40.26200 29.35000
C  44.15400 40.73100 31.46400
C  40.39400 41.63500 31.72600
C  40.17000 42.82400 32.79000
H  39.52700 42.49400 34.19300
N  42.72600 39.28800 26.37300
C  43.21100 38.55000 27.41100
C  43.70000 37.27100 26.86200
C  43.38100 37.24900 25.52100
C  42.89000 38.61700 25.21500
C  44.38900 36.29200 27.74500
C  43.44000 36.04600 24.52600
O  43.19200 36.12300 23.30500
C  43.86600 34.69000 25.04000
N  41.61700 41.34300 24.28000
C  42.00200 40.37200 23.45700
C  41.68900 40.67400 21.99000
C  41.25800 42.22200 22.05400
C  41.23800 42.46600 23.52900
C  42.86200 40.46600 20.99000
C  39.86900 42.68800 21.52800
C  39.84400 43.86900 20.54200
N  41.09300 43.11500 26.50700
C  40.90500 44.03800 25.43800
C  40.47800 45.26600 26.00900
C  40.50900 45.05900 27.37700
C  40.89400 43.71800 27.60700
C  40.27500 46.53600 25.41700
C  40.25000 45.71800 28.57900
O  39.84500 46.85400 28.84100
C  40.38600 44.65500 29.70700
C  41.33200 45.25600 30.68700
O  42.53600 45.24700 30.56700
O  40.74800 45.79200 31.74200
C  41.49900 46.42600 32.81800
H  43.56500 38.23800 29.52100
H  42.77900 38.36600 23.15100
H  41.00000 44.53400 23.34700
H  42.38400 42.66800 31.33100
H  42.38500 39.76500 31.42500
H  44.36500 39.80000 31.99000
H  44.34600 41.61500 32.07100
H  44.86900 40.73600 30.64100
H  40.45200 40.68100 32.25000
H  39.61200 41.75400 30.97600
H  39.56300 43.54700 32.24600
H  41.11200 43.28900 33.08200
H  45.38500 36.03200 27.38900
H  43.79300 35.38100 27.81400
H  44.59100 36.52000 28.79200
H  43.85000 34.00000 24.19700
H  43.22600 34.35400 25.85600
H  44.89900 34.77300 25.38000
H  40.80200 40.11100 21.69800
H  42.14400 42.80800 21.81200
H  42.56200 39.72200 20.25200
H  43.71500 40.06800 21.53900
H  43.26800 41.32000 20.44900
H  39.18000 42.78500 22.36700
H  39.50900 41.86400 20.91200
H  38.84000 43.78600 20.12600
H  40.66300 44.02400 19.84000
H  39.76600 44.76600 21.15600
H  40.83900 46.64900 24.49100
H  40.46900 47.34400 26.12200
H  39.20700 46.59300 25.20900
H  39.39800 44.51400 30.14400
H  42.10000 47.26900 32.47700
H  42.23800 45.79700 33.31500
H  40.74500 46.74000 33.54000

