158

Mg -0.11900 7.36800 27.34000
C  0.83100 9.59600 29.76000
C  0.02300 4.89000 29.67400
C  -0.79700 5.17400 24.87200
C  0.59700 9.73900 24.84000
N  0.37900 7.27300 29.39500
C  0.53200 8.30300 30.20100
C  0.50100 7.86600 31.71600
C  0.51500 6.38100 31.65200
C  0.34700 6.14000 30.13900
C  1.77300 5.64700 32.21700
C  -0.61300 8.54300 32.53200
C  -0.35900 8.83100 33.98800
H  0.80900 8.41300 34.81400
N  -0.48200 5.39100 27.35400
C  -0.36900 4.50800 28.40800
C  -0.77800 3.18000 28.01100
C  -1.09000 3.21700 26.63200
C  -0.82500 4.65000 26.22100
C  -0.65300 1.98200 28.89100
C  -1.53600 2.18400 25.65300
O  -1.70100 2.32800 24.47700
C  -1.71100 0.80800 26.24000
N  -0.19600 7.49100 25.11400
C  -0.51600 6.40200 24.35800
C  -0.36300 6.80000 22.87000
C  -0.26600 8.39000 22.90400
C  0.00700 8.60800 24.36500
C  0.83000 6.00700 22.20800
C  -1.62800 9.07900 22.55600
C  -1.66800 10.34500 21.67900
N  0.60000 9.22500 27.20300
C  0.88700 10.09800 26.19000
C  1.42400 11.35800 26.68500
C  1.37600 11.20300 28.06700
C  0.93400 9.90300 28.33800
C  1.73600 12.53000 25.87300
C  1.67400 11.91500 29.37300
O  2.07500 13.03900 29.57400
C  1.32600 10.85800 30.61000
C  2.55700 10.68400 31.43800
O  3.48600 9.96700 31.14200
O  2.45000 11.43500 32.59600
C  3.61400 11.43300 33.46000
H  0.02700 4.05200 30.37400
H  -0.98400 4.52200 24.01700
H  0.67700 10.58300 24.15200
H  1.39000 8.33300 32.13900
H  -0.33400 5.96400 32.19400
H  2.30600 5.03100 31.49300
H  1.41100 5.11400 33.09600
H  2.50500 6.32200 32.66000
H  -1.47400 7.87600 32.52100
H  -0.85000 9.47900 32.02500
H  -1.29500 8.60700 34.50100
H  -0.31600 9.92000 33.97200
H  0.09400 2.12900 29.67100
H  -0.43500 1.08600 28.31000
H  -1.57500 1.85900 29.46100
H  -2.09400 0.09500 25.50900
H  -2.26500 0.84200 27.17800
H  -0.70100 0.51200 26.52400
H  -1.19000 6.42000 22.27100
H  0.42900 8.84000 22.19500
H  0.46300 5.34200 21.42700
H  1.31900 5.56100 23.07500
H  1.51000 6.72700 21.75200
H  -2.05600 9.46100 23.48300
H  -2.26400 8.27100 22.19300
H  -2.29900 10.31500 20.79100
H  -0.66300 10.59100 21.33600
H  -1.99000 11.15300 22.33600
H  2.65200 12.32700 25.31900
H  1.74600 13.38300 26.55200
H  0.83300 12.69300 25.28600
H  0.46400 11.22500 31.16700
H  3.50200 12.20700 34.21900
H  4.47000 11.62700 32.81400
H  3.71700 10.46100 33.94400
Mg 27.26100 51.16800 26.46000
C  24.95800 52.17700 28.91300
C  29.36100 50.27500 29.08500
C  29.30000 50.20000 24.17600
C  25.19200 52.76500 24.13100
N  27.07800 51.04000 28.74000
C  26.07700 51.56500 29.50800
C  26.35300 51.43600 31.01100
C  27.90500 51.03300 31.02800
C  28.17600 50.79300 29.49900
C  28.85600 52.13500 31.71400
C  25.44700 50.31800 31.62000
C  25.20700 50.28900 33.12500
H  26.14300 51.08200 34.05800
N  29.13200 50.41100 26.60900
C  29.78800 50.09200 27.77000
C  31.14400 49.57600 27.35100
C  31.10100 49.39000 25.90600
C  29.84500 50.08200 25.49200
C  32.25700 49.21700 28.32400
C  32.09700 48.75800 25.11100
O  32.06900 48.79800 23.86000
C  33.29100 48.15900 25.70900
N  27.17300 51.44500 24.43400
C  28.11900 50.81500 23.68200
C  27.75300 50.92900 22.18000
C  26.52500 51.90800 22.09400
C  26.27000 52.04100 23.61400
C  28.96600 51.13700 21.23000
C  25.26500 51.37100 21.28800
C  24.49100 50.09800 21.81700
N  25.45800 52.28400 26.44400
C  24.70100 52.74600 25.44500
C  23.44500 53.24500 25.95100
C  23.52200 53.06400 27.31200
C  24.75400 52.47400 27.57900
C  22.27500 53.57100 25.12700
C  22.73300 53.31000 28.45700
O  21.70700 53.91200 28.63300
C  23.66800 52.78500 29.59400
C  24.07600 53.87900 30.37500
O  24.92000 54.72900 30.08000
O  23.45300 53.86300 31.60300
C  23.89100 54.74500 32.67400
H  30.02400 49.98500 29.90300
H  29.94500 49.77800 23.40200
H  24.54500 53.19100 23.36200
H  26.20700 52.41400 31.46700
H  28.18500 50.10100 31.51800
H  29.14000 51.71600 32.68000
H  28.34700 53.05700 31.99700
H  29.68500 52.45100 31.08000
H  25.81900 49.35400 31.27200
H  24.49500 50.46800 31.11200
H  25.34600 49.25200 33.43200
H  24.16000 50.48900 33.35500
H  33.23700 49.67200 28.18000
H  32.50400 48.15800 28.39800
H  31.96100 49.52800 29.32600
H  33.94300 48.91800 26.14000
H  33.80500 47.71300 24.85800
H  32.93200 47.45700 26.46200
H  27.41800 49.94600 21.84700
H  26.83100 52.88700 21.72600
H  28.67700 51.82000 20.43200
H  29.26900 50.24500 20.68300
H  29.87600 51.50900 21.70200
H  25.62000 51.16600 20.27800
H  24.51600 52.13900 21.09300
H  24.47000 49.30100 21.07400
H  23.47600 50.34700 22.12600
H  24.90400 49.68100 22.73600
H  21.32800 53.49300 25.66100
H  22.24200 52.98800 24.20600
H  22.43800 54.57900 24.74600
H  23.21800 52.07000 30.28300
H  24.75900 55.34800 32.41100
H  24.20900 54.01600 33.42000
H  23.20500 55.35200 33.26500

