158

Mg 7.99300 2.95000 27.11800
C  9.15600 1.74400 30.19200
C  6.01900 5.15000 28.91300
C  6.80100 4.05800 24.17800
C  9.45100 0.28200 25.55900
N  7.50100 3.30000 29.30100
C  8.19400 2.73900 30.31200
C  7.87200 3.51100 31.63600
C  6.72800 4.47300 31.21100
C  6.73700 4.26600 29.73500
C  5.32000 4.15300 31.87700
C  9.03400 4.26900 32.36500
C  8.69700 5.09500 33.56800
H  9.28100 4.57300 34.91500
N  6.48600 4.37200 26.64700
C  5.87400 5.19700 27.53400
C  5.19000 6.17500 26.76800
C  5.36600 5.88000 25.37700
C  6.25900 4.67700 25.34500
C  4.35800 7.31200 27.38700
C  4.88300 6.70400 24.08700
O  5.39400 6.48900 22.97200
C  3.98100 7.87000 24.17200
N  8.07100 2.11700 25.10300
C  7.57400 2.79100 24.08100
C  7.68800 1.93100 22.78200
C  8.64400 0.81400 23.21900
C  8.62800 1.03500 24.71700
C  6.28200 1.44200 22.18700
C  10.04100 0.87900 22.58000
C  11.01900 1.78600 23.38200
N  9.19100 1.44700 27.64800
C  9.80900 0.44500 26.92600
C  10.62100 -0.41900 27.75400
C  10.41000 0.08500 29.01100
C  9.50600 1.20700 28.95200
C  11.43900 -1.58300 27.33100
C  10.81400 -0.11700 30.37900
O  11.63700 -0.93200 30.80400
C  10.14500 1.04900 31.19100
C  9.51000 0.48100 32.41500
O  8.54100 -0.27700 32.47600
O  10.21200 1.00000 33.47800
C  9.55500 0.58900 34.72000
H  5.55900 5.96500 29.47700
H  6.54900 4.36500 23.16000
H  9.94700 -0.53100 25.02400
H  7.51500 2.78900 32.37000
H  7.07700 5.49800 31.33600
H  4.53600 3.99900 31.13600
H  5.17500 5.07000 32.44700
H  5.36900 3.36100 32.62500
H  9.54000 4.86500 31.60500
H  9.72600 3.54100 32.78900
H  7.62700 5.26000 33.69200
H  9.15800 6.07700 33.45800
H  4.39500 7.48000 28.46400
H  3.31000 7.28300 27.08800
H  4.68400 8.22400 26.88800
H  3.54600 8.16100 23.21500
H  4.60200 8.72200 24.45000
H  3.17900 7.73300 24.89700
H  8.21600 2.51800 22.03000
H  8.19700 -0.12500 22.89200
H  6.15100 1.82100 21.17400
H  5.48900 1.71900 22.88300
H  6.12000 0.36700 22.11700
H  10.04000 1.17800 21.53200
H  10.51500 -0.10200 22.56600
H  11.72200 1.12700 23.89200
H  10.54800 2.51100 24.04500
H  11.58500 2.43900 22.71700
H  12.51200 -1.39500 27.37100
H  11.34500 -1.79400 26.26500
H  11.13600 -2.44300 27.92800
H  10.84600 1.85200 31.41500
H  8.50400 0.88000 34.71400
H  10.17700 0.96500 35.53200
H  9.49800 -0.49700 34.78400
Mg 30.33800 58.31800 40.48000
C  27.91000 56.11400 39.24300
C  32.69900 55.86800 39.64900
C  32.77400 60.66100 40.58900
C  27.94800 60.79700 40.53600
N  30.26700 56.19900 39.57000
C  29.17100 55.54700 39.12800
C  29.56500 54.22100 38.43700
C  30.94800 53.97100 39.10800
C  31.37800 55.41400 39.51800
C  30.90700 53.02000 40.35500
C  29.48400 54.44300 36.88400
C  29.10900 53.27300 35.98700
H  28.06200 53.41900 34.87600
N  32.37700 58.23600 40.31000
C  33.21200 57.14500 39.90800
C  34.58900 57.58900 39.78900
C  34.69400 58.89200 40.20700
C  33.23200 59.29900 40.36800
C  35.77000 56.79200 39.39000
C  36.04000 59.68200 40.54800
O  37.09900 59.13700 40.37500
C  35.98800 61.07800 41.08500
N  30.40000 60.39500 40.60700
C  31.50500 61.13800 40.69800
C  31.22100 62.63200 40.87900
C  29.64200 62.58500 41.00400
C  29.31200 61.14800 40.66200
C  31.99500 63.28600 42.01400
C  28.84100 63.49700 40.03300
C  27.69500 64.31000 40.57100
N  28.31600 58.46300 40.32400
C  27.44400 59.57300 40.32200
C  26.09200 59.13300 40.10800
C  26.21200 57.77600 39.64100
C  27.58900 57.44700 39.78500
C  24.87800 60.03300 40.20200
C  25.47500 56.62600 39.18300
O  24.32000 56.51400 38.80500
C  26.59500 55.54800 38.85100
C  26.10400 54.33600 39.64600
O  26.11900 54.26100 40.87200
O  25.80500 53.31200 38.73300
C  25.48600 52.09700 39.38000
H  33.51300 55.15800 39.49100
H  33.62800 61.34100 40.54800
H  27.16000 61.55200 40.58900
H  28.83400 53.48100 38.76100
H  31.68100 53.70100 38.34700
H  31.17700 53.64600 41.20600
H  31.69500 52.27300 40.26000
H  29.92500 52.55200 40.42500
H  30.51600 54.64700 36.59600
H  28.89800 55.34000 36.68300
H  28.80300 52.53500 36.72800
H  30.03700 52.93400 35.52600
H  35.39600 55.86900 38.94700
H  36.40400 56.49100 40.22400
H  36.38700 57.38900 38.71800
H  36.98100 61.26500 41.49200
H  35.19000 61.13100 41.82600
H  35.86700 61.68600 40.18800
H  31.47000 63.00900 39.88700
H  29.39700 62.79700 42.04500
H  32.51600 62.53200 42.60500
H  31.34600 63.89800 42.64000
H  32.66000 63.99300 41.51700
H  28.34100 62.96300 39.22500
H  29.53800 64.19300 39.56500
H  27.98200 65.32700 40.30300
H  27.41600 64.17300 41.61500
H  26.75600 64.18500 40.03200
H  24.79800 60.27200 41.26200
H  24.04600 59.47800 39.76800
H  25.06100 60.94300 39.63100
H  26.53100 55.26800 37.79900
H  25.10700 51.47800 38.56700
H  24.67300 52.31100 40.07300
H  26.36500 51.69000 39.87900

