158

Mg 1.01600 8.03200 27.92400
C  1.37200 10.21100 30.51900
C  1.39300 5.35900 30.00600
C  1.64900 6.07900 25.21600
C  1.15900 10.80000 25.71200
N  1.49000 7.83800 30.02700
C  1.33100 8.85600 30.92000
C  1.34100 8.31400 32.40500
C  1.48000 6.79100 32.18800
C  1.41800 6.66800 30.63500
C  2.83100 6.19500 32.72000
C  0.15700 8.79100 33.27400
C  0.49700 9.16300 34.76400
H  0.04900 8.12500 35.73600
N  1.28600 5.97300 27.63700
C  1.34100 5.05100 28.58000
C  1.45300 3.78000 28.02200
C  1.62500 3.98200 26.61600
C  1.52200 5.39800 26.44700
C  1.36600 2.50600 28.86300
C  1.72900 2.90000 25.39600
O  1.95400 3.12500 24.25900
C  1.64600 1.46000 25.83400
N  1.23200 8.33800 25.85900
C  1.45800 7.37200 24.87600
C  1.75600 7.88400 23.47600
C  1.34500 9.36300 23.59200
C  1.20400 9.51900 25.15300
C  3.24400 7.58000 23.03800
C  0.15500 9.81900 22.71200
C  -1.28200 9.39700 23.09200
N  1.22700 10.14200 28.01400
C  1.20900 11.07000 27.11100
C  1.42600 12.30300 27.71600
C  1.58000 12.11400 29.06300
C  1.34300 10.69100 29.18600
C  1.41000 13.64000 27.10200
C  1.87200 12.67900 30.42600
O  2.20700 13.82800 30.79200
C  1.63600 11.43700 31.43200
C  2.80300 11.35000 32.28200
O  3.92900 10.95300 31.94200
O  2.57600 11.95800 33.51700
C  3.71300 12.25400 34.37800
H  1.32200 4.60100 30.79000
H  1.97700 5.54100 24.32400
H  1.28400 11.66700 25.06000
H  2.23900 8.78900 32.80000
H  0.64900 6.17400 32.52900
H  3.29800 5.71800 31.85800
H  2.59500 5.46500 33.49400
H  3.56300 6.90400 33.10800
H  -0.51500 7.93400 33.24000
H  -0.32200 9.64000 32.78700
H  0.10900 10.16500 34.94600
H  1.58300 9.21800 34.84000
H  2.18700 1.86500 28.54200
H  0.44700 2.11400 28.42800
H  1.32000 2.56100 29.95100
H  2.50900 1.24400 26.46400
H  1.68000 0.81900 24.95300
H  0.70400 1.21700 26.32600
H  1.10300 7.33900 22.79500
H  2.24300 9.93000 23.34400
H  3.90300 7.39300 23.88700
H  3.60600 8.48000 22.54000
H  3.38200 6.83000 22.26000
H  0.36800 9.38600 21.73400
H  0.23000 10.88800 22.51100
H  -1.76600 8.67400 22.43600
H  -1.84600 10.32800 23.16100
H  -1.35200 9.06300 24.12700
H  0.75900 14.39200 27.54900
H  1.14600 13.58400 26.04600
H  2.39400 14.09500 27.21600
H  0.78100 11.75500 32.02900
H  4.23600 13.13800 34.01400
H  4.46900 11.47800 34.50500
H  3.24800 12.67600 35.26900
Mg -12.96000 16.04100 41.88500
C  -9.93900 14.41200 41.19500
C  -11.73100 18.88000 40.11300
C  -15.97300 17.33500 41.78500
C  -14.13500 12.89600 43.02900
N  -11.09900 16.56200 40.77400
C  -9.95800 15.76200 40.76200
C  -8.71700 16.51300 40.21900
C  -9.32400 17.94100 39.98400
C  -10.82300 17.81900 40.28800
C  -8.68000 19.04800 40.84900
C  -8.25000 15.85700 38.84800
C  -6.70000 15.87500 38.72300
H  -6.21400 16.51800 37.40900
N  -13.77300 17.91600 41.14500
C  -13.08600 18.92400 40.47300
C  -14.03000 20.00300 40.20800
C  -15.23600 19.64600 40.78300
C  -15.06800 18.25900 41.30100
C  -13.51200 21.27600 39.50800
C  -16.47400 20.42700 40.77300
O  -16.44600 21.51200 40.12500
C  -17.79900 19.90800 41.29200
N  -14.76900 15.17900 42.20300
C  -15.88600 15.95000 42.17500
C  -17.14900 15.16800 42.50200
C  -16.61100 13.81200 43.00400
C  -15.04400 13.94300 42.76900
C  -18.16300 15.86100 43.49300
C  -17.26100 12.57400 42.33300
C  -18.35400 11.89200 43.19700
N  -12.25300 14.00900 42.21200
C  -12.82100 12.90300 42.68400
C  -11.85100 11.78200 42.67700
C  -10.70400 12.30700 42.14700
C  -11.02200 13.63100 41.81200
C  -12.11000 10.36600 43.08700
C  -9.36900 12.10600 41.73400
O  -8.63200 11.08900 41.80900
C  -8.79200 13.44100 41.20200
C  -7.59400 13.99500 41.88600
O  -7.46900 14.50600 43.00800
O  -6.47900 13.59900 41.11200
C  -5.18600 13.84000 41.81900
H  -11.31400 19.75400 39.60900
H  -17.04300 17.54600 41.73900
H  -14.62500 12.03300 43.48200
H  -7.95900 16.37200 40.99100
H  -9.34800 18.21000 38.92800
H  -9.19500 19.16500 41.80200
H  -8.64600 19.94100 40.22500
H  -7.75800 18.59300 41.21200
H  -8.64700 16.30200 37.93500
H  -8.53400 14.80400 38.84200
H  -6.32500 14.85200 38.75300
H  -6.24400 16.46300 39.52000
H  -13.42400 21.08800 38.43800
H  -12.48600 21.48200 39.81200
H  -13.99800 22.23900 39.66800
H  -18.29500 19.20200 40.62700
H  -18.44800 20.78400 41.29400
H  -17.76900 19.58400 42.33200
H  -17.68400 15.02600 41.56300
H  -16.64300 13.72600 44.09000
H  -17.49000 16.62900 43.87600
H  -18.44400 15.29500 44.38100
H  -18.97700 16.33300 42.94200
H  -16.52300 11.92600 41.86000
H  -17.89600 12.91500 41.51600
H  -18.41500 10.80400 43.17100
H  -19.36200 11.91100 42.78300
H  -18.33800 12.31900 44.20000
H  -11.14600 9.88200 43.24000
H  -12.59100 9.98100 42.18800
H  -12.87100 10.21800 43.85400
H  -8.48300 13.08100 40.22000
H  -4.91000 14.88600 41.68300
H  -4.48800 13.08300 41.46000
H  -5.17800 13.72900 42.90300

