158

Mg 8.99600 3.26200 27.07800
C  10.13100 1.76900 30.00800
C  7.13000 5.47700 29.01500
C  7.34400 4.22000 24.27400
C  10.46700 0.69300 25.21200
N  8.52500 3.46800 29.25300
C  9.22500 2.76500 30.25400
C  8.95500 3.39000 31.62600
C  7.87600 4.38000 31.35700
C  7.81400 4.50300 29.78000
C  6.42500 4.14100 31.90100
C  10.22100 4.09500 32.18400
C  10.76100 3.58000 33.50300
H  10.94900 4.46500 34.71600
N  7.49300 4.64500 26.68400
C  6.93000 5.53800 27.59700
C  6.13300 6.54500 26.91000
C  6.34900 6.30600 25.54800
C  7.06000 5.00100 25.43900
C  5.16000 7.51500 27.53900
C  5.95700 7.19600 24.27200
O  6.20600 6.89200 23.11800
C  5.32400 8.55500 24.48000
N  8.80500 2.47200 25.01200
C  8.12600 3.10600 24.06400
C  8.29000 2.46900 22.70800
C  9.46900 1.50000 23.01000
C  9.58700 1.55000 24.46600
C  6.97200 1.66000 22.32000
C  10.78700 1.77500 22.24300
C  11.25600 0.55700 21.36600
N  10.14000 1.63100 27.47700
C  10.73100 0.72700 26.61700
C  11.48500 -0.24100 27.40600
C  11.33200 0.18700 28.76400
C  10.41300 1.27500 28.65200
C  12.39700 -1.39800 26.93700
C  11.75300 -0.04000 30.11800
O  12.70100 -0.74800 30.53900
C  10.93400 1.02800 31.00800
C  10.18100 0.30300 32.04200
O  9.06500 -0.13200 31.96700
O  10.98500 0.22200 33.15800
C  10.36600 -0.57500 34.24200
H  6.54500 6.17000 29.62300
H  6.82800 4.62600 23.40200
H  11.02400 -0.07300 24.66800
H  8.70600 2.51400 32.22500
H  8.05000 5.39500 31.71300
H  6.48000 3.14500 32.33900
H  5.68400 4.12400 31.10200
H  6.26900 4.97600 32.58400
H  10.07100 5.15000 32.41500
H  11.00200 3.93000 31.44200
H  11.79100 3.37900 33.20600
H  10.31200 2.71000 33.98100
H  4.21100 6.97900 27.53600
H  5.09600 8.47800 27.03300
H  5.42300 7.77900 28.56400
H  5.19000 9.13600 23.56700
H  5.96700 9.18600 25.09400
H  4.37000 8.45300 24.99700
H  8.61700 3.26200 22.03500
H  9.03900 0.50800 22.87300
H  6.71000 2.05900 21.34100
H  6.07200 1.84500 22.90700
H  7.11700 0.58000 22.32400
H  11.53500 1.85500 23.03200
H  10.55900 2.69000 21.69600
H  10.45400 -0.13800 21.11500
H  11.95500 0.01000 22.00000
H  11.72200 0.91800 20.44900
H  13.44000 -1.08100 26.89800
H  12.11300 -1.74900 25.94500
H  12.33600 -2.30500 27.53800
H  11.58600 1.73800 31.51600
H  9.66900 0.09700 34.74300
H  11.16200 -0.69000 34.97700
H  9.89700 -1.54500 34.07500
Mg 25.43000 1.09200 29.27300
C  27.37300 0.60700 32.23000
C  22.68200 1.71000 31.13900
C  23.78400 1.31700 26.44100
C  28.41300 0.14300 27.43400
N  25.03500 0.89100 31.46300
C  25.99100 0.91000 32.51000
C  25.38100 1.36000 33.82800
C  23.84300 1.51100 33.44300
C  23.84400 1.48500 31.94000
C  22.98000 0.33000 34.14700
C  25.94900 2.73400 34.45000
C  26.44900 2.82800 35.85400
H  25.98700 3.94600 36.77300
N  23.45300 1.29800 28.91700
C  22.46900 1.58100 29.79100
C  21.22700 1.70200 29.06900
C  21.56700 1.59500 27.66200
C  23.03600 1.44100 27.62400
C  19.92800 1.81500 29.70500
C  20.62500 1.65900 26.39700
O  21.01000 1.59200 25.25800
C  19.20400 1.83600 26.65300
N  26.11100 0.80300 27.29600
C  25.19800 1.03100 26.27400
C  25.83600 0.98600 24.86900
C  27.35700 0.61700 25.20100
C  27.33100 0.57500 26.72800
C  25.19300 0.00200 23.80800
C  28.38900 1.65100 24.68900
C  28.46900 2.14000 23.24300
N  27.45400 0.54800 29.71500
C  28.56100 0.24100 28.85600
C  29.71200 -0.07600 29.72500
C  29.32100 0.18500 31.07500
C  27.94600 0.48800 30.97100
C  30.95600 -0.72400 29.18600
C  29.73700 0.17400 32.42300
O  30.83300 -0.20000 32.87600
C  28.49100 0.54000 33.24700
C  28.37900 -0.46300 34.28600
O  27.67100 -1.46600 34.27300
O  29.22600 -0.17400 35.31300
C  29.32700 -1.00400 36.46700
H  21.91000 2.05800 31.82800
H  23.24600 1.44600 25.50000
H  29.32800 0.12800 26.83900
H  25.71700 0.56800 34.49600
H  23.43000 2.43800 33.84000
H  22.89600 0.54800 35.21200
H  23.40100 -0.65000 33.92600
H  22.01500 0.36000 33.64000
H  25.10900 3.42500 34.37300
H  26.75900 3.17300 33.86700
H  27.45500 3.22600 35.71800
H  26.29900 1.86300 36.33900
H  19.99300 1.57100 30.76500
H  19.28200 1.10800 29.18400
H  19.48900 2.80200 29.56100
H  19.09500 2.80100 27.14800
H  18.82400 1.00400 27.24600
H  18.74000 1.73200 25.67200
H  25.79300 1.99900 24.46900
H  27.59500 -0.35200 24.76200
H  24.64100 -0.86600 24.17100
H  26.00500 -0.36100 23.17800
H  24.47300 0.55400 23.20500
H  29.39300 1.25900 24.84600
H  28.26600 2.54200 25.30400
H  29.43100 2.17800 22.73200
H  28.08600 3.14000 23.04300
H  27.93100 1.40600 22.64300
H  31.53900 -0.09600 28.51200
H  30.63300 -1.56000 28.56600
H  31.61400 -1.12900 29.95500
H  28.72800 1.50100 33.70400
H  28.38300 -0.82400 36.98100
H  30.13500 -0.66900 37.11800
H  29.44200 -2.08300 36.36700

