158

Mg 36.98400 50.18400 25.71300
C  37.32600 47.87500 28.42200
C  35.82800 52.52100 27.70400
C  36.27400 51.91500 22.89800
C  37.87800 47.40500 23.62900
N  36.53900 50.15900 27.81900
C  36.81500 49.13900 28.77200
C  36.79600 49.73400 30.15900
C  36.05900 51.09500 29.90400
C  36.15200 51.29600 28.35100
C  34.58400 51.15000 30.41800
C  38.12800 49.89800 30.96400
C  38.21400 50.29300 32.41400
H  36.83000 50.27500 33.19300
N  36.20100 52.01300 25.34500
C  35.72200 52.87100 26.32800
C  35.37400 54.13000 25.65700
C  35.48500 53.89600 24.23900
C  36.07600 52.59200 24.08200
C  35.00000 55.36000 26.39600
C  35.15900 54.83900 23.06800
O  35.27400 54.46100 21.90500
C  34.48800 56.22900 23.27500
N  37.03900 49.69500 23.60500
C  36.67600 50.60200 22.62700
C  36.74600 50.03400 21.18400
C  37.43200 48.65500 21.40900
C  37.55700 48.60700 22.94600
C  35.31200 49.86600 20.73300
C  38.71500 48.27500 20.63000
C  40.09200 48.42600 21.37600
N  37.56100 48.09300 25.91100
C  37.90100 47.11700 25.00800
C  38.29000 45.88000 25.73000
C  38.11100 46.15300 27.01100
C  37.56500 47.44700 27.07700
C  38.94700 44.66200 25.02200
C  38.12800 45.52900 28.35700
O  38.38500 44.46300 28.81400
C  37.74700 46.71600 29.35500
C  36.61300 46.26700 30.23500
O  35.46900 46.02500 29.86000
O  36.97400 46.37400 31.54200
C  35.93300 46.08000 32.53000
H  35.65200 53.30500 28.44400
H  36.19900 52.42000 21.93300
H  38.33900 46.65800 22.98000
H  36.17900 49.06000 30.75400
H  36.48000 51.89200 30.51800
H  34.59600 51.63400 31.39500
H  34.08000 50.19000 30.53300
H  33.94600 51.80300 29.82400
H  38.71800 50.59200 30.36500
H  38.56300 48.91100 30.80900
H  38.71400 51.25300 32.54700
H  38.76500 49.47500 32.87800
H  35.57500 56.14300 25.90300
H  35.24500 55.15100 27.43800
H  33.95000 55.64600 26.33200
H  34.89500 56.70300 24.16900
H  33.40900 56.09000 23.34900
H  34.75800 56.90000 22.45900
H  37.36500 50.63900 20.52200
H  36.72000 47.86900 21.15700
H  35.08600 50.58400 19.94500
H  34.58500 50.02000 21.53100
H  35.18400 48.89800 20.24900
H  38.74300 48.93900 19.76600
H  38.70000 47.26000 20.23400
H  40.54700 47.43800 21.45200
H  40.26900 48.85900 22.36000
H  40.59300 49.13700 20.71900
H  39.38400 44.99600 24.08100
H  38.18900 43.88800 24.90800
H  39.71800 44.26500 25.68200
H  38.61000 47.04500 29.93400
H  34.90400 46.19900 32.18900
H  36.02700 46.69500 33.42600
H  35.96900 45.05100 32.88900
Mg 17.06700 51.24900 25.92500
C  18.94700 50.16400 28.52800
C  14.39600 51.81300 28.00500
C  15.15300 52.26800 23.32800
C  19.54200 50.23600 23.60000
N  16.72700 51.06200 28.05900
C  17.70000 50.64000 28.97000
C  17.15400 50.88000 30.37600
C  15.55500 50.93200 30.17000
C  15.54200 51.31600 28.70000
C  14.86700 49.53700 30.38900
C  17.76500 52.11700 31.25100
C  18.14800 51.85400 32.73500
H  17.23700 52.48900 33.82500
N  15.13400 52.20100 25.75000
C  14.15000 52.30600 26.73300
C  12.98800 52.88100 26.21200
C  13.15200 52.99600 24.80900
C  14.59400 52.54500 24.57100
C  11.78600 53.21800 27.10600
C  12.34400 53.63300 23.76700
O  12.86100 53.91500 22.66900
C  10.89600 54.04200 23.96400
N  17.29300 51.14000 23.76100
C  16.38700 51.67400 22.90200
C  16.78700 51.57500 21.47600
C  18.27800 51.14900 21.57100
C  18.41900 50.83200 23.05000
C  15.90100 50.68800 20.62500
C  19.45700 52.04300 21.10800
C  20.27700 51.50200 19.96300
N  18.91000 50.34500 25.98900
C  19.80300 49.96200 24.99700
C  20.89500 49.35100 25.62100
C  20.68600 49.56700 26.97100
C  19.39900 50.05800 27.18800
C  22.08200 48.99500 24.86100
C  21.24300 49.31700 28.30100
O  22.25300 48.69900 28.69900
C  20.18000 49.78100 29.32300
C  19.83600 48.62400 30.21300
O  19.19400 47.68800 29.85000
O  20.24300 48.73600 31.50900
C  19.80400 47.67300 32.46200
H  13.58600 51.72100 28.73200
H  14.58600 52.48800 22.42100
H  20.28300 50.00200 22.83300
H  17.31500 49.98500 30.97800
H  15.17600 51.66300 30.88400
H  14.55300 49.47700 31.43100
H  15.49200 48.72300 30.02300
H  13.96000 49.46600 29.78700
H  16.97200 52.86000 31.33200
H  18.66200 52.55000 30.80800
H  19.14800 52.21900 32.96800
H  18.09200 50.78000 32.91300
H  11.20500 54.07300 26.75800
H  12.18600 53.38800 28.10500
H  11.18100 52.32000 27.23000
H  10.43700 53.27300 24.58500
H  10.50900 54.04600 22.94500
H  10.79300 55.04900 24.36800
H  16.74900 52.55400 20.99900
H  18.52000 50.21800 21.05900
H  15.51400 51.36600 19.86300
H  14.97600 50.49200 21.16600
H  16.34200 49.80100 20.17000
H  20.15100 52.20000 21.93400
H  19.00000 52.97100 20.76400
H  19.73300 50.72800 19.42200
H  21.26400 51.10900 20.20800
H  20.39100 52.36000 19.30100
H  22.90500 48.74700 25.53100
H  22.30500 49.76200 24.11900
H  21.91900 48.11000 24.24600
H  20.52100 50.65800 29.87300
H  20.35400 46.79100 32.13300
H  18.75200 47.44100 32.29700
H  20.03300 47.93500 33.49500

