158

Mg 37.03000 48.70100 25.72800
C  37.00700 46.72700 28.60500
C  36.12700 51.52600 27.57900
C  36.52800 50.42400 22.87500
C  37.69900 45.78200 23.88700
N  36.44200 49.05800 27.84100
C  36.69700 48.10600 28.81700
C  36.72600 48.79900 30.19800
C  36.18000 50.24600 29.83100
C  36.27700 50.26300 28.31200
C  34.72000 50.47800 30.27800
C  38.06600 48.83300 30.99900
C  38.05700 48.06100 32.34200
H  37.88300 48.95200 33.55300
N  36.59500 50.74700 25.35500
C  36.21600 51.70800 26.19500
C  36.03600 53.01200 25.50000
C  36.21600 52.76800 24.09300
C  36.37300 51.27100 24.07500
C  35.88200 54.32300 26.32800
C  36.14000 53.74700 22.98200
O  36.26100 53.43400 21.77000
C  35.89400 55.23400 23.22100
N  37.14000 48.22000 23.68400
C  36.90100 49.06900 22.67400
C  36.97400 48.37200 21.32000
C  37.65000 46.96400 21.64100
C  37.46300 46.93300 23.14100
C  35.58400 48.37100 20.65600
C  39.13200 47.10800 21.20400
C  39.62300 45.97900 20.30800
N  37.34700 46.70200 26.04600
C  37.64700 45.62600 25.23400
C  37.66700 44.39800 25.95900
C  37.61200 44.86500 27.30100
C  37.25100 46.20800 27.32100
C  37.85400 43.16100 25.20500
C  37.55000 44.36300 28.64800
O  37.67600 43.24900 29.09700
C  37.06800 45.54300 29.50700
C  35.73000 45.17700 30.14000
O  34.91300 44.41000 29.60000
O  35.58300 45.78300 31.36000
C  34.27100 45.52100 31.89500
H  35.90900 52.40000 28.19600
H  36.30500 50.90500 21.92000
H  37.81200 44.97300 23.16200
H  36.02000 48.29600 30.85900
H  36.80100 51.07400 30.17600
H  34.03600 49.66200 30.04700
H  34.20500 51.25600 29.71500
H  34.78400 50.69100 31.34500
H  38.40600 49.86800 31.05000
H  38.83800 48.34100 30.40800
H  38.95300 47.46200 32.50400
H  37.30600 47.27200 32.30000
H  36.47600 55.09100 25.83300
H  36.24200 54.20100 27.35000
H  34.82800 54.54100 26.50000
H  35.52200 55.63300 22.27800
H  36.84900 55.70000 23.46600
H  35.07700 55.37300 23.92800
H  37.67100 48.92500 20.69000
H  37.15500 46.12900 21.14300
H  34.85400 49.07300 21.05800
H  35.11800 47.39800 20.49700
H  35.56500 48.69800 19.61700
H  39.68100 46.99000 22.13800
H  39.41900 48.06800 20.77300
H  40.61800 45.60500 20.54600
H  39.65500 46.36700 19.28900
H  38.91300 45.15200 20.29800
H  37.35600 42.44600 25.85900
H  38.90500 42.91400 25.05300
H  37.30100 43.14600 24.26500
H  37.79700 45.66900 30.30700
H  34.35200 45.76000 32.95500
H  34.00500 44.46700 31.81200
H  33.51700 46.18000 31.46300
Mg -5.04200 26.71400 25.63000
C  -4.25300 28.13800 28.57700
C  -6.92500 24.32800 27.08400
C  -5.40500 25.19700 22.59400
C  -3.03400 29.08400 23.97100
N  -5.42200 26.22300 27.56700
C  -5.12800 27.03900 28.61900
C  -5.73500 26.45500 29.88700
C  -6.43400 25.17000 29.46600
C  -6.34300 25.26900 27.94500
C  -5.81800 23.82000 30.07600
C  -6.64800 27.50600 30.63400
C  -6.49300 27.57200 32.19400
H  -6.42900 26.27100 32.98200
N  -5.98700 24.93900 24.98500
C  -6.82000 24.17400 25.69100
C  -7.35100 23.11200 24.86800
C  -6.70900 23.27700 23.61300
C  -5.93200 24.47800 23.67500
C  -8.23200 22.03100 25.44800
C  -6.84200 22.47600 22.34100
O  -6.14300 22.79500 21.34400
C  -7.87200 21.37100 22.21000
N  -4.28100 27.05200 23.56600
C  -4.66700 26.32500 22.52300
C  -4.21300 26.91400 21.20200
C  -3.64600 28.32000 21.73000
C  -3.64300 28.15000 23.21000
C  -3.09600 25.96000 20.56000
C  -4.52700 29.60300 21.28800
C  -4.03500 30.48700 20.19000
N  -3.86100 28.34200 26.10600
C  -3.11900 29.22500 25.39300
C  -2.52500 30.19500 26.23800
C  -2.97000 29.80600 27.55700
C  -3.72900 28.67100 27.38000
C  -1.60200 31.27300 25.98800
C  -2.86100 30.05600 28.93000
O  -2.20900 30.88300 29.58200
C  -3.68200 28.98000 29.73300
C  -2.66300 28.26300 30.59800
O  -1.71600 27.63000 30.21500
O  -2.99000 28.40900 31.96300
C  -1.96900 27.69700 32.81300
H  -7.49400 23.50200 27.51600
H  -5.65200 24.96500 21.55600
H  -2.72500 30.01600 23.49300
H  -4.86300 26.13200 30.45500
H  -7.51900 25.17700 29.56200
H  -4.93900 23.95800 30.70600
H  -5.39200 23.27000 29.23700
H  -6.61000 23.23100 30.53800
H  -7.69800 27.32200 30.40800
H  -6.36500 28.49300 30.26900
H  -7.33200 28.11700 32.62800
H  -5.60000 28.16300 32.39300
H  -8.58200 21.32300 24.69600
H  -8.98500 22.39900 26.14400
H  -7.56200 21.39800 26.03100
H  -7.73300 20.57100 22.93700
H  -7.79600 21.00100 21.18700
H  -8.87700 21.79300 22.22400
H  -5.07100 27.04800 20.54300
H  -2.62200 28.25100 21.36300
H  -2.86700 25.00900 21.04100
H  -2.22800 26.57700 20.32700
H  -3.46800 25.52200 19.63400
H  -5.00600 30.17600 22.08300
H  -5.41800 29.22000 20.79100
H  -4.51700 30.24600 19.24200
H  -2.97200 30.24700 20.14800
H  -4.11900 31.53700 20.47000
H  -1.51200 31.54800 24.93600
H  -0.63200 30.94000 26.35700
H  -1.86300 32.18700 26.52100
H  -4.38700 29.53000 30.35700
H  -2.08300 26.63300 32.60700
H  -2.21100 28.07500 33.80700
H  -0.93500 27.82700 32.49500

