158

Mg 0.35300 7.85300 25.23600
C  1.16700 10.04300 27.87500
C  0.36600 5.12400 27.39300
C  -0.61600 5.95100 22.77100
C  0.60900 10.66400 23.03200
N  0.90200 7.61000 27.29700
C  1.00500 8.68100 28.20200
C  1.13600 8.04600 29.62700
C  0.98200 6.57200 29.46700
C  0.68600 6.42400 27.97700
C  2.20300 5.64300 29.92300
C  0.17600 8.57600 30.69100
C  0.53400 8.68100 32.16800
H  1.74900 7.92600 32.70300
N  -0.00200 5.80700 25.03200
C  0.01700 4.81900 26.02800
C  -0.37100 3.55500 25.51100
C  -0.65000 3.72200 24.11600
C  -0.50900 5.22800 23.91600
C  -0.48300 2.34600 26.40800
C  -0.85000 2.71700 23.09000
O  -0.98800 3.03900 21.93100
C  -0.83600 1.26300 23.35300
N  -0.03400 8.33200 23.24100
C  -0.37600 7.28500 22.48100
C  -0.55500 7.74300 21.01100
C  -0.28200 9.30800 21.10400
C  0.08900 9.44700 22.54700
C  0.21100 7.01400 19.93700
C  -1.45600 10.14500 20.66500
C  -1.17000 11.14100 19.55600
N  0.83100 9.92000 25.33700
C  0.96600 10.93800 24.34200
C  1.30300 12.19200 25.05800
C  1.36000 11.93000 26.44100
C  1.11600 10.47500 26.55800
C  1.43700 13.48100 24.41600
C  1.68400 12.38900 27.74800
O  2.12200 13.55800 28.06100
C  1.46300 11.20400 28.78700
C  2.66700 11.15600 29.65500
O  3.63000 10.45300 29.41100
O  2.46500 11.91000 30.80900
C  3.69300 12.01900 31.71600
H  0.25600 4.33000 28.13500
H  -0.97000 5.37500 21.91400
H  0.60300 11.49000 22.31800
H  2.12600 8.20800 30.05400
H  0.10300 6.28400 30.04500
H  2.89300 6.21600 30.54100
H  2.73900 5.20100 29.08200
H  1.88500 4.85700 30.60800
H  -0.81700 8.15200 30.53900
H  0.00300 9.60600 30.37900
H  -0.34000 8.28800 32.68800
H  0.53900 9.72100 32.49600
H  -1.49400 1.93700 26.40800
H  -0.32500 2.58000 27.46100
H  0.28400 1.58900 26.25100
H  -1.57100 0.99700 24.11200
H  0.09300 0.89900 23.79200
H  -0.96500 0.65600 22.45600
H  -1.62700 7.58600 20.89700
H  0.61600 9.53400 20.52900
H  -0.37200 6.18300 19.53900
H  1.14400 6.61900 20.33900
H  0.38000 7.76500 19.16500
H  -1.76600 10.76600 21.50500
H  -2.28300 9.51900 20.33000
H  -0.54400 10.80000 18.73200
H  -0.57900 11.82400 20.16600
H  -2.02200 11.71900 19.19600
H  0.68200 13.44400 23.63000
H  2.36100 13.47000 23.83800
H  1.40400 14.38500 25.02400
H  0.63000 11.51100 29.42000
H  4.58000 11.82500 31.11300
H  3.69300 11.38000 32.59900
H  3.90400 13.01400 32.10900
Mg 54.10500 24.16000 44.91500
C  51.66300 26.47300 44.16300
C  52.39800 21.74900 43.17500
C  56.94200 22.18800 44.93200
C  55.93200 26.70000 46.29100
N  52.35400 24.17100 43.65300
C  51.45200 25.20100 43.60300
C  50.19300 24.80700 42.76200
C  50.34300 23.27500 42.83900
C  51.84900 23.03500 43.13500
C  49.50000 22.54100 43.96900
C  50.24000 25.36200 41.27300
C  50.87000 24.64300 40.08000
H  50.98300 25.41300 38.78700
N  54.64400 22.23400 44.28100
C  53.76100 21.42400 43.61400
C  54.30200 20.09200 43.46700
C  55.71300 20.21600 43.88400
C  55.82700 21.58900 44.42000
C  53.64900 18.99100 42.57000
C  56.78100 19.03400 43.72900
O  56.46900 17.98100 43.14600
C  58.22200 19.19100 44.25100
N  56.16900 24.39400 45.48700
C  57.09900 23.45100 45.48900
C  58.27300 23.90600 46.33400
C  57.80200 25.23600 47.01200
C  56.54700 25.51100 46.20300
C  58.72000 22.87800 47.39000
C  58.95000 26.23600 46.93700
C  58.99600 27.11200 45.67700
N  53.81500 26.22700 45.19400
C  54.68700 27.11900 45.78100
C  54.02700 28.42300 45.84700
C  52.80600 28.23800 45.22200
C  52.78800 26.88600 44.82900
C  54.51000 29.65000 46.51400
C  51.50700 28.82300 44.94800
O  51.09400 29.96000 45.25500
C  50.78000 27.69800 44.12600
C  50.44400 28.23000 42.81100
O  51.26300 28.72300 42.06600
O  49.16800 28.18800 42.45900
C  48.75700 28.68900 41.14200
H  51.78000 20.91800 42.83000
H  57.88500 21.63900 44.97600
H  56.49100 27.52100 46.74600
H  49.29200 25.02200 43.33700
H  50.18200 22.76200 41.89000
H  48.89200 23.25100 44.52900
H  50.17500 22.16800 44.73900
H  48.87700 21.78100 43.49900
H  50.89800 26.18200 41.55700
H  49.30400 25.76300 40.88300
H  50.28600 23.74000 39.90700
H  51.83000 24.22500 40.38300
H  54.15500 18.04300 42.74900
H  53.51100 19.21900 41.51300
H  52.65700 18.85800 43.00200
H  58.96600 18.42300 44.04200
H  58.08000 19.44100 45.30300
H  58.52200 20.04500 43.64300
H  59.14700 24.13200 45.72300
H  57.60100 25.19500 48.08300
H  59.80100 23.01300 47.38700
H  58.34100 21.88200 47.16200
H  58.37400 23.13900 48.39000
H  59.85500 25.64100 47.06600
H  58.87800 26.86100 47.82700
H  58.57200 26.58100 44.82500
H  60.02900 27.39400 45.47600
H  58.47200 28.05500 45.84000
H  55.59900 29.67800 46.54000
H  54.26100 29.54300 47.57000
H  54.14800 30.61100 46.14800
H  49.87900 27.53000 44.71700
H  49.52200 28.58800 40.37300
H  48.50400 29.74300 41.26200
H  47.86100 28.15700 40.82100

