158

Mg 24.39600 -4.72900 45.64800
C  26.50700 -2.32700 44.41300
C  22.05500 -3.84600 43.06100
C  22.71800 -7.47300 46.33000
C  27.08700 -5.91000 47.77200
N  24.27500 -3.21100 43.90300
C  25.25700 -2.38300 43.67700
C  24.86900 -1.58500 42.38200
C  23.33800 -1.83200 42.25100
C  23.18200 -3.04400 43.08900
C  22.38900 -0.72000 42.78500
C  25.60300 -2.16200 41.03800
C  26.54700 -1.18200 40.42900
H  26.32700 -1.06300 38.94600
N  22.57900 -5.47600 44.89800
C  21.82800 -4.98800 43.87400
C  20.64500 -5.84200 43.81400
C  20.80200 -6.89900 44.70300
C  22.07100 -6.62700 45.39000
C  19.41800 -5.45200 42.92400
C  19.73900 -8.02200 44.91100
O  18.74900 -8.17900 44.20500
C  19.77900 -8.90400 46.16600
N  24.92900 -6.53000 46.79000
C  23.94000 -7.37000 46.94500
C  24.42800 -8.55000 47.79000
C  25.63700 -7.97800 48.54000
C  25.96200 -6.73800 47.66000
C  23.39500 -9.18100 48.84900
C  26.79700 -9.06800 48.74000
C  27.37400 -9.39000 50.11300
N  26.39200 -4.13000 46.18100
C  27.37300 -4.71500 46.99900
C  28.62600 -3.95500 46.90300
C  28.33900 -3.00000 45.85200
C  26.93900 -3.19500 45.44800
C  29.98300 -4.30700 47.66900
C  28.85100 -1.96000 45.08100
O  29.96100 -1.51300 45.07800
C  27.71000 -1.50100 44.08300
C  27.51000 -0.05000 44.31300
O  27.57300 0.51300 45.38700
O  27.50700 0.71600 43.10100
C  27.73200 2.14000 43.30000
H  21.31700 -3.68400 42.27300
H  22.17100 -8.35900 46.65800
H  27.87700 -6.07100 48.50800
H  25.21200 -0.57400 42.60000
H  23.00800 -2.01400 41.22800
H  22.96000 0.02000 43.34500
H  21.63700 -1.05700 43.49900
H  21.92600 -0.14700 41.98200
H  24.87300 -2.43900 40.27700
H  26.12500 -3.08100 41.30300
H  27.58400 -1.48800 40.56500
H  26.50000 -0.15700 40.79900
H  19.09400 -6.31300 42.33900
H  19.54100 -4.67400 42.17100
H  18.55100 -5.19100 43.53100
H  20.33700 -9.83500 46.06800
H  18.78600 -9.33200 46.30800
H  19.95400 -8.24900 47.01900
H  24.77600 -9.34300 47.12800
H  25.31000 -7.62800 49.51900
H  23.81400 -9.65400 49.73700
H  22.81000 -9.94900 48.34400
H  22.76600 -8.36800 49.21200
H  27.64300 -8.55900 48.27800
H  26.63700 -10.02400 48.24200
H  26.83000 -8.81300 50.86100
H  28.41300 -9.07100 50.20200
H  27.19700 -10.42800 50.39400
H  30.59200 -5.08200 47.20400
H  29.82100 -4.64300 48.69300
H  30.53300 -3.37600 47.81000
H  28.10400 -1.76600 43.10200
H  28.56200 2.29400 43.99000
H  26.93800 2.71500 43.77500
H  27.94000 2.57400 42.32200
Mg 40.98200 9.99400 29.51600
C  42.70700 11.13300 32.45100
C  38.96100 8.09800 31.61100
C  39.43500 8.77600 26.79900
C  43.60800 11.14800 27.68800
N  40.80700 9.78500 31.84700
C  41.59600 10.36000 32.83200
C  40.99900 10.06200 34.20300
C  39.99500 8.89200 33.83800
C  39.96100 8.79400 32.31300
C  40.12200 7.59400 34.63400
C  40.45200 11.33200 34.86700
C  39.93900 11.15000 36.36100
H  40.49500 12.09200 37.45100
N  39.30600 8.75200 29.27500
C  38.65800 8.06900 30.26100
C  37.59100 7.28900 29.60800
C  37.63500 7.56100 28.19100
C  38.81300 8.36300 28.02400
C  36.75200 6.27400 30.36300
C  36.79300 7.03600 27.13200
O  36.93100 7.24400 25.95900
C  35.52800 6.28300 27.49500
N  41.38000 10.09900 27.54600
C  40.67700 9.45100 26.58900
C  41.38700 9.45200 25.18900
C  42.65800 10.28400 25.50300
C  42.57400 10.53700 27.02700
C  41.61600 8.11800 24.52000
C  42.79700 11.45500 24.55900
C  42.16900 12.81500 24.89900
N  42.79200 10.99300 29.92500
C  43.67600 11.48100 29.06000
C  44.74700 12.02900 29.77600
C  44.38400 12.00800 31.19200
C  43.18200 11.32700 31.13600
C  46.08500 12.35800 29.15100
C  44.83500 12.32800 32.52600
O  45.76300 12.95300 33.00100
C  43.69100 11.77400 33.42500
C  44.30000 10.88800 34.47200
O  44.97100 9.88600 34.17700
O  44.00400 11.31500 35.73900
C  44.76900 10.62000 36.81000
H  38.43700 7.56600 32.40800
H  39.17900 8.36100 25.82200
H  44.36000 11.57300 27.02000
H  41.91100 9.70100 34.67800
H  39.01400 9.13600 34.24400
H  40.20100 6.79300 33.89800
H  39.21200 7.53400 35.23100
H  40.96300 7.45600 35.31300
H  39.88600 11.97500 34.19400
H  41.28500 11.97500 35.15300
H  40.34900 10.16100 36.56400
H  38.85100 11.11300 36.29600
H  36.75600 5.38400 29.73300
H  35.73400 6.63500 30.51000
H  37.34900 6.14800 31.26700
H  34.78900 6.85400 28.05900
H  35.83000 5.34800 27.96700
H  34.96600 6.02300 26.59800
H  40.74500 10.03400 24.52800
H  43.53200 9.66000 25.31700
H  41.34500 7.32700 25.21900
H  42.65800 7.99300 24.22500
H  40.88800 8.07200 23.71000
H  42.51400 11.18600 23.54100
H  43.85100 11.73000 24.51700
H  41.47100 13.13800 24.12700
H  43.00500 13.51000 24.96900
H  41.64400 12.95100 25.84500
H  46.70200 12.60400 30.01500
H  46.11400 13.20500 28.46500
H  46.26600 11.44800 28.57900
H  43.30400 12.65800 33.93300
H  44.70300 11.20200 37.72900
H  45.81800 10.40700 36.60400
H  44.38900 9.60900 36.95500

