158

Mg 16.22900 -1.66700 27.78100
C  15.20700 0.54400 30.23000
C  18.18000 -3.34400 29.98500
C  17.73200 -3.13700 25.13000
C  14.43700 0.30900 25.38900
N  16.76700 -1.30300 29.81300
C  16.12400 -0.42700 30.70100
C  16.59600 -0.62800 32.13900
C  17.51700 -1.89600 32.10000
C  17.49400 -2.24000 30.55200
C  18.93300 -1.76200 32.57300
C  15.46700 -0.80800 33.25700
C  15.71000 -0.29400 34.65400
H  17.13700 0.28100 34.96000
N  17.66600 -2.98800 27.53100
C  18.27700 -3.68600 28.60000
C  19.21100 -4.64100 28.05500
C  19.07100 -4.62800 26.66200
C  18.14400 -3.54800 26.38000
C  20.04800 -5.49700 28.97300
C  19.77300 -5.43000 25.62400
O  19.56500 -5.32800 24.40600
C  20.84800 -6.42300 26.02300
N  16.13400 -1.42000 25.51500
C  16.85600 -2.16900 24.65100
C  16.51600 -1.88600 23.12100
C  15.36900 -0.78000 23.40000
C  15.21200 -0.71900 24.87000
C  17.66700 -1.27900 22.30400
C  13.96000 -1.00200 22.65100
C  13.52300 -0.07300 21.52200
N  14.95000 -0.03800 27.75100
C  14.23900 0.54400 26.77500
C  13.34400 1.49300 27.31900
C  13.63100 1.50000 28.64600
C  14.66200 0.63500 28.89900
C  12.39300 2.45400 26.55400
C  13.28600 2.21300 29.84700
O  12.47300 3.10600 30.06800
C  14.26200 1.55300 30.97000
C  14.97800 2.65200 31.61600
O  15.71300 3.44300 31.10000
O  14.48300 2.85700 32.90000
C  14.79100 4.14600 33.47900
H  18.53600 -3.98600 30.79400
H  18.16700 -3.62900 24.25800
H  13.77400 0.77000 24.65400
H  17.24100 0.22900 32.33400
H  17.16900 -2.75600 32.67400
H  19.50000 -1.07700 31.94400
H  19.43800 -2.71700 32.71900
H  18.68100 -1.40700 33.57200
H  15.22100 -1.86900 33.30200
H  14.57600 -0.27600 32.92500
H  15.49500 -1.02800 35.43100
H  14.98200 0.51700 34.68600
H  19.60500 -5.52400 29.96800
H  21.04900 -5.06900 29.02200
H  20.06000 -6.51700 28.58900
H  20.51100 -7.23900 26.66200
H  21.65300 -5.89200 26.53100
H  21.18600 -6.81700 25.06400
H  15.98800 -2.65800 22.56200
H  15.71700 0.19300 23.05300
H  18.56300 -1.42000 22.90900
H  17.63400 -0.21000 22.09200
H  17.82100 -1.79600 21.35800
H  13.20600 -1.02100 23.43800
H  14.00100 -2.00200 22.21800
H  14.31100 0.67800 21.45100
H  12.60500 0.45900 21.77100
H  13.34100 -0.65700 20.62000
H  11.58200 1.84500 26.15400
H  12.96100 2.94000 25.76200
H  11.98200 3.24500 27.18200
H  13.58700 1.08900 31.68800
H  14.31300 4.95500 32.92600
H  15.86800 4.27300 33.37600
H  14.43700 4.22800 34.50700
Mg -12.53700 17.35900 42.31100
C  -9.56800 15.63300 41.52200
C  -11.24700 19.89400 40.34300
C  -15.54200 18.81100 42.46500
C  -13.78200 14.45200 43.68000
N  -10.61800 17.64900 41.02900
C  -9.53800 16.89900 40.96900
C  -8.36600 17.62500 40.29100
C  -9.02800 18.91300 39.74900
C  -10.32200 18.91400 40.54700
C  -8.03300 20.11300 39.96600
C  -7.45800 16.87800 39.24700
C  -5.89800 16.96000 39.42000
H  -4.98800 17.34700 38.24400
N  -13.25200 19.18300 41.55400
C  -12.60100 20.01900 40.72800
C  -13.45500 21.10500 40.37900
C  -14.74100 20.79800 40.96600
C  -14.52700 19.58300 41.73800
C  -13.10300 22.31700 39.67600
C  -16.08400 21.58500 40.82400
O  -16.27200 22.55300 40.09600
C  -17.29000 21.24500 41.61600
N  -14.47600 16.72400 42.92700
C  -15.52100 17.49600 43.04800
C  -16.71100 16.76100 43.68600
C  -16.07900 15.38500 44.07800
C  -14.68200 15.51500 43.49700
C  -17.32600 17.46900 44.85000
C  -16.85000 14.17700 43.59400
C  -16.78000 13.86700 42.06700
N  -11.80400 15.41100 42.60500
C  -12.42100 14.33400 43.18500
C  -11.62700 13.16600 43.26200
C  -10.39100 13.62600 42.68500
C  -10.61200 15.01400 42.27800
C  -12.01900 11.87700 43.82300
C  -9.05600 13.28700 42.31000
O  -8.40100 12.23400 42.56500
C  -8.48100 14.53000 41.55700
C  -7.30000 14.95100 42.26900
O  -7.36500 15.87600 43.10700
O  -6.18300 14.12800 42.00000
C  -5.04500 14.44100 42.91800
H  -10.95900 20.77500 39.76600
H  -16.56800 19.13300 42.65200
H  -14.17100 13.54300 44.14400
H  -7.70300 17.91900 41.10500
H  -9.28400 18.92000 38.68900
H  -7.05400 19.63500 39.99100
H  -8.30200 20.67200 40.86300
H  -8.02100 20.86300 39.17400
H  -7.63400 17.36600 38.28900
H  -7.77800 15.83600 39.21800
H  -5.52100 15.97800 39.70400
H  -5.71300 17.74000 40.15900
H  -12.32500 22.18200 38.92500
H  -12.69900 23.04200 40.38300
H  -13.91700 22.80300 39.13900
H  -16.95200 21.30200 42.65100
H  -17.75500 20.32500 41.26200
H  -17.98600 22.04100 41.35300
H  -17.44700 16.60800 42.89600
H  -15.98500 15.26600 45.15700
H  -16.90800 18.47400 44.90200
H  -17.24100 16.93800 45.79700
H  -18.37800 17.58500 44.58800
H  -17.87700 14.48300 43.79200
H  -16.69100 13.35300 44.29000
H  -17.75000 14.08100 41.62000
H  -16.42500 12.85000 41.89900
H  -16.00600 14.34000 41.46200
H  -12.14700 11.98900 44.89900
H  -11.15700 11.24700 43.60400
H  -12.91300 11.39900 43.42300
H  -8.07000 14.23100 40.59200
H  -4.38100 13.57800 42.86100
H  -5.30700 14.61300 43.96200
H  -4.37300 15.27500 42.71400

