158

Mg 46.70700 25.18300 27.45300
C  47.77900 27.36000 30.02600
C  45.73000 23.01300 29.83400
C  46.19000 22.82300 25.03700
C  48.16700 27.22100 25.09900
N  46.86300 25.21200 29.73800
C  47.12300 26.26000 30.57200
C  46.78500 26.01800 32.03500
C  46.35500 24.47400 31.86900
C  46.36100 24.17800 30.38800
C  47.08500 23.36500 32.77300
C  45.77500 27.05100 32.65800
C  44.99900 26.69000 33.89800
H  45.27000 27.59200 35.14400
N  45.98700 23.24700 27.47400
C  45.61700 22.55000 28.55900
C  45.14800 21.22500 28.12900
C  45.13300 21.15500 26.69400
C  45.77800 22.43000 26.34000
C  44.74500 20.14700 29.14700
C  44.64300 20.00200 25.76400
O  44.66300 20.02200 24.52700
C  44.14200 18.73900 26.37700
N  47.18100 25.02100 25.46500
C  46.77700 23.99100 24.58600
C  47.18400 24.21900 23.16700
C  47.97400 25.57500 23.24700
C  47.72900 26.00300 24.66000
C  47.82100 23.04200 22.45900
C  47.49300 26.61800 22.08900
C  48.55300 27.17900 21.18500
N  47.74100 26.91900 27.49300
C  48.18700 27.67300 26.44500
C  48.88700 28.80900 26.93300
C  48.70000 28.78400 28.34100
C  47.97700 27.60800 28.60400
C  49.71800 29.77500 26.13600
C  49.17900 29.39800 29.64900
O  49.91700 30.32400 29.87900
C  48.42100 28.59400 30.68000
C  49.37700 28.22900 31.81600
O  50.25600 27.34800 31.76800
O  48.97700 28.98700 32.87300
C  49.61000 28.72400 34.10900
H  45.32400 22.41700 30.65400
H  45.92000 22.08600 24.27800
H  48.55800 28.01700 24.46200
H  47.75200 25.98500 32.53600
H  45.29200 24.33100 32.05900
H  46.37100 22.72000 33.28500
H  47.66700 23.93000 33.50100
H  47.69100 22.72400 32.13300
H  45.01000 27.32000 31.92900
H  46.39700 27.90600 32.92400
H  45.43600 25.74500 34.22100
H  43.91600 26.61300 33.80400
H  43.67100 20.03500 29.00400
H  44.71900 20.49100 30.18100
H  45.40200 19.28200 29.05400
H  44.94300 18.34400 27.00100
H  43.92700 17.96400 25.64000
H  43.16700 18.81200 26.86000
H  46.26900 24.47600 22.63400
H  49.04200 25.36700 23.31000
H  48.25800 22.32100 23.15100
H  48.57800 23.37600 21.75000
H  47.02400 22.46500 21.99000
H  47.04000 27.52400 22.49000
H  46.69500 26.24200 21.44900
H  49.49300 27.29100 21.72600
H  48.22900 28.12400 20.74800
H  48.77300 26.58200 20.30000
H  49.98800 30.70200 26.64200
H  49.13600 30.08100 25.26700
H  50.65500 29.35600 25.76900
H  47.55000 29.10500 31.09100
H  49.35800 29.63700 34.64900
H  50.68700 28.64900 33.95700
H  49.24600 27.79900 34.55600
Mg 49.00300 45.90000 43.59900
C  45.93500 46.49900 42.00800
C  49.23900 43.06300 41.57900
C  52.52000 45.78400 44.09600
C  49.01200 49.23400 44.68100
N  47.62700 44.81400 42.03700
C  46.40800 45.24800 41.59100
C  45.98500 44.26600 40.46500
C  46.87200 43.05000 40.70800
C  48.03900 43.64900 41.41500
C  46.24600 41.87900 41.53300
C  46.19300 44.89600 39.04600
C  44.96900 44.90200 38.14000
H  44.95600 44.24000 36.74800
N  50.58200 44.55300 43.01600
C  50.45500 43.45700 42.28200
C  51.70100 42.80200 42.11000
C  52.69100 43.54200 42.74500
C  51.97900 44.67200 43.38700
C  51.83800 41.43800 41.46100
C  54.15900 43.24500 42.73000
O  54.52900 42.21000 42.11100
C  55.16500 44.14300 43.35500
N  50.57400 47.27600 44.25300
C  51.81800 46.94200 44.53400
C  52.58700 48.11000 45.14200
C  51.42800 49.15200 45.40500
C  50.21800 48.55400 44.66400
C  53.52600 47.85200 46.32900
C  51.83000 50.60800 44.87400
C  51.13900 51.80900 45.54800
N  47.74100 47.41000 43.53100
C  47.82900 48.68800 44.13200
C  46.58100 49.40600 43.89200
C  45.82300 48.59700 42.99600
C  46.57600 47.36400 42.84900
C  46.25200 50.79900 44.41700
C  44.60600 48.49300 42.21800
O  43.70400 49.25400 42.12100
C  44.75600 47.19900 41.43300
C  43.46900 46.37200 41.70600
O  43.23400 45.75700 42.74000
O  42.58400 46.38200 40.58500
C  41.39200 45.45500 40.74500
H  49.38900 42.10300 41.08000
H  53.59200 45.78900 44.30300
H  49.05900 50.21400 45.16100
H  44.91800 44.09600 40.60900
H  47.11700 42.63500 39.73000
H  45.22200 42.07900 41.84800
H  46.79900 41.78300 42.46700
H  46.07400 40.94800 40.99400
H  46.89200 44.27400 38.48600
H  46.51100 45.92200 39.23100
H  44.81600 45.96600 37.96100
H  44.06000 44.59700 38.65900
H  51.91700 41.65800 40.39600
H  50.94700 40.81200 41.50300
H  52.69100 40.89000 41.86000
H  55.07300 44.14100 44.44100
H  54.91500 45.14500 43.00400
H  56.18400 43.78500 43.21100
H  53.17500 48.42200 44.27900
H  51.30700 49.35300 46.46900
H  53.19200 48.36600 47.23100
H  54.55800 48.16000 46.16000
H  53.48100 46.78000 46.52000
H  51.63200 50.62800 43.80200
H  52.90500 50.72000 45.01100
H  50.63200 52.31100 44.72400
H  51.85200 52.35900 46.16200
H  50.36400 51.42600 46.21100
H  46.18200 51.53000 43.61100
H  47.03500 51.26300 45.01500
H  45.20400 50.81300 44.71700
H  44.82700 47.45700 40.37600
H  40.82700 45.92800 41.54800
H  41.67900 44.44300 41.03000
H  40.90400 45.53100 39.77300

