158

Mg 17.04000 -1.59800 27.49800
C  15.98600 0.50300 30.33800
C  18.52700 -3.51500 29.89800
C  18.47800 -3.06200 25.07600
C  15.76700 0.88000 25.49500
N  17.25700 -1.38100 29.92300
C  16.76700 -0.52500 30.80800
C  17.02000 -0.93500 32.31400
C  17.81200 -2.28700 32.10300
C  17.91300 -2.38400 30.55700
C  19.23600 -2.42300 32.83100
C  15.77600 -1.04300 33.27000
C  15.70500 -0.17800 34.47500
H  16.93300 0.48200 35.16500
N  18.33600 -2.99800 27.40400
C  18.78500 -3.76800 28.52700
C  19.45200 -4.97800 28.01200
C  19.48400 -4.80800 26.54300
C  18.79300 -3.61700 26.29800
C  20.13100 -6.06200 28.80300
C  20.08500 -5.83200 25.56900
O  20.09800 -5.76100 24.34900
C  20.70000 -7.16600 26.03000
N  17.00400 -1.21100 25.50100
C  17.85900 -1.87000 24.64400
C  17.78200 -1.34500 23.17800
C  16.78600 -0.16400 23.36100
C  16.42800 -0.17900 24.88800
C  19.17900 -0.98500 22.65800
C  15.52500 -0.26400 22.45300
C  14.43700 -1.23000 22.86200
N  15.82900 0.30400 27.80200
C  15.41100 1.13200 26.82200
C  14.62600 2.19600 27.47600
C  14.87000 2.01900 28.88400
C  15.61600 0.83400 28.99600
C  13.71900 3.21600 26.85200
C  14.58400 2.48700 30.23400
O  13.94100 3.51100 30.43600
C  15.35300 1.60200 31.27800
C  16.25500 2.55500 31.98200
O  17.40900 2.83200 31.73600
O  15.50800 3.25200 32.93100
C  16.23000 4.33200 33.61000
H  18.95600 -4.23400 30.60000
H  18.78500 -3.69700 24.24300
H  15.35400 1.58500 24.77100
H  17.70700 -0.20900 32.74800
H  17.13900 -3.11800 32.31300
H  19.44200 -1.52300 33.41000
H  19.91500 -2.55500 31.98800
H  19.46100 -3.24200 33.51400
H  15.62400 -2.08200 33.56300
H  14.83000 -0.81700 32.77800
H  15.19600 -0.72400 35.26900
H  14.98500 0.61500 34.27500
H  19.63000 -7.02900 28.74300
H  20.29900 -5.72100 29.82400
H  21.15900 -6.05100 28.44000
H  19.85000 -7.58700 26.56700
H  21.63000 -7.00500 26.57400
H  20.97900 -7.78300 25.17600
H  17.29700 -2.11800 22.58300
H  17.36700 0.74500 23.21100
H  19.43600 0.03700 22.93600
H  19.19800 -1.01200 21.56800
H  20.01500 -1.60500 22.98200
H  15.87400 -0.52100 21.45300
H  15.18200 0.76300 22.32900
H  13.55400 -0.78700 23.32200
H  14.86900 -2.05800 23.42500
H  14.05800 -1.73000 21.97000
H  13.07700 2.70800 26.13200
H  14.26200 4.03500 26.38100
H  13.19900 3.61400 27.72300
H  14.59700 1.24600 31.97800
H  16.92800 4.85400 32.95600
H  16.68600 4.10100 34.57300
H  15.34500 4.93300 33.81800
Mg 42.90800 42.19400 25.77300
C  42.19200 44.43400 28.36500
C  44.13800 40.11900 28.26500
C  44.02200 40.27400 23.39700
C  42.41400 44.81300 23.52700
N  43.04000 42.29600 28.10200
C  42.66300 43.31100 28.91200
C  42.91000 42.92100 30.43500
C  43.82600 41.68100 30.29600
C  43.60100 41.28900 28.79400
C  45.35300 41.84300 30.62500
C  41.57100 42.69100 31.16700
C  41.83700 42.11600 32.63800
H  41.13100 42.81800 33.86400
N  43.82300 40.31700 25.81400
C  44.20400 39.57700 26.93800
C  44.75400 38.29900 26.49600
C  44.56500 38.36000 25.07400
C  44.12200 39.64900 24.69300
C  45.20000 37.26800 27.45100
C  44.81100 37.19300 24.10100
O  44.69800 37.27800 22.88400
C  45.28800 35.88800 24.64300
N  43.22400 42.50600 23.74500
C  43.72900 41.61400 22.97900
C  43.58500 41.96500 21.49200
C  42.84500 43.31200 21.55900
C  42.81200 43.55700 23.05400
C  44.89000 41.88100 20.62000
C  41.42700 43.44600 20.86600
C  40.07300 43.17800 21.49500
N  42.32200 44.19000 25.85900
C  42.16800 45.09500 24.83500
C  41.58000 46.35200 25.37000
C  41.41800 46.02800 26.74400
C  42.04500 44.76100 26.98700
C  41.35800 47.66400 24.66700
C  41.23400 46.67500 28.07500
O  40.96500 47.85600 28.30700
C  41.69600 45.64500 29.13100
C  42.77200 46.20000 30.02000
O  43.96900 46.11800 29.75300
O  42.17900 46.69800 31.16100
C  43.12900 47.23600 32.16300
H  44.50200 39.43100 29.03000
H  44.23500 39.61100 22.55600
H  42.23800 45.61100 22.80400
H  43.38800 43.78600 30.89300
H  43.50300 40.85200 30.92500
H  45.66700 42.87100 30.80700
H  45.95300 41.44500 29.80700
H  45.53100 41.38600 31.59800
H  40.95500 42.04500 30.54200
H  41.21700 43.72100 31.12600
H  42.88100 41.97100 32.91400
H  41.45800 41.09400 32.62100
H  45.39500 37.64800 28.45400
H  46.05600 36.67200 27.13600
H  44.35100 36.58500 27.48600
H  45.42300 35.12800 23.87300
H  44.63400 35.44900 25.39700
H  46.28000 36.04300 25.06700
H  42.94900 41.17400 21.09600
H  43.40700 44.14400 21.13400
H  45.13900 42.91700 20.39000
H  44.65900 41.44900 19.64600
H  45.75200 41.39800 21.08200
H  41.36400 42.76100 20.02000
H  41.42300 44.48400 20.53300
H  39.53500 42.45000 20.88800
H  39.47500 44.07200 21.67200
H  40.05200 42.69400 22.47200
H  42.19600 48.35600 24.74900
H  40.48700 48.14200 25.11400
H  41.16800 47.45300 23.61400
H  40.77300 45.42000 29.66600
H  44.02400 47.65800 31.70500
H  43.35000 46.46300 32.90000
H  42.60300 48.11600 32.53300

