158

Mg 8.68400 48.49400 27.87800
C  7.09900 47.68500 30.88100
C  11.62500 48.64400 29.70700
C  10.35500 49.66400 25.20300
C  5.73000 48.80300 26.36200
N  9.23500 48.22600 30.06500
C  8.45500 47.85300 31.13500
C  9.19100 47.88400 32.50800
C  10.67300 48.27200 32.01800
C  10.50700 48.40300 30.53500
C  11.25800 49.59600 32.66000
C  9.07000 46.68200 33.44100
C  8.74200 46.99000 34.90200
H  9.48300 46.03200 35.87700
N  10.72400 48.95600 27.44100
C  11.76000 48.83900 28.33900
C  12.96700 49.01200 27.64700
C  12.66600 49.31400 26.30100
C  11.19500 49.39500 26.25600
C  14.37700 48.85900 28.29000
C  13.56300 49.75700 25.09200
O  13.15800 50.14600 24.02600
C  15.06400 49.43900 25.18800
N  8.11700 49.11000 26.04200
C  9.00100 49.61800 25.07100
C  8.18800 50.15100 23.87400
C  6.72900 49.75400 24.24300
C  6.85300 49.08800 25.60400
C  8.39500 51.67400 23.60400
C  6.07400 48.78700 23.23100
C  6.73200 47.45800 22.75300
N  6.80000 48.05300 28.39900
C  5.65100 48.21300 27.66000
C  4.44900 47.89400 28.47400
C  5.00000 47.75000 29.72600
C  6.42600 47.83700 29.69100
C  2.97500 47.79300 27.98000
C  4.65300 47.38100 31.13800
O  3.55200 47.08100 31.54700
C  5.97700 47.27600 31.88300
C  6.05100 45.78200 32.24200
O  6.51800 44.95000 31.54100
O  5.39800 45.54000 33.46200
C  5.52000 44.16900 34.07200
H  12.57800 48.67200 30.23900
H  10.84700 50.07100 24.31700
H  4.78300 48.95100 25.83800
H  8.77700 48.75100 33.02400
H  11.32900 47.40200 32.03100
H  12.34200 49.51500 32.58300
H  10.91900 49.83200 33.66800
H  11.09800 50.41300 31.95600
H  10.03400 46.18100 33.52600
H  8.51300 45.92300 32.89100
H  7.68800 46.73700 35.01600
H  8.82800 48.05900 35.09600
H  14.82700 47.92300 27.96100
H  14.32900 48.94600 29.37500
H  14.99400 49.68100 27.92700
H  15.66500 50.18200 25.71200
H  15.42800 49.27800 24.17300
H  15.08400 48.50700 25.75300
H  8.55500 49.70800 22.94800
H  6.09600 50.63900 24.31100
H  9.21100 51.78000 22.89000
H  8.62400 52.08400 24.58700
H  7.58100 52.32200 23.27800
H  5.97600 49.36900 22.31500
H  5.04800 48.51200 23.47400
H  7.35900 47.63200 21.87800
H  5.91300 46.76300 22.56600
H  7.45300 47.08200 23.47900
H  2.57600 48.77500 27.72600
H  2.36700 47.35700 28.77300
H  2.97100 47.16100 27.09100
H  6.03200 47.86000 32.80200
H  6.33900 44.11800 34.79000
H  5.54700 43.35300 33.35000
H  4.62500 44.08300 34.68900
Mg -9.45100 39.95000 41.58000
C  -8.28800 36.88500 40.47900
C  -6.84600 41.39600 39.94900
C  -11.05000 42.95300 41.87500
C  -12.37400 38.43300 42.79400
N  -7.56400 39.12500 40.53500
C  -7.36000 37.87400 40.06200
C  -5.99100 37.76600 39.38200
C  -5.47600 39.19600 39.49000
C  -6.67600 39.98400 40.03300
C  -4.15000 39.42200 40.27200
C  -6.10100 37.16100 37.99600
C  -4.82600 36.50300 37.41000
H  -4.19100 37.28600 36.20500
N  -8.98100 41.93000 41.08700
C  -7.78700 42.33600 40.49300
C  -7.75600 43.76100 40.30400
C  -8.92600 44.26400 40.80600
C  -9.76300 43.01700 41.24100
C  -6.59400 44.52000 39.71100
C  -9.39000 45.71300 40.74100
O  -8.71900 46.70800 40.35900
C  -10.80600 46.03400 41.15700
N  -11.59900 40.53900 42.07800
C  -11.85300 41.88700 42.30200
C  -13.17100 42.05600 43.11000
C  -13.54000 40.53000 43.46300
C  -12.46000 39.80100 42.73300
C  -13.16900 42.94400 44.36600
C  -14.95100 40.04100 43.05100
C  -15.70700 39.04200 43.95000
N  -10.11900 38.02700 41.73600
C  -11.35500 37.60200 42.26500
C  -11.36500 36.08100 42.21400
C  -10.15100 35.77600 41.47300
C  -9.50700 36.99800 41.15500
C  -12.42800 35.18700 42.82800
C  -9.39600 34.68100 40.98500
O  -9.52000 33.47800 41.16900
C  -8.20900 35.33700 40.28000
C  -6.96100 34.85400 40.90300
O  -6.68200 35.23500 42.03900
O  -6.23300 34.06400 40.05500
C  -4.86500 33.88900 40.43300
H  -6.02800 41.92000 39.44800
H  -11.59200 43.88500 42.05200
H  -13.17000 37.82800 43.23300
H  -5.44300 37.18100 40.12000
H  -5.17900 39.46000 38.47500
H  -3.62400 38.52600 40.60100
H  -4.38800 39.99400 41.16800
H  -3.46500 40.10100 39.76300
H  -6.42400 37.97600 37.34900
H  -6.88100 36.40200 37.93900
H  -5.09500 35.56300 36.92900
H  -4.04700 36.28500 38.14100
H  -5.81100 43.82700 39.40400
H  -6.01800 45.34500 40.13000
H  -6.98100 44.86700 38.75300
H  -11.01700 45.74000 42.18500
H  -11.56000 45.49400 40.58400
H  -11.00500 47.10500 41.11500
H  -13.96900 42.47600 42.49800
H  -13.36300 40.27800 44.50900
H  -12.23700 43.47600 44.55600
H  -13.38000 42.37100 45.26800
H  -13.93800 43.68000 44.13100
H  -14.79100 39.58800 42.07300
H  -15.64400 40.87200 42.92300
H  -16.70800 38.95600 43.52700
H  -15.54500 39.46700 44.94100
H  -15.26400 38.04800 43.89000
H  -13.19900 35.08100 42.06500
H  -12.89600 35.44700 43.77800
H  -12.00800 34.19900 43.01300
H  -8.20400 35.11200 39.21400
H  -4.40300 32.97100 40.07000
H  -4.79200 33.85200 41.51900
H  -4.32100 34.78700 40.13900

