158

Mg 26.15700 0.51300 29.71400
C  27.83200 -0.01200 32.82400
C  23.16900 0.74300 31.51500
C  24.57800 0.56900 26.80600
C  29.11600 -0.32300 28.01200
N  25.66000 0.48500 31.92700
C  26.48900 0.39800 33.00800
C  25.79400 0.57800 34.35700
C  24.33400 0.68900 33.88700
C  24.34600 0.65800 32.36200
C  23.31300 -0.33500 34.59900
C  26.33600 1.88400 34.95000
C  25.52100 2.37100 36.19700
H  26.17700 2.53100 37.55800
N  24.15600 0.55500 29.26400
C  23.07500 0.78100 30.08000
C  21.84900 0.89900 29.32400
C  22.19900 0.77800 27.93300
C  23.66600 0.61300 27.92900
C  20.50100 1.20100 29.90800
C  21.30700 0.80100 26.63200
O  21.77700 0.62100 25.55100
C  19.81800 1.10500 26.73700
N  26.73500 0.13700 27.73400
C  25.94000 0.39800 26.63300
C  26.64300 0.30800 25.28800
C  28.10500 0.34600 25.83100
C  27.99300 0.06600 27.31800
C  26.20000 -0.95100 24.48100
C  28.82600 1.67800 25.50100
C  28.16000 2.99300 25.97000
N  28.10800 -0.08800 30.26000
C  29.19700 -0.44700 29.44300
C  30.32300 -0.76900 30.30400
C  29.83600 -0.57600 31.62900
C  28.47700 -0.28600 31.51100
C  31.66000 -1.18500 29.85000
C  30.26900 -0.54600 32.96800
O  31.40300 -0.72900 33.45300
C  28.92700 -0.14900 33.83700
C  28.79200 -1.11900 34.95300
O  28.98100 -2.32500 34.91300
O  28.87900 -0.37300 36.08900
C  29.49800 -0.94700 37.24900
H  22.22500 0.75800 32.06400
H  24.05200 0.52900 25.85000
H  30.06500 -0.45500 27.48700
H  25.99700 -0.26600 35.01700
H  23.87700 1.67200 34.00000
H  22.80300 0.21400 35.39000
H  23.95100 -1.13100 34.98200
H  22.60000 -0.67200 33.84700
H  26.36300 2.69800 34.22600
H  27.38100 1.70000 35.19900
H  24.63400 1.73700 36.17800
H  25.27800 3.40300 35.94500
H  19.77900 0.38600 29.96300
H  20.06800 2.04700 29.37400
H  20.57700 1.43700 30.96900
H  19.52900 1.84900 27.48000
H  19.30200 0.18100 27.00000
H  19.43400 1.47300 25.78500
H  26.47400 1.20800 24.69800
H  28.64100 -0.44300 25.30300
H  27.05000 -1.62600 24.38000
H  25.92100 -0.73100 23.45100
H  25.30100 -1.45700 24.83300
H  29.25600 1.67300 24.49900
H  29.71100 1.73800 26.13400
H  28.78800 3.19000 26.83900
H  27.10700 2.90200 26.23400
H  28.36000 3.80900 25.27500
H  31.99000 -0.48900 29.07900
H  31.66200 -2.21600 29.49700
H  32.38000 -1.09000 30.66200
H  29.17000 0.84900 34.20300
H  29.30500 -2.00000 37.45400
H  29.12900 -0.50600 38.17500
H  30.57400 -0.80200 37.16000
Mg 6.65300 54.22200 41.36000
C  6.04100 50.75800 41.39700
C  9.63900 53.52200 39.62800
C  6.89200 57.46800 40.44400
C  3.47300 54.73800 42.64300
N  7.75900 52.34900 40.56600
C  7.27600 51.04600 40.72400
C  8.22100 50.05700 40.09600
C  9.55200 50.89300 40.00100
C  8.92200 52.32800 39.95900
C  10.58000 50.79500 41.13800
C  7.64200 49.40300 38.76100
C  6.82600 50.27400 37.80900
H  6.09400 49.58400 36.70600
N  8.08400 55.27700 40.38300
C  9.20000 54.83500 39.77200
C  10.00600 55.91000 39.28500
C  9.37900 57.11500 39.68900
C  8.05200 56.69600 40.17400
C  11.29700 55.76500 38.59500
C  10.05800 58.48900 39.56600
O  11.24500 58.60000 39.18500
C  9.40200 59.70100 40.11600
N  5.26900 55.87800 41.32400
C  5.70500 57.14500 41.07800
C  4.67800 58.16400 41.49400
C  3.55800 57.32100 42.17000
C  4.17000 55.87300 42.16300
C  5.26200 59.30900 42.47400
C  2.09500 57.28400 41.44300
C  1.05900 58.20700 42.22300
N  5.09400 53.01400 41.94500
C  3.92800 53.45100 42.57800
C  3.27900 52.24200 42.91500
C  4.01100 51.13800 42.51500
C  5.09900 51.69400 41.86800
C  1.95400 52.14400 43.62700
C  4.12500 49.70200 42.49800
O  3.42300 48.85200 42.97100
C  5.41700 49.39800 41.70500
C  5.04800 48.53800 40.56500
O  4.57300 48.89900 39.48300
O  5.38000 47.23300 40.81800
C  5.13200 46.27100 39.74400
H  10.56800 53.36800 39.07500
H  7.05800 58.51500 40.18500
H  2.52100 54.87400 43.16000
H  8.42700 49.23200 40.77800
H  9.97900 50.73700 39.01000
H  10.52200 49.74700 41.43000
H  10.28200 51.40600 41.99000
H  11.58900 51.08300 40.84500
H  7.09800 48.47000 38.90900
H  8.56900 49.10900 38.26900
H  7.38000 51.00900 37.22500
H  6.22800 50.99900 38.36100
H  11.35300 56.58100 37.87500
H  11.39200 54.82700 38.04700
H  12.15300 55.77800 39.26900
H  9.04700 59.33700 41.08000
H  8.51400 59.99800 39.55800
H  10.08300 60.55100 40.16200
H  4.26700 58.52600 40.55200
H  3.30500 57.55300 43.20500
H  5.28400 60.30700 42.03600
H  6.28700 58.99100 42.66600
H  4.76000 59.35700 43.44000
H  1.86300 56.22800 41.30600
H  2.13500 57.51000 40.37700
H  1.54100 59.17600 42.34800
H  0.80700 57.70700 43.15800
H  0.09100 58.31600 41.73200
H  1.68900 51.09300 43.51100
H  1.28000 52.87600 43.18200
H  2.03600 52.42000 44.67800
H  6.06100 48.87400 42.41200
H  4.14000 45.91300 40.02000
H  5.81100 45.43200 39.89100
H  5.16600 46.63500 38.71700

