158

Mg 47.91100 44.99200 42.43800
C  44.50700 44.25800 42.47700
C  48.55900 41.44500 42.15600
C  51.13000 45.60800 41.61500
C  47.14900 48.37400 42.09300
N  46.68600 43.02200 42.52400
C  45.26700 43.04100 42.29000
C  44.68800 41.63000 42.06400
C  46.01400 40.77300 42.10600
C  47.14300 41.78400 42.21500
C  46.01200 39.64300 43.22100
C  43.87400 41.43800 40.78300
C  44.29300 42.10200 39.43200
H  44.21400 41.36400 38.09900
N  49.62100 43.72900 42.11400
C  49.65800 42.37700 42.01100
C  50.98400 41.91000 41.79800
C  51.73600 43.10600 41.46100
C  50.84600 44.24700 41.79900
C  51.45600 40.42000 41.64100
C  53.19200 43.16800 40.85900
O  53.89200 42.13600 40.80300
C  53.76800 44.44600 40.49100
N  48.97200 46.64200 41.86300
C  50.25400 46.71300 41.54200
C  50.83800 48.11400 41.46900
C  49.56700 48.96400 41.64900
C  48.46700 47.96800 41.95100
C  51.94600 48.42500 42.53300
C  49.34300 49.79400 40.36400
C  48.94100 51.31600 40.59500
N  46.16200 46.22800 42.51800
C  46.03600 47.55100 42.30100
C  44.56000 47.83200 42.10900
C  43.92600 46.58600 42.25300
C  44.96200 45.66200 42.49100
C  43.92700 49.16200 41.81600
C  42.64600 45.87700 42.14100
O  41.51900 46.19400 41.91800
C  43.03000 44.41600 42.22500
C  42.25200 43.92400 43.39900
O  41.23500 43.24100 43.27200
O  42.73700 44.44200 44.59600
C  41.88800 44.36500 45.77400
H  48.75300 40.37900 42.01600
H  52.14700 45.96300 41.43500
H  46.81700 49.41000 41.99200
H  43.99800 41.32200 42.85000
H  46.10000 40.22100 41.17000
H  46.04400 38.66100 42.75000
H  45.13300 39.80700 43.84600
H  46.92600 39.68100 43.81400
H  42.82300 41.60300 41.02200
H  43.85200 40.37400 40.54600
H  45.34200 42.33100 39.61900
H  43.83800 43.08800 39.34100
H  51.60900 40.18700 40.58800
H  50.78000 39.63400 41.98000
H  52.40300 40.24700 42.15200
H  53.03000 44.91100 39.83800
H  54.67900 44.30600 39.90800
H  54.06400 44.87400 41.44900
H  51.31900 48.17800 40.49300
H  49.70600 49.70500 42.43700
H  52.35000 47.50700 42.95900
H  51.51600 48.98900 43.36100
H  52.69600 49.01500 42.00600
H  48.46200 49.37800 39.87500
H  50.15900 49.73400 39.64400
H  48.06600 51.63000 40.02600
H  49.76700 51.94500 40.26400
H  49.03400 51.61500 41.63900
H  42.94000 49.07900 41.36200
H  44.57100 49.68300 41.10700
H  43.84900 49.77500 42.71400
H  42.73900 44.03500 41.24700
H  41.44300 43.37000 45.79400
H  41.13000 45.12100 45.57100
H  42.41300 44.55500 46.71000
Mg 7.31500 53.39400 41.04800
C  6.99700 49.78500 40.72700
C  10.55500 53.03800 40.44200
C  7.41300 56.62400 40.95600
C  3.72100 53.52500 41.20900
N  8.54100 51.47900 40.65500
C  8.28000 50.16400 40.55000
C  9.58400 49.34700 40.49100
C  10.76200 50.42000 40.67700
C  9.93500 51.77500 40.59100
C  11.68800 50.15500 41.96200
C  9.68800 48.39300 39.22800
C  9.64100 49.13200 37.84600
H  8.39800 48.80600 36.99200
N  8.81300 54.68300 40.69200
C  10.10400 54.36400 40.35200
C  10.84200 55.54900 40.08500
C  9.99400 56.63100 40.38800
C  8.67700 56.06100 40.70300
C  12.29700 55.63600 39.71900
C  10.34400 58.16900 40.32500
O  11.47800 58.52300 39.92200
C  9.47400 59.21100 41.05200
N  5.79400 54.87200 41.00000
C  6.08300 56.13100 41.04500
C  4.79500 57.04300 41.20100
C  3.63100 56.03500 41.24900
C  4.41600 54.73300 41.10000
C  4.86700 57.99600 42.41100
C  2.54400 56.26500 40.25100
C  1.46500 57.28500 40.60200
N  5.68100 52.00200 41.03300
C  4.29500 52.20700 41.21200
C  3.64400 50.92500 41.41000
C  4.67800 50.01200 41.25400
C  5.88600 50.67000 40.91500
C  2.22300 50.74300 41.62100
C  4.93900 48.63000 41.34100
O  4.19600 47.74000 41.76500
C  6.41100 48.41700 40.87500
C  6.29600 47.62600 39.68200
O  5.97100 48.02900 38.57100
O  6.52700 46.32400 40.08900
C  6.37100 45.34000 38.99600
H  11.62300 52.85000 40.31700
H  7.31300 57.71200 40.94500
H  2.64400 53.51000 41.38700
H  9.51800 48.61900 41.29900
H  11.44800 50.36400 39.83200
H  11.27000 49.36800 42.58900
H  11.40000 51.00800 42.57600
H  12.74400 50.01400 41.73100
H  8.76600 47.81100 39.19700
H  10.54400 47.75900 39.45600
H  10.52400 48.74400 37.33800
H  9.84000 50.20300 37.81700
H  12.71200 54.63500 39.83600
H  12.83300 56.39700 40.28500
H  12.35900 55.86700 38.65500
H  8.62800 59.43700 40.40300
H  10.08500 60.10600 41.17500
H  9.31300 58.84300 42.06600
H  4.90600 57.54400 40.23900
H  3.24500 56.06600 42.26800
H  5.46600 57.56000 43.21000
H  3.85500 58.19200 42.76700
H  5.26500 58.93100 42.01700
H  2.13100 55.31200 39.91900
H  2.88300 56.72100 39.32100
H  2.03400 57.98500 41.21400
H  0.69900 56.81100 41.21700
H  1.04700 57.81500 39.74600
H  1.71200 51.67300 41.87400
H  1.92400 49.88600 42.22400
H  1.89500 50.50200 40.61000
H  6.86500 47.87800 41.70700
H  6.65900 44.38500 39.43700
H  7.12100 45.63600 38.26200
H  5.38900 45.22700 38.53800

