158

Mg -1.09100 7.00300 27.00500
C  0.22200 9.34000 29.24300
C  -1.52900 4.69300 29.41000
C  -2.11300 4.81800 24.57600
C  -0.36600 9.39000 24.42000
N  -0.63300 7.01900 29.02400
C  -0.20500 8.11700 29.79700
C  -0.38500 7.73800 31.28100
C  -0.38000 6.23200 31.20700
C  -0.83100 5.94600 29.77700
C  0.84900 5.32500 31.49800
C  -1.71800 8.33000 31.89000
C  -1.75400 8.71600 33.30600
H  -0.66700 8.04100 34.21600
N  -1.87400 5.02800 27.01200
C  -2.00000 4.27400 28.13600
C  -2.69900 3.04200 27.78400
C  -2.73500 3.03900 26.33900
C  -2.26400 4.35300 25.90600
C  -2.99100 2.01000 28.80800
C  -3.30800 2.06700 25.34900
O  -3.40400 2.31400 24.16400
C  -3.75900 0.71300 25.86100
N  -1.02100 7.02500 24.80000
C  -1.50400 6.00700 24.06600
C  -1.60100 6.35900 22.57400
C  -1.05100 7.86300 22.51400
C  -0.79300 8.14400 24.03000
C  -0.69800 5.45600 21.57400
C  -2.00800 8.92200 21.81900
C  -1.47700 9.77400 20.69400
N  -0.29900 9.01000 26.80600
C  -0.11600 9.83500 25.73500
C  0.28900 11.12900 26.15800
C  0.51200 10.97000 27.53700
C  0.15400 9.65400 27.87100
C  0.69600 12.31500 25.30100
C  0.93700 11.61100 28.70700
O  1.37000 12.75000 28.81800
C  0.71800 10.63100 29.90800
C  1.93700 10.50400 30.78100
O  2.70000 9.56000 30.79100
O  2.07200 11.64200 31.56300
C  3.12000 11.67100 32.53700
H  -1.58800 4.04700 30.28900
H  -2.35400 4.14500 23.75000
H  -0.21700 10.12900 23.62900
H  0.46000 8.18700 31.80300
H  -1.13600 5.84300 31.88900
H  1.71600 5.93000 31.76300
H  1.13900 4.84000 30.56600
H  0.69700 4.55600 32.25500
H  -2.62700 7.74400 31.76000
H  -1.84100 9.31700 31.44400
H  -2.76000 8.66100 33.72000
H  -1.56200 9.78800 33.35600
H  -2.26500 1.20100 28.88900
H  -3.93100 1.49600 28.60500
H  -3.15800 2.44900 29.79100
H  -4.32500 0.12700 25.13700
H  -4.37500 0.85000 26.74900
H  -2.87600 0.17800 26.21100
H  -2.65100 6.27900 22.29400
H  -0.05100 7.99800 22.10200
H  0.01500 6.01500 20.96900
H  -1.38800 4.93000 20.91400
H  -0.14900 4.71900 22.16100
H  -2.31100 9.56400 22.64700
H  -2.91100 8.40600 21.49400
H  -2.21700 9.75900 19.89400
H  -0.47300 9.46400 20.40300
H  -1.47200 10.77600 21.12300
H  0.24200 12.12500 24.32800
H  1.78600 12.32200 25.28200
H  0.24200 13.17200 25.79800
H  -0.11400 11.02800 30.48900
H  4.12400 11.62500 32.11600
H  2.99400 10.87900 33.27500
H  2.96700 12.63600 33.01800
Mg -5.52800 25.14500 26.30900
C  -3.88500 26.72800 29.14500
C  -7.35500 23.32800 28.49400
C  -6.96700 23.73100 23.73700
C  -3.54300 27.24400 24.28300
N  -5.62600 25.12000 28.59400
C  -4.96900 25.88900 29.51300
C  -5.50000 25.46100 30.85800
C  -6.27800 24.12800 30.63900
C  -6.42100 24.18000 29.18600
C  -5.50900 22.88100 31.15700
C  -6.34000 26.53500 31.52000
C  -6.22100 26.58500 33.05000
H  -5.71500 25.36300 33.84600
N  -6.96700 23.79400 26.13500
C  -7.67800 23.22300 27.13900
C  -8.69700 22.33700 26.65700
C  -8.51900 22.35000 25.25900
C  -7.42800 23.27900 24.98500
C  -9.80500 21.75600 27.51800
C  -9.26800 21.66600 24.15900
O  -9.03900 21.96200 23.00100
C  -10.37200 20.60800 24.50100
N  -5.32300 25.53700 24.31300
C  -6.00400 24.76300 23.38600
C  -5.50600 25.02400 21.92700
C  -4.66500 26.29600 22.17300
C  -4.52200 26.43400 23.70100
C  -4.57300 23.90400 21.40600
C  -5.24600 27.58500 21.54800
C  -4.54900 28.01200 20.18500
N  -3.86900 26.40800 26.59500
C  -3.19000 27.20800 25.67100
C  -2.27200 28.08200 26.34900
C  -2.48200 27.83800 27.66500
C  -3.51800 26.88200 27.78800
C  -1.19000 28.97900 25.74100
C  -2.06400 28.31200 28.98600
O  -1.18400 29.04600 29.35000
C  -2.99000 27.59300 29.98500
C  -2.15400 26.75500 30.93200
O  -1.44500 25.77500 30.63000
O  -2.29400 27.34400 32.19300
C  -1.41600 26.64700 33.15400
H  -7.79000 22.62000 29.20300
H  -7.36500 23.29800 22.81700
H  -2.85500 27.81800 23.65800
H  -4.67000 25.29600 31.54500
H  -7.26200 24.10200 31.10500
H  -5.23200 22.11100 30.43800
H  -6.16600 22.39600 31.88000
H  -4.54700 23.04100 31.64300
H  -7.37800 26.48600 31.19200
H  -6.09000 27.55500 31.23000
H  -7.24200 26.75000 33.39400
H  -5.57400 27.42500 33.30600
H  -10.75100 22.27500 27.36500
H  -9.58500 21.87200 28.57900
H  -9.94400 20.70400 27.26600
H  -10.63100 20.16500 23.53900
H  -11.24000 21.06700 24.97500
H  -10.03800 19.74600 25.07800
H  -6.34000 25.17800 21.24200
H  -3.61000 26.28200 21.90000
H  -4.61400 23.95900 20.31800
H  -4.79100 22.91000 21.79700
H  -3.55900 23.97600 21.80000
H  -5.24500 28.45300 22.20700
H  -6.29300 27.46200 21.27100
H  -3.91700 27.17600 19.88300
H  -3.91200 28.89600 20.16000
H  -5.20200 28.07700 19.31500
H  -1.72700 29.66900 25.09000
H  -0.58100 28.38900 25.05600
H  -0.57900 29.50400 26.47600
H  -3.56100 28.26400 30.62600
H  -0.39400 27.01500 33.06300
H  -1.47800 25.57700 32.95400
H  -1.88100 26.83000 34.12300

