158

Mg 36.06500 0.32700 28.83400
C  33.97500 1.16600 31.51900
C  38.71600 0.45800 30.88700
C  37.84100 -0.60400 26.17700
C  33.11600 0.69000 26.71400
N  36.20900 0.64100 30.97400
C  35.27700 0.95300 31.89400
C  35.87400 1.06600 33.32800
C  37.37800 1.30400 33.00600
C  37.42900 0.65400 31.56400
C  37.88700 2.72700 32.97700
C  35.47800 -0.16100 34.16500
C  35.09600 0.02800 35.61900
H  35.36000 1.32600 36.48900
N  38.01800 -0.14900 28.61500
C  38.95100 -0.03600 29.52100
C  40.26200 -0.45500 28.96000
C  40.03200 -0.70000 27.58300
C  38.56100 -0.54500 27.40600
C  41.52600 -0.30100 29.79000
C  40.96300 -0.89100 26.46200
O  40.58300 -0.82200 25.31300
C  42.44300 -1.15400 26.69600
N  35.46000 -0.02600 26.70500
C  36.42300 -0.40400 25.79100
C  35.86900 -0.22600 24.38400
C  34.37500 0.09700 24.52900
C  34.27800 0.30000 26.07600
C  36.59600 0.78200 23.48600
C  33.38600 -0.93900 23.98000
C  32.26800 -0.42500 23.01100
N  33.98600 0.69700 29.02100
C  32.92400 0.76700 28.09200
C  31.73600 1.18600 28.80400
C  32.08200 1.23800 30.09500
C  33.43500 0.99400 30.19600
C  30.35500 1.56000 28.20600
C  31.53700 1.60500 31.41800
O  30.45100 1.96000 31.75000
C  32.76200 1.46300 32.37200
C  32.96800 2.72600 33.07800
O  33.57000 3.68000 32.60400
O  32.24200 2.89000 34.23600
C  32.11500 4.30500 34.81000
H  39.61100 0.73200 31.44900
H  38.37400 -0.99800 25.31000
H  32.29100 0.97000 26.05500
H  35.49000 1.94500 33.84500
H  38.05800 0.72500 33.63100
H  38.43200 2.71700 33.92000
H  37.02000 3.38700 32.99800
H  38.47700 2.95400 32.08900
H  36.10800 -1.03000 33.97400
H  34.58900 -0.47000 33.61600
H  35.51300 -0.79900 36.19400
H  34.03300 -0.20400 35.69100
H  42.00600 0.60000 29.40700
H  42.27800 -1.04900 29.53900
H  41.39100 -0.30700 30.87200
H  42.86300 -1.46700 25.74000
H  42.47900 -1.85300 27.53100
H  42.84100 -0.18500 26.99800
H  36.00100 -1.14200 23.80900
H  34.00100 1.05200 24.16100
H  36.20500 1.79300 23.61000
H  36.48000 0.50500 22.43900
H  37.65000 0.96400 23.69600
H  32.87500 -1.48600 24.77200
H  33.98500 -1.65600 23.42000
H  31.32300 -0.87500 23.31700
H  32.51700 -0.60800 21.96600
H  32.14500 0.65000 23.14400
H  30.46800 2.05600 27.24200
H  29.79900 2.26100 28.82800
H  29.88600 0.62800 27.88900
H  32.64100 0.59500 33.02000
H  32.47000 5.09600 34.14800
H  32.79900 4.37300 35.65600
H  31.15100 4.54600 35.25700
Mg -4.74900 24.86800 26.84900
C  -3.60300 26.89300 29.58800
C  -5.97300 22.60800 29.11500
C  -5.83800 23.02900 24.21400
C  -3.55700 27.33300 24.74600
N  -4.87200 24.85800 29.07600
C  -4.34500 25.75100 30.02500
C  -4.75600 25.26700 31.44600
C  -5.25900 23.80800 31.25500
C  -5.34600 23.73600 29.72500
C  -4.39800 22.69800 31.89000
C  -5.90800 26.24600 32.04000
C  -5.86400 26.51200 33.54500
H  -5.70200 25.18800 34.28600
N  -5.58700 23.00100 26.66400
C  -6.06800 22.30500 27.76300
C  -6.66100 21.02200 27.25100
C  -6.64900 21.16600 25.83000
C  -5.97600 22.40600 25.46400
C  -7.30800 19.96200 28.07800
C  -7.11400 20.19100 24.75300
O  -6.73000 20.30400 23.55900
C  -7.76600 18.87300 25.13800
N  -4.74700 25.17200 24.72200
C  -5.35200 24.30700 23.87300
C  -5.47500 24.90800 22.46900
C  -4.55600 26.21400 22.66600
C  -4.32000 26.29100 24.11200
C  -4.96800 23.99500 21.29600
C  -5.05500 27.56200 22.08200
C  -5.67000 27.43200 20.67200
N  -3.63600 26.61300 27.01800
C  -3.24900 27.56800 26.10300
C  -2.54500 28.66200 26.66800
C  -2.66700 28.43700 28.10100
C  -3.33200 27.17500 28.22600
C  -1.71400 29.77000 25.96000
C  -2.28600 28.97900 29.38800
O  -1.61700 29.94800 29.69800
C  -2.90900 27.98500 30.43200
C  -1.78500 27.39800 31.30600
O  -0.91400 26.56500 30.99600
O  -1.96300 27.78200 32.58200
C  -0.91800 27.24300 33.51400
H  -6.41000 21.85600 29.77600
H  -6.29700 22.60000 23.32000
H  -3.20000 28.07000 24.02400
H  -3.85700 25.35600 32.05600
H  -6.21900 23.73100 31.76600
H  -4.87700 22.64400 32.86700
H  -3.33400 22.88900 32.02500
H  -4.53800 21.76600 31.34300
H  -6.87200 25.79700 31.80200
H  -5.91300 27.23800 31.58700
H  -6.75300 27.04100 33.88900
H  -4.99700 27.14700 33.72800
H  -6.83800 18.98000 28.02600
H  -8.34000 19.83900 27.74900
H  -7.54100 20.28800 29.09200
H  -8.00800 18.36500 24.20500
H  -8.78500 19.14700 25.41500
H  -7.24500 18.33600 25.93000
H  -6.53700 25.08800 22.29900
H  -3.61600 26.00100 22.15600
H  -4.34700 24.63500 20.66900
H  -5.82900 23.65000 20.72500
H  -4.33200 23.15900 21.58600
H  -4.23800 28.26900 21.93600
H  -5.74400 28.13100 22.70700
H  -5.05800 27.88000 19.88900
H  -6.67200 27.85500 20.74500
H  -5.92700 26.44500 20.28700
H  -1.96500 30.70500 26.46200
H  -2.09900 29.84900 24.94300
H  -0.65300 29.55600 26.09000
H  -3.55500 28.52700 31.12300
H  0.05900 27.20500 33.03100
H  -1.05300 26.18300 33.73100
H  -0.76900 27.95400 34.32700

