158

Mg 26.83700 49.23300 26.60400
C  24.83100 50.57500 29.22300
C  29.17800 48.38300 28.97000
C  28.81700 48.49800 24.00900
C  24.46800 50.33000 24.36400
N  26.91100 49.47100 28.89900
C  25.93900 49.95500 29.72100
C  26.26000 49.57500 31.19800
C  27.67500 48.94600 31.05800
C  27.94000 48.85900 29.54200
C  28.90200 49.65900 31.76500
C  25.22000 48.59800 31.77000
C  24.70400 48.78800 33.17200
H  25.47400 49.64200 34.12800
N  28.75400 48.63000 26.54000
C  29.55600 48.25600 27.59600
C  30.83400 47.75100 27.13400
C  30.73200 47.81500 25.72700
C  29.39500 48.35400 25.37600
C  31.97900 47.19400 28.01200
C  31.74200 47.51900 24.71300
O  31.67000 47.74400 23.52500
C  33.04300 46.84200 25.09700
N  26.60200 49.33600 24.47900
C  27.53600 48.87400 23.62800
C  27.02400 48.91800 22.20200
C  25.47900 49.28800 22.42600
C  25.50600 49.67300 23.84000
C  27.74000 49.97200 21.31000
C  24.44500 48.25500 22.04600
C  23.16900 48.80800 21.41200
N  25.13600 50.45700 26.70800
C  24.30800 50.82600 25.67900
C  23.19000 51.56800 26.18800
C  23.34600 51.48800 27.61600
C  24.55700 50.85400 27.85000
C  21.95000 52.15000 25.38200
C  22.75600 51.87900 28.88700
O  21.66500 52.38200 29.21400
C  23.73500 51.23100 29.98500
C  24.22600 52.25100 30.95800
O  25.04800 53.09300 30.78400
O  23.38500 52.28700 32.05200
C  23.66800 53.26400 33.11200
H  29.88200 47.97500 29.69900
H  29.40900 47.99800 23.24000
H  23.55600 50.44000 23.77300
H  26.25600 50.48500 31.79800
H  27.52000 47.96600 31.51000
H  29.29800 49.12300 32.62800
H  28.53900 50.60800 32.15900
H  29.65000 49.92800 31.01900
H  25.40700 47.53500 31.61900
H  24.34300 48.72600 31.13600
H  24.30700 47.84900 33.55800
H  23.78600 49.37500 33.15500
H  32.26000 46.22900 27.59200
H  31.60600 47.11300 29.03400
H  32.81400 47.88600 27.90400
H  33.56200 47.57800 25.71100
H  33.64400 46.72800 24.19500
H  32.81400 45.85900 25.50800
H  27.19200 47.92900 21.77600
H  25.24100 50.22000 21.91300
H  27.06700 50.76500 20.98500
H  28.20300 49.41900 20.49300
H  28.55800 50.45300 21.84600
H  24.26400 47.62800 22.91900
H  24.97100 47.59500 21.35500
H  22.28500 48.76500 22.04800
H  22.94500 48.20500 20.53200
H  23.30300 49.84600 21.10600
H  22.27800 52.64400 24.46700
H  21.35100 52.79100 26.02900
H  21.24400 51.41400 24.99800
H  23.20600 50.59800 30.69800
H  22.65100 53.54500 33.38800
H  24.28300 54.10300 32.78500
H  24.09100 52.78800 33.99700
Mg -12.34700 16.73100 41.60200
C  -9.41700 14.79200 41.34200
C  -10.82300 19.25800 39.96700
C  -15.32000 18.15300 41.22900
C  -13.93900 13.62300 42.63700
N  -10.44600 16.94000 40.53300
C  -9.38800 16.08400 40.73400
C  -8.10400 16.66500 40.00400
C  -8.54000 18.11200 39.68400
C  -10.02000 18.11500 40.19100
C  -7.65800 19.27600 40.26100
C  -7.62500 15.84900 38.79500
C  -6.13700 16.16100 38.34600
H  -6.03000 16.55700 36.87500
N  -13.00200 18.58000 40.91900
C  -12.21500 19.49100 40.24500
C  -12.93400 20.66000 39.93100
C  -14.27400 20.37400 40.31500
C  -14.21800 19.01700 40.87400
C  -12.38100 21.97000 39.41200
C  -15.48300 21.29100 40.14200
O  -15.39200 22.45700 39.78600
C  -16.81200 20.81900 40.60100
N  -14.26800 15.91600 41.92100
C  -15.33700 16.81200 41.76200
C  -16.70300 16.11700 41.87500
C  -16.26500 14.72500 42.22900
C  -14.72700 14.72900 42.24500
C  -17.52900 16.87900 43.00400
C  -16.90100 13.59100 41.38100
C  -17.99500 12.80600 42.11500
N  -11.80300 14.63000 42.04300
C  -12.52200 13.54900 42.43600
C  -11.69500 12.39800 42.57600
C  -10.40000 12.84100 42.19800
C  -10.51200 14.23300 41.88500
C  -12.13100 10.99400 43.12200
C  -9.06600 12.46100 42.02400
O  -8.55000 11.41500 42.23600
C  -8.31800 13.65000 41.42900
C  -7.12900 14.03200 42.23400
O  -7.13900 14.42100 43.42300
O  -5.92700 13.85800 41.46900
C  -4.70200 14.30700 42.17800
H  -10.31200 20.12300 39.53800
H  -16.32700 18.44400 40.92300
H  -14.43800 12.66500 42.79800
H  -7.20600 16.64400 40.62200
H  -8.70000 18.29500 38.62100
H  -6.74400 18.87100 40.69500
H  -8.06800 19.77500 41.13800
H  -7.36800 20.03200 39.53100
H  -8.11900 16.11100 37.85900
H  -7.79500 14.78400 38.94800
H  -5.53900 15.26500 38.51000
H  -5.65400 16.82500 39.06400
H  -13.08800 22.49600 38.77100
H  -11.49000 21.68300 38.85500
H  -12.12700 22.67600 40.20200
H  -16.62000 20.54000 41.63700
H  -17.10100 19.96300 39.99200
H  -17.71900 21.41300 40.70800
H  -17.17900 16.16400 40.89600
H  -16.47800 14.56400 43.28600
H  -17.82600 16.21300 43.81400
H  -18.42900 17.11100 42.43300
H  -17.07800 17.74700 43.48300
H  -16.06000 12.91400 41.22900
H  -17.31400 13.89400 40.41800
H  -17.67300 11.82100 42.45400
H  -18.95300 12.74400 41.59800
H  -18.38600 13.27700 43.01600
H  -11.74500 10.28000 42.39400
H  -13.21500 10.97300 43.22900
H  -11.61600 10.78100 44.05900
H  -7.98400 13.22600 40.48200
H  -4.31700 13.46700 42.75600
H  -4.78800 15.23500 42.74200
H  -3.98000 14.47700 41.38000

