158

Mg 0.88300 7.68900 26.30200
C  1.80300 9.81500 28.98200
C  1.36600 5.03900 28.38600
C  0.29800 5.67300 23.72100
C  1.20200 10.49100 24.18500
N  1.44400 7.51200 28.46300
C  1.64800 8.46900 29.38100
C  1.84000 7.89200 30.82200
C  1.95700 6.34300 30.59800
C  1.50100 6.22600 29.01400
C  3.47600 5.88000 30.84300
C  0.74000 8.35100 31.87100
C  1.24000 8.70600 33.20100
H  2.29500 7.85800 33.95700
N  0.82800 5.62900 26.02800
C  1.13000 4.71000 26.99000
C  1.00400 3.39300 26.35300
C  0.56500 3.52000 25.04800
C  0.44000 4.97100 24.88100
C  1.21200 2.19800 27.15800
C  0.20100 2.49800 23.96000
O  -0.35300 2.67100 22.86900
C  0.38700 1.11200 24.38800
N  0.73900 8.02200 24.27400
C  0.39900 7.03100 23.41900
C  0.37800 7.51600 21.96000
C  0.53800 9.09100 22.12100
C  0.89800 9.24600 23.60300
C  1.53300 6.92400 21.10800
C  -0.75700 9.88900 21.64000
C  -0.61200 11.08700 20.65400
N  1.33000 9.78700 26.50900
C  1.40300 10.83800 25.53500
C  1.78500 12.05400 26.19100
C  1.92200 11.70400 27.58500
C  1.65300 10.35400 27.68200
C  1.89300 13.38000 25.59400
C  2.43600 12.21100 28.85500
O  2.94800 13.28100 29.12900
C  2.13800 11.04000 29.85400
C  3.49700 10.87000 30.55800
O  4.42600 10.08700 30.22600
O  3.46200 11.67300 31.65500
C  4.44800 11.34800 32.63600
H  1.59800 4.22200 29.07300
H  0.17300 4.97200 22.89300
H  1.26100 11.33600 23.49500
H  2.80200 8.29400 31.14000
H  1.31400 5.66100 31.15600
H  4.00700 6.53200 31.53600
H  4.19100 5.74900 30.03100
H  3.40600 4.89000 31.29200
H  -0.16100 7.73800 31.91700
H  0.28300 9.24500 31.44800
H  0.41900 8.77800 33.91500
H  1.73000 9.68000 33.20700
H  1.90600 2.47700 27.95000
H  1.86000 1.50200 26.62400
H  0.22900 1.80100 27.41000
H  1.41600 0.76500 24.29000
H  -0.01200 0.43800 23.62900
H  -0.01100 0.73300 25.32900
H  -0.63400 7.16600 21.75800
H  1.35400 9.39200 21.46400
H  1.12700 5.93600 20.89300
H  2.43900 6.77600 21.69600
H  1.62400 7.39400 20.12900
H  -1.27600 10.17800 22.55400
H  -1.38200 9.20600 21.06400
H  0.47300 11.19100 20.66900
H  -1.06300 11.95300 21.13800
H  -0.86900 10.68100 19.67600
H  1.61000 14.15400 26.30800
H  1.19000 13.57400 24.78400
H  2.91500 13.57000 25.26600
H  1.25800 11.16000 30.48600
H  5.43300 11.26400 32.17800
H  4.18100 10.36800 33.02900
H  4.47200 12.06000 33.46200
Mg 46.59400 44.93300 43.74500
C  43.33000 43.79600 43.46300
C  47.70000 41.76200 43.13000
C  49.65700 46.14100 43.26600
C  45.31000 48.20200 43.84300
N  45.59000 43.01700 43.27000
C  44.26600 42.78400 43.17200
C  43.96300 41.26000 42.89100
C  45.37500 40.60300 42.89300
C  46.30200 41.85100 43.10200
C  45.56600 39.45600 43.87500
C  43.06100 40.95900 41.62900
C  43.23800 41.93200 40.44200
H  42.70200 41.60000 38.99600
N  48.40700 44.02000 43.57200
C  48.73100 42.72400 43.37600
C  50.19800 42.55000 43.31900
C  50.78800 43.81400 43.35000
C  49.61100 44.73300 43.44300
C  50.89700 41.25500 43.20700
C  52.23200 44.16500 43.39500
O  53.03700 43.27700 43.24600
C  52.82300 45.53100 43.50500
N  47.39700 46.86200 43.61400
C  48.74700 47.15500 43.47100
C  48.98600 48.69400 43.17500
C  47.61200 49.33200 43.51900
C  46.73700 48.08300 43.69800
C  50.20900 49.41900 43.87800
C  47.11700 50.34000 42.49000
C  47.09500 51.76700 43.05400
N  44.72000 45.86700 43.88200
C  44.34500 47.18100 43.94500
C  42.96300 47.27400 44.13300
C  42.48500 45.96900 43.93300
C  43.63800 45.11900 43.71600
C  42.19400 48.54000 44.36600
C  41.31800 45.12500 43.92300
O  40.13900 45.28900 44.22700
C  41.85100 43.67900 43.53400
C  41.33800 42.60600 44.43400
O  40.66600 41.69100 44.04100
O  41.66600 42.85400 45.72900
C  41.27200 41.83700 46.76400
H  48.14600 40.83100 42.77100
H  50.53200 46.67600 42.89300
H  45.08200 49.25600 44.01700
H  43.37500 40.85600 43.71500
H  45.48200 40.22600 41.87600
H  45.88800 38.67600 43.18400
H  44.60900 39.12000 44.27500
H  46.22900 39.70900 44.70200
H  42.01600 40.91100 41.93400
H  43.36500 40.04900 41.11300
H  44.30800 42.01300 40.25400
H  43.08600 42.96400 40.76000
H  50.18700 40.51900 43.58300
H  51.81300 41.12100 43.78200
H  51.14800 41.06700 42.16300
H  52.21000 46.15800 44.15200
H  52.81400 46.12600 42.59200
H  53.80200 45.52900 43.98400
H  49.03000 48.71600 42.08600
H  47.67700 49.81900 44.49200
H  50.82600 48.72400 44.44700
H  49.87200 50.09400 44.66500
H  50.88000 49.84600 43.13300
H  46.22600 49.98900 41.96900
H  47.89500 50.44900 41.73500
H  47.01400 51.73500 44.14100
H  46.20700 52.26300 42.66100
H  47.99900 52.29600 42.75000
H  41.34900 48.22100 44.97700
H  41.86500 49.03000 43.45000
H  42.68800 49.23800 45.04100
H  41.35600 43.44800 42.59100
H  41.56400 40.82100 46.50000
H  40.18300 41.84900 46.78400
H  41.56700 42.18900 47.75300

