158

Mg 25.54200 1.81500 28.97300
C  27.57700 1.53200 31.78800
C  22.86700 1.87200 31.19200
C  23.52200 1.82900 26.29100
C  28.33300 1.32700 26.95200
N  25.22800 1.65100 31.25100
C  26.28600 1.68700 32.15900
C  25.67700 1.72100 33.61200
C  24.08700 1.67300 33.43100
C  24.04000 1.73200 31.86700
C  23.28000 0.52600 34.18400
C  26.12500 2.96100 34.43200
C  26.72300 2.62700 35.84800
H  26.35400 3.58800 37.01200
N  23.51900 1.91200 28.80700
C  22.57100 1.95000 29.77000
C  21.22200 2.02600 29.16200
C  21.40400 1.91200 27.77300
C  22.84200 1.91000 27.57600
C  19.83500 2.20500 29.92200
C  20.34800 1.82500 26.65300
O  20.69800 1.63500 25.49700
C  18.87600 2.25000 26.97300
N  25.83100 1.31900 26.87600
C  24.81300 1.61600 25.96600
C  25.41100 1.72800 24.54700
C  27.01500 1.61200 24.72400
C  27.08900 1.52500 26.29100
C  24.71500 0.63200 23.67500
C  27.84700 2.83800 24.24800
C  28.98200 2.57900 23.28500
N  27.58100 1.41800 29.22400
C  28.60200 1.24100 28.33400
C  29.82800 0.95800 29.10700
C  29.45400 1.16500 30.47400
C  28.10700 1.41000 30.45900
C  31.17100 0.67900 28.44200
C  29.96200 1.25000 31.76100
O  31.11900 1.05200 32.16100
C  28.85200 1.51700 32.72500
C  28.74900 0.46400 33.69600
O  28.14800 -0.61100 33.60500
O  29.40600 0.94300 34.85400
C  29.24600 0.06600 35.99300
H  22.05700 1.93700 31.92100
H  22.92200 2.00300 25.39500
H  29.21300 1.15900 26.32800
H  25.98800 0.83800 34.17000
H  23.67900 2.57800 33.88200
H  23.55600 0.38100 35.22800
H  23.29200 -0.42400 33.65000
H  22.24000 0.80300 34.35500
H  25.32000 3.69500 34.46400
H  26.95000 3.53700 34.01300
H  27.79100 2.80300 35.72400
H  26.49800 1.58900 36.09200
H  19.99200 2.28500 30.99700
H  19.14200 1.41000 29.64800
H  19.44100 3.18800 29.66300
H  18.28500 1.63100 27.64800
H  18.34600 2.28600 26.02100
H  18.97600 3.23000 27.44100
H  25.22400 2.71800 24.13200
H  27.33000 0.63700 24.35100
H  24.17600 0.03700 24.41200
H  25.39200 -0.03300 23.13800
H  24.04400 1.12800 22.97400
H  28.34500 3.28900 25.10700
H  27.15500 3.53600 23.77600
H  29.86500 3.15900 23.55700
H  28.64800 2.94400 22.31400
H  29.19000 1.52200 23.12300
H  31.16500 1.15300 27.46100
H  31.31300 -0.33100 28.05800
H  31.94400 1.08100 29.09700
H  29.06500 2.48900 33.17000
H  29.15800 -0.99200 35.74600
H  28.38000 0.38000 36.57600
H  30.13600 -0.04100 36.61300
Mg 1.35800 42.50400 26.30800
C  3.45500 42.47100 29.04000
C  -1.34100 41.66700 28.42800
C  -0.60600 41.99800 23.52200
C  4.17000 42.91400 24.14600
N  1.07000 42.09600 28.44900
C  2.11300 42.23500 29.38500
C  1.51900 42.36600 30.78700
C  0.15100 41.71900 30.59200
C  -0.06400 41.89900 29.09700
C  -0.01000 40.27900 31.11000
C  1.64200 43.83200 31.31800
C  2.04100 43.99600 32.81900
H  1.78200 42.82100 33.87100
N  -0.70800 42.00400 26.01300
C  -1.58600 41.80400 27.05500
C  -2.90800 41.58500 26.39400
C  -2.73700 41.58500 24.97200
C  -1.28200 41.91300 24.76500
C  -4.01800 41.12300 27.21900
C  -3.63100 41.12600 23.84500
O  -3.31500 41.20300 22.67000
C  -4.89800 40.26600 24.12300
N  1.74200 42.44500 24.14900
C  0.77700 42.32000 23.22700
C  1.34400 42.09600 21.78900
C  2.75800 42.67000 21.93100
C  2.93800 42.70100 23.47600
C  1.25200 40.70600 21.09000
C  2.87600 44.05900 21.18200
C  4.28500 44.34500 20.68600
N  3.31400 42.74300 26.47400
C  4.30300 42.95400 25.57800
C  5.63000 42.97100 26.27600
C  5.33200 42.87200 27.64800
C  3.91000 42.66900 27.72700
C  7.03200 42.98600 25.63000
C  5.83400 42.92100 29.00900
O  6.98500 43.04700 29.45100
C  4.57400 42.72700 29.93900
C  4.86400 41.53200 30.70800
O  5.11600 40.34600 30.30500
O  4.73000 41.89700 32.06900
C  5.18600 40.83400 33.03400
H  -2.18300 41.37300 29.05700
H  -1.21700 41.80800 22.63700
H  5.00600 43.24100 23.52500
H  2.17100 41.67400 31.32000
H  -0.59100 42.39200 31.02200
H  -0.83500 40.34300 31.82000
H  0.92600 40.10000 31.63800
H  -0.17400 39.58600 30.28500
H  0.67900 44.31600 31.15500
H  2.36400 44.39900 30.73100
H  1.64300 44.94900 33.16900
H  3.12400 44.10700 32.86500
H  -3.93000 40.05500 27.41700
H  -4.98100 41.19400 26.71300
H  -4.16300 41.61200 28.18300
H  -4.81300 39.67100 25.03300
H  -5.07500 39.65000 23.24100
H  -5.75000 40.91300 24.33200
H  0.76200 42.82500 21.22500
H  3.47900 41.99600 21.46900
H  0.72100 40.04200 21.77100
H  2.16100 40.15300 20.85100
H  0.61000 40.86400 20.22400
H  2.58000 44.78900 21.93600
H  2.27700 44.10500 20.27200
H  4.36900 44.43800 19.60300
H  4.97200 43.54600 20.96300
H  4.62200 45.30800 21.07000
H  7.22600 42.15300 24.95300
H  7.75400 42.80400 26.42600
H  7.22800 43.94600 25.15300
H  4.49000 43.67900 30.46300
H  4.44900 40.09200 33.34100
H  5.45200 41.32100 33.97200
H  6.12800 40.38000 32.72600

