158

Mg 8.31400 3.66600 27.62100
C  9.54500 2.00500 30.51700
C  6.34900 5.52200 29.68800
C  7.03000 4.90600 24.90700
C  9.78700 1.03600 25.74300
N  7.89200 3.63300 29.85400
C  8.65800 3.06100 30.82800
C  8.21700 3.51600 32.23700
C  6.97300 4.44900 31.96700
C  7.08800 4.59600 30.37300
C  5.49700 4.10200 32.40000
C  9.35900 4.16900 33.14900
C  8.90800 4.93500 34.37600
H  9.78400 4.79000 35.63000
N  6.99000 5.19200 27.29900
C  6.26500 5.85100 28.26600
C  5.41200 6.78200 27.64200
C  5.67700 6.61800 26.25000
C  6.60000 5.56000 26.10800
C  4.54100 7.74700 28.41200
C  5.03600 7.43100 25.11400
O  5.24100 7.27600 23.96000
C  4.09600 8.60600 25.39000
N  8.31800 2.92400 25.63500
C  7.84600 3.75000 24.69600
C  8.13100 3.15600 23.27900
C  9.07600 1.96900 23.57200
C  9.11900 2.00800 25.08200
C  6.78900 2.64500 22.60900
C  10.48700 2.10000 22.90200
C  10.96400 0.87400 22.05100
N  9.42900 1.85300 28.01500
C  9.92300 0.87200 27.16600
C  10.68700 -0.08800 27.87300
C  10.56000 0.28200 29.18400
C  9.75800 1.48100 29.21500
C  11.43800 -1.30400 27.23500
C  10.97200 -0.12600 30.56600
O  11.67400 -1.04100 31.03000
C  10.34000 1.02000 31.46200
C  9.44500 0.31800 32.43700
O  8.44800 -0.35300 32.16100
O  9.90500 0.50000 33.73700
C  9.24600 -0.17700 34.81500
H  5.81000 6.28800 30.25000
H  6.65100 5.27100 23.95100
H  10.31800 0.28100 25.16000
H  7.84100 2.57800 32.64300
H  7.10300 5.50500 32.20600
H  4.74300 4.45000 31.69400
H  5.31700 4.67500 33.31000
H  5.30100 3.03000 32.37600
H  9.96800 4.84600 32.55000
H  9.96300 3.40700 33.64000
H  7.97100 4.45100 34.64900
H  8.82800 6.00900 34.20900
H  3.54200 7.68500 27.98100
H  5.00300 8.71400 28.61300
H  4.38000 7.26100 29.37400
H  3.12600 8.39800 25.84300
H  3.78800 9.00100 24.42200
H  4.73300 9.31500 25.91800
H  8.64500 3.86400 22.62800
H  8.56100 1.05100 23.28700
H  5.94700 2.85800 23.26700
H  6.78200 1.60400 22.28500
H  6.83100 3.15200 21.64500
H  11.29300 2.06700 23.63500
H  10.65100 3.01700 22.33500
H  10.13700 0.17500 21.93000
H  11.79900 0.39300 22.56100
H  11.34900 1.21200 21.08900
H  12.10900 -1.75200 27.96800
H  12.17400 -1.01700 26.48500
H  10.80300 -2.03500 26.73300
H  11.10600 1.46200 32.09900
H  9.98000 -0.80400 35.32100
H  8.41100 -0.74700 34.40800
H  8.86900 0.51300 35.57000
Mg 53.16500 24.63800 44.57700
C  50.62100 26.83000 43.80300
C  51.30200 22.11100 42.97100
C  55.79700 22.68200 44.67500
C  55.04900 27.24800 45.76900
N  51.29500 24.62100 43.41600
C  50.47900 25.60600 43.20500
C  49.27900 25.16500 42.33400
C  49.32300 23.64600 42.61900
C  50.76700 23.40200 42.96700
C  48.41000 23.22200 43.78600
C  49.30400 25.57800 40.84000
C  50.71700 25.74500 40.29100
H  50.82400 26.46500 38.92500
N  53.57000 22.70800 43.82300
C  52.62000 21.76500 43.33500
C  53.20100 20.45500 43.27000
C  54.55800 20.56500 43.67900
C  54.74100 22.04700 43.99900
C  52.50200 19.32200 42.55200
C  55.62200 19.46700 43.66700
O  55.21600 18.33900 43.45200
C  57.12200 19.76400 43.90900
N  55.28100 24.97900 44.93400
C  56.17400 23.96100 45.00500
C  57.46800 24.41300 45.59900
C  57.22000 25.91200 45.85800
C  55.71200 26.04300 45.57000
C  57.93900 23.57500 46.88000
C  58.24000 26.88900 45.10000
C  58.07500 26.95900 43.57900
N  52.91000 26.62400 44.97100
C  53.73400 27.61100 45.50000
C  52.98100 28.85000 45.57400
C  51.71300 28.61200 44.93600
C  51.74300 27.25800 44.54900
C  53.52700 30.09700 46.29100
C  50.43700 29.17900 44.65700
O  49.91400 30.24800 44.87600
C  49.73100 28.05700 43.81100
C  49.35700 28.62400 42.49100
O  50.13000 28.97600 41.56300
O  47.95700 28.84700 42.39900
C  47.45500 29.43000 41.16200
H  50.51600 21.40400 42.69900
H  56.56800 22.01300 45.06500
H  55.79100 27.95500 46.14600
H  48.33900 25.53900 42.74100
H  48.92500 23.16300 41.72700
H  47.76400 22.40500 43.46200
H  47.85300 24.06200 44.19900
H  49.07000 22.83200 44.56100
H  48.83300 26.54500 40.66600
H  48.66300 24.95000 40.22000
H  51.22900 24.78400 40.33400
H  51.36600 26.29200 40.97500
H  51.51800 19.67900 42.24800
H  52.49500 18.50800 43.27700
H  53.04500 19.09600 41.63400
H  57.72900 18.89600 43.65100
H  57.36100 20.05800 44.93100
H  57.44900 20.66300 43.38500
H  58.25900 24.21400 44.87600
H  57.41400 26.14300 46.90500
H  57.27600 22.72900 47.06300
H  57.96900 24.11100 47.82900
H  58.95500 23.24900 46.65800
H  59.24100 26.52100 45.32400
H  58.32700 27.87600 45.55300
H  57.03300 26.89500 43.26400
H  58.68400 26.22500 43.05300
H  58.36600 27.93100 43.18000
H  54.24000 30.65200 45.68100
H  53.88300 29.66700 47.22700
H  52.79300 30.79200 46.70000
H  48.78700 27.85900 44.31700
H  47.67000 28.80600 40.29500
H  47.81700 30.45600 41.10600
H  46.37000 29.53600 41.17400

