158

Mg 35.40100 2.44100 30.31900
C  32.74000 3.17400 32.46800
C  37.62800 2.53600 32.90900
C  37.95500 1.97500 28.10300
C  33.19200 2.70600 27.64800
N  35.19900 2.75600 32.39500
C  33.96800 2.98700 33.10500
C  34.24900 3.10700 34.63700
C  35.77400 3.19300 34.68400
C  36.26600 2.74100 33.24200
C  36.37000 4.55800 35.20800
C  33.70300 1.92500 35.50200
C  33.16400 2.19000 36.91800
H  33.91600 3.23100 37.82500
N  37.49100 2.10300 30.53000
C  38.17900 2.20300 31.70500
C  39.52500 1.73400 31.42100
C  39.65400 1.40200 30.09200
C  38.37400 1.85800 29.48800
C  40.64100 1.58100 32.42900
C  40.74200 0.76000 29.29600
O  40.63400 0.61200 28.05700
C  41.97800 0.23100 29.86100
N  35.59200 2.59200 28.16400
C  36.72400 2.32600 27.54300
C  36.55300 2.28200 26.00500
C  34.96300 2.42600 25.87000
C  34.54400 2.61000 27.30700
C  37.40500 3.44000 25.34200
C  34.22900 1.19000 25.31600
C  32.92800 1.32200 24.44300
N  33.37800 2.78400 30.06400
C  32.58300 2.82600 28.85500
C  31.20300 3.05000 29.24200
C  31.21400 3.35400 30.62500
C  32.56500 3.12100 31.09500
C  30.16200 3.23600 28.28200
C  30.43600 3.78000 31.77400
O  29.27900 4.20700 31.89700
C  31.42700 3.62100 32.98500
C  31.63700 4.94300 33.64200
O  32.00400 6.03100 33.14200
O  31.48900 4.78000 34.95000
C  31.61300 5.94900 35.91100
H  38.21100 2.58800 33.83100
H  38.73900 1.74000 27.38000
H  32.51000 2.78300 26.79800
H  33.83600 4.01500 35.07700
H  36.28600 2.37500 35.19100
H  35.75000 5.15800 35.87400
H  36.50300 5.20200 34.33800
H  37.33400 4.34500 35.67000
H  34.48100 1.16200 35.51800
H  32.83100 1.54900 34.96600
H  33.35300 1.21700 37.37200
H  32.08400 2.33200 36.92300
H  41.55600 1.81200 31.88300
H  40.63300 0.53800 32.74500
H  40.68100 2.23600 33.30000
H  42.50500 -0.40400 29.14900
H  41.70700 -0.29500 30.77700
H  42.60800 1.09100 30.08600
H  36.90500 1.38700 25.49200
H  34.70100 3.24300 25.19700
H  36.82100 3.92400 24.55900
H  38.32400 3.09200 24.86900
H  37.67200 4.19600 26.08100
H  33.89800 0.61000 26.17700
H  34.91200 0.57400 24.73100
H  32.68500 2.33000 24.10700
H  32.05800 0.95000 24.98500
H  33.16300 0.72600 23.56200
H  30.44500 3.53500 27.27300
H  29.41200 3.93700 28.64900
H  29.69200 2.26300 28.14300
H  30.89200 3.03000 33.72800
H  30.93100 5.90500 36.76000
H  31.36500 6.88600 35.41200
H  32.64100 5.99700 36.27000
Mg 46.69200 24.38800 28.37400
C  47.65900 26.71000 30.87500
C  46.55500 21.85600 30.81400
C  45.93000 22.18800 26.07500
C  47.98600 26.65600 26.11600
N  47.13400 24.25300 30.57400
C  47.32900 25.42600 31.35200
C  47.14700 25.00800 32.77500
C  46.83100 23.52300 32.77800
C  46.92600 23.13000 31.31300
C  47.83500 22.61400 33.54800
C  46.02800 25.83800 33.44800
C  45.52600 25.33200 34.83700
H  45.68200 26.20500 36.06100
N  46.12200 22.32600 28.53600
C  46.11100 21.50600 29.59900
C  45.52100 20.28600 29.22000
C  45.26600 20.31700 27.82100
C  45.80600 21.57400 27.41800
C  45.21200 19.15500 30.15400
C  44.85400 19.23100 26.87600
O  44.80600 19.41100 25.69300
C  44.52200 17.94700 27.35800
N  46.85900 24.39800 26.42100
C  46.41200 23.38400 25.61900
C  46.74300 23.65900 24.20100
C  47.12300 25.19200 24.23700
C  47.38200 25.45300 25.64800
C  47.85900 22.74200 23.57300
C  46.13200 26.12600 23.48200
C  46.57300 27.38300 22.80000
N  47.66000 26.28300 28.45500
C  48.09400 27.03800 27.45600
C  48.66700 28.29400 27.90400
C  48.38900 28.27500 29.24600
C  47.84600 26.96500 29.56600
C  49.18000 29.46900 27.16000
C  48.33400 29.07500 30.42500
O  48.65800 30.24200 30.55200
C  47.89500 28.06900 31.57700
C  48.78300 28.11400 32.78700
O  49.55100 27.24200 33.03400
O  48.59700 29.21100 33.59300
C  49.26700 29.20200 34.92900
H  46.45400 21.11800 31.61200
H  45.75700 21.58500 25.18100
H  48.24100 27.47300 25.43800
H  48.02000 25.20100 33.39800
H  45.83500 23.31300 33.16800
H  47.17200 21.92700 34.07300
H  48.39400 23.20400 34.27500
H  48.60800 22.04400 33.03100
H  45.16300 26.03600 32.81600
H  46.50700 26.81500 33.51100
H  46.27500 24.56200 35.02000
H  44.47300 25.06000 34.77200
H  44.38000 18.58600 29.73900
H  45.02900 19.46300 31.18300
H  46.04300 18.45000 30.12400
H  45.19700 17.44400 28.05000
H  44.45200 17.35600 26.44500
H  43.52300 18.03300 27.78500
H  45.84600 23.43300 23.62500
H  48.08100 25.42100 23.77000
H  48.81800 22.98200 24.03200
H  47.96000 22.62000 22.49500
H  47.51900 21.84200 24.08600
H  45.45700 26.50700 24.24900
H  45.58500 25.41100 22.86800
H  46.08900 28.29900 23.13900
H  46.47600 27.21400 21.72700
H  47.64400 27.56100 22.89700
H  48.31300 29.86800 26.63500
H  49.81600 29.16900 26.32700
H  49.73700 30.13500 27.82000
H  46.93000 28.36300 31.98900
H  48.73500 28.45400 35.51700
H  49.20600 30.16600 35.43600
H  50.28000 28.80300 34.89500

