158

Mg 2.00400 -0.52900 44.32600
C  5.36800 -0.29300 43.32200
C  1.30700 2.09000 42.23900
C  -1.26600 -1.11300 44.69300
C  2.79700 -3.46000 46.03700
N  3.22000 0.78300 43.09400
C  4.54000 0.65700 42.77200
C  5.01800 1.68100 41.72400
C  3.69900 2.61700 41.55600
C  2.65400 1.81000 42.37800
C  3.86600 4.12400 41.85400
C  5.57800 1.12000 40.36100
C  6.84200 1.88500 39.79000
H  6.70800 2.56400 38.37700
N  0.21700 0.41200 43.62200
C  0.19600 1.51900 42.78900
C  -1.18100 1.79500 42.52100
C  -1.96900 0.88400 43.25500
C  -1.01300 -0.01800 43.91500
C  -1.65200 2.89200 41.69300
C  -3.50700 0.80500 43.20700
O  -4.18100 1.59800 42.60600
C  -4.19600 -0.43800 43.72300
N  0.99100 -2.13700 45.11400
C  -0.35200 -2.06200 45.24100
C  -0.98500 -3.18700 46.18800
C  0.33200 -4.08200 46.43100
C  1.44900 -3.15700 45.88200
C  -1.68000 -2.76000 47.50500
C  0.25400 -5.56500 45.89200
C  0.52600 -6.71700 46.91100
N  3.77300 -1.65300 44.82400
C  3.94700 -2.75300 45.55300
C  5.41200 -3.07500 45.53100
C  6.00600 -2.21500 44.65500
C  4.96100 -1.30200 44.26500
C  6.06200 -4.14600 46.27000
C  7.27500 -1.78900 44.13700
O  8.36400 -2.29300 44.17400
C  6.83400 -0.48800 43.16000
C  7.58800 0.64500 43.74200
O  7.34100 1.23200 44.75200
O  8.70800 0.95600 43.01900
C  9.19400 2.34800 43.14600
H  1.21000 2.90800 41.52200
H  -2.25500 -1.35500 45.08800
H  2.91500 -4.28800 46.74000
H  5.72900 2.29000 42.28100
H  3.26800 2.63000 40.55500
H  4.82600 4.60000 41.65500
H  3.51200 4.32400 42.86600
H  3.17000 4.59300 41.15900
H  4.77100 1.14500 39.62800
H  5.76900 0.04700 40.40000
H  7.75500 1.29100 39.83200
H  7.02400 2.70300 40.48700
H  -0.94800 3.13100 40.89700
H  -1.72100 3.84000 42.22800
H  -2.55900 2.69500 41.12200
H  -5.17200 -0.57600 43.25700
H  -4.32800 -0.26100 44.79000
H  -3.69900 -1.40000 43.60300
H  -1.67800 -3.76300 45.57500
H  0.55400 -4.10600 47.49800
H  -1.99700 -1.74100 47.28300
H  -1.04900 -2.72900 48.39400
H  -2.45600 -3.48900 47.74000
H  0.91000 -5.61500 45.02300
H  -0.75400 -5.77200 45.53100
H  1.28500 -7.37900 46.49400
H  -0.31600 -7.32700 47.23600
H  0.82100 -6.17600 47.81100
H  6.25500 -5.03100 45.66400
H  5.71700 -4.48700 47.24600
H  7.00400 -3.68300 46.56500
H  7.19700 -0.71000 42.15600
H  8.43500 3.00900 43.56400
H  9.57700 2.65800 42.17400
H  10.00200 2.28200 43.87400
Mg 8.95500 48.29800 27.71800
C  7.08600 47.89100 30.64900
C  11.65900 48.90900 29.78100
C  10.73800 49.33700 25.08100
C  6.05900 48.70400 25.95000
N  9.24800 48.67100 29.95800
C  8.42900 48.18400 30.91800
C  9.07600 48.26700 32.36800
C  10.49800 48.80900 32.12400
C  10.49000 48.74700 30.49200
C  10.85800 50.22500 32.65200
C  8.98700 46.98800 33.28000
C  8.40400 47.18100 34.67200
H  8.50100 45.94300 35.59000
N  10.94500 48.85300 27.46700
C  11.90400 48.91500 28.42000
C  13.18000 49.18300 27.82900
C  12.91100 49.31700 26.42000
C  11.48400 49.16800 26.23700
C  14.46200 49.37600 28.67200
C  13.92700 49.50600 25.31000
O  13.51400 49.66000 24.13100
C  15.35000 49.48900 25.63200
N  8.50800 48.91500 25.71300
C  9.44300 49.28300 24.83300
C  8.75100 49.78700 23.59600
C  7.23600 49.48800 23.87300
C  7.27300 48.93300 25.25100
C  9.11300 51.21800 23.06300
C  6.53100 48.56800 22.84500
C  6.86200 48.76400 21.33100
N  6.92100 48.11900 28.08000
C  5.83700 48.27700 27.25300
C  4.62000 48.01200 28.04000
C  5.05800 47.89900 29.38300
C  6.47800 47.91300 29.34400
C  3.25500 48.03900 27.51200
C  4.64000 47.78200 30.78600
O  3.51600 47.73300 31.31000
C  5.92800 47.68300 31.63200
C  5.87200 46.21400 32.21000
O  6.12500 45.12300 31.68800
O  5.47600 46.32500 33.52300
C  5.40800 45.09100 34.27100
H  12.47200 49.16400 30.46400
H  11.27300 49.58300 24.16100
H  5.14600 48.90300 25.38600
H  8.48000 49.04200 32.85100
H  11.26300 48.13200 32.50200
H  10.07000 50.60400 33.30300
H  11.00400 50.95500 31.85600
H  11.78900 50.23900 33.21900
H  9.96400 46.58700 33.54900
H  8.50900 46.14200 32.78600
H  7.40700 47.58700 34.50400
H  8.96000 47.98100 35.16000
H  14.57200 50.46000 28.64300
H  15.33600 49.02100 28.12600
H  14.39200 48.94700 29.67100
H  15.71300 50.18900 26.38500
H  15.84200 49.81000 24.71400
H  15.66400 48.49200 25.94000
H  8.99700 49.06400 22.81800
H  6.76000 50.46200 23.98800
H  8.23900 51.83700 23.26800
H  9.37100 51.30400 22.00800
H  9.85000 51.74300 23.67100
H  5.48500 48.87300 22.87100
H  6.68300 47.52300 23.11200
H  7.27400 49.76700 21.22100
H  5.93300 48.81000 20.76200
H  7.52300 47.99500 20.93200
H  3.22200 48.93100 26.88700
H  2.45800 48.03600 28.25600
H  3.20800 47.12600 26.91900
H  5.97100 48.42700 32.42700
H  4.62200 44.39700 33.97200
H  5.35300 45.37500 35.32200
H  6.32600 44.52800 34.10200

