158

Mg 1.93900 -2.20900 44.56200
C  5.41900 -1.49000 44.28700
C  1.35800 0.93400 43.02100
C  -1.28300 -3.01200 44.37400
C  2.73100 -5.33400 45.77500
N  3.29200 -0.52900 43.60400
C  4.69400 -0.48400 43.68900
C  5.21500 0.86500 43.25900
C  3.87500 1.66900 43.00600
C  2.75900 0.64500 43.19400
C  3.68000 2.88800 43.93500
C  6.14400 0.77100 41.93200
C  5.77100 -0.33400 40.86300
H  5.41300 0.05800 39.40600
N  0.37900 -1.23100 43.67700
C  0.28200 0.01600 43.05600
C  -1.02800 0.21900 42.56300
C  -1.76200 -0.94200 42.91800
C  -0.88400 -1.80000 43.71400
C  -1.38200 1.52000 41.80100
C  -3.12900 -1.22500 42.44100
O  -3.71000 -0.36000 41.79100
C  -3.87700 -2.44600 42.64900
N  0.87400 -3.98300 44.94400
C  -0.48600 -3.99300 44.95400
C  -1.04000 -5.36900 45.29400
C  0.21800 -6.17400 45.64900
C  1.35800 -5.19400 45.42000
C  -2.31300 -5.31700 46.21700
C  0.48300 -7.51200 44.98300
C  0.39300 -8.76300 45.84400
N  3.63600 -3.25800 45.09000
C  3.82000 -4.47200 45.63900
C  5.16500 -4.71700 45.91100
C  5.88400 -3.57100 45.43900
C  4.89900 -2.67600 44.88900
C  5.76100 -5.94200 46.51400
C  7.15400 -2.93300 45.24500
O  8.30200 -3.32100 45.39100
C  6.93300 -1.58500 44.50800
C  7.32700 -0.49200 45.47100
O  6.76200 -0.36700 46.54800
O  8.29600 0.28700 44.91700
C  8.62000 1.43000 45.75900
H  1.23800 1.95800 42.66100
H  -2.32200 -3.32500 44.25000
H  2.84300 -6.35600 46.14300
H  5.81900 1.34900 44.02700
H  3.85500 1.94300 41.95100
H  3.47400 3.79200 43.36200
H  4.59700 3.03900 44.50300
H  2.91200 2.64000 44.66800
H  7.17200 0.47300 42.13700
H  6.20200 1.75000 41.45600
H  4.93400 -0.87900 41.30100
H  6.65300 -0.97500 40.85600
H  -1.36100 1.44400 40.71400
H  -0.76900 2.39300 42.02500
H  -2.37200 1.91400 42.02800
H  -4.80600 -2.63500 42.11100
H  -4.05900 -2.56900 43.71600
H  -3.21800 -3.25300 42.32700
H  -1.40700 -5.86800 44.39700
H  0.09300 -6.27900 46.72600
H  -3.10700 -5.73600 45.59900
H  -2.60800 -4.31800 46.53700
H  -2.28200 -5.93800 47.11200
H  1.51200 -7.60000 44.63300
H  -0.01900 -7.61000 44.02000
H  -0.62200 -9.14500 45.72600
H  0.47100 -8.58900 46.91700
H  1.11900 -9.49800 45.49800
H  5.78300 -6.79300 45.83400
H  5.14100 -6.04700 47.40400
H  6.79000 -5.68100 46.76200
H  7.43000 -1.57400 43.53800
H  8.42100 1.26600 46.81800
H  8.06100 2.32100 45.47500
H  9.69800 1.58900 45.72800
Mg 17.29400 52.81200 26.33100
C  19.30500 51.02700 28.68800
C  14.83000 53.03300 28.87100
C  15.24700 54.14900 24.08800
C  19.57800 51.72900 23.83600
N  17.08500 52.07700 28.55400
C  18.10900 51.51200 29.27500
C  17.73200 51.43900 30.74000
C  16.16600 51.69100 30.70100
C  15.95500 52.29500 29.30800
C  15.35900 50.43400 30.80600
C  18.64900 52.45100 31.48900
C  18.96500 52.04200 33.00100
H  17.88300 51.38800 33.83500
N  15.27300 53.55100 26.42500
C  14.51800 53.67000 27.56700
C  13.32300 54.43800 27.22800
C  13.35600 54.77900 25.81900
C  14.63500 54.12200 25.33000
C  12.29100 54.96800 28.28600
C  12.47000 55.51500 24.85700
O  12.60800 55.52500 23.61300
C  11.46900 56.41000 25.51800
N  17.40700 52.90500 24.37200
C  16.51400 53.70000 23.67100
C  16.77700 53.60300 22.15600
C  18.18200 53.06800 22.09900
C  18.45900 52.54200 23.49400
C  15.69800 52.88800 21.24700
C  19.31800 53.98500 21.57000
C  19.64100 55.17300 22.50200
N  19.12300 51.66800 26.25400
C  19.93700 51.35800 25.13000
C  21.08400 50.58200 25.58100
C  20.86000 50.40500 26.97500
C  19.69300 51.10600 27.34200
C  22.21900 50.22600 24.65100
C  21.53100 49.83500 28.10300
O  22.59100 49.18300 28.21600
C  20.52500 50.26300 29.35000
C  20.04400 49.06700 30.05900
O  19.36100 48.10700 29.60300
O  20.38300 49.22900 31.41200
C  20.19400 48.06800 32.28500
H  14.10000 52.95700 29.67900
H  14.60800 54.58100 23.31500
H  20.22400 51.39100 23.02300
H  17.85100 50.45300 31.19000
H  15.88700 52.38800 31.49100
H  15.07100 50.31500 31.85100
H  15.77900 49.49600 30.44500
H  14.48300 50.56300 30.17200
H  18.12600 53.40700 31.51400
H  19.61900 52.61800 31.02100
H  19.57200 52.73300 33.58400
H  19.57400 51.14200 32.91600
H  12.69400 55.91300 28.65100
H  12.42100 54.32700 29.15800
H  11.29000 55.12100 27.88300
H  11.02400 56.96100 24.69000
H  11.94900 57.22900 26.05500
H  10.76800 55.81200 26.10000
H  16.89700 54.61600 21.77100
H  18.21200 52.17000 21.48300
H  16.12000 52.85600 20.24300
H  14.80900 53.51800 21.24800
H  15.52200 51.88100 21.62600
H  18.92400 54.40800 20.64600
H  20.19800 53.36300 21.40200
H  19.41500 56.09200 21.96000
H  20.71600 55.15200 22.68100
H  19.00500 55.21100 23.38700
H  23.14500 50.07300 25.20400
H  22.19200 51.01500 23.89800
H  22.04300 49.31600 24.07700
H  21.02500 50.89600 30.08300
H  19.86500 47.14800 31.80200
H  19.45400 48.36300 33.02900
H  21.04200 47.82500 32.92500

