158

Mg 30.75700 59.28800 38.83100
C  27.83200 57.37600 38.10700
C  32.59600 56.52000 38.17600
C  33.37700 61.18900 38.79700
C  28.62600 62.03200 39.26200
N  30.21800 57.26800 37.91700
C  28.94700 56.66700 37.92200
C  29.09500 55.21200 37.43400
C  30.55000 54.86800 37.99900
C  31.20900 56.31700 38.04800
C  30.54700 54.41400 39.48400
C  28.77300 55.14400 35.85600
C  27.55500 54.34100 35.46500
H  26.71100 55.03300 34.33600
N  32.65200 58.98300 38.28100
C  33.23500 57.71900 38.10500
C  34.64400 57.84200 37.82200
C  34.94800 59.26500 38.03000
C  33.62900 59.90500 38.40000
C  35.57900 56.71500 37.53200
C  36.34400 59.90800 37.93600
O  37.23200 59.11700 37.63500
C  36.69800 61.37000 38.26600
N  31.00300 61.32900 38.98300
C  32.19300 61.87000 39.11300
C  32.11000 63.35200 39.43500
C  30.58700 63.60100 39.67700
C  30.02300 62.23600 39.27400
C  33.06200 63.73600 40.64100
C  29.98000 64.73600 38.80900
C  28.87600 65.62400 39.43000
N  28.66200 59.66400 38.83500
C  27.97200 60.80900 39.06200
C  26.58300 60.56300 38.87200
C  26.40400 59.25600 38.51500
C  27.73300 58.72300 38.52300
C  25.43000 61.48900 39.06200
C  25.42800 58.26200 38.09700
O  24.17200 58.28000 38.12100
C  26.37600 56.97300 37.81100
C  26.02000 55.82900 38.67100
O  26.29000 55.71500 39.84800
O  25.23400 54.90400 38.02200
C  24.37200 54.13900 38.90400
H  33.16600 55.58900 38.19700
H  34.20400 61.90000 38.83900
H  27.99900 62.89300 39.50300
H  28.41100 54.60700 38.02900
H  31.11700 54.24200 37.31000
H  29.61900 53.91800 39.76700
H  30.64400 55.30500 40.10400
H  31.39800 53.73800 39.56900
H  29.73200 54.79700 35.47200
H  28.61200 56.11400 35.38600
H  27.00800 54.18900 36.39500
H  27.97500 53.43200 35.03500
H  35.13000 55.80300 37.14000
H  36.19900 56.39100 38.36800
H  36.24500 57.01300 36.72200
H  37.75000 61.47600 37.99900
H  36.51400 61.74600 39.27200
H  36.07800 61.92400 37.56100
H  32.44200 63.94600 38.58400
H  30.32000 63.75500 40.72300
H  34.02600 64.04300 40.23500
H  33.25800 62.89700 41.30900
H  32.59400 64.50200 41.25800
H  29.58700 64.30100 37.89000
H  30.74800 65.44700 38.50500
H  29.16900 66.59100 39.84000
H  28.34400 65.09800 40.22200
H  28.27700 65.83100 38.54300
H  24.87900 61.72700 38.15200
H  25.64700 62.24200 39.81900
H  24.72500 60.83600 39.57500
H  26.27500 56.68900 36.76300
H  23.99900 53.29600 38.32300
H  23.44800 54.70700 39.01400
H  24.72800 53.73100 39.84900
Mg -0.23800 44.63400 25.58200
C  1.59600 43.92100 28.34700
C  -2.87000 42.87800 26.94400
C  -1.66300 44.60700 22.56400
C  2.65300 45.97300 24.13500
N  -0.49000 43.18000 27.36900
C  0.24900 43.43000 28.44500
C  -0.47900 42.98200 29.77300
C  -1.83800 42.45000 29.15400
C  -1.78600 42.84300 27.69300
C  -2.07000 40.84900 29.33100
C  -0.73400 44.22800 30.76400
C  -0.88000 43.82300 32.27500
H  -1.46900 42.42900 32.67400
N  -2.07300 43.87400 24.86600
C  -3.00400 43.22200 25.60400
C  -4.21200 43.17700 24.76300
C  -3.89600 43.74000 23.49100
C  -2.47500 44.12200 23.57500
C  -5.54900 42.49200 25.21500
C  -4.77100 43.97600 22.23800
O  -4.32900 44.31800 21.15800
C  -6.26600 43.71600 22.26900
N  0.28800 45.38600 23.73800
C  -0.40700 45.26900 22.60300
C  0.14500 46.06200 21.45500
C  1.34900 46.69200 22.09500
C  1.47300 45.95000 23.41300
C  0.43200 45.17400 20.18500
C  1.24900 48.17500 22.48200
C  0.26500 49.07300 21.74200
N  1.75400 44.86000 26.03200
C  2.82900 45.36000 25.36300
C  3.98300 45.34900 26.17000
C  3.61200 44.77000 27.37900
C  2.19700 44.48600 27.22000
C  5.40200 45.87500 25.75200
C  4.03400 44.30600 28.64100
O  5.10000 44.26600 29.24500
C  2.71000 43.89200 29.33500
C  2.86100 42.50300 29.94000
O  3.33900 41.48700 29.40500
O  2.40700 42.57800 31.24100
C  2.51400 41.26000 31.96600
H  -3.72300 42.49600 27.50900
H  -2.06700 44.60200 21.54900
H  3.40100 46.60700 23.65400
H  0.09300 42.24700 30.33800
H  -2.78700 42.84500 29.51700
H  -3.01800 40.58300 29.79900
H  -1.46300 40.33500 30.07600
H  -1.78300 40.32900 28.41700
H  -1.72000 44.53600 30.41500
H  0.04300 44.98400 30.65400
H  -1.51300 44.52700 32.81600
H  0.12500 43.91100 32.68700
H  -6.33600 43.24100 25.12800
H  -5.46700 42.15000 26.24700
H  -5.62100 41.58800 24.61000
H  -6.79800 44.04900 21.37800
H  -6.64300 44.28500 23.12000
H  -6.47000 42.66500 22.47100
H  -0.67500 46.77800 21.39000
H  2.29500 46.57200 21.56800
H  0.20900 44.13800 20.44000
H  1.50400 45.22100 19.98900
H  -0.13600 45.48100 19.30700
H  2.19900 48.68000 22.30800
H  1.06600 48.22000 23.55600
H  0.14400 48.69900 20.72500
H  0.75600 50.04500 21.71000
H  -0.68900 49.09700 22.27000
H  5.81100 45.43500 24.84300
H  6.08500 45.73800 26.59100
H  5.28200 46.94100 25.55900
H  2.54100 44.67000 30.08000
H  2.15700 40.42500 31.36300
H  2.11300 41.22600 32.97900
H  3.59000 41.11900 32.07000

