158

Mg 45.19600 5.23500 46.86200
C  42.81400 7.75600 46.16000
C  42.75000 2.90100 46.48400
C  47.60200 2.74200 47.19300
C  47.68400 7.55100 46.84000
N  42.96200 5.30400 46.22300
C  42.23500 6.47500 46.09900
C  40.72400 6.16600 46.06800
C  40.77300 4.56100 46.18000
C  42.21500 4.18100 46.27400
C  40.01900 3.96800 47.35900
C  39.86700 6.75500 44.90600
C  40.34200 6.34800 43.53500
H  40.64300 7.48000 42.50700
N  45.15900 3.11900 46.84100
C  44.03600 2.36300 46.70700
C  44.36700 1.01300 46.71700
C  45.78500 0.94500 46.85400
C  46.25900 2.31700 46.91700
C  43.36300 -0.11800 46.52900
C  46.53600 -0.33400 46.93000
O  45.95100 -1.41800 46.86100
C  48.00200 -0.39900 47.01800
N  47.45500 5.10400 46.66300
C  48.15500 4.06600 47.07100
C  49.66900 4.39800 47.10200
C  49.63300 5.90700 47.25100
C  48.18600 6.26100 46.79800
C  50.44200 3.56500 48.14900
C  50.82000 6.55000 46.47300
C  52.03900 6.93400 47.33100
N  45.32300 7.26800 46.58600
C  46.38800 8.10100 46.59800
C  45.94200 9.47200 46.62100
C  44.57500 9.37700 46.39100
C  44.25800 7.98100 46.40700
C  46.78500 10.66100 46.79600
C  43.40300 10.17100 46.20900
O  43.26200 11.35700 46.27900
C  42.16000 9.13100 46.03800
C  41.23700 9.30100 47.23100
O  41.20900 8.64500 48.27700
O  40.36700 10.27000 46.84000
C  39.29200 10.57700 47.82500
H  41.91800 2.25100 46.20600
H  48.43700 2.04500 47.28600
H  48.43600 8.33600 46.95000
H  40.32700 6.58100 46.99400
H  40.31900 4.07200 45.31900
H  40.21100 4.68500 48.15700
H  40.29100 2.92900 47.54300
H  38.95500 3.95600 47.12300
H  39.90700 7.83800 45.02100
H  38.80400 6.53100 44.98700
H  39.61600 5.74300 42.99200
H  41.26300 5.77400 43.64200
H  43.61900 -0.77400 45.69700
H  42.40800 0.27800 46.18400
H  43.25200 -0.74400 47.41500
H  48.34500 0.26500 46.22500
H  48.35200 -1.40700 46.79500
H  48.47600 -0.17400 47.97400
H  49.98200 4.19900 46.07700
H  49.77700 6.12800 48.30900
H  50.93400 4.26200 48.82800
H  51.14300 2.84300 47.73000
H  49.78800 2.91800 48.73500
H  50.51600 7.48500 46.00400
H  51.23000 5.90800 45.69400
H  51.96200 6.56300 48.35400
H  52.20600 7.99800 47.49400
H  52.92200 6.54200 46.82700
H  47.67800 10.60400 47.41900
H  46.03400 11.36400 47.15700
H  47.12000 10.99400 45.81400
H  41.69700 9.33700 45.07300
H  38.29800 10.72100 47.40000
H  39.38800 11.57200 48.25900
H  39.17700 9.76000 48.53800
Mg 54.06200 24.59400 44.20300
C  51.64900 26.95500 43.41000
C  51.86000 22.17300 43.16200
C  56.66500 22.28700 44.10400
C  56.32400 27.16600 44.67000
N  52.08100 24.57700 43.28900
C  51.24400 25.61400 43.11400
C  49.91900 25.21900 42.48000
C  49.88600 23.75000 42.96200
C  51.40600 23.45800 43.16400
C  49.13600 23.48400 44.32400
C  49.90600 25.38700 40.93600
C  48.56100 25.64600 40.28300
H  48.36500 25.39900 38.83600
N  54.22900 22.47500 43.74500
C  53.18500 21.68000 43.29100
C  53.66500 20.35900 42.97200
C  55.08700 20.35300 43.12800
C  55.42600 21.70200 43.72900
C  52.77200 19.22000 42.41200
C  56.06100 19.23600 42.80800
O  55.67100 18.21800 42.23700
C  57.52400 19.34500 43.04500
N  56.19500 24.70100 44.49100
C  57.02700 23.61800 44.43800
C  58.47400 24.13700 44.75400
C  58.34600 25.68800 44.73400
C  56.85700 25.86800 44.67500
C  59.01000 23.46100 46.02700
C  59.17500 26.50600 43.71700
C  58.83500 26.49100 42.26400
N  54.07100 26.65400 44.15300
C  54.98300 27.56800 44.35300
C  54.41200 28.94100 44.34100
C  53.07100 28.70200 44.02800
C  52.91800 27.32700 43.82700
C  55.06100 30.24200 44.59600
C  51.80000 29.34900 43.76100
O  51.52700 30.52400 43.94600
C  50.83300 28.24100 43.22300
C  50.69300 28.64900 41.85000
O  51.54000 28.52900 40.99500
O  49.51100 29.23700 41.71100
C  49.10800 29.60700 40.31900
H  51.07300 21.46300 42.89900
H  57.48100 21.56800 44.20400
H  57.00200 27.98200 44.93000
H  49.03500 25.75800 42.82000
H  49.54600 23.05700 42.19200
H  48.23100 22.90400 44.14000
H  48.91100 24.44000 44.79600
H  49.77600 22.86500 44.95200
H  50.19100 24.43500 40.48900
H  50.58700 26.06900 40.42600
H  48.36300 26.70300 40.46000
H  47.79600 25.10200 40.83700
H  52.92500 19.01700 41.35200
H  51.73400 19.54900 42.45500
H  53.01600 18.25400 42.85400
H  57.99800 20.20600 42.57400
H  57.95400 18.43800 42.62200
H  57.71500 19.28700 44.11700
H  59.18900 23.87600 43.97400
H  58.78300 26.07300 45.65500
H  58.37400 22.59500 46.20900
H  58.94100 24.23300 46.79400
H  60.02200 23.06000 45.97100
H  60.13500 25.99600 43.79100
H  59.22200 27.50300 44.15400
H  58.53000 25.48900 41.96200
H  59.74200 26.88100 41.80100
H  58.01100 27.18800 42.11200
H  55.95500 30.29500 43.97600
H  55.39300 30.39600 45.62300
H  54.46600 31.10500 44.29600
H  49.86800 28.17200 43.72400
H  48.74500 30.63400 40.36700
H  48.31300 28.95100 39.96600
H  49.90000 29.47300 39.58200

