158

Mg 16.96300 52.62200 26.84200
C  19.04100 51.17500 29.10600
C  14.62900 53.26900 29.44800
C  14.69300 53.97800 24.57500
C  19.03900 51.73000 24.33900
N  16.82100 52.15000 28.91400
C  17.91500 51.82000 29.65300
C  17.69900 52.10200 31.16300
C  16.18700 52.40200 31.32000
C  15.78400 52.56000 29.78700
C  15.33900 51.32800 32.14900
C  18.60600 53.14500 31.71700
C  18.90400 53.10300 33.21200
H  17.99700 52.39100 34.27500
N  15.02100 53.60200 27.02600
C  14.23300 53.74200 28.14800
C  13.02500 54.47800 27.84100
C  13.16000 54.87900 26.46300
C  14.34200 54.12500 25.98200
C  11.95000 54.82700 28.85400
C  12.32600 55.84700 25.66400
O  12.43600 55.96500 24.47800
C  11.16000 56.45100 26.36800
N  16.80000 52.73500 24.77100
C  15.81700 53.38900 24.03800
C  16.04100 53.16800 22.55400
C  17.55800 52.91200 22.45300
C  17.86900 52.48100 23.95500
C  15.04800 52.09200 22.00200
C  18.43400 54.11100 22.06400
C  18.60200 54.31100 20.59100
N  18.56600 51.52900 26.65400
C  19.37600 51.24300 25.59900
C  20.53900 50.42500 25.98300
C  20.46700 50.41400 27.34400
C  19.25900 51.12300 27.70700
C  21.56200 49.69500 24.99800
C  21.06200 49.94100 28.60900
O  22.06800 49.22900 28.67700
C  20.22900 50.51100 29.88700
C  19.83200 49.52500 30.91000
O  19.10000 48.57700 30.77900
O  20.32900 49.97100 32.15400
C  19.99300 49.04200 33.27200
H  14.12800 53.61100 30.35600
H  14.01400 54.41600 23.84000
H  19.80200 51.60100 23.56800
H  17.93400 51.19000 31.71200
H  16.06400 53.40500 31.73000
H  14.67700 50.85400 31.42400
H  14.71000 51.87700 32.85000
H  15.99500 50.63300 32.67200
H  18.24700 54.13700 31.44400
H  19.62200 53.21800 31.33100
H  18.69500 54.13400 33.49500
H  19.93800 52.77300 33.31600
H  11.88100 54.11900 29.67900
H  10.92400 54.80300 28.48600
H  12.14000 55.81400 29.27700
H  10.74900 57.22300 25.71800
H  11.37600 56.87100 27.35100
H  10.48000 55.61200 26.51300
H  15.79400 54.13300 22.11100
H  17.65500 52.04400 21.80100
H  15.65000 51.31700 21.52700
H  14.47300 52.67500 21.28200
H  14.35700 51.62900 22.70500
H  19.40900 53.98100 22.53500
H  18.02600 55.05800 22.41700
H  18.73300 55.34300 20.26500
H  17.72200 53.78100 20.22800
H  19.50500 53.78400 20.28200
H  21.11100 49.57700 24.01300
H  21.73600 48.72200 25.45700
H  22.52200 50.21200 24.96600
H  20.61800 51.36200 30.44400
H  20.58800 48.13500 33.15600
H  18.93700 48.77600 33.24600
H  20.24300 49.51700 34.22000
Mg 10.13000 48.06100 25.89800
C  7.96100 48.42100 28.73800
C  12.59000 49.62500 27.80700
C  11.87600 48.25500 23.18200
C  7.19300 47.25100 24.02100
N  10.22700 48.87900 28.00400
C  9.29600 48.72900 29.06500
C  9.94500 49.09900 30.40600
C  11.28600 49.80700 29.96700
C  11.46400 49.30300 28.50700
C  11.34200 51.33700 30.21800
C  9.97600 47.99100 31.50400
C  9.55300 48.44400 32.89000
H  9.44700 47.28000 33.91700
N  12.09100 48.50400 25.59100
C  12.91100 49.31700 26.47800
C  14.22400 49.43400 25.84300
C  14.07600 48.95100 24.50100
C  12.64100 48.55600 24.36600
C  15.54200 49.88100 26.59900
C  15.10000 48.68200 23.43500
O  14.88800 48.22900 22.37100
C  16.57500 49.04300 23.70900
N  9.56800 47.96900 23.81300
C  10.57500 47.95700 22.87900
C  10.02500 47.59800 21.44700
C  8.52000 47.09900 21.74800
C  8.40200 47.40900 23.30900
C  10.06700 48.75700 20.40000
C  8.43600 45.57000 21.46100
C  9.00300 44.63100 22.57300
N  8.03900 47.75400 26.23900
C  7.01800 47.48600 25.34600
C  5.76100 47.38000 26.08400
C  6.09300 47.76900 27.40900
C  7.44400 48.06400 27.44400
C  4.32900 47.09000 25.47900
C  5.54900 48.04100 28.69200
O  4.37500 47.93900 29.08800
C  6.73500 48.46200 29.56800
C  6.76400 47.41700 30.63600
O  7.07200 46.27600 30.43600
O  6.22700 47.89400 31.75400
C  5.96500 46.94300 32.84200
H  13.37800 50.07700 28.41400
H  12.51000 48.17300 22.29600
H  6.30300 46.91000 23.48800
H  9.28600 49.86700 30.81200
H  12.01100 49.26900 30.57900
H  12.13900 51.73500 29.59000
H  11.53300 51.44200 31.28600
H  10.37700 51.82200 30.07100
H  11.03800 47.77500 31.62000
H  9.44300 47.08400 31.22000
H  8.67700 49.08700 32.80000
H  10.40500 49.03700 33.22200
H  16.33400 49.17200 26.35800
H  15.35100 50.04200 27.66000
H  15.82400 50.86900 26.23600
H  17.19700 48.95700 22.81900
H  16.90000 48.35500 24.49000
H  16.71700 50.01800 24.17600
H  10.56100 46.73300 21.05600
H  7.80400 47.64300 21.13200
H  10.80200 49.48600 20.74000
H  9.16500 49.36800 20.38500
H  10.31200 48.40700 19.39600
H  8.85400 45.30900 20.48900
H  7.37400 45.36000 21.33200
H  8.15100 44.48700 23.23700
H  9.74000 45.15800 23.17900
H  9.38600 43.69300 22.17000
H  4.54000 46.30600 24.75200
H  3.96300 47.95700 24.92900
H  3.69900 46.74100 26.29700
H  6.61700 49.48600 29.92400
H  4.91600 46.64800 32.84200
H  6.15400 47.46700 33.77900
H  6.62300 46.07700 32.76400

