158

Mg 24.86300 1.20600 29.97700
C  26.99900 1.32400 32.65500
C  22.21200 1.49300 32.10600
C  23.12200 1.28900 27.30700
C  27.75400 0.47800 27.93000
N  24.62800 1.58300 32.11300
C  25.64800 1.63100 33.00400
C  25.11500 1.89600 34.44000
C  23.60400 1.84200 34.19600
C  23.41900 1.57600 32.76700
C  22.81000 0.97200 35.26600
C  25.67700 3.15500 35.17500
C  26.30500 2.87200 36.54100
H  26.00000 3.82700 37.71300
N  22.88900 1.04100 29.77700
C  21.91800 1.31500 30.71800
C  20.58400 1.38500 30.09500
C  20.88100 1.26900 28.65700
C  22.37000 1.22400 28.50600
C  19.33400 1.66800 30.84300
C  19.92200 1.21900 27.52100
O  20.22800 1.18600 26.33900
C  18.48600 1.44400 27.89100
N  25.39800 0.70400 27.83800
C  24.47800 1.05400 27.01600
C  25.01200 1.20500 25.56300
C  26.52800 0.70400 25.67300
C  26.59600 0.52400 27.22400
C  24.15100 0.36100 24.49000
C  27.68100 1.63700 25.09200
C  28.40100 1.02700 23.85200
N  26.92500 0.85300 30.21900
C  27.91600 0.54800 29.29100
C  29.19700 0.42000 29.98800
C  28.89000 0.68400 31.28100
C  27.49300 1.00900 31.39000
C  30.50800 -0.00100 29.51100
C  29.44300 0.83200 32.62600
O  30.58100 0.72800 33.01700
C  28.23000 1.21100 33.53500
C  27.98000 0.21600 34.60500
O  27.44100 -0.85300 34.38500
O  28.53500 0.65700 35.78900
C  28.45400 -0.33400 36.85900
H  21.34700 1.67100 32.74800
H  22.64800 1.62700 26.38300
H  28.69600 0.41500 27.38300
H  25.34900 0.97200 34.96900
H  23.24300 2.86200 34.33100
H  23.43500 0.85300 36.15100
H  22.75500 -0.01900 34.81400
H  21.78300 1.28100 35.45900
H  25.00900 4.01500 35.21700
H  26.45900 3.42700 34.46600
H  27.37900 2.78400 36.37600
H  25.92600 1.91200 36.89300
H  19.46300 1.96200 31.88500
H  18.68200 0.79400 30.86900
H  18.81400 2.52900 30.42300
H  18.11100 0.67400 28.56500
H  17.91000 1.58700 26.97600
H  18.54800 2.34300 28.50400
H  24.95500 2.26700 25.32400
H  26.56500 -0.34500 25.37800
H  23.46300 -0.31400 24.99900
H  24.86700 -0.18300 23.87400
H  23.60000 1.08600 23.89200
H  28.39500 1.92300 25.86400
H  27.12500 2.54000 24.83900
H  29.45800 0.86200 24.05900
H  28.33500 1.72600 23.01800
H  28.02000 0.05100 23.55100
H  31.25200 0.60400 30.03000
H  30.62000 0.12400 28.43400
H  30.70200 -1.05500 29.70800
H  28.33000 2.12900 34.11400
H  29.32000 -0.40500 37.51600
H  28.47200 -1.35700 36.48300
H  27.55100 -0.28800 37.46800
Mg -11.89900 17.33100 39.63400
C  -8.57000 15.89200 39.60700
C  -10.42100 20.44400 39.13700
C  -14.85500 18.56400 38.74900
C  -13.04300 14.06800 39.45900
N  -9.69600 18.04100 39.41100
C  -8.54400 17.33900 39.49700
C  -7.35100 18.26200 39.49200
C  -8.00600 19.65700 39.67600
C  -9.52700 19.39100 39.46800
C  -7.76300 20.38700 41.03700
C  -6.60700 18.08700 38.08900
C  -5.17400 17.57200 38.18400
H  -4.92000 16.28900 37.50500
N  -12.68800 19.23200 39.19000
C  -11.85800 20.39300 39.00400
C  -12.68000 21.55100 38.80600
C  -14.01600 21.03100 38.53000
C  -13.90800 19.57800 38.78700
C  -12.14700 22.94600 38.87000
C  -15.28200 21.73900 38.07100
O  -15.25000 22.98900 37.98700
C  -16.58600 21.07200 37.86100
N  -13.70900 16.41100 39.10300
C  -14.80100 17.16400 38.92800
C  -16.06400 16.33500 39.20000
C  -15.47900 14.83700 39.10700
C  -13.99600 15.08400 39.24900
C  -16.72000 16.64100 40.56700
C  -15.70300 14.03400 37.79400
C  -17.12000 13.46700 37.63300
N  -11.07000 15.38600 39.59500
C  -11.67100 14.15300 39.61400
C  -10.77400 13.12300 39.90900
C  -9.52200 13.71700 39.89200
C  -9.78600 15.12600 39.66300
C  -11.16600 11.63100 40.10300
C  -8.10000 13.50400 39.95000
O  -7.37500 12.52000 40.20300
C  -7.47300 14.87200 39.73100
C  -6.68000 15.20100 40.91100
O  -7.15400 15.82200 41.87100
O  -5.38600 14.81400 40.75000
C  -4.45000 15.16900 41.83600
H  -9.90500 21.40500 39.06800
H  -15.88800 18.91900 38.76000
H  -13.45800 13.06300 39.55800
H  -6.66600 17.99200 40.29600
H  -7.62400 20.27500 38.86300
H  -7.74500 19.60200 41.79200
H  -8.54100 21.11700 41.26100
H  -6.81400 20.92300 41.01500
H  -6.45400 19.05200 37.60600
H  -7.27000 17.52500 37.43200
H  -4.98400 17.43300 39.24800
H  -4.49000 18.38300 37.93400
H  -11.93100 23.25500 37.84700
H  -11.31700 22.93600 39.57700
H  -12.97800 23.50500 39.30100
H  -16.38800 20.29600 37.12200
H  -17.36000 21.70400 37.42600
H  -16.96600 20.67500 38.80200
H  -16.75700 16.55800 38.38800
H  -15.93200 14.27100 39.92100
H  -15.91300 16.70500 41.29800
H  -17.39600 15.80400 40.74200
H  -17.18100 17.62200 40.68300
H  -14.81900 13.43200 37.58500
H  -15.71700 14.72700 36.95200
H  -17.60000 13.35300 38.60500
H  -16.82900 12.48800 37.25300
H  -17.75000 14.05400 36.96400
H  -10.61600 11.12600 39.30800
H  -12.23100 11.57500 39.87700
H  -11.02700 11.16000 41.07600
H  -6.77200 15.03700 38.91200
H  -3.44300 14.92000 41.49900
H  -4.73600 14.72800 42.79100
H  -4.43200 16.25700 41.89600

