158

Mg 1.46900 -1.06900 44.18800
C  4.80300 -0.15700 43.46000
C  0.59900 1.50700 42.19000
C  -1.70200 -2.23000 44.22300
C  2.59900 -4.06900 45.54600
N  2.55300 0.57900 43.08100
C  3.91500 0.72700 42.86900
C  4.28800 1.95000 41.93000
C  2.88700 2.63000 41.84500
C  1.92500 1.47200 42.37000
C  2.74300 3.86800 42.74000
C  4.87200 1.41500 40.57700
C  6.25100 1.81300 40.20800
H  6.40100 2.87000 39.09800
N  -0.29900 -0.47100 43.35300
C  -0.50500 0.69200 42.61100
C  -1.87600 1.00100 42.47500
C  -2.61100 -0.14000 43.00300
C  -1.53200 -0.99700 43.60100
C  -2.39000 2.17800 41.74500
C  -4.10200 -0.31100 42.96700
O  -4.80800 0.62300 42.52000
C  -4.78300 -1.50600 43.42000
N  0.58600 -3.12000 44.48200
C  -0.76300 -3.18700 44.66900
C  -1.11800 -4.50400 45.29600
C  0.27000 -5.13700 45.84700
C  1.23200 -3.99900 45.34700
C  -2.18600 -4.37900 46.40300
C  0.67700 -6.49800 45.16500
C  0.70800 -7.74900 46.05000
N  3.32200 -1.92200 44.57500
C  3.62300 -3.12200 45.16100
C  5.07900 -3.23600 45.39200
C  5.56100 -2.11000 44.73000
C  4.48200 -1.31600 44.22200
C  5.78000 -4.42600 46.03200
C  6.77500 -1.56000 44.24800
O  7.95500 -1.86200 44.37900
C  6.36400 -0.20300 43.46500
C  7.04800 0.98600 44.19900
O  8.22900 1.20900 44.22600
O  6.14500 1.76400 44.97800
C  6.77700 3.01300 45.36600
H  0.30500 2.39600 41.62800
H  -2.71400 -2.51300 44.51800
H  3.00400 -4.89800 46.13000
H  5.04700 2.60400 42.35900
H  2.62200 2.76700 40.79600
H  2.26800 4.64500 42.14100
H  3.72300 4.20200 43.08100
H  2.09400 3.71400 43.60300
H  4.23600 1.78700 39.77300
H  4.85300 0.32800 40.49000
H  6.91500 1.00300 39.90700
H  6.80400 2.26600 41.03100
H  -3.22400 2.57000 42.32900
H  -2.78000 1.99200 40.74400
H  -1.71400 3.03300 41.75600
H  -5.85000 -1.52600 43.19800
H  -4.72500 -1.38500 44.50200
H  -4.30500 -2.42800 43.08800
H  -1.53500 -5.15800 44.52900
H  0.25500 -5.11900 46.93700
H  -2.27500 -3.35100 46.75400
H  -1.89800 -4.92100 47.30300
H  -3.23200 -4.58000 46.17300
H  1.60400 -6.44900 44.59300
H  -0.15100 -6.71800 44.49100
H  0.03700 -7.52800 46.88000
H  1.68500 -8.21700 46.17300
H  0.11300 -8.53600 45.58700
H  6.30000 -5.08300 45.33600
H  5.06000 -4.98900 46.62700
H  6.59200 -4.13600 46.69900
H  6.83700 -0.24200 42.48300
H  6.12700 3.70900 45.89600
H  7.08500 3.56300 44.47700
H  7.59300 2.86500 46.07500
Mg 6.15000 55.24900 40.25900
C  4.91700 51.88700 40.15800
C  9.13000 54.13500 39.31000
C  7.09500 58.47500 39.86100
C  2.98400 56.21500 41.39900
N  6.90300 53.16800 39.52900
C  6.21700 51.97900 39.72000
C  7.29200 50.88100 39.50800
C  8.67500 51.61700 39.69600
C  8.24400 53.06300 39.51800
C  9.54800 51.28300 40.87900
C  7.24500 50.16700 38.11400
C  6.65200 50.80400 36.83600
H  7.64000 51.37300 35.73100
N  7.92700 56.15800 39.60500
C  9.05600 55.53800 39.22000
C  10.11400 56.43300 38.93900
C  9.53000 57.69300 39.03900
C  8.13700 57.50500 39.51000
C  11.55500 56.06800 38.75600
C  10.18500 59.06400 38.73100
O  11.32700 59.07600 38.30500
C  9.36700 60.30900 38.87700
N  5.13400 57.07500 40.46900
C  5.77800 58.27000 40.38000
C  4.90000 59.48400 40.72700
C  3.63300 58.77500 41.33900
C  3.87800 57.24300 41.02300
C  5.61300 60.44500 41.69100
C  2.28700 59.37900 40.76200
C  1.06800 59.67500 41.71200
N  4.29000 54.31700 40.61000
C  3.16600 54.85700 41.15700
C  2.14600 53.81900 41.35400
C  2.84000 52.60900 41.01600
C  4.13100 53.00300 40.60300
C  0.79800 53.98100 41.92300
C  2.63100 51.16500 40.90900
O  1.75200 50.40100 41.23700
C  4.16100 50.62100 40.57700
C  4.14900 49.58800 39.50000
O  4.03500 49.91600 38.28800
O  4.34200 48.35300 40.08700
C  4.33000 47.23000 39.12100
H  10.14800 53.82300 39.06600
H  7.29000 59.54800 39.80300
H  1.99800 56.58200 41.69300
H  7.18600 50.10600 40.26600
H  9.42100 51.41300 38.92800
H  9.14700 50.48400 41.50300
H  9.56600 52.10300 41.59800
H  10.58900 51.06400 40.64200
H  6.68400 49.24500 38.26800
H  8.28400 49.91500 37.89900
H  6.00300 51.62700 37.13600
H  5.90300 50.13900 36.40600
H  12.20200 56.51900 39.50900
H  11.82600 56.42300 37.76200
H  11.80000 55.00600 38.73700
H  8.61100 60.30500 38.09200
H  10.03800 61.12500 38.60500
H  9.05700 60.43700 39.91400
H  4.59700 60.15600 39.92400
H  3.67100 58.89200 42.42200
H  5.63200 61.42900 41.22300
H  6.60700 60.07200 41.93900
H  4.99600 60.72600 42.54400
H  1.87400 58.55800 40.17500
H  2.29400 60.16500 40.00800
H  0.26300 58.96600 41.51400
H  0.67100 60.67500 41.53900
H  1.24500 59.60700 42.78500
H  0.46100 55.00600 42.07300
H  0.70500 53.44900 42.87000
H  0.01900 53.44500 41.38000
H  4.64100 50.23100 41.47500
H  3.33200 46.79200 39.15300
H  5.09200 46.61300 39.59700
H  4.56100 47.56300 38.10900

