158

Mg 48.49800 14.82900 28.39500
C  46.13800 14.90800 30.94500
C  50.67700 16.38100 30.43300
C  50.77600 14.71500 25.84000
C  46.15200 13.36800 26.29600
N  48.36700 15.61000 30.44900
C  47.33500 15.53800 31.34200
C  47.74900 16.10700 32.72100
C  49.15900 16.71700 32.40000
C  49.47700 16.21000 30.93800
C  49.30100 18.28400 32.52100
C  47.86500 14.84300 33.68800
C  47.18900 15.07400 35.08400
H  47.01700 16.44100 35.77000
N  50.42400 15.49600 28.20200
C  51.19700 16.09200 29.16100
C  52.49800 16.31300 28.63700
C  52.52200 15.72400 27.33000
C  51.24600 15.18100 27.07500
C  53.59300 17.02600 29.48700
C  53.65400 15.78800 26.25100
O  53.64600 15.17300 25.16600
C  54.88600 16.61400 26.57000
N  48.35200 14.37700 26.29800
C  49.50800 14.22000 25.55900
C  49.10300 13.61900 24.19100
C  47.70300 13.02400 24.43800
C  47.38600 13.62500 25.80500
C  49.22600 14.51000 22.91800
C  47.59900 11.49800 24.34600
C  46.38900 10.94700 23.60400
N  46.50700 14.38200 28.47300
C  45.71900 13.70900 27.56400
C  44.48600 13.36800 28.23400
C  44.62300 13.71000 29.61600
C  45.85400 14.40000 29.68400
C  43.34000 12.63100 27.66100
C  43.90500 13.76400 30.87200
O  42.79200 13.29500 31.29200
C  44.93400 14.49900 31.72800
C  44.14800 15.60400 32.40900
O  44.02800 16.78800 32.02200
O  43.55000 15.15100 33.53600
C  42.83600 16.10700 34.35400
H  51.47500 16.87900 30.98600
H  51.43000 14.55300 24.98100
H  45.43500 12.90600 25.61400
H  47.04600 16.86500 33.06700
H  49.90500 16.29900 33.07600
H  50.26800 18.48900 32.98000
H  48.49200 18.67400 33.14000
H  49.10500 18.73100 31.54700
H  48.92400 14.61200 33.80600
H  47.36700 13.99800 33.21300
H  47.83800 14.53500 35.77300
H  46.22600 14.56200 35.07600
H  54.01300 17.84200 28.90000
H  54.25100 16.21400 29.79600
H  53.38000 17.56000 30.41300
H  55.46500 16.51600 25.65100
H  55.45500 15.99800 27.26600
H  54.81900 17.67600 26.80700
H  49.84800 12.84000 24.02800
H  47.06200 13.47200 23.67900
H  49.63200 15.45900 23.26900
H  48.30900 14.65900 22.34900
H  50.01600 14.16300 22.25100
H  47.48600 11.15500 25.37400
H  48.53000 11.11500 23.92800
H  46.69700 10.87800 22.56100
H  45.55300 11.63700 23.72200
H  46.07100 9.98100 23.99600
H  43.37700 12.70000 26.57400
H  42.56000 13.18600 28.18300
H  43.39800 11.57500 27.92500
H  45.22600 13.78800 32.50100
H  41.77300 16.23900 34.15200
H  43.30700 17.08900 34.29800
H  42.97100 15.84100 35.40300
Mg 6.17600 53.84000 40.58200
C  5.76700 50.48100 40.37200
C  9.58800 53.24300 40.02100
C  6.63100 57.09400 40.30700
C  2.82600 54.31100 41.27900
N  7.45000 51.99000 39.90200
C  7.05500 50.74600 39.91300
C  8.21400 49.81700 39.71700
C  9.51800 50.68700 39.98500
C  8.80800 52.06900 39.95500
C  10.39700 50.39400 41.22800
C  8.09200 49.14800 38.33500
C  7.83300 50.04800 37.10100
H  6.61100 49.66800 36.27100
N  7.84100 55.01400 40.20700
C  9.16600 54.61500 39.97300
C  10.04200 55.68700 39.83200
C  9.22000 56.87400 40.01200
C  7.82600 56.38200 40.13100
C  11.48200 55.51700 39.47000
C  9.67400 58.31300 40.09500
O  10.81800 58.56100 39.75900
C  8.83800 59.47100 40.25200
N  4.81500 55.46100 40.48900
C  5.31500 56.71400 40.61100
C  4.20000 57.74200 40.97600
C  2.92700 56.83300 40.94600
C  3.59200 55.46300 40.94300
C  4.35100 58.69000 42.11700
C  1.92000 57.02500 39.75000
C  0.55800 56.47000 39.91400
N  4.54200 52.66000 40.61900
C  3.30300 52.95500 41.09600
C  2.54000 51.75700 41.34000
C  3.47000 50.78700 41.07500
C  4.69300 51.37600 40.58700
C  1.13200 51.53500 41.83600
C  3.68900 49.34300 41.05300
O  2.91400 48.42100 41.41000
C  5.02400 49.10700 40.43000
C  4.67100 48.37300 39.14500
O  4.17200 48.88100 38.13500
O  4.91500 47.01200 39.24900
C  4.44900 46.24700 38.12500
H  10.66000 53.03900 39.98000
H  6.73500 58.18100 40.32800
H  1.75200 54.39900 41.45900
H  7.96400 49.12300 40.51900
H  10.16500 50.62900 39.11000
H  10.49400 51.33700 41.76600
H  11.34000 49.92600 40.94500
H  9.77100 49.73900 41.83400
H  7.34500 48.35700 38.28000
H  9.03500 48.68100 38.05000
H  8.66500 49.97700 36.40200
H  7.83500 51.08900 37.42600
H  11.62100 55.45400 38.39100
H  11.91500 54.68500 40.02500
H  12.05500 56.39300 39.77500
H  8.06800 59.71400 39.52000
H  9.60500 60.24100 40.32600
H  8.30400 59.47700 41.20200
H  4.20600 58.42300 40.12500
H  2.35000 56.77100 41.86900
H  3.55100 58.59200 42.85100
H  4.31600 59.66000 41.62100
H  5.27100 58.50100 42.67100
H  2.35600 56.44400 38.93800
H  1.94400 58.06700 39.43000
H  -0.18900 57.16300 39.52700
H  0.23100 56.32300 40.94400
H  0.53100 55.54000 39.34500
H  0.41300 51.87100 41.08900
H  0.81100 52.02400 42.75600
H  0.99600 50.47000 42.02500
H  5.58600 48.42600 41.06900
H  5.00000 45.30800 38.19200
H  4.55700 46.73800 37.15800
H  3.38800 46.02800 38.24300

