158

Mg 24.59800 -5.31600 45.48400
C  26.90600 -3.13200 43.84200
C  22.21700 -4.30900 43.43200
C  22.83900 -7.94100 46.50300
C  27.52300 -6.62200 47.27800
N  24.66000 -3.92400 43.79500
C  25.59000 -3.06300 43.34900
C  25.06300 -2.09600 42.25500
C  23.51200 -2.27000 42.52600
C  23.42300 -3.57800 43.32100
C  22.90400 -1.10000 43.26400
C  25.72600 -2.73000 40.91400
C  26.44200 -1.73000 40.01800
H  26.17000 -1.99400 38.50600
N  22.72900 -6.08200 44.90600
C  21.88200 -5.52200 44.08300
C  20.63000 -6.25300 44.10200
C  20.76700 -7.28600 45.12100
C  22.10200 -7.06700 45.62400
C  19.44900 -5.97400 43.10100
C  19.73700 -8.40300 45.47000
O  18.64400 -8.44300 44.89300
C  19.89200 -9.29400 46.72600
N  25.12200 -7.08500 46.69600
C  24.10400 -7.89800 47.06100
C  24.76200 -9.07300 47.87400
C  26.16300 -8.53700 48.35400
C  26.30400 -7.39500 47.41600
C  23.85800 -9.69200 48.92500
C  27.27300 -9.59500 48.20100
C  28.37600 -9.70000 49.28900
N  26.76100 -4.86100 45.74000
C  27.76900 -5.50400 46.40200
C  29.04700 -4.86100 46.18700
C  28.75500 -3.84000 45.28000
C  27.36300 -3.96900 44.92800
C  30.33800 -5.17100 46.88900
C  29.34200 -2.77600 44.48600
O  30.49700 -2.34400 44.39800
C  28.16500 -2.33000 43.43300
C  27.92900 -0.85800 43.55700
O  27.08400 -0.32500 44.25300
O  28.64000 -0.25600 42.53100
C  28.24800 1.15900 42.34100
H  21.36800 -3.84400 42.92700
H  22.40200 -8.92700 46.67600
H  28.30200 -7.11900 47.86000
H  25.37300 -1.08200 42.51000
H  22.98600 -2.45600 41.59000
H  21.90500 -0.93300 42.86300
H  23.42800 -0.15300 43.13500
H  22.87100 -1.13000 44.35300
H  24.92600 -3.14900 40.30200
H  26.40600 -3.55800 41.11100
H  27.50900 -1.91200 40.14800
H  26.18700 -0.72600 40.35700
H  18.47700 -6.25000 43.51000
H  19.69300 -6.44400 42.14800
H  19.28700 -4.92500 42.85000
H  20.46300 -8.68400 47.42500
H  20.28100 -10.27500 46.45400
H  18.89800 -9.32200 47.17400
H  24.97600 -9.75800 47.05400
H  26.09500 -8.17700 49.38100
H  22.90800 -9.17200 48.80300
H  24.23800 -9.71500 49.94600
H  23.74900 -10.69500 48.51200
H  27.77900 -9.42800 47.25000
H  26.85400 -10.60200 48.19600
H  28.46200 -10.72100 49.66000
H  28.13900 -9.04800 50.13000
H  29.32400 -9.21900 49.04700
H  30.14400 -5.13400 47.96100
H  31.07200 -4.40500 46.64100
H  30.58300 -6.19600 46.60800
H  28.60400 -2.57000 42.46500
H  27.29300 1.45400 42.77500
H  28.09500 1.41600 41.29200
H  28.98800 1.89000 42.66800
Mg 9.42700 48.91700 24.76500
C  7.01600 49.63200 27.06200
C  11.84200 50.36100 26.97400
C  11.88700 48.13600 22.55200
C  7.01700 48.54000 22.35900
N  9.43000 49.81000 26.81400
C  8.25800 49.98800 27.61900
C  8.63900 50.56900 28.99100
C  10.16300 50.80700 28.89400
C  10.49400 50.35800 27.47600
C  10.62900 52.28300 29.29400
C  8.02100 49.85300 30.26100
C  8.86600 49.81600 31.61600
H  9.12500 48.38100 32.29500
N  11.61500 49.18500 24.79700
C  12.37600 49.76500 25.76500
C  13.79500 49.61600 25.36100
C  13.75500 48.84200 24.10300
C  12.36300 48.60900 23.81900
C  14.94000 49.97000 26.20300
C  14.93900 48.39300 23.25200
O  14.70300 47.74800 22.25300
C  16.36100 48.63600 23.63600
N  9.50100 48.43400 22.74000
C  10.60900 48.06100 22.06000
C  10.18000 47.65400 20.63700
C  8.65100 48.10400 20.51800
C  8.36200 48.30400 21.96600
C  11.03700 48.05800 19.42800
C  7.80800 47.07600 19.82900
C  7.34700 47.37500 18.41000
N  7.38000 48.92800 24.66400
C  6.51300 48.82700 23.58600
C  5.17400 48.86100 24.08800
C  5.35900 49.14300 25.44600
C  6.70500 49.28300 25.72700
C  3.87800 48.55600 23.31800
C  4.60100 49.37400 26.69600
O  3.42500 49.29500 27.01400
C  5.63400 49.79700 27.79600
C  5.50900 48.83200 28.86400
O  5.88900 47.65300 28.77500
O  4.87700 49.39900 29.96900
C  4.54100 48.37800 30.96300
H  12.56200 50.91800 27.57700
H  12.54600 47.90200 21.71400
H  6.21700 48.54500 21.61500
H  8.19700 51.56300 29.05700
H  10.64900 50.07900 29.54300
H  11.44100 52.08000 29.99300
H  9.73300 52.80100 29.63500
H  11.19000 52.76600 28.49400
H  7.75500 48.85100 29.92400
H  7.19500 50.52300 30.50000
H  8.27700 50.26000 32.41900
H  9.81900 50.34400 31.57900
H  14.68800 50.38200 27.18100
H  15.57800 50.73300 25.75700
H  15.51900 49.07400 26.42300
H  16.60500 48.34400 24.65700
H  16.56900 49.69000 23.45200
H  17.05700 48.09000 22.99900
H  10.16200 46.57800 20.80900
H  8.62000 49.08800 20.05000
H  12.02400 48.39800 19.74000
H  10.60700 48.86200 18.82900
H  11.14500 47.18600 18.78300
H  7.01200 46.78300 20.51300
H  8.42100 46.22200 19.54000
H  7.00500 48.40900 18.45200
H  6.58400 46.63700 18.16200
H  8.10100 47.41000 17.62400
H  3.55000 47.55000 23.58100
H  4.00500 48.64300 22.23900
H  3.16500 49.35200 23.53300
H  5.45700 50.81600 28.14200
H  3.88100 47.62900 30.52600
H  4.02200 48.94300 31.73700
H  5.45900 47.93600 31.35100

