158

Mg 26.15000 1.73500 29.70600
C  28.20200 1.21300 32.64200
C  23.38700 2.31500 31.95800
C  24.14100 1.76900 27.14400
C  28.95500 0.78100 27.84800
N  25.88700 1.82400 32.01700
C  26.89700 1.65000 33.00000
C  26.40900 1.95900 34.44700
C  24.81600 2.10800 34.14600
C  24.64300 2.13400 32.61500
C  23.99500 1.04200 34.85300
C  26.99600 3.40000 34.93800
C  27.68400 3.33100 36.30900
H  27.19700 4.29000 37.42600
N  24.04600 2.10200 29.53400
C  23.12200 2.29700 30.51500
C  21.81100 2.56500 29.86500
C  21.96400 2.24300 28.44100
C  23.38400 1.98900 28.28400
C  20.57800 2.94700 30.55000
C  20.85400 2.12800 27.36100
O  21.19200 1.79000 26.23800
C  19.34400 2.34000 27.69900
N  26.44100 1.05600 27.77400
C  25.49700 1.46900 26.93400
C  26.07500 1.32400 25.50000
C  27.61100 1.51500 25.75700
C  27.70600 1.05200 27.19300
C  25.72400 -0.01400 24.75100
C  28.08100 3.03800 25.52700
C  29.18100 3.09800 24.42900
N  28.08300 0.96400 30.12700
C  29.13000 0.65700 29.23000
C  30.35200 0.25500 29.97100
C  29.95700 0.50300 31.30700
C  28.62900 1.00800 31.36600
C  31.69200 -0.21600 29.40900
C  30.42400 0.31800 32.64500
O  31.50800 -0.14600 33.07600
C  29.41200 0.91200 33.56800
C  29.14700 0.06800 34.77500
O  28.30900 -0.84500 34.85900
O  30.01100 0.51200 35.82400
C  29.75200 -0.16000 37.11800
H  22.53500 2.58000 32.58800
H  23.56100 1.92000 26.23100
H  29.85500 0.93600 27.24900
H  26.63400 1.22400 35.22100
H  24.48000 3.11600 34.38900
H  24.68500 0.39500 35.39600
H  23.50100 0.38600 34.13600
H  23.36900 1.61600 35.53700
H  26.24200 4.18600 34.97800
H  27.64800 3.86200 34.19700
H  28.75100 3.50800 36.17600
H  27.61900 2.30800 36.68000
H  19.88200 2.10800 30.56900
H  20.09300 3.80200 30.08100
H  20.85200 3.15400 31.58500
H  18.89000 1.52300 28.26000
H  18.80800 2.36200 26.75000
H  19.25100 3.30700 28.19500
H  25.68900 2.17000 24.93200
H  28.07800 0.84100 25.03900
H  26.53300 -0.66700 24.42600
H  25.20700 0.27900 23.83800
H  25.06600 -0.58700 25.40400
H  28.37000 3.44800 26.49500
H  27.22700 3.59000 25.13400
H  28.83400 3.73900 23.61800
H  29.45700 2.17400 23.92200
H  30.07200 3.56500 24.85000
H  32.34400 0.62000 29.15600
H  31.59700 -0.82700 28.51100
H  32.10800 -0.85800 30.18500
H  29.89000 1.86000 33.81300
H  29.65900 -1.23700 36.97300
H  28.81000 0.06300 37.61800
H  30.58500 0.10400 37.77000
Mg 47.80900 16.10700 28.57500
C  45.78600 15.57000 31.35800
C  50.06200 17.70900 30.64200
C  49.62900 16.94300 25.78900
C  45.35600 14.63500 26.50200
N  47.84600 16.69000 30.77000
C  47.02600 16.26900 31.72500
C  47.54600 16.61200 33.10400
C  48.75900 17.53300 32.81000
C  48.87700 17.31900 31.32800
C  48.43500 19.03000 33.03000
C  47.85800 15.42200 34.00100
C  47.07500 15.26900 35.36000
H  46.72400 16.60500 35.93400
N  49.61800 17.10400 28.23800
C  50.42400 17.66600 29.25700
C  51.65700 18.07000 28.69100
C  51.51000 17.89800 27.27400
C  50.19900 17.25500 27.03900
C  52.77000 18.65900 29.48300
C  52.47700 18.17100 26.13000
O  52.25600 17.77200 24.99700
C  53.72100 18.86600 26.36700
N  47.49400 15.90900 26.38200
C  48.42500 16.28800 25.48800
C  47.70300 16.28200 24.11200
C  46.62400 15.15600 24.38600
C  46.50200 15.13900 25.86700
C  47.15100 17.68200 23.71500
C  46.90300 13.80200 23.69200
C  47.44600 12.64500 24.53600
N  45.97100 15.24100 28.83800
C  45.05700 14.66800 27.87400
C  43.85900 14.26200 28.58500
C  44.07800 14.68200 29.89100
C  45.38100 15.25800 30.02400
C  42.63600 13.66100 28.02200
C  43.42700 14.67200 31.27300
O  42.31400 14.26300 31.61600
C  44.60500 15.28700 32.24300
C  44.08200 16.54200 32.89500
O  44.32500 17.70600 32.59300
O  43.14900 16.13100 33.80900
C  42.56100 17.21800 34.63100
H  50.71300 18.30900 31.28100
H  50.06800 17.28300 24.84900
H  44.64600 14.16500 25.81900
H  46.73600 17.25800 33.44200
H  49.68000 17.24000 33.31300
H  47.53700 19.29100 33.59100
H  48.31700 19.56000 32.08500
H  49.26600 19.45800 33.59100
H  48.92300 15.32700 34.21100
H  47.56500 14.55800 33.40400
H  47.69700 14.70800 36.05800
H  46.15600 14.69300 35.25400
H  52.69100 19.74600 29.47400
H  53.77300 18.40800 29.13700
H  52.79500 18.23300 30.48600
H  53.45400 19.75100 26.94500
H  54.21200 19.22300 25.46200
H  54.53400 18.23200 26.72300
H  48.35400 15.96800 23.29600
H  45.63300 15.43100 24.02600
H  46.07900 17.57000 23.55700
H  47.56800 18.02000 22.76600
H  47.36500 18.39800 24.50800
H  47.48400 13.83400 22.77100
H  45.99100 13.41100 23.24100
H  46.70500 11.90300 24.83500
H  47.93700 12.94000 25.46400
H  48.20900 12.20400 23.89500
H  42.83200 13.00200 27.17600
H  41.95100 14.46700 27.75900
H  42.10300 13.08900 28.78200
H  44.93600 14.49400 32.91300
H  41.47400 17.18900 34.54700
H  42.89500 18.23400 34.42100
H  42.81500 16.94800 35.65600

