158

Mg 9.31000 2.92700 27.76000
C  10.63800 1.59100 30.58000
C  7.21100 4.93100 29.75200
C  7.54200 3.95900 25.02300
C  10.86400 0.58000 25.83300
N  9.05400 3.17500 29.93600
C  9.70200 2.53000 30.90200
C  9.30300 3.12400 32.23800
C  8.10500 4.05800 31.90000
C  8.13000 4.07900 30.38600
C  6.69500 3.70800 32.56900
C  10.49600 3.83300 32.90600
C  10.96400 3.42900 34.28700
H  9.93200 3.18600 35.44500
N  7.66400 4.35900 27.37700
C  6.98400 5.04800 28.36900
C  5.96500 5.92000 27.71600
C  6.10000 5.69000 26.33800
C  7.11000 4.62500 26.19700
C  5.27000 7.09500 28.50600
C  5.41700 6.32400 25.11100
O  5.66200 6.08700 23.93200
C  4.26700 7.25000 25.46500
N  9.29000 2.42400 25.67400
C  8.45400 2.99100 24.72000
C  8.75500 2.37900 23.34800
C  9.90000 1.25800 23.60800
C  10.07000 1.41600 25.12000
C  7.53700 2.01300 22.58200
C  11.13500 1.41800 22.77000
C  11.32700 0.16600 21.92800
N  10.57300 1.40700 28.07900
C  11.21900 0.50600 27.17800
C  12.13600 -0.29600 27.90100
C  11.96800 0.09000 29.24900
C  10.96400 1.06400 29.30400
C  13.13400 -1.25100 27.36300
C  12.36000 -0.17800 30.58100
O  13.11400 -0.97700 31.00600
C  11.59100 0.81200 31.45600
C  10.87200 0.05000 32.66200
O  9.81400 -0.51300 32.64200
O  11.67400 0.12200 33.81300
C  11.37700 -0.68100 35.00000
H  6.78400 5.65800 30.44700
H  7.21500 4.51700 24.14300
H  11.33700 -0.19000 25.22000
H  8.96000 2.35000 32.92400
H  8.29900 5.04800 32.31400
H  6.50300 4.59000 33.18000
H  6.90700 2.89100 33.25900
H  5.94200 3.36700 31.85800
H  10.22200 4.88200 33.02100
H  11.35100 3.81800 32.23000
H  11.62000 4.21900 34.65200
H  11.59100 2.56900 34.05300
H  5.65000 8.06500 28.18600
H  5.45100 7.19400 29.57600
H  4.23600 7.10000 28.16000
H  3.47300 6.68700 25.95500
H  3.72500 7.61200 24.59200
H  4.58400 8.14400 26.00100
H  9.23400 3.21500 22.83900
H  9.35700 0.34200 23.37700
H  7.34300 1.05200 22.10500
H  7.54700 2.69900 21.73500
H  6.67500 2.22500 23.21400
H  12.04500 1.47800 23.36700
H  10.97500 2.28900 22.13400
H  11.19600 0.38500 20.86800
H  10.75400 -0.72600 22.18300
H  12.36100 -0.17600 21.96900
H  13.27900 -1.08400 26.29500
H  12.77700 -2.28000 27.39000
H  14.07300 -1.14700 27.90700
H  12.34200 1.49800 31.84700
H  11.53100 -0.03600 35.86600
H  12.12600 -1.45800 35.15300
H  10.33400 -0.98700 35.09000
Mg 17.61800 -1.91300 27.09200
C  16.64600 0.11900 29.73500
C  19.30200 -3.83900 29.28500
C  18.67700 -3.62500 24.50800
C  16.01300 0.30000 24.85900
N  18.27900 -1.52500 29.30700
C  17.42200 -0.95100 30.18000
C  17.85600 -1.32400 31.68100
C  18.95700 -2.40400 31.45000
C  18.92800 -2.58300 29.91900
C  20.45500 -2.13200 31.95200
C  16.62900 -1.57400 32.58200
C  16.46300 -0.70500 33.80300
H  17.77300 -0.49500 34.55000
N  18.78900 -3.55800 26.94500
C  19.36600 -4.27500 27.93900
C  19.97800 -5.46500 27.46000
C  19.76300 -5.47800 26.07500
C  19.09400 -4.16500 25.77300
C  20.64900 -6.49800 28.33400
C  19.98000 -6.55500 25.01100
O  19.45400 -6.55800 23.90800
C  20.72800 -7.80700 25.21100
N  17.36400 -1.67800 24.96400
C  17.92000 -2.53300 24.11800
C  17.79300 -2.06900 22.58300
C  16.73600 -0.88200 22.76800
C  16.67100 -0.75600 24.26800
C  19.18700 -1.71900 22.03500
C  15.30900 -0.83700 22.10100
C  15.18800 0.25600 21.05900
N  16.54100 -0.11200 27.21800
C  15.95400 0.66500 26.22600
C  15.15400 1.67500 26.82400
C  15.41200 1.54200 28.21400
C  16.32900 0.49400 28.37600
C  14.17700 2.67500 26.12800
C  15.07500 2.04000 29.45300
O  14.44800 3.02700 29.76600
C  15.94100 1.17400 30.55600
C  16.83900 2.00900 31.45400
O  17.99200 2.29900 31.16400
O  16.14400 2.51500 32.57100
C  17.06800 3.23100 33.45500
H  19.76200 -4.63100 29.87900
H  19.02000 -4.19200 23.64100
H  15.62600 0.97200 24.09000
H  18.35900 -0.46600 32.12600
H  18.65400 -3.29900 31.99300
H  20.48100 -1.14400 32.41100
H  21.18700 -2.06600 31.14700
H  20.78200 -2.87000 32.68500
H  16.70900 -2.60100 32.93800
H  15.74600 -1.43700 31.95600
H  15.72300 -1.18200 34.44500
H  16.04100 0.29000 33.66100
H  21.19500 -7.23200 27.74100
H  19.85800 -6.99100 28.89800
H  21.32400 -6.12700 29.10500
H  21.64700 -7.65600 25.77800
H  21.08400 -8.16100 24.24400
H  20.05800 -8.46200 25.76800
H  17.36400 -2.91100 22.03900
H  17.27100 0.03500 22.52000
H  19.23300 -0.69300 21.67000
H  19.43500 -2.29500 21.14300
H  20.00000 -1.86800 22.74600
H  14.51400 -0.57100 22.79700
H  15.11200 -1.79200 21.61300
H  16.09400 0.83500 20.87300
H  14.35300 0.94000 21.21200
H  15.07300 -0.24700 20.09800
H  14.61000 3.04100 25.19700
H  13.73400 3.40900 26.80100
H  13.34000 2.04500 25.82600
H  15.18400 0.67300 31.15900
H  17.65600 3.95000 32.88500
H  17.85000 2.56900 33.82800
H  16.60000 3.70600 34.31700

