158

Mg 44.31800 3.22400 47.39000
C  41.58000 5.12100 46.33600
C  42.17200 0.43100 47.46200
C  46.96500 1.19300 47.42000
C  46.33000 6.02700 47.15400
N  42.08400 2.87300 46.95400
C  41.15700 3.79800 46.60000
C  39.76100 3.19000 46.38600
C  39.95000 1.76100 47.13900
C  41.48700 1.62700 47.12300
C  39.16300 1.74600 48.50300
C  39.39100 3.06800 44.89100
C  37.93700 3.42700 44.40300
H  37.96000 4.52100 43.26000
N  44.56600 1.16900 47.51900
C  43.57800 0.17800 47.55200
C  44.12700 -1.13100 47.71800
C  45.54000 -0.88200 47.84600
C  45.77600 0.52100 47.50400
C  43.35600 -2.41400 48.00200
C  46.60200 -1.90200 48.26100
O  46.26900 -3.05600 48.53600
C  48.04300 -1.62000 48.41300
N  46.33700 3.54000 47.51900
C  47.27900 2.54800 47.42200
C  48.70900 3.20900 47.41000
C  48.40900 4.68500 47.67800
C  46.92900 4.78800 47.39700
C  49.69800 2.54700 48.44000
C  49.29400 5.68500 46.84600
C  49.57900 7.00600 47.57300
N  44.05200 5.18800 46.92500
C  44.97100 6.18100 46.79400
C  44.35100 7.40400 46.38500
C  42.97900 7.06300 46.18600
C  42.85000 5.68600 46.49600
C  45.02500 8.73500 46.14400
C  41.69900 7.55100 45.79800
O  41.34100 8.68900 45.44700
C  40.74200 6.34700 45.94700
C  39.71700 6.64000 46.97600
O  40.07700 6.83000 48.13800
O  38.45500 6.48400 46.40700
C  37.47100 6.42900 47.50900
H  41.56700 -0.41600 47.79200
H  47.90100 0.65500 47.25800
H  46.92000 6.94400 47.08000
H  39.04400 3.80400 46.93100
H  39.51500 0.95400 46.54900
H  39.85700 1.56700 49.32400
H  38.48900 0.89700 48.39800
H  38.57600 2.63900 48.72100
H  39.52800 2.01500 44.64700
H  40.12500 3.68800 44.37700
H  37.24800 3.74100 45.18700
H  37.53400 2.49000 44.01800
H  42.31100 -2.60400 47.75600
H  43.47800 -2.68500 49.05100
H  43.95600 -3.09400 47.39700
H  48.60100 -1.60900 47.47600
H  48.52800 -2.42300 48.96800
H  48.24400 -0.77300 49.07000
H  49.01800 3.10400 46.37000
H  48.51200 4.90900 48.74000
H  50.53100 2.08900 47.90800
H  49.20800 1.66900 48.86000
H  50.12100 3.22500 49.18200
H  48.77200 5.98400 45.93700
H  50.20500 5.14300 46.59200
H  49.65900 7.79300 46.82300
H  50.49500 6.90400 48.15600
H  48.74500 7.21800 48.24200
H  44.45000 9.36700 45.46800
H  46.01500 8.53700 45.73300
H  45.24700 9.12700 47.13700
H  40.16200 6.06000 45.07000
H  37.46400 7.45900 47.86700
H  37.84000 5.77200 48.29600
H  36.44900 6.12500 47.28100
Mg 26.21100 50.49600 26.19900
C  23.92500 51.68700 28.60000
C  28.45700 49.74900 28.76600
C  28.44300 49.65700 23.92400
C  24.08300 51.67800 23.70200
N  26.18400 50.83000 28.35900
C  25.09700 51.10000 29.13000
C  25.43100 50.81300 30.57900
C  27.00300 50.62400 30.66200
C  27.28800 50.40800 29.14600
C  27.86500 51.72900 31.21700
C  24.63000 49.69100 31.30900
C  24.00000 50.12500 32.67000
H  25.05700 50.58400 33.71500
N  28.10900 49.65000 26.33400
C  28.86900 49.40300 27.45800
C  30.07600 48.82700 27.06200
C  30.17300 48.89500 25.62800
C  28.86000 49.37400 25.19100
C  31.27500 48.42500 27.94700
C  31.32400 48.66800 24.71000
O  31.24600 48.74200 23.46500
C  32.78400 48.35500 25.18600
N  26.27100 50.65200 24.11100
C  27.29200 50.32500 23.37700
C  26.99800 50.36700 21.83200
C  25.47400 50.80800 21.80800
C  25.22800 51.05600 23.31800
C  27.90300 51.28500 20.98300
C  24.37300 49.84100 21.23500
C  23.79700 48.73500 21.99700
N  24.33100 51.58300 26.08800
C  23.62500 52.00500 25.02600
C  22.39800 52.61000 25.50000
C  22.44400 52.55300 26.87000
C  23.65100 51.89800 27.23300
C  21.39700 53.39300 24.58700
C  21.76200 52.89900 28.19300
O  20.66700 53.45200 28.32200
C  22.68400 52.25700 29.32300
C  23.12700 53.30000 30.22700
O  23.96300 54.19400 29.93700
O  22.48900 53.13200 31.47800
C  22.92500 54.00900 32.58500
H  29.05100 49.29500 29.56200
H  29.11300 49.30800 23.13500
H  23.49100 52.08800 22.88100
H  25.20500 51.71100 31.15400
H  27.19900 49.66600 31.14400
H  27.26900 52.64100 31.25500
H  28.75500 51.78900 30.59100
H  28.12900 51.52900 32.25500
H  25.11900 48.71800 31.35800
H  23.85700 49.41700 30.59200
H  23.60000 49.16300 32.98900
H  23.23700 50.90200 32.61500
H  30.99600 48.33600 28.99700
H  32.04100 49.19800 27.88300
H  31.70900 47.43900 27.77900
H  33.00200 49.06200 25.98700
H  33.48000 48.41300 24.34900
H  32.85600 47.32700 25.54100
H  27.06800 49.38400 21.36600
H  25.33900 51.85100 21.52300
H  28.75200 50.81100 20.49000
H  28.31000 52.03500 21.66100
H  27.45900 51.91400 20.21100
H  24.87000 49.34500 20.40000
H  23.63600 50.40900 20.66800
H  24.08500 48.68200 23.04600
H  24.06900 47.77100 21.56700
H  22.72600 48.90500 21.88500
H  21.41800 53.11900 23.53300
H  21.59500 54.46500 24.55800
H  20.44600 53.08700 25.02300
H  22.25000 51.49300 29.96800
H  23.00400 55.02100 32.18800
H  23.88000 53.71500 33.02200
H  22.25100 54.01700 33.44200

