158

Mg 25.49500 0.16100 28.76400
C  27.45000 -0.23900 31.80800
C  22.80400 0.61200 30.71900
C  23.72300 0.51200 25.91200
C  28.44300 -0.26400 26.96600
N  25.21400 0.19700 31.04800
C  26.13600 0.13100 32.07900
C  25.47600 0.38500 33.48000
C  23.99800 0.75100 33.10200
C  24.01700 0.51500 31.52500
C  22.86000 0.14200 33.92300
C  26.18100 1.48000 34.29600
C  26.91900 1.11100 35.54800
H  26.60900 1.85600 36.86200
N  23.53900 0.40300 28.39700
C  22.55400 0.53900 29.32700
C  21.24800 0.77800 28.66300
C  21.48600 0.79300 27.23500
C  22.95900 0.51000 27.08500
C  19.93700 1.11000 29.37800
C  20.55700 1.00500 26.07300
O  20.95200 0.80300 24.94800
C  19.22600 1.52800 26.25000
N  25.99800 -0.08600 26.68400
C  25.10700 0.26800 25.74500
C  25.68700 0.24500 24.33400
C  27.24700 0.13900 24.63600
C  27.28800 0.01700 26.23100
C  25.26900 -1.07300 23.67900
C  28.03000 1.43200 24.13500
C  29.21200 1.22100 23.11500
N  27.47000 -0.29600 29.20100
C  28.58000 -0.46600 28.33800
C  29.79300 -0.66900 29.09600
C  29.31200 -0.51300 30.41200
C  27.95700 -0.30700 30.48200
C  31.25500 -0.84800 28.71600
C  29.88300 -0.54900 31.73900
O  31.02700 -0.77500 32.17700
C  28.67900 -0.28400 32.71300
C  28.61200 -1.34100 33.77900
O  27.87900 -2.35600 33.74300
O  29.35800 -1.02300 34.88400
C  29.17200 -1.84300 36.02800
H  21.90600 0.89700 31.27000
H  23.21400 0.66000 24.95700
H  29.40600 -0.27400 26.45100
H  25.56500 -0.52500 34.07400
H  23.83200 1.81900 33.25000
H  22.23500 -0.45100 33.25500
H  22.20200 0.92700 34.29500
H  23.24800 -0.40700 34.78100
H  25.49100 2.19400 34.74600
H  26.82900 1.91400 33.53400
H  27.97000 1.33900 35.37100
H  26.91000 0.03200 35.70600
H  19.81100 2.17200 29.16800
H  20.00500 0.94300 30.45300
H  19.02900 0.64900 28.99000
H  18.81400 1.45700 25.24300
H  19.24200 2.60100 26.44300
H  18.58200 0.96600 26.92700
H  25.34500 1.06200 23.69700
H  27.74800 -0.75200 24.25600
H  26.01600 -1.86500 23.64400
H  25.02400 -0.84200 22.64200
H  24.36400 -1.58400 24.00800
H  28.50800 1.89400 24.99900
H  27.28900 2.12700 23.74100
H  28.83500 1.38500 22.10500
H  29.55900 0.18800 23.07300
H  30.09600 1.84000 23.26700
H  31.44700 -0.13100 27.91800
H  31.39000 -1.88800 28.42000
H  31.84000 -0.59800 29.60000
H  28.86000 0.57200 33.36300
H  30.02000 -1.53600 36.63900
H  29.17000 -2.89200 35.73100
H  28.26300 -1.48200 36.50800
Mg 47.30900 24.73500 28.90600
C  48.19300 26.97000 31.37700
C  46.63100 22.38600 31.27400
C  46.89000 22.42300 26.50600
C  48.58700 26.97400 26.55900
N  47.29100 24.76700 31.11500
C  47.74500 25.75700 31.88300
C  47.50700 25.52700 33.38600
C  46.98500 24.01600 33.35900
C  46.97100 23.66900 31.79900
C  47.74200 23.05600 34.33300
C  46.59000 26.64000 34.14800
C  45.87600 26.15400 35.39400
H  45.72600 27.14700 36.57800
N  46.98300 22.63200 28.89800
C  46.57700 21.90400 29.99200
C  46.08900 20.58300 29.54500
C  46.24900 20.50300 28.14900
C  46.72300 21.86300 27.79100
C  45.54300 19.43200 30.52700
C  45.97100 19.34600 27.22100
O  46.31400 19.39600 26.01400
C  45.40900 18.12800 27.76500
N  47.69400 24.72100 26.79800
C  47.25000 23.65200 25.99400
C  47.49900 24.00300 24.45100
C  47.81800 25.50800 24.53800
C  48.06200 25.76500 26.04400
C  48.65800 23.16300 23.83000
C  46.69100 26.34000 23.88000
C  46.77500 26.57600 22.31200
N  48.20700 26.55600 28.91900
C  48.67400 27.37500 27.86700
C  49.08500 28.63600 28.36500
C  48.88400 28.53100 29.73300
C  48.37400 27.24200 30.02400
C  49.63100 29.74700 27.49300
C  49.11800 29.21500 30.97300
O  49.50100 30.35600 31.12500
C  48.70400 28.24500 32.07500
C  49.88800 28.00100 32.98800
O  50.93900 27.39200 32.67900
O  49.53200 28.47200 34.22200
C  50.48800 28.42400 35.29300
H  46.41200 21.67600 32.07500
H  46.71100 21.87200 25.58100
H  48.85300 27.66100 25.75400
H  48.41400 25.61700 33.98500
H  45.95300 23.87000 33.67900
H  48.34800 22.22600 33.97000
H  46.99400 22.61800 34.99300
H  48.35300 23.63100 35.02900
H  45.79700 27.03000 33.51000
H  47.10700 27.58000 34.34100
H  46.38200 25.26000 35.75700
H  44.88100 25.80400 35.11800
H  44.53600 19.06900 30.32500
H  45.57400 19.80600 31.55000
H  46.23800 18.59400 30.46500
H  46.14000 17.66700 28.42900
H  45.32900 17.47900 26.89300
H  44.44800 18.44100 28.17300
H  46.55800 23.61400 24.06100
H  48.76200 25.72000 24.03600
H  49.45000 23.81600 23.46300
H  48.32900 22.59300 22.96100
H  49.17200 22.52900 24.55200
H  46.57500 27.27100 24.43500
H  45.70800 25.92200 24.09600
H  45.81000 26.29700 21.88900
H  47.54500 26.01400 21.78300
H  47.02800 27.63400 22.23300
H  50.65800 29.41400 27.34600
H  49.62200 30.61500 28.15300
H  49.05300 29.89700 26.58100
H  47.86400 28.67600 32.62000
H  51.50800 28.35000 34.91800
H  50.18500 27.51000 35.80400
H  50.38100 29.27700 35.96500

