158

Mg 9.36300 4.93800 28.39300
C  10.75200 3.20900 31.11100
C  7.36700 6.59400 30.44200
C  8.10400 6.58900 25.75400
C  11.27400 2.97700 26.15100
N  9.32900 4.99000 30.62900
C  9.91200 4.18900 31.55700
C  9.40200 4.46500 32.96000
C  8.31700 5.59700 32.75800
C  8.26200 5.69000 31.17800
C  6.89200 5.33500 33.44500
C  10.60400 4.90300 33.82300
C  10.31500 5.88100 34.97500
H  11.01100 5.73600 36.34500
N  7.80100 6.34500 28.08700
C  7.12400 6.91000 29.08000
C  6.10600 7.76100 28.49000
C  6.42900 7.86700 27.07700
C  7.47400 6.90700 26.92200
C  5.09200 8.36400 29.41500
C  5.82700 8.71700 26.02300
O  6.22900 8.87800 24.91600
C  4.65900 9.51700 26.50900
N  9.45900 4.61300 26.18200
C  9.00500 5.61100 25.40900
C  9.35900 5.41300 23.97000
C  10.67600 4.49500 24.07600
C  10.48600 3.95300 25.54500
C  8.21300 4.98700 23.06100
C  11.99100 5.26000 23.80000
C  12.28000 6.48200 24.67400
N  10.61700 3.34200 28.55200
C  11.30700 2.62700 27.53900
C  12.06100 1.60800 28.17100
C  11.89600 1.83200 29.55500
C  11.04100 2.89900 29.71700
C  12.77200 0.37000 27.57000
C  12.24400 1.28500 30.83000
O  12.97800 0.30600 31.10100
C  11.51600 2.17500 31.95600
C  10.57900 1.23900 32.65300
O  9.85100 0.46300 32.01900
O  10.88900 1.11400 33.98200
C  10.04000 0.22100 34.66400
H  6.75600 7.28200 31.02900
H  7.92000 7.19900 24.86700
H  11.88700 2.40000 25.45500
H  9.02700 3.51300 33.33500
H  8.75100 6.53700 33.10000
H  6.15200 5.19400 32.65800
H  6.71000 6.20100 34.08200
H  6.97900 4.43300 34.05100
H  11.23200 5.46200 33.13000
H  11.12100 3.99900 34.14300
H  9.28300 6.09800 35.25000
H  10.64900 6.87600 34.68200
H  4.92700 7.80700 30.33700
H  4.12400 8.43000 28.91900
H  5.48100 9.33300 29.72800
H  4.31300 10.12400 25.67300
H  4.86700 10.27100 27.26900
H  3.85400 8.87900 26.87300
H  9.73400 6.39600 23.68600
H  10.60300 3.77200 23.26400
H  8.15100 3.98600 22.63300
H  8.18500 5.71400 22.24900
H  7.26100 5.05800 23.58600
H  11.91500 5.66500 22.79100
H  12.75500 4.48900 23.69900
H  11.48700 6.66300 25.40000
H  12.42100 7.31300 23.98300
H  13.22000 6.25700 25.17900
H  12.07800 -0.05200 26.84300
H  13.06800 -0.35000 28.33300
H  13.68200 0.65100 27.04200
H  12.25700 2.65600 32.59400
H  9.16500 0.63000 35.16800
H  10.62700 -0.19700 35.48200
H  9.82600 -0.63600 34.02600
Mg 8.57300 48.11000 26.26700
C  7.01600 48.06600 29.23100
C  11.42000 49.54800 27.82200
C  10.33600 48.06200 23.27700
C  5.68900 47.45600 24.56700
N  9.20700 48.69300 28.32800
C  8.37900 48.31400 29.37000
C  9.07400 48.75400 30.70800
C  10.29300 49.69000 30.15100
C  10.38500 49.32200 28.74200
C  10.03500 51.20800 30.27700
C  9.48900 47.64300 31.67900
C  9.04900 47.94600 33.15800
H  8.85200 46.74900 34.10300
N  10.58900 48.58100 25.61200
C  11.58200 49.11100 26.46700
C  12.80800 49.12800 25.64900
C  12.50800 48.71600 24.37600
C  11.05400 48.43900 24.35800
C  14.15500 49.50300 26.26100
C  13.50400 48.58200 23.21100
O  13.14400 48.21900 22.03100
C  14.96700 48.77700 23.50800
N  8.13300 47.99600 24.21900
C  9.01200 47.82600 23.19700
C  8.28100 47.54900 21.89000
C  6.79200 47.30600 22.29200
C  6.88000 47.60500 23.78300
C  8.42700 48.66000 20.73600
C  6.31000 45.85700 21.92200
C  6.80000 44.66300 22.72400
N  6.64400 47.97500 26.73700
C  5.57700 47.69600 25.96500
C  4.35400 47.75600 26.77800
C  4.93000 47.84800 28.09000
C  6.31600 47.99600 28.01600
C  2.95400 47.49600 26.32000
C  4.58400 47.86000 29.50800
O  3.49500 47.86400 30.08800
C  5.97300 48.01500 30.29300
C  6.06800 46.81200 31.18600
O  6.80800 45.88100 31.00300
O  5.35000 47.08100 32.34700
C  5.22600 45.92000 33.24100
H  12.24100 50.09400 28.29200
H  10.83800 48.06500 22.30700
H  4.82300 47.00200 24.08000
H  8.37000 49.42800 31.19600
H  11.29600 49.47600 30.52200
H  9.70100 51.58300 29.31000
H  10.91900 51.80700 30.49400
H  9.27600 51.57500 30.96800
H  10.57500 47.72200 31.63300
H  9.19700 46.66100 31.30600
H  8.17100 48.58900 33.21100
H  9.88500 48.50000 33.58400
H  14.92300 48.74800 26.42500
H  13.90400 49.73900 27.29600
H  14.56200 50.42700 25.85000
H  15.55300 48.32000 22.71000
H  15.30300 48.30100 24.42900
H  14.93700 49.86500 23.56200
H  8.71900 46.71700 21.34000
H  6.04700 47.98400 21.87400
H  9.15700 49.37000 21.12600
H  7.47200 49.11300 20.47100
H  8.76800 48.12800 19.84800
H  6.70200 45.68300 20.92000
H  5.22600 45.96300 21.97900
H  7.56000 44.16400 22.12200
H  6.05200 43.89500 22.92300
H  7.20700 44.98800 23.68100
H  2.57900 48.28600 25.66900
H  2.36700 47.29000 27.21500
H  2.89300 46.59700 25.70700
H  5.94400 48.92800 30.88700
H  4.18600 45.63300 33.08500
H  5.43000 46.29300 34.24400
H  5.86200 45.06800 32.99800

