158

Mg -2.13800 18.25900 27.22400
C  -2.54600 15.91800 29.69500
C  -2.54300 20.74100 29.47100
C  -1.71600 20.44500 24.64100
C  -2.01400 15.50600 24.86700
N  -2.40000 18.27700 29.33900
C  -2.58900 17.25800 30.16700
C  -2.65900 17.76100 31.62100
C  -3.12000 19.18200 31.38300
C  -2.68300 19.42200 29.94600
C  -4.62100 19.51800 31.70300
C  -1.41100 17.68700 32.48000
C  -1.62300 17.20000 33.92500
H  -0.40700 16.88300 34.82000
N  -2.13400 20.30300 27.08900
C  -2.23300 21.16600 28.15500
C  -1.98800 22.52500 27.73700
C  -1.72800 22.43000 26.31200
C  -1.80200 21.02500 25.92000
C  -2.09000 23.74100 28.62000
C  -1.51100 23.57700 25.29900
O  -1.49900 23.54000 24.10800
C  -1.19900 24.87200 25.83400
N  -1.86200 17.95800 25.15100
C  -1.72600 19.05500 24.30900
C  -1.61100 18.53700 22.84200
C  -1.70400 17.08000 22.95600
C  -1.86500 16.80900 24.40900
C  -2.70400 19.16000 21.93200
C  -0.50000 16.37200 22.32500
C  0.73700 16.29200 23.14800
N  -2.44100 16.10000 27.24100
C  -2.23400 15.16400 26.22300
C  -2.35700 13.84200 26.80100
C  -2.60000 14.10000 28.22200
C  -2.49100 15.47200 28.36300
C  -2.20100 12.63600 25.99000
C  -2.85500 13.44000 29.54000
O  -2.95000 12.24600 29.84800
C  -2.87100 14.62300 30.50200
C  -1.68100 14.48200 31.40100
O  -0.48200 14.62000 31.12800
O  -2.09500 13.91700 32.62000
C  -1.07100 13.51900 33.55100
H  -2.72100 21.44000 30.29100
H  -1.62700 21.09500 23.76800
H  -2.09000 14.66400 24.17600
H  -3.51200 17.29700 32.11500
H  -2.54100 19.85600 32.01400
H  -5.13200 18.63100 32.07600
H  -5.13000 19.89400 30.81600
H  -4.61500 20.31000 32.45200
H  -0.94400 18.66800 32.56600
H  -0.63900 17.03200 32.07600
H  -2.33600 16.40300 33.71500
H  -2.17000 17.97500 34.46100
H  -1.23600 24.35500 28.90400
H  -2.56000 23.38300 29.53600
H  -2.85200 24.32900 28.10800
H  -1.97600 25.47900 26.29800
H  -0.64600 25.42300 25.07300
H  -0.36500 24.65600 26.50200
H  -0.70400 18.96500 22.41500
H  -2.61000 16.68700 22.49400
H  -3.34900 18.36400 21.56000
H  -2.30900 19.73900 21.09700
H  -3.25600 19.93400 22.46700
H  -0.30700 16.90900 21.39600
H  -0.84500 15.36200 22.10700
H  0.71900 16.75700 24.13300
H  1.59200 16.66400 22.58400
H  1.04900 15.25400 23.25300
H  -1.57200 11.89300 26.48100
H  -1.57000 12.81400 25.11900
H  -3.17100 12.26300 25.66200
H  -3.79100 14.71700 31.07900
H  -1.50800 12.83200 34.27600
H  -0.65900 14.34800 34.12800
H  -0.26300 12.97500 33.06300
Mg 24.92400 -5.83500 46.30400
C  26.33800 -2.85700 44.85800
C  22.16700 -5.30000 44.30100
C  24.00600 -8.85300 47.09600
C  27.98800 -6.26700 47.89600
N  24.37500 -4.22500 44.67600
C  25.06300 -3.15300 44.32600
C  24.37700 -2.45000 43.23600
C  22.90600 -3.03500 43.31200
C  23.11700 -4.24400 44.14300
C  21.86500 -2.03800 43.97500
C  25.07700 -2.73900 41.86400
C  25.21000 -1.54600 40.97000
H  24.99000 -1.65100 39.44200
N  23.25600 -6.86700 45.90600
C  22.25000 -6.50200 45.02300
C  21.25400 -7.55200 44.96500
C  21.76300 -8.63800 45.69200
C  23.11400 -8.21400 46.18700
C  19.86100 -7.50500 44.19100
C  21.09100 -9.99500 45.94500
O  19.96200 -10.04300 45.62100
C  21.93500 -11.23400 46.44600
N  25.89000 -7.26800 47.33200
C  25.22200 -8.40600 47.55100
C  26.07500 -9.23500 48.61700
C  27.34800 -8.39100 48.83200
C  27.07900 -7.24800 47.96800
C  25.32700 -9.78900 49.89400
C  28.64900 -9.20700 48.49400
C  29.61200 -9.38200 49.65900
N  26.78800 -4.70400 46.43100
C  27.93400 -5.03800 47.15100
C  28.95500 -4.05400 47.00500
C  28.32900 -3.17100 46.02800
C  27.05700 -3.64300 45.72300
C  30.30600 -3.99800 47.66600
C  28.65400 -1.94700 45.31800
O  29.61300 -1.18300 45.33100
C  27.28900 -1.69100 44.50700
C  26.76000 -0.27600 44.89000
O  25.54700 -0.04700 45.17800
O  27.77500 0.72000 44.85500
C  27.32800 2.07200 45.32700
H  21.29300 -5.24100 43.64900
H  23.67500 -9.81400 47.49500
H  28.87300 -6.28600 48.53500
H  24.38900 -1.37100 43.39500
H  22.66400 -3.32200 42.28900
H  21.61200 -1.30900 43.20500
H  22.34500 -1.49400 44.78800
H  21.05100 -2.69100 44.28700
H  24.54900 -3.57300 41.40100
H  26.07600 -3.13900 42.03400
H  26.29000 -1.40200 40.99600
H  24.63400 -0.67600 41.28500
H  18.98700 -7.80100 44.77100
H  19.92300 -8.19300 43.34700
H  19.67300 -6.58000 43.64500
H  21.36600 -12.10500 46.12000
H  21.94700 -11.21200 47.53500
H  22.86500 -11.28800 45.88000
H  26.29200 -10.07300 47.95500
H  27.50800 -8.09100 49.86800
H  25.53000 -10.79800 50.25300
H  24.25800 -9.67900 49.71300
H  25.43300 -9.14800 50.77000
H  29.12000 -8.77800 47.60900
H  28.45800 -10.22500 48.15400
H  29.96700 -10.41300 49.64900
H  29.19100 -9.20400 50.64900
H  30.43200 -8.68000 49.50900
H  30.27100 -3.28000 48.48500
H  31.07100 -3.51800 47.05600
H  30.58900 -4.99700 48.00000
H  27.48800 -1.58100 43.44100
H  27.23300 2.21600 46.40300
H  26.35900 2.41100 44.96000
H  27.98900 2.81800 44.88400

