158

Mg -1.56100 18.10700 26.87300
C  -2.34700 15.90600 29.61400
C  -2.10500 20.80000 28.99300
C  -1.53600 20.18400 24.26000
C  -2.14600 15.43200 24.79400
N  -2.20200 18.25500 29.04300
C  -2.34600 17.31400 29.96800
C  -2.30300 17.86800 31.41200
C  -2.64600 19.37700 31.14200
C  -2.22300 19.50800 29.66200
C  -4.19600 19.68300 31.16600
C  -1.05600 17.65500 32.35700
C  -1.39500 17.11700 33.70200
H  -0.29700 16.91700 34.73800
N  -1.73100 20.18800 26.67400
C  -1.77300 21.15200 27.68900
C  -1.43600 22.44100 27.15400
C  -1.30400 22.35300 25.75000
C  -1.42500 20.84000 25.53000
C  -1.46900 23.57900 28.02200
C  -0.94200 23.37200 24.68800
O  -0.87700 23.08400 23.48200
C  -0.63800 24.71600 25.12300
N  -1.86700 17.77600 24.81500
C  -1.81700 18.86200 23.91500
C  -1.97300 18.34900 22.48000
C  -2.05100 16.77400 22.67400
C  -2.19300 16.66900 24.16100
C  -3.25400 18.82900 21.67100
C  -0.72600 16.03000 22.16800
C  -0.89700 14.53600 21.59100
N  -1.88500 16.01200 27.11500
C  -2.04900 15.09500 26.13400
C  -2.33500 13.80200 26.88900
C  -2.37700 14.09800 28.24800
C  -2.14500 15.48400 28.30200
C  -2.68100 12.51100 26.12100
C  -2.62800 13.47500 29.48000
O  -2.69500 12.30800 29.86800
C  -2.47900 14.69000 30.46200
C  -1.28100 14.44700 31.33200
O  -0.08800 14.75900 31.01000
O  -1.54600 13.68600 32.37700
C  -0.33500 13.19700 33.12200
H  -2.13800 21.61000 29.72500
H  -1.50600 20.80300 23.36100
H  -2.46200 14.59900 24.16300
H  -3.11200 17.46900 32.02400
H  -2.03000 20.09500 31.68400
H  -4.57700 19.77400 30.14900
H  -4.33800 20.68000 31.58300
H  -4.77400 18.94500 31.72300
H  -0.72700 18.65000 32.65500
H  -0.23700 17.09500 31.90500
H  -1.94600 16.18800 33.55400
H  -2.09800 17.84200 34.11100
H  -1.49400 23.31800 29.08000
H  -2.39700 24.07300 27.73700
H  -0.56000 24.16500 27.88700
H  -0.59000 25.47300 24.34000
H  0.30900 24.57300 25.64300
H  -1.35100 25.08400 25.86000
H  -1.18400 18.72200 21.82700
H  -2.92600 16.31500 22.21300
H  -3.50600 19.75600 22.18500
H  -3.98500 18.03300 21.81400
H  -3.06900 19.09500 20.63100
H  0.01200 15.86700 22.95300
H  -0.29100 16.62700 21.36700
H  -0.27000 13.84600 22.15500
H  -0.57300 14.35000 20.56700
H  -1.96300 14.31000 21.61100
H  -3.44600 12.69300 25.36500
H  -3.02400 11.74400 26.81600
H  -1.79000 12.22400 25.56300
H  -3.29600 14.72200 31.18300
H  -0.61900 13.29700 34.16900
H  0.55900 13.76900 32.87700
H  -0.21600 12.14700 32.85600
Mg 44.85800 3.97400 48.58300
C  42.92600 6.87900 47.71200
C  42.22200 2.03700 47.90300
C  46.97200 1.53200 48.37600
C  47.71300 6.25500 48.52000
N  42.86900 4.39800 47.69800
C  42.27800 5.65700 47.62800
C  40.80600 5.50700 47.15600
C  40.50000 3.97700 47.39200
C  41.93300 3.42700 47.71600
C  39.47100 3.72100 48.57100
C  40.65700 6.03100 45.72900
C  39.68000 7.18400 45.58200
H  38.62900 6.72500 44.45000
N  44.59100 2.02000 48.27700
C  43.46600 1.34900 48.04900
C  43.71000 -0.05800 47.96100
C  45.11800 -0.21800 48.14800
C  45.65400 1.13400 48.24600
C  42.70500 -1.01000 47.66600
C  45.82700 -1.52700 48.22400
O  45.30400 -2.61100 47.93900
C  47.40700 -1.65200 48.60900
N  47.03600 3.95500 48.76400
C  47.59600 2.70600 48.61500
C  49.10700 2.79000 48.53500
C  49.36500 4.33000 48.63200
C  47.96600 4.88400 48.66500
C  49.78500 1.89200 49.55000
C  50.30400 4.97600 47.58100
C  51.70400 5.39600 48.02900
N  45.28500 6.12300 48.26600
C  46.44400 6.90100 48.28400
C  46.11900 8.31700 48.12800
C  44.71400 8.33400 47.88500
C  44.28500 7.02500 48.03100
C  47.14100 9.53200 47.99100
C  43.63800 9.22400 47.68300
O  43.59500 10.43300 47.49700
C  42.38900 8.30600 47.56900
C  41.36700 8.67500 48.68300
O  41.53000 8.28500 49.83200
O  40.25800 9.32400 48.23900
C  39.20900 9.75500 49.17100
H  41.34300 1.38900 47.88700
H  47.74200 0.76600 48.26000
H  48.50600 7.00400 48.47200
H  40.14100 6.05600 47.82200
H  40.15500 3.43800 46.50900
H  39.09500 4.60400 49.08700
H  39.97900 3.09600 49.30600
H  38.57500 3.14600 48.33900
H  40.29800 5.18900 45.13700
H  41.59500 6.39000 45.30400
H  40.04900 8.10400 45.13000
H  39.20100 7.45100 46.52400
H  43.06900 -1.81800 47.03100
H  41.77200 -0.65100 47.23000
H  42.47400 -1.53700 48.59100
H  47.60400 -0.96600 49.43300
H  47.97500 -1.42600 47.70600
H  47.80700 -2.62100 48.90800
H  49.41100 2.45300 47.54400
H  49.79400 4.40800 49.63100
H  50.42000 2.39000 50.28300
H  50.47900 1.17400 49.11200
H  49.10600 1.41400 50.25600
H  49.89100 5.77900 46.96900
H  50.54800 4.13000 46.93900
H  51.71800 6.46100 47.79700
H  52.37200 4.83700 47.37300
H  51.90300 5.24700 49.09000
H  48.09700 9.22800 48.41700
H  46.74100 10.42300 48.47500
H  47.22700 9.69400 46.91700
H  41.95400 8.62500 46.62200
H  38.34000 9.10500 49.06600
H  38.92000 10.78700 48.97100
H  39.52500 9.69000 50.21200

