158

Mg 17.50300 -2.40600 27.89000
C  16.33300 -0.31600 30.45900
C  19.38100 -4.17300 30.11200
C  18.95300 -3.97600 25.16900
C  16.12000 -0.15900 25.64900
N  17.80100 -2.26000 30.06200
C  17.15900 -1.36000 30.91100
C  17.56500 -1.67000 32.33300
C  18.61500 -2.83500 32.22100
C  18.60900 -3.14500 30.70700
C  19.99800 -2.38300 32.72500
C  16.27300 -2.05100 33.13100
C  16.09400 -1.35500 34.52300
H  17.31700 -0.91700 35.30800
N  18.80100 -3.98600 27.68700
C  19.52000 -4.56100 28.74400
C  20.42100 -5.53100 28.25400
C  20.26300 -5.53300 26.80000
C  19.30700 -4.45600 26.49100
C  21.42400 -6.29600 29.19700
C  20.86600 -6.42000 25.75100
O  20.56900 -6.31500 24.57200
C  21.99200 -7.44000 26.14100
N  17.53200 -2.17800 25.69800
C  18.15000 -2.92500 24.81500
C  17.99100 -2.45900 23.33100
C  17.06500 -1.33800 23.59100
C  16.83200 -1.22600 25.09100
C  19.37000 -2.04300 22.61300
C  15.81700 -1.25300 22.68900
C  14.49200 -1.91300 23.16400
N  16.40400 -0.64600 28.01000
C  15.82400 0.05700 27.00700
C  14.85900 0.95500 27.53300
C  15.11100 0.91500 28.92500
C  16.03900 -0.08200 29.11800
C  13.94200 1.88500 26.85400
C  14.79300 1.58300 30.25400
O  14.14900 2.64200 30.46400
C  15.50500 0.74600 31.26100
C  16.40800 1.67800 31.99900
O  17.53800 2.06400 31.60800
O  15.74500 2.13900 33.10200
C  16.56100 3.06400 33.86000
H  20.03800 -4.70000 30.80700
H  19.34800 -4.32400 24.21200
H  15.56400 0.53100 25.01100
H  17.99600 -0.70800 32.60900
H  18.26600 -3.62500 32.88600
H  20.55700 -2.01000 31.86700
H  20.47200 -3.24700 33.19100
H  19.79400 -1.55000 33.39700
H  16.11600 -3.12700 33.21100
H  15.40900 -1.75200 32.53800
H  15.50300 -1.99000 35.18200
H  15.40000 -0.52700 34.37600
H  22.27600 -6.79700 28.73600
H  20.81200 -6.95600 29.81100
H  21.78000 -5.39800 29.70200
H  22.84400 -6.95400 26.61500
H  22.17100 -8.04000 25.24800
H  21.48900 -7.91700 26.98200
H  17.52100 -3.23800 22.73000
H  17.64600 -0.44500 23.35700
H  20.26900 -2.28100 23.18300
H  19.45700 -0.97800 22.39700
H  19.56600 -2.61500 21.70600
H  16.17100 -1.75100 21.78700
H  15.50200 -0.29000 22.28700
H  13.61200 -1.27100 23.19400
H  14.54000 -2.50000 24.08200
H  14.10200 -2.56500 22.38300
H  13.36200 2.17200 27.73100
H  13.29300 1.28200 26.21900
H  14.48500 2.75000 26.47500
H  14.75900 0.36900 31.96000
H  16.16800 3.35200 34.83500
H  16.61100 3.99200 33.29100
H  17.64300 2.92700 33.88300
Mg -0.19800 42.62500 26.35600
C  2.04100 42.77400 29.04900
C  -2.76400 42.02100 28.56400
C  -2.20200 42.04500 23.75900
C  2.55100 43.02000 24.21800
N  -0.30800 42.40800 28.61800
C  0.70900 42.61600 29.49000
C  0.10000 42.87000 30.95500
C  -1.39500 42.49200 30.69800
C  -1.51900 42.32300 29.20400
C  -1.80900 41.18100 31.41900
C  0.41700 44.25800 31.48600
C  0.86000 44.33700 33.00800
H  0.66800 43.09500 33.86100
N  -2.16700 42.19300 26.15000
C  -3.12200 42.00700 27.16900
C  -4.43000 41.85800 26.62700
C  -4.26500 41.85600 25.17600
C  -2.82700 42.00600 24.99900
C  -5.73500 41.66000 27.46400
C  -5.28100 41.72100 24.13700
O  -5.00100 41.58200 22.96200
C  -6.74600 41.77100 24.46100
N  0.19700 42.43000 24.28000
C  -0.82100 42.20600 23.40800
C  -0.28500 42.29000 21.92300
C  1.21900 42.68100 22.06700
C  1.35600 42.70200 23.62700
C  -0.54500 40.88100 21.27600
C  1.48200 44.10900 21.37700
C  0.97800 45.30800 22.19900
N  1.86300 42.81700 26.55200
C  2.84700 43.03500 25.58900
C  4.13200 43.24000 26.21600
C  3.85300 43.02800 27.59300
C  2.48000 42.85300 27.73100
C  5.39700 43.64100 25.60100
C  4.49400 42.90200 28.85400
O  5.68200 42.88400 29.11600
C  3.32100 42.75000 29.85700
C  3.52400 41.38300 30.49000
O  2.70700 40.49800 30.33100
O  4.42900 41.42200 31.46200
C  4.15900 40.51400 32.59900
H  -3.60100 42.04000 29.26400
H  -2.73100 42.06400 22.80400
H  3.42900 43.28900 23.62600
H  0.58400 42.06600 31.50800
H  -2.10300 43.26900 30.98400
H  -1.12200 40.88200 32.21100
H  -1.87200 40.24900 30.85700
H  -2.73600 41.38500 31.95300
H  -0.45000 44.88400 31.27700
H  1.24500 44.54800 30.83900
H  0.24400 45.16200 33.36500
H  1.86900 44.72400 33.15100
H  -6.13200 42.67200 27.54300
H  -5.53400 41.22500 28.44300
H  -6.39300 40.90800 27.02700
H  -7.34000 42.02800 23.58400
H  -6.80000 42.45000 25.31200
H  -7.13500 40.77500 24.67100
H  -0.81800 42.98000 21.27000
H  1.90700 41.99700 21.57000
H  0.35200 40.41300 20.87000
H  -1.16200 41.11000 20.40700
H  -1.13900 40.20800 21.89400
H  0.99000 44.09800 20.40400
H  2.52200 44.19400 21.06400
H  1.76000 46.02900 22.44000
H  0.46300 44.88800 23.06200
H  0.24200 45.66800 21.48000
H  5.39900 44.72300 25.73700
H  5.37500 43.37900 24.54400
H  6.32900 43.21100 25.96700
H  3.38300 43.50000 30.64500
H  4.12200 39.44700 32.38000
H  3.19200 40.77900 33.02600
H  4.86500 40.73100 33.40100

