158

Mg 41.25500 7.24500 28.79700
C  42.97100 8.33800 31.67500
C  38.95800 5.88900 31.11500
C  39.91000 5.55300 26.27800
C  43.87700 8.25800 26.79000
N  41.07700 7.15600 31.23400
C  41.82400 7.81100 32.16000
C  41.09100 7.89900 33.48800
C  39.89700 6.86300 33.26700
C  39.92200 6.60300 31.80900
C  39.94700 5.55000 34.17600
C  40.68700 9.30100 33.80100
C  39.90800 9.53700 35.06300
H  40.52000 10.48000 36.12300
N  39.56000 6.08100 28.68000
C  38.81700 5.59800 29.74900
C  37.69300 4.81900 29.18800
C  37.82700 4.88200 27.76400
C  39.20800 5.45300 27.46200
C  36.58400 4.22800 30.04900
C  36.94600 4.47200 26.58600
O  37.18800 4.42900 25.40600
C  35.55200 4.03300 26.94700
N  42.00000 6.66100 26.97700
C  41.21300 6.02600 26.07500
C  41.74800 6.11800 24.61300
C  42.99200 7.04700 24.76300
C  42.91100 7.37700 26.27700
C  41.87900 4.69500 23.99200
C  42.97800 8.26200 23.84300
C  41.87200 9.28700 24.13400
N  43.00000 8.07700 29.10700
C  43.92800 8.60000 28.16900
C  44.85700 9.37900 28.83300
C  44.47100 9.40500 30.18000
C  43.43000 8.50200 30.32400
C  46.05900 9.85000 28.09400
C  44.90700 9.88000 31.50300
O  45.88500 10.56600 31.86200
C  43.84700 9.23900 32.45800
C  44.43100 8.57200 33.61000
O  45.20400 7.59300 33.60100
O  44.05800 9.24600 34.73300
C  44.61500 8.83900 35.97500
H  38.16900 5.53500 31.78200
H  39.52200 5.11800 25.35500
H  44.64400 8.68700 26.14100
H  41.87900 7.48900 34.12000
H  38.97200 7.40300 33.46800
H  40.78800 5.67500 34.85800
H  39.96900 4.64700 33.56600
H  39.03600 5.48000 34.77100
H  40.19600 9.73800 32.93200
H  41.50800 9.99400 33.98300
H  39.56800 8.59400 35.49200
H  39.02300 10.10700 34.78100
H  36.28200 3.25900 29.65200
H  35.76700 4.93600 30.19200
H  36.98800 4.02700 31.04100
H  35.47500 3.07900 27.47000
H  35.03100 3.92200 25.99600
H  34.95300 4.78500 27.46100
H  41.13700 6.76800 23.98600
H  43.90800 6.45900 24.71700
H  41.45100 4.59500 22.99500
H  41.33700 4.05500 24.68900
H  42.85500 4.26900 24.22500
H  42.94300 7.81700 22.84800
H  43.90800 8.82500 23.76300
H  41.32100 9.11800 25.06000
H  41.14900 9.27200 23.31800
H  42.35900 10.26100 24.09600
H  46.64100 10.40300 28.83200
H  45.86700 10.44500 27.20100
H  46.60500 8.93700 27.85900
H  43.19000 10.02300 32.83500
H  43.88100 8.64800 36.75800
H  45.30300 9.65400 36.19800
H  45.09700 7.86200 35.93800
Mg 46.91200 44.83700 42.80200
C  43.84300 43.39500 42.36500
C  48.40000 41.89600 41.67400
C  49.81500 46.55800 42.20400
C  45.25000 48.04700 43.28900
N  46.19900 42.87100 41.95900
C  44.91100 42.47400 42.09300
C  44.76800 40.90200 41.94200
C  46.26300 40.46700 41.85500
C  47.01800 41.83300 41.81900
C  46.82800 39.74700 43.07400
C  43.97500 40.43400 40.67200
C  44.07500 41.32900 39.43300
H  44.07900 40.75500 38.02100
N  48.82800 44.30000 42.14100
C  49.22200 42.99800 41.81300
C  50.63500 43.02200 41.41500
C  51.04300 44.38300 41.49300
C  49.88200 45.17300 41.92000
C  51.43200 41.75600 40.93500
C  52.32000 44.85900 40.98400
O  53.14200 44.07000 40.50100
C  52.77000 46.32400 41.00700
N  47.44500 47.03000 42.72000
C  48.74100 47.36100 42.60800
C  48.95300 48.84400 42.99100
C  47.52300 49.22800 43.55800
C  46.67000 48.04600 43.15000
C  49.97700 49.25100 43.89100
C  46.86100 50.53000 42.97400
C  46.58100 51.74000 43.87300
N  44.98800 45.58800 42.96500
C  44.46600 46.87100 43.18500
C  43.03000 46.74400 43.26300
C  42.71600 45.37100 42.96100
C  43.95000 44.75600 42.70500
C  42.20100 47.96100 43.68600
C  41.68500 44.43000 42.86900
O  40.46400 44.54000 43.08700
C  42.34400 43.08600 42.52400
C  42.06700 42.11600 43.61800
O  42.20300 42.27000 44.81500
O  41.57900 40.95200 43.13900
C  40.93700 39.95000 44.03500
H  48.82900 40.90700 41.50400
H  50.79200 47.04400 42.24900
H  44.75200 48.94300 43.66500
H  44.23100 40.52200 42.81100
H  46.32500 39.83700 40.96800
H  45.98800 39.15500 43.43900
H  46.94100 40.40300 43.93700
H  47.72400 39.21000 42.76400
H  42.98000 40.22400 41.06400
H  44.34300 39.45100 40.37500
H  44.96000 41.96000 39.52600
H  43.24700 42.03800 39.45200
H  52.06600 41.97400 40.07600
H  50.69800 41.01600 40.61700
H  52.15300 41.39700 41.67000
H  51.94800 46.91200 40.59700
H  53.54200 46.44000 40.24600
H  53.15100 46.66800 41.96800
H  49.06900 49.38500 42.05200
H  47.54300 49.31500 44.64500
H  49.65700 49.74600 44.80800
H  50.59600 49.93200 43.30700
H  50.43600 48.33100 44.25200
H  45.97400 50.43400 42.34800
H  47.56600 50.88400 42.22100
H  47.27000 52.55900 43.66800
H  46.70200 51.46800 44.92100
H  45.59300 52.15500 43.67200
H  42.53300 48.07900 44.71700
H  41.11500 47.87300 43.67700
H  42.59600 48.75200 43.04900
H  41.85600 42.78500 41.59800
H  41.44000 39.81000 44.99200
H  40.89600 39.01600 43.47500
H  39.89600 40.24100 44.17400

