158

Mg -0.55300 6.93800 26.41300
C  0.29000 8.99700 29.07700
C  -0.93800 4.27400 28.53500
C  -0.97700 4.79400 23.75300
C  0.41600 9.45100 24.16200
N  -0.35300 6.62400 28.59400
C  -0.00100 7.66300 29.53000
C  -0.09900 7.16900 30.94000
C  -0.32000 5.58000 30.71600
C  -0.46400 5.43400 29.20800
C  0.75700 4.59100 31.34100
C  -1.14400 7.92400 31.75100
C  -0.96200 8.00700 33.31700
H  0.25500 7.29600 33.94300
N  -0.86600 4.79500 26.13700
C  -0.95300 3.90500 27.19500
C  -1.22000 2.56500 26.67600
C  -1.30600 2.66800 25.29200
C  -1.11500 4.13700 25.01100
C  -1.43800 1.33900 27.59200
C  -1.52200 1.58400 24.19100
O  -1.70200 1.83500 23.00300
C  -1.53600 0.14600 24.47400
N  -0.22400 7.08300 24.22700
C  -0.55900 6.06600 23.37700
C  -0.59500 6.68300 21.95200
C  -0.11000 8.16700 22.08100
C  0.10300 8.23000 23.57800
C  0.16000 5.91500 20.89900
C  -1.15300 9.29500 21.62800
C  -2.45500 9.40600 22.47300
N  0.18000 8.80800 26.56200
C  0.44300 9.74700 25.57100
C  0.58700 11.01700 26.17900
C  0.64000 10.81600 27.58500
C  0.32800 9.42100 27.74300
C  0.73200 12.33000 25.40600
C  0.88600 11.41400 28.84500
O  1.17100 12.55000 29.15700
C  0.51500 10.28800 29.90000
C  1.77900 10.07200 30.76000
O  2.69200 9.28100 30.60200
O  1.71100 10.91100 31.85500
C  2.89000 10.76100 32.73000
H  -1.29000 3.45400 29.16400
H  -1.28400 4.22600 22.87200
H  0.61300 10.21100 23.40300
H  0.87600 7.37800 31.38000
H  -1.33600 5.32300 31.01500
H  1.37600 5.13200 32.05700
H  1.22500 4.05800 30.51400
H  0.11500 3.83200 31.78700
H  -2.08700 7.38800 31.64100
H  -1.46400 8.80800 31.19900
H  -1.87500 7.69000 33.82100
H  -0.89700 9.03200 33.68300
H  -2.17600 0.71800 27.08400
H  -1.83900 1.58100 28.57600
H  -0.49000 0.80300 27.63000
H  -2.49600 -0.06700 24.94400
H  -0.71600 -0.18700 25.11000
H  -1.64700 -0.35700 23.51300
H  -1.65000 6.74700 21.68800
H  0.90600 8.26900 21.69900
H  0.47700 4.93000 21.24400
H  1.03500 6.44900 20.52800
H  -0.47000 5.69300 20.03800
H  -1.43500 8.96000 20.63000
H  -0.62700 10.23600 21.46800
H  -3.26800 8.78300 22.10000
H  -2.87000 10.41100 22.40000
H  -2.32200 9.26700 23.54600
H  -0.10500 12.71600 24.82300
H  1.51700 12.09400 24.68700
H  1.07500 13.01900 26.17600
H  -0.25700 10.59500 30.60500
H  2.59100 10.97900 33.75500
H  3.43200 11.70400 32.65300
H  3.62800 9.95900 32.76400
Mg 43.68000 42.20800 26.55400
C  42.45500 44.63500 28.79900
C  44.73400 40.37100 29.22200
C  44.82000 40.01200 24.44400
C  43.13800 44.57800 23.99200
N  43.77400 42.64200 28.69300
C  43.04500 43.52200 29.38800
C  43.22200 43.29900 30.95800
C  43.88400 41.88900 31.08600
C  44.22600 41.64200 29.57100
C  45.19600 41.83500 31.95300
C  41.92300 43.38800 31.94900
C  42.14000 44.31100 33.09400
H  42.45400 43.67100 34.50400
N  44.50700 40.34600 26.82000
C  44.97600 39.78000 27.97100
C  45.40000 38.42000 27.74800
C  45.31100 38.26900 26.32900
C  44.86500 39.54300 25.75700
C  45.97000 37.59100 28.82900
C  45.64400 37.02400 25.50000
O  45.37700 36.90500 24.34200
C  46.44500 35.93900 26.10000
N  44.03300 42.37400 24.59300
C  44.50400 41.29600 23.91700
C  44.61500 41.56300 22.41600
C  43.88400 42.96300 22.23500
C  43.72200 43.34000 23.68400
C  46.14200 41.59000 22.08500
C  42.56100 42.95400 21.38400
C  41.21500 42.78800 21.97700
N  42.91700 44.29100 26.41400
C  42.66800 45.01800 25.25200
C  41.93000 46.18000 25.61900
C  41.84800 46.17800 27.05200
C  42.48800 44.99300 27.46500
C  41.64600 47.30200 24.57300
C  41.26200 46.84600 28.18000
O  40.63600 47.90200 28.25400
C  41.66300 45.80900 29.45200
C  42.41500 46.72700 30.41600
O  43.51900 47.20200 30.24000
O  41.58300 47.10400 31.43700
C  42.20300 47.97300 32.52600
H  45.16100 40.00200 30.15700
H  45.16000 39.29100 23.69800
H  42.85200 45.30700 23.23000
H  43.99700 44.04600 31.12900
H  43.20800 41.09400 31.40300
H  45.13600 42.74300 32.55400
H  46.10600 41.81300 31.35400
H  45.15700 41.04100 32.69900
H  41.66300 42.38900 32.29900
H  41.02300 43.70300 31.42100
H  41.16500 44.77900 33.22900
H  42.88900 45.08700 32.93800
H  47.01700 37.88900 28.78100
H  45.83600 36.52500 28.64500
H  45.63100 37.90600 29.81600
H  46.78900 35.18600 25.39100
H  45.85000 35.41600 26.84800
H  47.38000 36.31200 26.51700
H  43.94800 40.88000 21.89100
H  44.51300 43.64800 21.66800
H  46.83100 41.59700 22.92900
H  46.35200 42.55800 21.63000
H  46.37000 40.73400 21.45000
H  42.61600 42.22500 20.57500
H  42.50200 43.92000 20.88200
H  41.28800 42.60900 23.04900
H  40.64100 41.99000 21.50500
H  40.70900 43.74800 21.87500
H  41.23100 46.83000 23.68200
H  42.50400 47.93600 24.35000
H  40.85300 47.90100 25.02100
H  40.75700 45.42000 29.91800
H  43.20300 48.36800 32.34800
H  42.18900 47.53300 33.52400
H  41.39600 48.70500 32.55300

