158

Mg 35.85000 1.42900 30.19200
C  33.54400 2.53600 32.63400
C  38.04700 0.83300 32.66700
C  37.95600 0.86400 27.81100
C  33.28600 2.05700 27.79700
N  35.75500 1.77300 32.40400
C  34.70600 2.11300 33.20700
C  35.14400 2.05400 34.70700
C  36.71900 1.78800 34.61700
C  36.83300 1.34500 33.13000
C  37.62000 3.07300 34.90300
C  34.26400 1.07300 35.53000
C  33.86200 1.51600 36.93200
H  34.60800 2.72700 37.50100
N  37.77600 0.87700 30.21500
C  38.55700 0.62600 31.33800
C  39.86200 0.26300 30.91200
C  39.98100 0.39700 29.48300
C  38.53900 0.72400 29.12600
C  40.95200 -0.09900 32.04200
C  41.12700 0.07200 28.53800
O  40.93200 0.25000 27.32200
C  42.48400 -0.25600 29.11600
N  35.56900 1.25900 28.10800
C  36.68000 1.21000 27.35100
C  36.38200 1.27500 25.78900
C  34.80600 1.50200 25.78600
C  34.50500 1.60200 27.31900
C  37.20200 2.32900 24.95800
C  33.89000 0.35900 25.20800
C  32.91200 0.66300 24.08300
N  33.75600 2.12400 30.14800
C  32.85700 2.22300 29.11300
C  31.51600 2.65800 29.61500
C  31.78200 2.85800 31.00900
C  33.16900 2.56800 31.28300
C  30.22500 2.77700 28.88800
C  31.16800 3.24900 32.26200
O  30.01900 3.65000 32.47800
C  32.23200 2.98800 33.32600
C  32.49400 4.26800 34.12100
O  33.27400 5.15600 33.81800
O  31.67100 4.20400 35.21800
C  31.82500 5.38700 36.02900
H  38.74300 0.47200 33.42700
H  38.67000 0.78000 26.98900
H  32.59200 2.44900 27.05100
H  34.94100 3.08300 35.00500
H  37.09300 0.89100 35.11000
H  38.32700 3.27900 34.09900
H  38.21600 2.80100 35.77400
H  37.06200 3.98500 35.11300
H  34.82400 0.15600 35.71400
H  33.39500 0.76700 34.94700
H  34.08000 0.65900 37.57000
H  32.78000 1.61200 36.83800
H  41.78800 0.60000 32.07300
H  41.48100 -0.97000 31.65600
H  40.53800 -0.32600 33.02400
H  43.24200 -0.31100 28.33500
H  42.43000 -1.25300 29.55400
H  42.70000 0.46600 29.90400
H  36.59500 0.27400 25.41500
H  34.65000 2.45400 25.27800
H  37.52500 1.85800 24.03000
H  38.07400 2.52600 25.58200
H  36.66200 3.23800 24.69100
H  33.42300 -0.18300 26.03000
H  34.63100 -0.33300 24.80800
H  31.93000 0.24600 24.30800
H  33.10200 0.17400 23.12800
H  32.88600 1.73300 23.87900
H  29.48900 2.31900 29.54900
H  30.27400 2.11900 28.02100
H  29.90200 3.76000 28.54400
H  31.78200 2.28900 34.03100
H  31.25000 6.27300 35.75700
H  32.80900 5.85400 36.07800
H  31.56600 5.06600 37.03800
Mg 46.84200 24.91600 28.83600
C  47.32200 27.14600 31.38300
C  45.61500 22.54800 30.93900
C  46.88400 22.68000 26.34200
C  47.88600 27.41900 26.71100
N  46.47600 24.93700 30.88000
C  46.84600 25.85700 31.76800
C  46.44600 25.41200 33.16300
C  46.09200 23.98800 33.01400
C  45.98600 23.80800 31.45800
C  46.96700 22.92000 33.70900
C  45.39300 26.31700 33.81800
C  45.85200 26.95100 35.15000
H  44.87700 27.10300 36.31800
N  46.31000 22.86000 28.65200
C  45.64900 22.08400 29.64800
C  45.28300 20.75700 29.19300
C  45.71900 20.83500 27.77700
C  46.26100 22.16000 27.46800
C  44.74000 19.64700 30.12100
C  45.52600 19.77000 26.67600
O  45.84000 19.98400 25.55400
C  44.80600 18.42100 27.07400
N  47.53000 24.95900 26.85900
C  47.39100 23.94800 26.00500
C  48.01500 24.29800 24.63800
C  47.77900 25.83300 24.63700
C  47.60400 26.14300 26.13700
C  49.46100 23.89500 24.47800
C  46.57700 26.43400 23.82900
C  45.24400 26.59000 24.57400
N  47.60400 26.91900 28.99100
C  47.85000 27.83900 28.00800
C  48.28900 29.04300 28.65000
C  47.99900 28.88500 29.96300
C  47.61200 27.61900 30.09000
C  48.81900 30.29300 27.99300
C  47.98000 29.48400 31.31500
O  48.24200 30.61300 31.74000
C  47.72700 28.26700 32.33500
C  49.00700 28.06000 33.03900
O  50.05100 27.69900 32.51500
O  48.84900 28.36700 34.35500
C  49.97200 28.25600 35.25400
H  45.24200 21.94800 31.77200
H  46.94200 22.06700 25.44000
H  48.08300 28.24700 26.02700
H  47.31300 25.53400 33.81200
H  45.06900 23.81100 33.34500
H  47.17400 22.02100 33.12800
H  46.26800 22.72100 34.52100
H  47.90900 23.40600 33.96400
H  44.42300 25.85200 33.99500
H  45.19900 27.14100 33.13200
H  46.30200 27.91600 34.91700
H  46.62100 26.29000 35.54800
H  44.48500 20.13900 31.05900
H  45.45200 18.84900 30.33300
H  43.80900 19.31800 29.66000
H  43.99500 18.66400 27.76100
H  45.42900 17.84300 27.75700
H  44.40000 17.85200 26.23700
H  47.47300 23.93400 23.76400
H  48.63900 26.33700 24.19600
H  50.06100 24.80200 24.55600
H  49.76900 23.45800 23.52800
H  49.74600 23.19700 25.26600
H  46.35100 25.74800 23.01300
H  46.92800 27.44200 23.60600
H  45.23800 27.48400 25.19700
H  45.03400 25.77600 25.26700
H  44.39700 26.63400 23.89000
H  48.28100 31.10600 28.48000
H  48.71200 30.25200 26.90900
H  49.89700 30.29400 28.15800
H  46.97500 28.48000 33.09500
H  50.19700 29.22200 35.70700
H  50.89100 27.83500 34.84800
H  49.75000 27.61000 36.10300

