158

Mg 26.50400 50.93600 26.76100
C  24.21400 51.85100 29.42300
C  28.70400 50.10500 29.06500
C  28.74800 50.38600 24.13200
C  24.37500 52.34800 24.63800
N  26.53800 51.21000 29.04600
C  25.48300 51.39300 29.90400
C  25.90900 51.33700 31.36700
C  27.48300 51.03400 31.25900
C  27.58800 50.72200 29.72400
C  28.49000 52.13200 31.69100
C  25.11300 50.13200 32.11700
C  24.62400 50.31700 33.61900
H  25.58700 50.53800 34.83400
N  28.47500 50.27300 26.62700
C  29.25900 49.95500 27.71900
C  30.57300 49.50100 27.25500
C  30.52600 49.64500 25.88300
C  29.22400 50.14200 25.46000
C  31.60800 49.02700 28.27500
C  31.66300 49.26100 24.92800
O  31.55400 49.46900 23.73700
C  32.97500 48.67700 25.51400
N  26.60500 51.25100 24.69300
C  27.49700 50.91500 23.83400
C  27.06800 51.20500 22.38400
C  25.62600 51.63400 22.53400
C  25.57600 51.81400 24.05900
C  28.03000 52.23000 21.57500
C  24.47900 50.68600 22.18100
C  23.29800 51.31400 21.50200
N  24.74400 51.90000 26.92200
C  24.00500 52.48700 25.93600
C  22.73500 53.00300 26.38200
C  22.84200 52.80300 27.78100
C  24.03500 52.09300 28.08500
C  21.61800 53.41700 25.52600
C  22.12100 52.91000 29.01800
O  20.99000 53.26900 29.23300
C  22.93200 52.21900 30.03800
C  23.13900 53.16600 31.13000
O  23.74900 54.20700 30.99000
O  22.37100 52.89100 32.27400
C  22.44600 53.84300 33.40700
H  29.37200 49.83200 29.88500
H  29.44600 50.20100 23.31300
H  23.64900 52.73100 23.91800
H  25.65400 52.25100 31.90300
H  27.72900 50.09800 31.76100
H  28.00200 52.66500 32.50700
H  28.78400 52.79900 30.88100
H  29.28600 51.46200 32.01600
H  25.71400 49.22300 32.15300
H  24.27400 49.86200 31.47600
H  24.12800 49.38100 33.87700
H  23.86700 51.08900 33.75700
H  32.62200 49.39000 28.10600
H  31.75100 47.94800 28.22900
H  31.26500 49.26800 29.28100
H  33.71000 48.48600 24.73200
H  32.76800 47.66800 25.86900
H  33.34400 49.39900 26.24200
H  27.05500 50.20100 21.96100
H  25.45800 52.48700 21.87600
H  28.93900 52.58500 22.06100
H  27.48700 53.11400 21.24100
H  28.39700 51.69300 20.70000
H  24.11300 50.12400 23.04000
H  24.85100 49.92000 21.50000
H  23.07300 50.67800 20.64600
H  23.41800 52.37600 21.29000
H  22.38700 51.26500 22.09700
H  20.82700 53.83900 26.14600
H  21.28900 52.57500 24.91600
H  21.97300 54.24300 24.91000
H  22.39500 51.34600 30.40900
H  23.42200 53.73500 33.88000
H  21.63000 53.69300 34.11500
H  22.30600 54.87700 33.09300
Mg -5.28300 24.67800 25.84700
C  -3.71700 26.32900 28.48600
C  -6.72300 22.59300 28.28200
C  -7.02500 23.28800 23.48000
C  -3.50400 26.71500 23.62100
N  -5.23500 24.55700 28.12200
C  -4.60200 25.37600 28.97300
C  -5.12400 25.15600 30.43800
C  -5.83100 23.78100 30.29100
C  -5.93700 23.61200 28.77100
C  -5.01900 22.67900 31.04100
C  -6.05100 26.35600 30.86900
C  -6.02700 26.76200 32.32800
H  -5.61400 25.72500 33.40800
N  -6.72400 23.15500 25.89300
C  -7.19100 22.44500 26.93300
C  -8.25500 21.58500 26.45800
C  -8.29700 21.70600 25.07100
C  -7.36500 22.72600 24.75700
C  -9.10300 20.83100 27.47700
C  -9.22200 21.00800 24.03500
O  -9.31300 21.30000 22.82700
C  -10.18100 20.04000 24.60800
N  -5.20900 24.88500 23.78000
C  -6.10600 24.21100 23.00700
C  -5.87800 24.54700 21.50100
C  -4.80900 25.73700 21.57200
C  -4.51900 25.81300 23.03400
C  -5.18400 23.44100 20.55500
C  -5.25600 27.06900 21.03700
C  -4.37400 27.59300 19.92400
N  -3.88700 26.22100 25.98600
C  -3.27200 26.93200 24.99900
C  -2.45400 27.95500 25.64000
C  -2.52200 27.75700 27.00700
C  -3.41500 26.61800 27.12800
C  -1.67500 29.04600 25.04000
C  -2.06400 28.14900 28.37900
O  -1.33100 29.07000 28.69400
C  -2.76900 27.17900 29.38100
C  -1.81400 26.40300 30.19100
O  -1.00800 25.55000 29.80700
O  -1.99700 26.83900 31.43100
C  -1.30100 26.06600 32.45100
H  -7.05100 21.97300 29.11900
H  -7.64400 22.89200 22.67100
H  -2.84900 27.33600 23.00600
H  -4.26100 25.08900 31.10100
H  -6.83200 23.90300 30.70400
H  -5.08700 21.73800 30.49700
H  -5.53000 22.61300 32.00100
H  -3.99400 23.02300 31.17900
H  -7.07900 26.09200 30.62000
H  -5.78800 27.15300 30.17300
H  -6.99800 27.16100 32.62100
H  -5.30600 27.58000 32.33000
H  -10.15700 21.01400 27.26400
H  -8.95800 21.15200 28.50900
H  -8.94800 19.75400 27.41400
H  -9.71400 19.23400 25.17500
H  -10.74500 19.63800 23.76600
H  -10.84600 20.54900 25.30500
H  -6.81100 24.80800 21.00100
H  -3.82100 25.52700 21.16200
H  -5.88200 23.12200 19.78100
H  -4.85200 22.57200 21.12300
H  -4.28300 23.70800 20.00300
H  -5.49500 27.80500 21.80400
H  -6.15500 26.76700 20.49900
H  -4.91900 28.21100 19.21000
H  -3.98400 26.80500 19.28000
H  -3.52200 28.14700 20.32000
H  -1.40800 28.61400 24.07600
H  -0.85800 29.36300 25.68700
H  -2.26500 29.93300 24.80800
H  -3.37400 27.80600 30.03600
H  -0.73600 25.24700 32.00600
H  -2.15900 25.76500 33.05300
H  -0.70000 26.59300 33.19200

