158

Mg 30.73100 59.43000 38.86200
C  27.74600 57.94500 37.64700
C  32.52500 56.69600 37.84700
C  33.52100 61.25600 39.14700
C  28.77500 62.34400 39.40700
N  30.23100 57.66200 37.75600
C  28.96700 57.10700 37.48200
C  28.98000 55.69500 36.83100
C  30.46500 55.27200 37.19900
C  31.12100 56.61000 37.65400
C  30.62200 54.31000 38.43900
C  28.56300 55.64800 35.31500
C  27.72900 54.50500 34.74000
H  26.53200 54.97800 33.83100
N  32.79000 58.96400 38.58700
C  33.26700 57.80200 38.26000
C  34.68100 57.93600 38.21300
C  35.06500 59.20700 38.75900
C  33.78200 59.85100 38.85800
C  35.54800 56.71400 37.86500
C  36.48500 59.64100 38.94600
O  37.34300 58.84400 38.70000
C  36.92000 61.00300 39.43800
N  31.09800 61.51000 39.21300
C  32.35300 62.02900 39.32500
C  32.41700 63.51600 39.63000
C  30.91000 63.82700 39.69200
C  30.15400 62.49600 39.41800
C  33.33300 63.88500 40.77600
C  30.39300 65.01600 38.90500
C  29.71600 66.10200 39.73700
N  28.68200 60.04100 38.75000
C  28.09500 61.18000 39.04900
C  26.66200 61.14800 38.81600
C  26.46000 59.84700 38.29900
C  27.75200 59.23100 38.22200
C  25.56700 62.24300 38.78700
C  25.48200 58.84800 37.77400
O  24.31500 58.91600 37.45800
C  26.26700 57.60800 37.47900
C  25.81300 56.63400 38.52900
O  25.60400 56.98600 39.67300
O  25.60100 55.32300 38.04200
C  25.21100 54.30100 39.03900
H  32.99600 55.76400 37.52900
H  34.44800 61.73300 39.47200
H  28.10400 63.15500 39.69600
H  28.23700 55.20800 37.46200
H  31.04800 54.84800 36.38100
H  29.66500 53.78700 38.45800
H  30.72800 54.88100 39.36200
H  31.37400 53.52500 38.36800
H  29.45200 55.52200 34.69800
H  28.06800 56.58500 35.06000
H  27.27000 53.86400 35.49300
H  28.43100 53.83800 34.24000
H  34.97700 55.94800 37.33900
H  35.98500 56.33900 38.79000
H  36.28800 56.95400 37.10200
H  37.98200 61.24100 39.36500
H  36.45000 61.17000 40.40700
H  36.50400 61.65300 38.66900
H  32.65700 63.98600 38.67700
H  30.74700 64.04000 40.74800
H  34.15000 64.57300 40.55900
H  33.92000 63.04100 41.13800
H  32.79100 64.28800 41.63100
H  29.64200 64.51400 38.29500
H  31.14500 65.41100 38.22200
H  29.44900 65.66800 40.70100
H  28.79100 66.41700 39.25500
H  30.33400 66.98000 39.92300
H  24.70000 61.70900 39.17600
H  25.32000 62.38400 37.73500
H  25.83200 63.12700 39.36700
H  25.96800 57.13200 36.54500
H  25.98700 54.31700 39.80400
H  25.21100 53.29200 38.62800
H  24.22600 54.45400 39.48000
Mg -5.09400 25.39800 25.27600
C  -3.65200 27.04400 28.16600
C  -6.36500 23.17400 27.49900
C  -6.25200 23.89900 22.57000
C  -3.44000 27.73500 23.29800
N  -5.21200 25.31400 27.57400
C  -4.58700 26.07900 28.55700
C  -4.79100 25.40000 29.98600
C  -5.34700 23.98300 29.67900
C  -5.68400 24.15900 28.16000
C  -4.29800 22.76900 29.94100
C  -5.77300 26.26100 30.84900
C  -5.25700 26.66200 32.28300
H  -4.69400 25.46600 33.09200
N  -6.16700 23.80600 25.03800
C  -6.65800 23.00600 26.11100
C  -7.49300 22.01800 25.54000
C  -7.49700 22.15500 24.12800
C  -6.69800 23.36800 23.84500
C  -8.16300 20.88600 26.31400
C  -8.12900 21.39000 23.00800
O  -8.11900 21.80300 21.86100
C  -8.82300 20.13600 23.33800
N  -4.73100 25.70700 23.27400
C  -5.37900 24.99300 22.36600
C  -5.09800 25.43000 20.96500
C  -4.58900 26.89400 21.18200
C  -4.28100 26.86700 22.71500
C  -4.03800 24.50200 20.38700
C  -5.64400 27.96900 20.83700
C  -5.05800 29.23200 20.18500
N  -3.63400 27.04300 25.61300
C  -3.11000 27.88000 24.62900
C  -2.25600 28.77000 25.32800
C  -2.45400 28.54500 26.68400
C  -3.34600 27.51700 26.80800
C  -1.30400 29.76200 24.67800
C  -1.92100 28.87000 27.99400
O  -1.08000 29.67200 28.40300
C  -2.69100 27.82100 28.97500
C  -1.69000 26.98400 29.76500
O  -1.15500 25.97900 29.42000
O  -1.57100 27.63300 30.99800
C  -0.73300 26.90700 32.02100
H  -6.74800 22.35400 28.11100
H  -6.53000 23.36900 21.65600
H  -3.08000 28.46900 22.57400
H  -3.84800 25.28600 30.52100
H  -6.26700 23.71700 30.19900
H  -4.79100 21.91700 29.47100
H  -4.19600 22.64500 31.01900
H  -3.34100 23.07700 29.52200
H  -6.82200 25.96800 30.87300
H  -5.88400 27.22900 30.36000
H  -6.07100 27.14300 32.82600
H  -4.47000 27.40600 32.15900
H  -7.76000 19.89700 26.09500
H  -9.21800 20.90400 26.04200
H  -8.21000 21.09100 27.38400
H  -8.13800 19.39300 23.74700
H  -9.24600 19.76800 22.40300
H  -9.65100 20.41300 23.99100
H  -5.94600 25.47500 20.28100
H  -3.72300 27.13800 20.56600
H  -3.54600 23.87900 21.13400
H  -3.28800 25.12800 19.90400
H  -4.59000 23.90900 19.65800
H  -6.09700 28.24600 21.78900
H  -6.42600 27.63500 20.15600
H  -5.60500 29.50800 19.28300
H  -4.00300 29.33000 19.92700
H  -5.36400 30.14600 20.69500
H  -0.92600 29.29700 23.76700
H  -0.49000 30.04900 25.34400
H  -1.90200 30.64300 24.44600
H  -3.21000 28.51000 29.64100
H  0.27300 26.71400 31.64800
H  -1.20000 25.94400 32.22600
H  -0.55700 27.54500 32.88700

