158

Mg 36.03800 0.95300 30.33700
C  33.96500 2.35500 32.83800
C  38.56700 1.14000 32.66300
C  38.15900 0.16500 27.92100
C  33.45500 1.51400 28.01900
N  36.18500 1.45200 32.54500
C  35.24400 2.05500 33.33000
C  35.70500 2.27600 34.76900
C  37.22800 2.05300 34.58900
C  37.29400 1.41700 33.21100
C  38.07600 3.34200 34.81000
C  34.98000 1.21000 35.60600
C  34.57600 1.62900 37.04700
H  35.33000 2.84000 37.63100
N  38.15800 0.61600 30.27200
C  39.03500 0.73900 31.34700
C  40.31400 0.34400 30.98200
C  40.17900 0.01900 29.59400
C  38.79500 0.25200 29.19800
C  41.50700 0.24800 31.92700
C  41.25300 -0.53100 28.65000
O  41.01100 -0.81100 27.47700
C  42.69300 -0.75000 29.10300
N  35.73500 0.73000 28.25400
C  36.80900 0.39700 27.44800
C  36.40800 0.33000 26.01700
C  34.88500 0.63900 26.03100
C  34.60000 0.89500 27.53900
C  37.20000 1.35700 25.18600
C  33.85200 -0.41800 25.37300
C  32.94800 -0.01200 24.20200
N  34.10900 1.74200 30.33100
C  33.19800 1.92300 29.28100
C  31.98100 2.47900 29.87100
C  32.25000 2.70700 31.23400
C  33.56400 2.26800 31.45400
C  30.68100 2.84000 29.08200
C  31.71200 3.17300 32.46200
O  30.63200 3.67500 32.56600
C  32.78200 3.02200 33.55500
C  33.11500 4.38800 34.14700
O  33.99000 5.12100 33.79600
O  32.42300 4.56900 35.29900
C  32.74400 5.58800 36.20900
H  39.34400 1.36600 33.39500
H  38.82300 0.02400 27.06500
H  32.72100 1.86700 27.29200
H  35.35700 3.29300 34.94900
H  37.70300 1.38300 35.30600
H  38.84000 3.21900 35.57800
H  37.41800 4.18600 35.01800
H  38.66100 3.60000 33.92800
H  35.74200 0.43700 35.70400
H  34.15400 0.73900 35.07500
H  34.74300 0.72400 37.63100
H  33.51700 1.89000 37.05800
H  42.27300 -0.46400 31.62000
H  41.10600 -0.19100 32.84100
H  42.00900 1.19800 32.10700
H  43.33100 -1.09800 28.29100
H  42.59600 -1.51500 29.87400
H  43.11000 0.21600 29.38900
H  36.64100 -0.66100 25.62800
H  34.72800 1.55700 25.46600
H  37.85600 1.97000 25.80500
H  36.56200 2.03500 24.62000
H  37.89300 0.85600 24.51000
H  33.17400 -0.75600 26.15700
H  34.46300 -1.24600 25.01600
H  33.10600 1.04900 24.01300
H  31.90100 -0.30200 24.29200
H  33.30100 -0.56900 23.33300
H  30.84400 2.84100 28.00400
H  30.24400 3.81600 29.29200
H  29.92700 2.11200 29.38300
H  32.27000 2.50800 34.36900
H  33.74400 6.00200 36.07500
H  32.62500 5.02100 37.13300
H  32.01700 6.39500 36.12100
Mg -11.21800 16.99500 41.97500
C  -7.76500 16.74900 42.32600
C  -10.80200 20.46200 41.46800
C  -14.52700 17.25400 41.45200
C  -11.38600 13.49000 42.06100
N  -9.45000 18.38900 41.84700
C  -8.11400 18.05100 42.05000
C  -7.22700 19.28500 42.02300
C  -8.28500 20.49000 42.21800
C  -9.61100 19.72700 41.82700
C  -8.28100 21.04300 43.71900
C  -6.45300 19.38000 40.62900
C  -4.92300 19.43300 40.74600
H  -4.21400 18.59400 39.69700
N  -12.48900 18.64200 41.57200
C  -12.09500 19.91900 41.27300
C  -13.23700 20.69400 40.88000
C  -14.36500 19.86800 41.10600
C  -13.86100 18.52100 41.43800
C  -13.13000 22.13000 40.37200
C  -15.80700 20.32500 41.10100
O  -16.16800 21.49600 40.87000
C  -16.90400 19.34800 41.56200
N  -12.70100 15.49600 41.50800
C  -14.03200 15.95700 41.62300
C  -14.87700 14.72100 41.71100
C  -13.90100 13.49500 41.92600
C  -12.57900 14.20500 41.79100
C  -16.04900 14.73200 42.72000
C  -14.11600 12.21600 41.06000
C  -14.63800 10.89900 41.68500
N  -9.88400 15.40800 42.17200
C  -10.11000 14.09500 42.14400
C  -8.85800 13.40200 42.45100
C  -7.89700 14.42300 42.56200
C  -8.60300 15.61500 42.36100
C  -8.64500 11.88600 42.57700
C  -6.47100 14.67800 42.75800
O  -5.51100 13.95400 42.96900
C  -6.40700 16.27000 42.70100
C  -5.88400 16.73200 44.01100
O  -6.57700 16.97100 44.95900
O  -4.46100 16.70500 44.05400
C  -3.84700 16.99600 45.33700
H  -10.65800 21.53000 41.29500
H  -15.60500 17.39100 41.34200
H  -11.59900 12.42800 42.19800
H  -6.50700 19.34000 42.84000
H  -8.05000 21.21700 41.44000
H  -7.49400 20.64300 44.35700
H  -9.26500 20.90900 44.16800
H  -8.17000 22.11400 43.54600
H  -6.62400 20.33600 40.13600
H  -6.81300 18.62900 39.92600
H  -4.66800 19.15000 41.76700
H  -4.48800 20.41800 40.58100
H  -13.42500 22.71600 41.24300
H  -13.75100 22.36600 39.50800
H  -12.10400 22.40000 40.12300
H  -17.68500 19.98100 41.98200
H  -16.47900 18.94500 42.48100
H  -17.12500 18.54600 40.85700
H  -15.35700 14.71300 40.73200
H  -14.11700 13.15400 42.93900
H  -16.17900 13.72400 43.11500
H  -16.94900 15.07900 42.21300
H  -15.83400 15.54700 43.41000
H  -13.23800 11.91800 40.48700
H  -14.82500 12.35200 40.24400
H  -14.67800 10.01300 41.05100
H  -15.55000 11.03400 42.26600
H  -13.89300 10.67300 42.44700
H  -9.64100 11.49800 42.78700
H  -7.92000 11.58400 43.33400
H  -8.23200 11.42400 41.68100
H  -5.67100 16.56100 41.95200
H  -4.50400 16.83800 46.19200
H  -3.30100 17.93100 45.21400
H  -3.06700 16.23600 45.37400

