158

Mg 6.94500 54.32600 41.50600
C  6.93000 50.73200 41.15300
C  10.23800 54.33900 40.75100
C  6.73500 57.71200 41.42800
C  3.52600 54.12800 42.00800
N  8.33800 52.74800 40.91000
C  8.13700 51.34600 40.81800
C  9.44200 50.56400 40.46300
C  10.50900 51.71000 40.72200
C  9.69400 53.04700 40.80300
C  11.40000 51.58300 41.99900
C  9.50200 50.03400 39.01500
C  9.20500 50.99500 37.84400
H  7.94000 50.77600 36.97400
N  8.31300 55.80500 41.18700
C  9.63400 55.63300 40.85600
C  10.35500 56.95800 40.65300
C  9.30400 57.94900 40.95600
C  8.00200 57.18000 41.18000
C  11.81500 57.14300 40.32100
C  9.48900 59.47600 41.01400
O  10.61100 59.96100 40.70100
C  8.39200 60.55500 41.45200
N  5.26600 55.74400 41.59000
C  5.47500 57.13700 41.67400
C  4.23100 57.83200 42.10100
C  3.17100 56.68300 42.09200
C  4.02200 55.42100 41.85500
C  4.31300 58.52000 43.48400
C  1.95900 56.83600 41.10300
C  0.62200 57.36400 41.73400
N  5.51400 52.82600 41.60100
C  4.21500 52.88000 41.98700
C  3.65600 51.57500 42.14200
C  4.72400 50.72800 41.80900
C  5.79800 51.48400 41.49300
C  2.33700 51.22200 42.59100
C  5.06200 49.35900 41.93000
O  4.45800 48.40400 42.38600
C  6.53600 49.25600 41.44700
C  6.61700 48.39300 40.27000
O  6.35500 48.70600 39.10500
O  6.91400 47.11700 40.71600
C  6.97700 46.16700 39.57500
H  11.32600 54.31600 40.66600
H  6.52900 58.76800 41.61600
H  2.54100 54.09500 42.47800
H  9.74300 49.76300 41.13800
H  11.19300 51.68000 39.87400
H  11.06100 50.81700 42.69600
H  11.23800 52.48400 42.59000
H  12.45600 51.51400 41.73600
H  8.86400 49.15100 39.00500
H  10.46300 49.58200 38.76900
H  10.00800 50.93300 37.11000
H  9.11100 51.96200 38.33900
H  11.97200 58.04500 39.72900
H  12.16900 56.30000 39.72700
H  12.54800 57.18300 41.12700
H  8.67000 61.60300 41.33900
H  8.01800 60.32600 42.45000
H  7.54100 60.52100 40.77100
H  3.96700 58.53600 41.31200
H  2.79000 56.57700 43.10700
H  4.30400 59.60900 43.50700
H  5.21100 58.21600 44.02200
H  3.38300 58.25100 43.98600
H  1.78200 55.90400 40.56800
H  2.23500 57.43600 40.23600
H  0.58500 57.60400 42.79600
H  -0.19800 56.66200 41.57900
H  0.18800 58.29600 41.37100
H  1.87300 50.79800 41.70000
H  1.66300 52.02000 42.90300
H  2.25700 50.46100 43.36700
H  7.11700 48.79300 42.24500
H  7.07600 45.13300 39.90300
H  7.78700 46.45500 38.90500
H  6.06900 46.22600 38.97400
Mg 16.84800 51.96400 25.53300
C  18.72300 50.72100 28.29300
C  14.48600 52.98400 27.83800
C  15.41800 53.60700 23.09600
C  19.51300 50.91500 23.51800
N  16.66200 51.74600 27.84800
C  17.58100 51.35100 28.74400
C  17.15600 51.67300 30.18500
C  15.70900 52.22200 30.10700
C  15.56100 52.29100 28.48700
C  14.60100 51.22500 30.54500
C  18.15400 52.67500 30.84700
C  18.28300 52.51200 32.42100
H  17.16300 53.30200 33.18500
N  15.24300 53.16000 25.43600
C  14.36500 53.48300 26.48800
C  13.36700 54.35700 26.00700
C  13.66800 54.58600 24.65200
C  14.82300 53.74500 24.31200
C  12.25900 54.81900 26.99900
C  13.06000 55.52400 23.67700
O  13.44400 55.71700 22.52100
C  11.91500 56.42100 24.15600
N  17.36000 52.10600 23.58300
C  16.61500 52.90900 22.70400
C  17.14000 52.83000 21.22400
C  18.43300 51.97700 21.44100
C  18.50400 51.73300 22.96600
C  16.09900 52.31400 20.12500
C  19.70300 52.70600 20.89100
C  20.43900 52.10500 19.68800
N  18.64500 50.72400 25.72400
C  19.65700 50.37600 24.81200
C  20.69500 49.63600 25.45000
C  20.41300 49.86100 26.84000
C  19.13800 50.50500 26.92300
C  21.87000 49.06800 24.81100
C  20.88800 49.50600 28.16600
O  21.91600 48.96800 28.60000
C  19.85600 50.10800 29.11500
C  19.23200 49.03400 29.90100
O  18.45900 48.18100 29.53200
O  19.39000 49.32200 31.28900
C  18.62300 48.42500 32.19200
H  13.75200 53.32500 28.57100
H  15.05600 53.99700 22.14200
H  20.35600 50.78600 22.83600
H  17.21000 50.69000 30.65300
H  15.59900 53.24600 30.46400
H  14.08000 50.80200 29.68600
H  13.89400 51.60900 31.28000
H  15.06700 50.43200 31.12900
H  17.62900 53.60000 30.60800
H  19.10500 52.69700 30.31400
H  19.24100 52.97200 32.66700
H  18.10900 51.50000 32.78600
H  12.12500 54.10100 27.80800
H  11.26600 55.09300 26.64200
H  12.57600 55.67300 27.59700
H  12.30700 57.20000 24.81100
H  11.20100 55.79100 24.68600
H  11.32600 56.87500 23.35900
H  17.30500 53.82800 20.81600
H  18.32200 51.04600 20.88600
H  15.24800 51.85500 20.62800
H  16.50900 51.51000 19.51400
H  15.83200 53.23200 19.60000
H  20.40100 52.71000 21.72900
H  19.57900 53.76800 20.68100
H  19.89300 51.35800 19.11200
H  21.36400 51.61700 19.99500
H  20.76000 52.97800 19.11900
H  21.93200 49.42300 23.78200
H  21.82400 47.98500 24.69300
H  22.78300 49.27800 25.36700
H  20.24500 50.76200 29.89600
H  17.73700 48.08300 31.65900
H  18.31000 48.90400 33.12000
H  19.19300 47.56300 32.53900

