158

Mg -2.23500 16.36500 26.60500
C  -2.52900 13.76900 29.08300
C  -2.80400 18.65600 28.91200
C  -2.71100 18.58400 24.14800
C  -2.50600 13.66000 24.27200
N  -2.64200 16.16100 28.75400
C  -2.69800 15.10600 29.60500
C  -2.96500 15.55300 31.08200
C  -3.00200 17.11700 30.99300
C  -2.84600 17.38000 29.42900
C  -4.28000 17.85800 31.58800
C  -2.01500 14.90000 32.17700
C  -1.56500 15.76800 33.33300
H  -0.75400 15.16100 34.49300
N  -2.47000 18.34300 26.51900
C  -2.64500 19.14200 27.61200
C  -2.70000 20.56100 27.16600
C  -2.62600 20.57600 25.76000
C  -2.57500 19.11300 25.37600
C  -2.85400 21.66600 28.09800
C  -2.44600 21.76000 24.77800
O  -2.25300 21.60400 23.59800
C  -2.48300 23.13500 25.34200
N  -2.70700 16.12200 24.56100
C  -2.85700 17.23800 23.74000
C  -3.20100 16.87700 22.28900
C  -2.95900 15.29400 22.29900
C  -2.73500 14.99000 23.80400
C  -4.62800 17.43100 21.91200
C  -1.97200 14.75300 21.28600
C  -0.51100 15.13000 21.49200
N  -2.28400 14.13500 26.61400
C  -2.38600 13.24100 25.59900
C  -2.38200 11.89400 26.13200
C  -2.41200 12.05200 27.52600
C  -2.44300 13.46900 27.74300
C  -2.70400 10.66900 25.37500
C  -2.57900 11.35800 28.73700
O  -2.71400 10.15900 28.96100
C  -2.74500 12.44000 29.76500
C  -1.84400 12.04800 30.95500
O  -0.58600 12.06300 30.99200
O  -2.69300 11.65500 31.91900
C  -2.07600 11.22600 33.25800
H  -2.79600 19.43400 29.67800
H  -2.93200 19.34500 23.39700
H  -2.58100 12.93700 23.45700
H  -3.95300 15.15400 31.31300
H  -2.14200 17.58300 31.47500
H  -5.01100 17.14400 31.96800
H  -4.76600 18.54000 30.89000
H  -4.00500 18.46100 32.45300
H  -1.14800 14.40100 31.74400
H  -2.63400 14.15900 32.68300
H  -2.43300 16.20900 33.82200
H  -0.91800 16.53100 32.90000
H  -3.83500 22.02300 27.78600
H  -1.99500 22.28000 27.82600
H  -2.71700 21.40100 29.14700
H  -3.38200 23.34100 25.92200
H  -2.54900 23.83100 24.50500
H  -1.63900 23.15300 26.03100
H  -2.52900 17.31500 21.55000
H  -3.90600 14.80700 22.06700
H  -5.05900 17.68900 22.88000
H  -5.22600 16.62200 21.49200
H  -4.60300 18.30200 21.25700
H  -2.33100 15.19000 20.35400
H  -2.04100 13.66600 21.31600
H  -0.17300 15.75500 20.66600
H  -0.01000 14.18400 21.69800
H  -0.45900 15.70600 22.41600
H  -3.24100 10.83000 24.44000
H  -3.32100 10.08500 26.05700
H  -1.75800 10.19000 25.12400
H  -3.79700 12.41500 30.04800
H  -2.01100 10.13900 33.29300
H  -2.73200 11.57200 34.05700
H  -1.13000 11.74000 33.43000
Mg 53.47200 24.21000 44.47800
C  50.74100 26.21400 43.42800
C  51.90400 21.47600 43.12000
C  56.40700 22.57000 44.44700
C  54.96700 27.08900 45.67400
N  51.74100 23.97500 43.03300
C  50.68000 24.86400 42.92800
C  49.57100 24.24700 42.07500
C  49.75700 22.76700 42.43300
C  51.24900 22.72300 42.85100
C  48.87700 21.98300 43.34300
C  49.68400 24.61500 40.53500
C  48.39600 24.98500 39.74700
H  47.96500 24.12400 38.61200
N  54.05800 22.29300 43.90900
C  53.26300 21.29300 43.34600
C  53.93900 19.97500 43.32400
C  55.22900 20.33900 43.77300
C  55.28000 21.79000 44.11500
C  53.28700 18.68100 42.88000
C  56.34800 19.26200 43.89700
O  56.19000 18.19000 43.42300
C  57.73600 19.50400 44.48800
N  55.45200 24.76500 45.07500
C  56.44600 23.90400 44.87100
C  57.81500 24.70100 44.90900
C  57.34700 26.17000 45.15900
C  55.83500 26.05200 45.25500
C  58.86000 24.18100 45.96200
C  57.93600 27.18300 44.09100
C  58.25200 28.59600 44.60900
N  53.00000 26.22300 44.65300
C  53.66500 27.19200 45.34700
C  52.84200 28.41300 45.34700
C  51.65900 28.02800 44.65100
C  51.83200 26.71700 44.14000
C  53.16600 29.70300 45.93300
C  50.22400 28.44400 44.34500
O  49.62500 29.47700 44.57900
C  49.58200 27.21700 43.54200
C  49.14500 27.68500 42.25600
O  49.87300 27.95300 41.31500
O  47.77200 27.86000 42.25000
C  47.21100 28.42500 40.97200
H  51.26400 20.60000 42.99900
H  57.30900 22.00000 44.21600
H  55.32200 28.03900 46.07800
H  48.62500 24.58500 42.49700
H  49.65700 22.13800 41.54900
H  48.85200 20.92500 43.08200
H  47.89300 22.45100 43.31700
H  49.23900 22.11000 44.36300
H  50.12600 23.79400 39.97100
H  50.41500 25.39700 40.32600
H  48.50500 25.96400 39.28000
H  47.61200 25.04100 40.50300
H  52.56300 18.80400 42.07500
H  52.66300 18.23100 43.65300
H  53.95800 17.89300 42.53900
H  58.37300 20.16100 43.89600
H  58.26900 18.55500 44.42100
H  57.60500 19.72000 45.54900
H  58.24300 24.68100 43.90600
H  57.64800 26.55000 46.13500
H  58.38100 23.67300 46.79900
H  59.52200 24.99500 46.25900
H  59.66500 23.53800 45.60600
H  57.24600 27.26200 43.25100
H  58.85400 26.77200 43.67100
H  57.66900 29.28200 43.99400
H  59.30000 28.82200 44.41200
H  57.99000 28.68400 45.66300
H  53.27200 30.40000 45.10100
H  54.04300 29.61300 46.57300
H  52.37900 30.03000 46.61300
H  48.78800 26.83400 44.18300
H  47.09100 27.69400 40.17300
H  47.78500 29.29100 40.64000
H  46.16700 28.72300 41.06500

