158

Mg -1.67200 17.61200 26.69600
C  -2.06600 15.31900 29.21600
C  -2.16400 20.25600 28.98200
C  -1.94500 19.83700 24.04400
C  -2.19700 15.01200 24.32000
N  -2.03300 17.71600 28.86600
C  -2.09300 16.66600 29.67600
C  -2.13500 17.10300 31.16600
C  -2.28600 18.70600 31.03400
C  -2.23200 18.87300 29.55200
C  -3.32300 19.37300 31.86700
C  -0.85400 16.70900 32.00200
C  -0.40700 17.66400 33.22900
H  -0.00600 16.98400 34.44000
N  -1.87600 19.68900 26.55100
C  -2.06600 20.60100 27.59300
C  -2.09300 21.97300 27.06000
C  -2.11900 21.81500 25.66800
C  -2.01800 20.39200 25.37400
C  -2.29200 23.21600 27.92000
C  -2.32400 22.89500 24.59200
O  -2.44500 22.65500 23.37600
C  -2.27600 24.33200 25.05800
N  -1.88100 17.47500 24.45100
C  -1.96100 18.56200 23.61700
C  -1.88700 18.03700 22.14900
C  -2.01200 16.50000 22.27700
C  -2.08500 16.28700 23.76300
C  -2.82700 18.65300 21.09400
C  -0.96900 15.59000 21.44700
C  -1.43900 14.90300 20.15400
N  -1.96900 15.62400 26.73100
C  -2.17000 14.69600 25.72600
C  -2.25100 13.36000 26.24600
C  -2.15300 13.53100 27.66600
C  -2.09000 14.91400 27.85600
C  -2.55500 12.09800 25.50300
C  -2.20100 12.87000 28.97000
O  -2.24700 11.66600 29.21900
C  -2.19900 14.05700 30.05600
C  -1.16400 13.81300 31.09900
O  0.04700 13.91700 31.02300
O  -1.82200 13.35700 32.25900
C  -0.92900 12.65200 33.24700
H  -2.35700 21.11700 29.62500
H  -1.88000 20.52500 23.19800
H  -2.35800 14.20700 23.59900
H  -2.98500 16.62200 31.65000
H  -1.31600 19.15200 31.25600
H  -4.04800 19.89900 31.24500
H  -2.82600 20.00900 32.60000
H  -3.82500 18.62900 32.48400
H  0.07800 16.55200 31.45900
H  -1.22700 15.86600 32.58200
H  -1.23500 18.32600 33.48300
H  0.47700 18.21800 32.91400
H  -1.49200 23.93300 27.73400
H  -2.30200 23.15300 29.00800
H  -3.21800 23.73900 27.68200
H  -3.24600 24.73100 25.35400
H  -2.09500 24.82600 24.10400
H  -1.47000 24.36800 25.79200
H  -0.83900 18.14600 21.86900
H  -3.03000 16.24600 21.97900
H  -2.71300 19.73200 20.98500
H  -3.86700 18.38200 21.27500
H  -2.54100 18.20600 20.14200
H  -0.47700 14.87000 22.10200
H  -0.08000 16.13000 21.12300
H  -1.40100 13.83200 20.35400
H  -0.72900 15.20300 19.38300
H  -2.43600 15.17600 19.80800
H  -3.36900 12.37600 24.83300
H  -2.79800 11.33400 26.24100
H  -1.64800 11.92000 24.92500
H  -3.11800 14.03900 30.64300
H  0.15000 12.58700 33.11000
H  -1.26500 11.61900 33.33200
H  -1.06500 13.15100 34.20700
Mg 0.16100 43.32300 26.96900
C  2.70200 43.17900 29.07000
C  -2.08100 42.66900 29.39700
C  -2.37100 43.33100 24.54100
C  2.38600 44.05800 24.34900
N  0.28300 42.90100 29.04900
C  1.44000 42.95500 29.74700
C  1.16900 42.89800 31.25100
C  -0.24900 42.21100 31.30800
C  -0.77500 42.68800 29.86300
C  -0.23500 40.66300 31.58500
C  1.51500 44.34300 31.95400
C  1.87600 44.44800 33.43400
H  1.64500 43.25400 34.32400
N  -2.01800 43.17800 27.01100
C  -2.67700 42.91400 28.12100
C  -4.10200 42.70500 27.76400
C  -4.18200 42.70600 26.30200
C  -2.82000 43.06400 25.87500
C  -5.19100 42.43400 28.80100
C  -5.22700 42.41000 25.32900
O  -5.04400 42.39100 24.10300
C  -6.65900 42.07800 25.86200
N  -0.02000 43.74500 24.86900
C  -1.11500 43.55200 24.09600
C  -0.80900 43.64600 22.61100
C  0.62600 44.20500 22.58000
C  1.01500 44.05100 24.00000
C  -1.09900 42.32100 21.75500
C  0.77900 45.72500 22.11700
C  0.03100 46.13200 20.86100
N  2.12900 43.44200 26.68500
C  2.91200 43.76100 25.61000
C  4.33100 43.75400 25.99600
C  4.27300 43.43300 27.35800
C  2.92400 43.33400 27.72600
C  5.48300 44.07900 25.07700
C  5.13200 43.31300 28.53700
O  6.35800 43.21900 28.70600
C  4.10200 43.36400 29.66300
C  4.32700 42.20800 30.46100
O  4.51800 41.02600 30.16700
O  4.45800 42.65600 31.73600
C  5.05900 41.65000 32.67700
H  -2.71900 42.31500 30.21000
H  -2.99400 43.15500 23.66100
H  3.11700 44.32300 23.58200
H  1.93200 42.25700 31.69400
H  -0.86200 42.57300 32.13300
H  -1.17200 40.29800 31.16500
H  -0.12900 40.46200 32.65100
H  0.63700 40.20900 31.11600
H  0.75800 45.09400 31.72800
H  2.37000 44.69700 31.37900
H  1.37000 45.36200 33.74600
H  2.94400 44.66300 33.47500
H  -6.11700 43.00400 28.72300
H  -4.73800 42.54300 29.78700
H  -5.44100 41.38500 28.64500
H  -7.29300 41.79600 25.02100
H  -7.02400 42.93800 26.42400
H  -6.61600 41.18600 26.48700
H  -1.39700 44.45000 22.16900
H  1.23800 43.58900 21.92100
H  -1.44000 41.58200 22.48000
H  -0.11500 42.01000 21.40400
H  -1.79600 42.48200 20.93300
H  1.83300 45.80100 21.85000
H  0.52900 46.37000 22.95900
H  0.06600 45.16300 20.36300
H  0.45000 46.98500 20.32800
H  -0.99600 46.36100 21.14500
H  5.17200 43.96000 24.03900
H  6.31700 43.39700 25.24200
H  5.90200 45.07700 25.20200
H  4.09000 44.28200 30.25100
H  6.14000 41.70300 32.54800
H  4.81800 40.58700 32.67800
H  4.82000 41.96100 33.69300

