158

Mg 48.20900 14.37100 28.12100
C  45.77300 14.39300 30.69900
C  50.27100 16.43300 29.94400
C  50.12200 14.86700 25.25300
C  46.12300 12.29400 26.29300
N  47.93700 15.48300 30.07800
C  46.96600 15.18400 31.03500
C  47.47500 15.57400 32.42900
C  48.72800 16.45700 32.13600
C  49.06200 16.10500 30.62500
C  48.60200 17.96200 32.25300
C  47.76900 14.40200 33.46300
C  47.14700 14.62600 34.87400
H  48.16700 14.99000 35.93600
N  49.94100 15.53700 27.62700
C  50.67500 16.26100 28.56400
C  51.76300 16.92600 27.88200
C  51.74200 16.51200 26.49800
C  50.54500 15.61100 26.38900
C  52.68900 17.97000 28.53100
C  52.65500 16.84100 25.39500
O  52.56300 16.32000 24.27200
C  53.78100 17.77400 25.54700
N  48.12200 13.62500 26.08700
C  48.94000 13.98700 25.10200
C  48.70200 13.17300 23.81200
C  47.41000 12.30200 24.14400
C  47.21600 12.77000 25.60100
C  48.61100 14.11000 22.54900
C  47.65500 10.71500 24.00600
C  48.06700 9.92800 25.23200
N  46.29600 13.57400 28.37800
C  45.56900 12.72900 27.51000
C  44.36500 12.31100 28.04600
C  44.40700 13.01800 29.29000
C  45.55300 13.74100 29.46500
C  43.27600 11.54500 27.42300
C  43.61500 13.26500 30.47000
O  42.49200 12.95400 30.79100
C  44.58500 13.92100 31.53400
C  43.87800 14.94600 32.34300
O  43.52800 16.01700 32.03400
O  43.66100 14.48000 33.61200
C  42.89700 15.38900 34.46400
H  50.87000 17.18200 30.46500
H  50.74900 15.03500 24.37500
H  45.43400 11.64200 25.75200
H  46.70000 16.21800 32.84300
H  49.57400 16.11000 32.72800
H  49.04300 18.33400 33.17700
H  47.57200 18.27800 32.08900
H  48.98700 18.42600 31.34500
H  48.83000 14.38600 33.71200
H  47.33500 13.46100 33.12400
H  46.71700 13.66800 35.16700
H  46.28400 15.27200 34.71000
H  52.61100 17.79800 29.60400
H  52.47100 19.01600 28.31700
H  53.65400 17.54400 28.25500
H  53.40200 18.75900 25.82100
H  54.20700 17.91200 24.55300
H  54.59700 17.47300 26.20500
H  49.61900 12.60200 23.67200
H  46.52100 12.49800 23.54400
H  47.85700 13.78300 21.83300
H  49.44900 13.91000 21.88200
H  48.60400 15.17700 22.77100
H  48.46300 10.60900 23.28200
H  46.71600 10.31400 23.62600
H  47.26700 9.29900 25.62000
H  48.26000 10.61100 26.05900
H  48.85800 9.24000 24.93400
H  43.03700 10.63500 27.97300
H  43.56200 11.33400 26.39200
H  42.40800 12.20400 27.43500
H  44.85300 13.14600 32.25300
H  41.95300 15.67500 33.99900
H  43.36400 16.32100 34.78400
H  42.68700 14.71500 35.29400
Mg 16.09100 51.47300 25.38900
C  17.80600 50.64900 28.32700
C  13.61500 52.80100 27.34700
C  14.32300 52.06200 22.64900
C  18.64800 49.74700 23.55900
N  15.85100 51.78100 27.53500
C  16.60400 51.26500 28.56800
C  16.04500 51.61500 29.97600
C  14.64500 52.29800 29.68000
C  14.69700 52.35400 28.10200
C  13.40800 51.54300 30.22800
C  17.05600 52.53200 30.86600
C  17.02400 52.53500 32.37800
H  15.96200 51.70700 33.09400
N  14.28500 52.37300 24.98300
C  13.37900 52.78700 25.93500
C  12.26500 53.39300 25.30900
C  12.45600 53.26100 23.90100
C  13.70700 52.55300 23.78400
C  11.11800 54.13600 25.97400
C  11.63900 53.87700 22.77100
O  11.92700 53.61800 21.60200
C  10.32800 54.54900 22.97000
N  16.43000 50.93300 23.47700
C  15.51700 51.30300 22.45700
C  16.04000 51.02100 20.94500
C  17.38500 50.20700 21.32600
C  17.54400 50.36200 22.89400
C  14.98600 50.34500 20.03200
C  18.67600 50.68300 20.65400
C  19.31700 51.93000 21.14200
N  17.87200 50.39000 25.80700
C  18.79800 49.79300 24.97800
C  19.95200 49.43200 25.73100
C  19.64100 49.61600 27.08000
C  18.34800 50.29800 27.06000
C  21.08700 48.71600 25.13800
C  20.06200 49.44100 28.46200
O  20.98200 48.89400 29.00600
C  18.87500 50.05600 29.30800
C  18.35000 49.03100 30.26700
O  17.27400 48.43600 30.25000
O  19.20300 48.84700 31.26300
C  18.85000 47.92700 32.39100
H  12.76200 53.09200 27.96400
H  13.87000 52.11900 21.65700
H  19.51600 49.24100 23.13200
H  15.92700 50.67300 30.51200
H  14.73300 53.31600 30.05900
H  12.69200 51.14100 29.51100
H  12.85900 52.27800 30.81600
H  13.87000 50.86400 30.94400
H  16.81000 53.56000 30.59900
H  18.07400 52.36400 30.51400
H  16.93700 53.59900 32.60100
H  18.01800 52.22500 32.70000
H  10.15600 53.73200 25.66100
H  11.31600 55.18000 25.73400
H  11.07200 53.98800 27.05300
H  9.90100 54.59600 21.96800
H  10.39000 55.58100 23.31500
H  9.66500 53.95300 23.59700
H  16.33600 52.01100 20.59800
H  17.26000 49.13900 21.14800
H  14.50800 51.03100 19.33300
H  14.27700 49.69400 20.54300
H  15.57200 49.67000 19.40900
H  18.20700 50.86400 19.68600
H  19.39800 49.92700 20.34300
H  20.30100 51.63900 21.50800
H  18.77400 52.49300 21.90200
H  19.38800 52.63500 20.31400
H  20.75000 48.01900 24.37000
H  21.48700 48.02900 25.88400
H  21.81200 49.42600 24.74000
H  19.53400 50.70400 29.88600
H  17.94300 48.21100 32.92600
H  19.70900 47.84800 33.05800
H  18.69300 46.97300 31.88800

