158

Mg 43.11500 4.39100 47.07500
C  40.70400 7.09700 47.04700
C  40.34200 2.29800 47.09600
C  45.17600 1.87500 46.29900
C  45.60300 6.65500 46.55700
N  40.75300 4.64500 47.26800
C  40.03100 5.86400 47.17500
C  38.52500 5.58800 47.20600
C  38.45900 4.02900 47.44500
C  39.89400 3.57800 47.29900
C  37.79600 3.55500 48.75300
C  37.74100 6.13400 46.01000
C  38.45100 6.09400 44.61500
H  37.58000 6.12500 43.32200
N  42.79900 2.36400 46.80600
C  41.59200 1.65200 46.76000
C  41.82000 0.22800 46.70400
C  43.18600 0.12900 46.37900
C  43.83000 1.48400 46.46600
C  40.67700 -0.83100 46.70800
C  43.86400 -1.12700 45.92800
O  43.29000 -2.19700 45.90000
C  45.25500 -1.08600 45.40300
N  45.11600 4.27400 46.48200
C  45.81600 3.09900 46.33400
C  47.37100 3.30800 46.21100
C  47.43200 4.81500 46.60700
C  45.97200 5.27200 46.59700
C  48.39600 2.23100 46.80500
C  48.30300 5.67000 45.50800
C  49.14700 6.64800 46.20000
N  43.17600 6.43400 46.83400
C  44.24400 7.21600 46.65900
C  43.78300 8.59500 46.61400
C  42.45800 8.57700 46.77900
C  42.12600 7.25900 46.89000
C  44.71400 9.66300 46.24900
C  41.27700 9.41500 46.83800
O  41.16500 10.59800 46.70600
C  40.08300 8.44200 47.12400
C  39.68800 8.84100 48.39700
O  39.90900 8.30800 49.46800
O  38.77800 9.84700 48.21500
C  37.81600 10.05900 49.38100
H  39.53500 1.56300 47.07000
H  45.93800 1.09500 46.24700
H  46.44600 7.34600 46.50100
H  38.19200 6.11600 48.09900
H  37.89800 3.52000 46.66100
H  38.59200 3.19800 49.40600
H  37.06400 2.77400 48.54700
H  37.35900 4.42900 49.23700
H  37.47800 7.17700 46.18400
H  36.81000 5.56900 46.04300
H  38.95500 5.12900 44.54900
H  39.22600 6.83900 44.43500
H  39.90600 -0.48500 47.39700
H  41.01300 -1.81000 47.04900
H  40.21800 -1.01400 45.73600
H  45.94700 -0.99100 46.23900
H  45.12700 -0.15200 44.85500
H  45.55100 -1.97000 44.83700
H  47.50800 3.41800 45.13500
H  47.72000 4.89800 47.65500
H  47.81800 1.57000 47.45200
H  49.13500 2.81900 47.34900
H  48.78900 1.69000 45.94500
H  47.53900 6.18900 44.92900
H  48.91800 5.07700 44.83100
H  48.87400 7.64500 45.85300
H  50.21500 6.57700 45.99500
H  49.16600 6.63100 47.29000
H  44.21200 10.63000 46.25100
H  44.99500 9.58100 45.19900
H  45.63500 9.59400 46.82900
H  39.39000 8.63400 46.30400
H  36.83000 9.61800 49.23400
H  37.74800 11.14300 49.46200
H  38.14900 9.57800 50.30100
Mg 41.68500 40.89400 26.74700
C  41.04300 43.11500 29.47700
C  42.41500 38.41200 28.96300
C  42.50000 38.92700 24.02100
C  40.93800 43.52900 24.57100
N  41.63000 40.82600 28.93600
C  41.33400 41.77200 29.86100
C  41.29600 41.24400 31.36300
C  41.92400 39.77900 31.12500
C  41.95700 39.64300 29.60300
C  43.21100 39.44800 31.93100
C  39.91100 41.35600 32.05300
C  39.93300 42.03000 33.43500
H  39.21700 41.41900 34.68300
N  42.40300 38.96100 26.53900
C  42.70000 38.10000 27.57800
C  43.13200 36.85300 26.99800
C  43.16000 37.00500 25.54000
C  42.64700 38.37100 25.30000
C  43.29000 35.58500 27.80700
C  43.53000 36.03100 24.44900
O  43.63800 36.33800 23.22600
C  43.90900 34.58900 24.91000
N  41.82000 41.14400 24.62300
C  42.10200 40.24100 23.66600
C  41.80600 40.68600 22.22500
C  40.95500 42.02500 22.48900
C  41.23400 42.27200 24.02100
C  43.10400 41.03400 21.38500
C  39.43000 41.82300 22.10500
C  38.66400 40.63900 22.82000
N  41.19400 42.97000 26.92300
C  40.96400 43.90300 25.92300
C  40.64600 45.24900 26.55900
C  40.69400 44.94700 27.98100
C  41.02600 43.60100 28.10500
C  40.33300 46.59900 25.90300
C  40.51100 45.56300 29.23600
O  40.32800 46.73600 29.54800
C  40.72200 44.38100 30.27700
C  41.70800 44.82600 31.25500
O  42.84800 45.22000 31.05000
O  41.12600 44.87500 32.47000
C  42.05300 45.32900 33.59400
H  42.76700 37.66800 29.68000
H  42.49100 38.30700 23.12200
H  40.52300 44.30500 23.92500
H  42.06600 41.72400 31.96700
H  41.25400 38.98000 31.44200
H  43.12200 38.56600 32.56500
H  43.49400 40.32000 32.52100
H  44.08000 39.41200 31.27400
H  39.44500 40.37100 32.05600
H  39.25200 41.95000 31.41900
H  39.49700 43.02900 33.44000
H  40.96300 42.20400 33.74800
H  42.73800 34.69200 27.51400
H  42.82000 35.82900 28.76000
H  44.35800 35.51000 28.01200
H  43.11400 33.98900 25.35300
H  44.73200 34.77000 25.60100
H  44.34300 34.07900 24.05000
H  41.18100 39.85000 21.91200
H  41.33100 42.80500 21.82600
H  43.90900 40.39300 21.74400
H  43.47500 42.05700 21.45000
H  42.92100 40.73800 20.35200
H  39.41300 41.58000 21.04200
H  38.89500 42.76700 22.20800
H  38.24700 41.09700 23.71700
H  39.34200 39.81900 23.05500
H  37.85700 40.13400 22.28800
H  41.24900 46.98000 25.45300
H  39.95200 47.25300 26.68700
H  39.61000 46.47700 25.09600
H  39.75900 44.26100 30.77300
H  43.13900 45.33900 33.49600
H  41.77700 44.70200 34.44200
H  41.85500 46.37900 33.80500

