158

Mg 55.61300 23.86000 45.23300
C  53.31400 26.28500 44.37800
C  53.32300 21.41000 44.37300
C  58.08100 21.52600 45.40400
C  58.04000 26.27000 45.82500
N  53.58700 23.90900 44.49500
C  52.80900 24.98000 44.19700
C  51.43500 24.53300 43.75200
C  51.43100 23.04000 44.14000
C  52.87700 22.73800 44.43000
C  50.61600 22.56800 45.34500
C  51.21800 24.82500 42.25400
C  49.81000 25.11300 41.74500
H  49.18800 24.33100 40.63400
N  55.66100 21.75400 44.91500
C  54.61400 20.95300 44.60600
C  55.05700 19.60200 44.52000
C  56.37600 19.53200 44.97400
C  56.79400 21.01100 45.11900
C  54.10800 18.46200 44.20800
C  57.22600 18.31400 45.03100
O  56.77000 17.15900 44.96200
C  58.69200 18.38700 44.91400
N  57.79100 23.88900 45.44100
C  58.57000 22.82200 45.59500
C  59.90500 23.21900 46.31000
C  59.99500 24.74700 46.09800
C  58.52100 25.02500 45.80900
C  59.83800 22.73300 47.75800
C  60.96000 25.09200 44.91300
C  62.45500 25.46000 45.31400
N  55.67000 25.90000 45.23100
C  56.66800 26.75000 45.58100
C  56.10900 28.12700 45.60000
C  54.75100 27.94900 45.15700
C  54.60900 26.63700 44.89600
C  56.74700 29.33800 46.09100
C  53.49600 28.66400 44.92400
O  53.18700 29.85600 44.97700
C  52.59500 27.60100 44.17400
C  52.48400 28.02900 42.72700
O  53.36300 28.18400 41.90500
O  51.14600 28.33200 42.49800
C  50.75100 28.87400 41.17200
H  52.63800 20.67800 43.94000
H  58.83400 20.86600 45.84100
H  58.76000 27.05100 46.07900
H  50.67400 25.07100 44.31800
H  51.14400 22.54200 43.21400
H  49.89900 23.36100 45.55900
H  51.24800 22.30100 46.19200
H  50.13900 21.66800 44.95800
H  51.59600 23.96400 41.70200
H  51.85200 25.66300 41.96700
H  49.89800 26.13700 41.38100
H  49.13000 25.17000 42.59500
H  54.66000 17.58700 43.86300
H  53.41300 18.92400 43.50800
H  53.36600 18.26400 44.98100
H  59.08200 17.44100 44.53900
H  59.13400 18.80100 45.82100
H  58.77000 19.12400 44.11500
H  60.71700 22.63900 45.87100
H  60.34700 25.27600 46.98400
H  60.40500 21.82700 47.97000
H  58.79700 22.49300 47.97800
H  60.16400 23.53500 48.42100
H  60.61900 25.99000 44.39600
H  60.95900 24.33300 44.13100
H  62.52500 25.43900 46.40200
H  62.75500 26.42300 44.90200
H  63.09800 24.66200 44.94200
H  57.63800 29.65800 45.55000
H  56.88200 29.13800 47.15400
H  56.07200 30.19400 46.09000
H  51.62400 27.60300 44.66900
H  50.75000 28.08100 40.42400
H  51.44100 29.62200 40.78100
H  49.76400 29.33700 41.15300
Mg -13.02500 15.90700 41.93400
C  -9.83500 14.63800 41.39900
C  -12.19500 18.89900 40.46700
C  -16.25300 17.00100 42.21500
C  -14.07400 12.73200 42.70500
N  -11.24900 16.58600 40.81000
C  -10.05900 15.97200 40.90000
C  -9.00200 16.90900 40.26600
C  -9.69800 18.34500 40.12400
C  -11.14600 17.96800 40.51000
C  -9.13400 19.39700 41.10300
C  -8.42200 16.39300 38.88100
C  -6.87000 16.11300 38.82300
H  -5.98900 16.82000 37.73100
N  -14.10800 17.76700 41.43200
C  -13.55900 18.86800 40.89900
C  -14.50200 19.86000 40.69900
C  -15.70200 19.44400 41.33700
C  -15.40900 18.00700 41.66400
C  -14.30500 21.17600 40.13900
C  -17.01200 20.18300 41.38900
O  -17.15200 21.30300 40.81500
C  -18.15700 19.66500 42.18900
N  -14.87200 14.92800 42.20200
C  -16.06000 15.60400 42.41000
C  -17.16500 14.71500 43.01300
C  -16.51000 13.33000 42.84500
C  -15.04500 13.68900 42.56100
C  -17.68600 15.05900 44.52300
C  -17.13400 12.35900 41.72900
C  -17.44400 10.93800 42.24100
N  -12.08200 14.06300 42.26000
C  -12.67900 12.85300 42.58400
C  -11.61400 11.85400 42.78800
C  -10.47100 12.53100 42.28500
C  -10.83600 13.80500 41.90400
C  -11.83800 10.50900 43.34400
C  -9.03600 12.37000 41.98600
O  -8.24500 11.41900 42.12300
C  -8.60700 13.76700 41.41100
C  -7.49200 14.27800 42.38000
O  -7.56100 14.51000 43.55600
O  -6.30800 14.49200 41.70100
C  -5.17300 15.18900 42.42300
H  -11.80000 19.76500 39.93200
H  -17.19200 17.40600 42.59900
H  -14.48500 11.74500 42.92900
H  -8.21900 17.08400 41.00400
H  -9.69700 18.78300 39.12500
H  -8.80400 20.25800 40.52200
H  -8.37100 18.98400 41.76400
H  -9.85100 19.74300 41.84700
H  -8.71800 16.98300 38.01400
H  -8.92800 15.43500 38.76600
H  -6.67900 15.05200 38.66500
H  -6.48600 16.48100 39.77400
H  -15.06600 21.31900 39.37200
H  -13.35200 21.24800 39.61400
H  -14.40500 22.01000 40.83300
H  -18.64100 18.79500 41.74500
H  -18.88400 20.45200 42.38800
H  -17.79600 19.35200 43.16900
H  -18.00900 14.81700 42.33100
H  -16.58300 12.76800 43.77600
H  -18.28900 14.25300 44.94100
H  -18.34200 15.91700 44.38100
H  -16.75200 15.23900 45.05500
H  -16.36600 12.24600 40.96300
H  -18.09500 12.82400 41.51300
H  -18.47700 10.71400 41.97400
H  -17.40200 10.87200 43.32800
H  -16.74700 10.19600 41.85200
H  -12.77900 10.44600 43.89100
H  -10.98500 10.26200 43.97600
H  -11.86800 9.78000 42.53400
H  -8.21000 13.62500 40.40600
H  -5.06100 14.75400 43.41600
H  -5.22500 16.27800 42.42300
H  -4.26100 14.91200 41.89400

