158

Mg 43.22400 4.02900 47.22800
C  41.05200 6.68000 47.25900
C  40.40900 1.85500 47.29900
C  45.30300 1.40900 46.95300
C  45.88800 6.19300 46.91000
N  41.01500 4.27500 47.43900
C  40.40200 5.47000 47.33900
C  38.82700 5.25800 47.24600
C  38.61700 3.70200 47.34500
C  40.09300 3.22000 47.53000
C  37.65400 3.22100 48.47700
C  38.08900 5.84700 46.01500
C  38.75900 5.49800 44.62400
H  38.30900 6.30400 43.28500
N  42.89900 1.97100 47.13300
C  41.69100 1.26600 47.11800
C  41.97800 -0.07700 46.90000
C  43.39700 -0.26800 46.80200
C  43.92300 1.09400 46.98700
C  40.85800 -1.12000 46.73600
C  44.12000 -1.58500 46.56900
O  43.52900 -2.64000 46.38400
C  45.53800 -1.70200 46.48500
N  45.29600 3.76000 46.75900
C  45.95000 2.62500 46.86800
C  47.45800 2.79400 46.64600
C  47.61500 4.35700 46.79100
C  46.16400 4.82000 46.73900
C  48.34700 1.82600 47.44700
C  48.51400 5.08300 45.74900
C  49.64600 4.20600 45.15100
N  43.53400 6.10600 47.01700
C  44.62300 6.88800 46.97200
C  44.31100 8.34300 46.91100
C  42.92700 8.25700 47.06600
C  42.49900 6.87500 47.17600
C  45.21400 9.57500 46.90900
C  41.75600 9.10800 47.29400
O  41.63200 10.33100 47.34600
C  40.47500 8.11800 47.28000
C  39.61700 8.51100 48.44900
O  39.77600 8.03200 49.56600
O  38.51200 9.23100 48.09000
C  37.40300 9.32600 49.09000
H  39.48800 1.26900 47.24900
H  46.07700 0.66000 46.76900
H  46.80400 6.78300 46.83200
H  38.30300 5.63300 48.12500
H  38.27200 3.22700 46.42600
H  38.03600 2.38000 49.05500
H  36.72900 2.93800 47.97500
H  37.35100 3.98200 49.19700
H  37.97400 6.93000 46.06100
H  37.13100 5.32800 46.04500
H  38.61700 4.42600 44.48400
H  39.83100 5.61300 44.78000
H  40.67200 -1.23100 45.66800
H  39.97800 -0.72800 47.24500
H  41.12600 -2.05000 47.23800
H  46.04500 -1.70100 47.45000
H  45.94600 -1.00500 45.75300
H  45.75000 -2.67000 46.03200
H  47.64400 2.59700 45.59000
H  47.97500 4.72300 47.75200
H  48.84300 1.13200 46.76700
H  47.78100 1.23000 48.16200
H  49.06000 2.43300 48.00500
H  49.07700 5.87500 46.24300
H  47.96300 5.44300 44.88000
H  50.53200 4.84100 45.13100
H  49.29100 3.82300 44.19500
H  49.93000 3.43500 45.86700
H  45.32000 10.03200 47.89300
H  44.74800 10.33300 46.28100
H  46.13500 9.21600 46.45000
H  40.04900 8.18900 46.27900
H  37.47300 10.30100 49.57200
H  37.49800 8.62100 49.91600
H  36.43300 9.26800 48.59700
Mg 47.23700 16.45600 28.33900
C  44.97600 15.98300 31.09000
C  49.23300 18.21300 30.38100
C  48.90800 17.53200 25.72000
C  44.68000 15.23500 26.28600
N  47.01200 17.25100 30.44300
C  46.12500 16.71600 31.38900
C  46.53000 17.18800 32.81700
C  47.75800 18.21000 32.46800
C  47.96000 17.98900 30.98900
C  47.60000 19.74400 32.85400
C  46.81700 16.01500 33.67400
C  46.20700 16.12400 35.10200
H  46.10700 17.53200 35.86400
N  48.93600 17.42500 28.14700
C  49.66600 18.01600 29.09600
C  50.99100 18.39400 28.61400
C  50.88400 18.27700 27.18500
C  49.53800 17.68400 26.93500
C  52.13500 18.92700 29.48800
C  51.92200 18.65300 26.10100
O  51.77700 18.39800 24.95200
C  53.11300 19.37300 26.44600
N  46.82000 16.34700 26.35400
C  47.68400 16.92600 25.44700
C  47.12500 16.91700 24.00200
C  45.89200 15.94700 24.16600
C  45.79500 15.81100 25.67000
C  46.74700 18.32100 23.54200
C  46.15500 14.55800 23.53800
C  44.85900 14.00100 22.88300
N  45.26100 15.63500 28.62900
C  44.44100 15.07200 27.65800
C  43.23300 14.58200 28.32100
C  43.37400 14.87500 29.68400
C  44.62900 15.58900 29.80700
C  42.08300 13.91700 27.59900
C  42.80600 14.78000 31.01600
O  41.77700 14.24000 31.45800
C  43.80900 15.61300 31.93700
C  43.03300 16.81200 32.36900
O  42.47000 17.58300 31.59700
O  42.83400 16.88700 33.76200
C  41.99900 18.06800 34.11900
H  49.82000 18.77700 31.10900
H  49.38800 17.82400 24.78400
H  43.94000 14.79800 25.61300
H  45.72600 17.79700 33.23100
H  48.63500 17.78100 32.95300
H  46.80300 19.90000 33.58100
H  47.37500 20.35800 31.98300
H  48.57800 20.10700 33.17100
H  47.89700 15.98400 33.81200
H  46.44500 15.08200 33.24900
H  46.64000 15.36300 35.75200
H  45.20500 15.79900 34.82300
H  52.12600 20.01500 29.42100
H  53.12300 18.59800 29.16700
H  51.89500 18.79600 30.54400
H  52.97500 20.43700 26.64000
H  53.65600 19.29700 25.50400
H  53.77400 18.82600 27.11800
H  47.82900 16.54200 23.25900
H  45.07900 16.40200 23.60100
H  45.68700 18.52700 23.39500
H  47.15100 18.57600 22.56200
H  46.98600 19.11400 24.25000
H  46.70200 13.98900 24.29100
H  46.87800 14.69600 22.73400
H  44.67100 12.98800 23.23900
H  45.03900 13.95300 21.81000
H  43.90100 14.50500 23.01500
H  41.15700 13.83800 28.16900
H  42.40600 12.94600 27.22300
H  41.79900 14.50900 26.72800
H  44.03600 14.98800 32.80100
H  42.61300 18.93200 33.86300
H  41.71500 18.12400 35.16900
H  41.09300 18.18900 33.52400

