158

Mg 42.89900 4.91000 47.29000
C  41.07000 7.99900 47.33600
C  39.93600 3.27200 46.97400
C  44.63800 2.21700 46.50200
C  45.82200 6.86800 47.24100
N  40.72900 5.62300 47.28300
C  40.21000 6.85400 47.22500
C  38.68300 6.81000 47.22300
C  38.33000 5.30400 47.44300
C  39.72700 4.68900 47.17100
C  37.76700 5.03300 48.85500
C  38.07900 7.46700 45.95600
C  38.93100 7.47500 44.71000
H  38.22600 7.74300 43.37900
N  42.34300 2.96800 46.83300
C  41.06600 2.49400 46.78300
C  41.09400 1.10500 46.43000
C  42.46100 0.67500 46.24900
C  43.22400 1.95500 46.55400
C  39.81400 0.29300 46.36800
C  42.99500 -0.76100 45.81800
O  42.30600 -1.71900 45.37400
C  44.39900 -1.02200 45.88700
N  44.89000 4.64900 46.77000
C  45.34400 3.36900 46.74200
C  46.87700 3.34800 46.80200
C  47.32600 4.84100 47.02800
C  45.95400 5.51400 47.02600
C  47.41600 2.27800 47.86700
C  48.26300 5.21200 45.98000
C  49.78700 5.19600 46.47500
N  43.37200 6.97100 47.28600
C  44.62300 7.60600 47.20000
C  44.42200 8.98500 47.36500
C  43.04600 9.19600 47.46800
C  42.46700 7.96600 47.30800
C  45.59400 9.96800 47.31300
C  42.04100 10.20600 47.55800
O  42.20600 11.39500 47.59500
C  40.63600 9.49700 47.42400
C  39.97300 9.72800 48.71200
O  39.97200 8.92200 49.63400
O  39.28300 10.96500 48.66000
C  38.23200 11.13000 49.70500
H  39.02000 2.68400 46.89200
H  45.27700 1.34500 46.34300
H  46.74700 7.40500 47.46300
H  38.46600 7.43000 48.09300
H  37.79800 4.81100 46.63000
H  37.14600 5.89800 49.08800
H  38.58800 4.98700 49.57000
H  37.23900 4.08300 48.93800
H  38.00900 8.54500 46.09500
H  37.05800 7.10400 45.83700
H  39.31900 6.45800 44.63500
H  39.73300 8.19300 44.88300
H  39.36900 0.28000 45.37300
H  39.16300 0.53400 47.20900
H  40.13100 -0.71400 46.63600
H  44.87900 -0.74500 46.82600
H  44.85600 -0.48800 45.05400
H  44.57900 -2.09600 45.85600
H  47.18000 2.87500 45.86900
H  47.70200 5.12900 48.01000
H  46.94600 2.16600 48.84500
H  48.45400 2.55100 48.05500
H  47.39300 1.24500 47.51800
H  48.11800 6.22800 45.61500
H  48.22500 4.60900 45.07300
H  50.00800 4.57100 47.34000
H  50.22900 6.18700 46.57400
H  50.46900 4.80700 45.71800
H  46.04400 9.75800 46.34300
H  46.28700 9.75400 48.12600
H  45.29400 11.01600 47.31200
H  40.00600 9.91100 46.63700
H  37.93200 10.32300 50.37300
H  37.31800 11.39700 49.17500
H  38.59400 11.79500 50.48900
Mg -12.07900 16.98400 41.56900
C  -9.05300 15.17500 41.20500
C  -10.50300 19.67400 40.18800
C  -15.05700 18.47200 41.15500
C  -13.71700 13.78500 41.98200
N  -10.04100 17.36800 40.71700
C  -8.95900 16.50300 40.68200
C  -7.78600 17.04400 39.92800
C  -8.18700 18.57100 39.94400
C  -9.64900 18.58000 40.32100
C  -7.24200 19.45300 40.75400
C  -7.58000 16.41900 38.50100
C  -6.32400 15.66700 38.14400
H  -5.65300 15.96300 36.77900
N  -12.69100 18.92700 41.01700
C  -11.86700 19.93600 40.51500
C  -12.65500 21.08400 40.32900
C  -14.02300 20.77700 40.60100
C  -13.99200 19.36200 40.97700
C  -12.08300 22.32500 39.87300
C  -15.18000 21.66700 40.47200
O  -15.11100 22.80000 40.10600
C  -16.65600 21.24400 40.75800
N  -14.03000 16.21400 41.57500
C  -15.05800 17.08700 41.43800
C  -16.36900 16.30500 41.53500
C  -15.93100 14.81400 41.84100
C  -14.41300 14.91000 41.73100
C  -17.40600 16.87000 42.54600
C  -16.71900 13.69900 41.02800
C  -17.05600 12.39700 41.85300
N  -11.56400 14.87000 41.68900
C  -12.30500 13.70500 41.93200
C  -11.41000 12.58900 42.14500
C  -10.13800 13.09900 41.87600
C  -10.30300 14.51400 41.60300
C  -11.93300 11.22900 42.45400
C  -8.77800 12.70500 41.72000
O  -8.25600 11.66100 41.83300
C  -8.00600 14.11900 41.38300
C  -7.06500 14.42800 42.53200
O  -7.39400 14.92200 43.63500
O  -5.75500 14.15900 42.23600
C  -4.73000 14.29100 43.30300
H  -9.91100 20.54400 39.89300
H  -16.06500 18.89200 41.14300
H  -14.30600 12.88300 42.16400
H  -6.83700 16.86200 40.43200
H  -8.13900 18.95700 38.92600
H  -6.28800 18.98900 41.00600
H  -7.71200 19.60600 41.72500
H  -7.05500 20.41400 40.27400
H  -7.78600 17.20400 37.77400
H  -8.37900 15.70100 38.32000
H  -6.49400 14.59000 38.13900
H  -5.52000 15.80700 38.86700
H  -12.19400 22.38400 38.79100
H  -10.99900 22.39800 39.97200
H  -12.55200 23.15900 40.39400
H  -17.29100 22.12300 40.64700
H  -16.82500 20.87100 41.76800
H  -16.94500 20.36500 40.18100
H  -16.80600 16.35200 40.53700
H  -16.13400 14.70600 42.90700
H  -18.25200 17.38400 42.09000
H  -16.95900 17.64400 43.17000
H  -17.87800 16.14500 43.20800
H  -16.29500 13.50800 40.04200
H  -17.69400 14.16400 40.88300
H  -18.12000 12.45700 42.08100
H  -16.57400 12.38500 42.83100
H  -16.94000 11.51300 41.22600
H  -12.28500 10.67200 41.58600
H  -12.71200 11.37300 43.20300
H  -11.03100 10.80200 42.89100
H  -7.53400 13.97100 40.41200
H  -4.14600 13.37200 43.23700
H  -5.11200 14.26000 44.32300
H  -4.10100 15.14500 43.05300

