158

Mg -1.40800 17.70600 27.24000
C  -2.17200 15.36200 29.71400
C  -1.79700 20.20500 29.51400
C  -1.18500 19.95300 24.69100
C  -1.51300 15.09700 24.81000
N  -2.01000 17.73400 29.36900
C  -2.03900 16.65700 30.18800
C  -1.95300 17.04600 31.65500
C  -2.00200 18.63700 31.55300
C  -1.90100 18.90900 30.04300
C  -3.01700 19.46100 32.35500
C  -0.68200 16.41700 32.47000
C  -0.24900 17.11200 33.73100
H  -0.23400 16.32300 35.13900
N  -1.50800 19.80600 27.14900
C  -1.70200 20.62100 28.20400
C  -1.59400 21.98900 27.73500
C  -1.47000 21.97600 26.31100
C  -1.39200 20.53500 25.95400
C  -1.77600 23.14500 28.74600
C  -1.30400 23.09500 25.29500
O  -1.03900 22.90900 24.12000
C  -1.30500 24.47600 25.80800
N  -1.37500 17.51700 25.08800
C  -1.28900 18.61300 24.29600
C  -1.17300 18.25100 22.72100
C  -1.16700 16.71600 22.79900
C  -1.35200 16.40000 24.29300
C  -2.25100 18.90900 21.72300
C  0.12900 16.10200 22.26800
C  1.32400 16.47100 23.11500
N  -1.72800 15.61600 27.22400
C  -1.76300 14.76000 26.13000
C  -2.09700 13.41100 26.65500
C  -2.22700 13.60400 28.05600
C  -2.04700 14.94400 28.35800
C  -2.35700 12.09300 25.87900
C  -2.46000 12.92300 29.25800
O  -2.71200 11.76100 29.48900
C  -2.52200 14.02300 30.40400
C  -1.52700 13.54700 31.38600
O  -0.31700 13.53000 31.25000
O  -2.12300 12.88900 32.41500
C  -1.24900 12.18400 33.35200
H  -1.56800 20.94000 30.28900
H  -1.14200 20.55900 23.78400
H  -1.47800 14.31000 24.05300
H  -2.82100 16.70500 32.21800
H  -1.01100 18.96500 31.86700
H  -3.80000 19.75400 31.65600
H  -2.57200 20.41000 32.65400
H  -3.46300 18.94000 33.20300
H  0.25500 16.21300 31.95100
H  -0.98900 15.43600 32.83300
H  -0.95400 17.90700 33.97600
H  0.61300 17.73900 33.50500
H  -1.53700 22.88600 29.77700
H  -2.80900 23.49000 28.68400
H  -1.17300 23.99900 28.43800
H  -1.27800 25.23700 25.02700
H  -0.44400 24.57000 26.46900
H  -2.17000 24.71100 26.42800
H  -0.17300 18.60900 22.47700
H  -2.00300 16.25700 22.27200
H  -2.99400 18.23200 21.30300
H  -1.64400 19.19800 20.86500
H  -2.68100 19.78100 22.21600
H  0.27100 16.52900 21.27500
H  0.04800 15.01600 22.21900
H  1.57500 15.61900 23.74700
H  1.17500 17.40800 23.65100
H  2.16600 16.73900 22.47800
H  -1.51300 11.44200 26.10800
H  -2.51000 12.27300 24.81500
H  -3.28900 11.62600 26.19600
H  -3.55800 13.89800 30.72200
H  -0.40900 11.73200 32.82400
H  -1.80500 11.40900 33.88000
H  -0.73200 12.89300 34.00000
Mg 47.25100 25.48000 27.84100
C  47.98100 27.62900 30.32900
C  46.73100 23.12900 30.34600
C  46.43600 23.13700 25.45700
C  48.45200 27.58500 25.46300
N  47.01000 25.52700 30.16800
C  47.30000 26.58800 30.91800
C  47.19800 26.20200 32.46400
C  46.98000 24.62700 32.46800
C  46.84600 24.40700 30.90900
C  48.21400 23.77000 32.96200
C  46.24300 27.08300 33.26000
C  46.04400 26.38600 34.73700
H  46.23600 27.33600 35.87200
N  46.51000 23.41900 27.91300
C  46.43500 22.66500 29.03100
C  45.89800 21.34100 28.63100
C  45.59800 21.46000 27.22400
C  46.15500 22.73500 26.81300
C  45.67800 20.19500 29.64800
C  44.93700 20.46600 26.32000
O  44.73200 20.77000 25.15000
C  44.72500 19.03000 26.75200
N  47.46700 25.36000 25.72800
C  47.11600 24.29000 24.98600
C  47.34600 24.56800 23.51400
C  47.94300 26.03300 23.52900
C  47.87500 26.39000 24.98300
C  48.18400 23.55600 22.76800
C  47.10500 27.08800 22.67400
C  47.73600 27.61300 21.38000
N  48.15800 27.20200 27.81500
C  48.53300 28.00500 26.77400
C  49.16300 29.20400 27.27600
C  49.02400 29.06100 28.69900
C  48.37400 27.82700 28.97600
C  49.84500 30.18200 26.36000
C  49.26400 29.67500 29.96800
O  49.78000 30.69300 30.30700
C  48.48300 28.87200 31.07600
C  49.39200 28.59200 32.31100
O  50.43500 27.86300 32.16600
O  48.90600 29.34100 33.39900
C  49.60700 29.29100 34.70200
H  46.80700 22.30400 31.05800
H  46.21900 22.37800 24.70200
H  48.92300 28.15700 24.66100
H  48.13900 26.37000 32.98800
H  46.07900 24.31900 32.99900
H  48.05500 22.73800 33.27600
H  48.70000 24.32800 33.76300
H  49.00100 23.68100 32.21300
H  45.30700 27.02200 32.70400
H  46.57500 28.12000 33.21100
H  46.84800 25.65900 34.85500
H  45.03700 25.97100 34.77200
H  46.03400 19.24400 29.25300
H  44.61800 20.00500 29.81500
H  46.17100 20.28800 30.61500
H  44.23200 18.96400 27.72200
H  45.66800 18.48600 26.81000
H  44.06200 18.56100 26.02500
H  46.38700 24.51300 22.99900
H  48.98600 26.18800 23.25300
H  48.71900 22.81900 23.36700
H  48.95100 24.04700 22.16800
H  47.54100 22.98300 22.10000
H  46.78300 27.84900 23.38500
H  46.19300 26.62600 22.29700
H  47.26500 27.02700 20.59100
H  48.74700 27.20600 21.39000
H  47.57000 28.68000 21.23100
H  49.83500 29.99000 25.28700
H  50.90000 30.14900 26.63300
H  49.58200 31.22900 26.51300
H  47.66800 29.52600 31.38700
H  49.26200 30.07100 35.38000
H  50.69300 29.28800 34.61400
H  49.24000 28.33200 35.06900

