158

Mg 1.69000 -1.07100 44.12900
C  5.09800 -0.25300 43.43300
C  0.81400 1.69400 42.26600
C  -1.37600 -2.05200 44.54200
C  2.87700 -4.04800 45.47300
N  2.84700 0.48000 42.88700
C  4.19100 0.64500 42.83200
C  4.58500 1.76200 41.91600
C  3.22800 2.58700 41.75200
C  2.21300 1.54200 42.26400
C  2.99900 3.82400 42.65200
C  5.35700 1.34300 40.58500
C  6.70000 2.01000 40.28300
H  7.00200 2.72900 39.02100
N  -0.01800 -0.19400 43.62600
C  -0.18800 0.87100 42.80400
C  -1.63700 1.14400 42.60900
C  -2.28600 0.14400 43.28500
C  -1.25000 -0.74400 43.91500
C  -2.22200 2.22600 41.79100
C  -3.86600 0.08300 43.36100
O  -4.56600 0.88500 42.75600
C  -4.59200 -1.01400 44.06400
N  0.91000 -2.85200 44.79900
C  -0.44700 -3.03500 44.83100
C  -0.86700 -4.41700 45.36500
C  0.48000 -4.90500 45.99200
C  1.48200 -3.90700 45.33600
C  -2.21400 -4.67500 46.18500
C  0.69300 -6.45200 45.91400
C  0.87700 -7.17900 47.23100
N  3.57100 -2.01700 44.37200
C  3.87900 -3.26200 44.88200
C  5.32600 -3.47700 44.91400
C  5.82200 -2.24100 44.49000
C  4.73800 -1.43200 44.03500
C  6.03500 -4.69100 45.45400
C  7.04600 -1.47400 44.36200
O  8.16300 -1.73000 44.77400
C  6.60800 -0.16700 43.63500
C  6.99900 0.95300 44.50700
O  6.67500 1.06600 45.67900
O  7.77500 1.84600 43.82900
C  8.57900 2.81600 44.61400
H  0.55500 2.55300 41.64300
H  -2.41600 -2.37300 44.63600
H  3.18200 -4.92500 46.04800
H  5.36500 2.35100 42.39900
H  2.90900 2.82200 40.73600
H  3.84200 4.13800 43.26700
H  2.18500 3.69300 43.36500
H  2.69400 4.65700 42.02000
H  4.69100 1.40200 39.72300
H  5.58700 0.28100 40.67100
H  7.47900 1.25300 40.38100
H  6.83900 2.77100 41.05100
H  -2.91300 1.82500 41.05000
H  -1.48300 2.87900 41.32800
H  -2.89700 2.81100 42.41600
H  -5.62500 -0.70500 44.22600
H  -4.18400 -0.95800 45.07400
H  -4.35200 -2.00900 43.68900
H  -1.01100 -4.87500 44.38600
H  0.41300 -4.67600 47.05500
H  -2.91000 -5.35300 45.69000
H  -2.66500 -3.71200 46.42100
H  -1.88600 -5.17400 47.09700
H  1.58600 -6.60600 45.30700
H  -0.09900 -6.89500 45.31100
H  0.34500 -8.12300 47.11200
H  0.41500 -6.65300 48.06700
H  1.95600 -7.16400 47.38500
H  7.07800 -4.58400 45.15600
H  5.64900 -5.58200 44.95900
H  5.98100 -4.72200 46.54200
H  7.23800 -0.13400 42.74700
H  9.51000 2.97000 44.06900
H  8.69000 2.46200 45.64000
H  8.18200 3.83100 44.60800
Mg 48.44400 15.35200 27.89600
C  46.42700 15.45800 31.02000
C  50.95600 16.67900 29.69000
C  50.11100 15.43700 24.97400
C  45.52500 14.14900 26.35300
N  48.50900 16.34800 30.10100
C  47.73000 16.08100 31.13800
C  48.46900 16.43100 32.48500
C  49.84300 16.99500 31.95400
C  49.84300 16.58400 30.49300
C  50.14000 18.55100 32.18600
C  48.59500 15.26200 33.49900
C  47.83300 15.42500 34.85600
H  47.68600 16.84500 35.42500
N  50.28200 16.10600 27.40800
C  51.19500 16.52200 28.27800
C  52.37600 16.86900 27.50900
C  52.19900 16.40500 26.17400
C  50.77100 15.95900 26.11600
C  53.53000 17.63200 28.13900
C  53.17500 16.43700 25.02700
O  52.86100 15.91600 23.92000
C  54.59100 17.02600 25.18700
N  47.87100 14.89500 25.98700
C  48.68100 15.13500 24.90700
C  48.02700 14.80400 23.54000
C  46.74800 14.18100 23.97200
C  46.66800 14.45200 25.53800
C  48.01100 15.91100 22.42000
C  46.61000 12.69900 23.56800
C  47.45200 11.62200 24.33700
N  46.39000 14.85900 28.53800
C  45.38000 14.33700 27.73600
C  44.16900 14.08600 28.57200
C  44.61700 14.39000 29.88500
C  45.94200 14.95000 29.80000
C  42.92400 13.53300 28.10800
C  44.21200 14.34100 31.31800
O  43.12100 14.13100 31.77600
C  45.45300 14.99100 32.08100
C  44.87000 16.19500 32.81200
O  44.78600 17.36800 32.42300
O  44.34900 15.86100 34.04000
C  43.63400 16.79000 34.92100
H  51.79000 16.99700 30.31900
H  50.62200 15.60500 24.02400
H  44.65800 13.67600 25.88800
H  47.86200 17.22100 32.92600
H  50.73700 16.55100 32.39300
H  49.23000 18.95500 32.63100
H  50.24500 19.02300 31.21000
H  50.91700 18.75400 32.92300
H  49.64600 15.09900 33.73700
H  48.19600 14.38000 32.99800
H  48.43100 14.92600 35.61900
H  46.86000 14.93600 34.91000
H  53.39500 18.67000 27.83700
H  54.43400 17.10400 27.83600
H  53.46700 17.66200 29.22700
H  55.18900 16.41300 25.86100
H  54.58000 18.03900 25.58900
H  55.11400 17.07400 24.23100
H  48.60700 13.95700 23.17400
H  45.98600 14.79000 23.48600
H  48.68100 16.71600 22.72200
H  47.05300 16.43000 22.41200
H  48.47900 15.58100 21.49300
H  46.71200 12.63600 22.48500
H  45.58700 12.50700 23.89200
H  47.90600 10.97400 23.58700
H  46.74500 11.10800 24.98800
H  48.18000 12.20700 24.89800
H  42.04500 13.93900 28.60800
H  42.83300 12.51100 28.47600
H  42.89400 13.70000 27.03100
H  45.90100 14.28200 32.77600
H  44.35600 17.52800 35.27200
H  43.09100 16.29600 35.72600
H  42.86700 17.31400 34.35100

