158

Mg 48.14700 16.04600 28.71800
C  46.12400 16.08300 31.55700
C  50.40200 18.10500 30.53000
C  49.64200 17.01700 25.83100
C  45.54300 14.71200 26.98700
N  48.35000 16.83800 30.88700
C  47.35100 16.73200 31.80300
C  47.83800 17.29700 33.09900
C  48.94900 18.28600 32.59100
C  49.27600 17.72400 31.21600
C  48.64000 19.78500 32.62000
C  48.22800 16.07600 34.03300
C  47.74000 16.28300 35.45800
H  47.32700 17.65500 35.97600
N  49.81600 17.27200 28.31900
C  50.75000 17.82100 29.17800
C  51.87500 18.36900 28.45700
C  51.60700 18.18700 27.08200
C  50.25000 17.46000 27.02700
C  53.09800 19.02000 29.12000
C  52.40500 18.63400 25.81700
O  52.06500 18.35700 24.69300
C  53.66000 19.57600 25.95000
N  47.59300 16.05700 26.72100
C  48.40000 16.36600 25.72400
C  47.96800 15.90900 24.35800
C  46.81300 15.01100 24.71800
C  46.64800 15.19100 26.23300
C  47.49300 17.06300 23.45900
C  47.12200 13.46500 24.48900
C  45.95700 12.64700 23.94300
N  46.28700 15.19200 29.23200
C  45.34800 14.62900 28.39600
C  44.20700 14.15500 29.15500
C  44.45300 14.64400 30.46700
C  45.67500 15.40100 30.43500
C  42.93200 13.63300 28.52600
C  43.88500 14.90300 31.75600
O  42.86700 14.55300 32.30600
C  45.05000 15.72500 32.56200
C  44.39700 16.84500 33.33100
O  44.04900 17.93800 32.84300
O  44.25900 16.44900 34.61000
C  43.33700 17.34300 35.37900
H  51.14200 18.67500 31.09500
H  50.25600 17.16500 24.94000
H  44.71800 14.18700 26.50100
H  47.05100 17.92700 33.51300
H  49.84800 18.16200 33.19400
H  47.67800 20.07400 33.04200
H  48.77100 20.24800 31.64200
H  49.33800 20.29400 33.28500
H  49.31200 15.96000 34.01700
H  47.66500 15.23700 33.62300
H  48.54400 16.05400 36.15700
H  46.98200 15.51900 35.62900
H  53.21000 20.01000 28.67700
H  53.90300 18.32100 28.89000
H  52.85800 19.22100 30.16400
H  53.88400 19.86600 24.92300
H  54.49100 19.05500 26.42500
H  53.37300 20.50500 26.44300
H  48.80400 15.36000 23.92500
H  45.88600 15.12000 24.15500
H  46.53100 16.85400 22.99200
H  48.29600 17.11700 22.72400
H  47.39500 17.95200 24.08300
H  47.40700 13.11100 25.47900
H  47.97400 13.43300 23.80900
H  46.31100 12.07100 23.08800
H  45.01600 13.15900 23.74200
H  45.74100 12.00200 24.79400
H  42.09300 14.13500 29.00700
H  42.87700 12.56700 28.74800
H  42.86700 13.75400 27.44500
H  45.38400 15.05200 33.35200
H  42.56200 17.73900 34.72200
H  43.87900 18.10600 35.93700
H  42.82300 16.86900 36.21600
Mg 17.03400 51.42500 26.28700
C  19.11400 49.93200 28.84200
C  14.77500 52.14600 28.69300
C  15.17600 52.33100 23.78300
C  19.40900 50.07000 24.07200
N  16.97600 51.07400 28.43900
C  17.95400 50.51200 29.35400
C  17.58200 50.71000 30.81300
C  16.09900 51.10500 30.65600
C  15.95500 51.52400 29.15400
C  15.04800 50.05400 31.09000
C  18.52600 51.81800 31.51500
C  18.69500 51.64000 33.05800
H  17.77000 50.62300 33.78200
N  15.29300 52.44700 26.27000
C  14.46700 52.58700 27.36500
C  13.21100 53.15700 26.89100
C  13.31800 53.20500 25.47300
C  14.63500 52.64500 25.12900
C  12.11000 53.76300 27.83800
C  12.38900 53.76100 24.38700
O  12.74600 53.84900 23.23800
C  10.99400 54.22700 24.80800
N  17.23000 51.18300 24.23400
C  16.35300 51.70800 23.41500
C  16.73700 51.49900 21.93600
C  18.21500 50.90700 22.06700
C  18.34100 50.79200 23.54600
C  15.69100 50.66500 21.11200
C  19.32500 51.69100 21.33400
C  20.34800 50.75600 20.52300
N  18.85300 50.14200 26.35900
C  19.66400 49.68400 25.40800
C  20.84900 49.00700 25.96000
C  20.73900 49.10300 27.31900
C  19.48000 49.76700 27.52900
C  21.92700 48.40600 25.15300
C  21.26600 48.74300 28.62400
O  22.24800 48.13400 28.93700
C  20.25200 49.34800 29.69500
C  19.86800 48.34300 30.66300
O  18.90200 47.59500 30.58100
O  20.61500 48.37200 31.80900
C  20.41900 47.25600 32.76000
H  13.96900 52.26400 29.42100
H  14.45800 52.55500 22.99100
H  20.21200 49.78600 23.38800
H  17.60700 49.77000 31.36500
H  15.91400 52.06300 31.14400
H  15.56200 49.27000 31.64700
H  14.55300 49.55000 30.25900
H  14.20300 50.43800 31.66100
H  18.00900 52.77100 31.40100
H  19.52300 51.75200 31.08100
H  18.65500 52.55700 33.64600
H  19.66500 51.14900 33.14400
H  12.53800 53.82100 28.83900
H  11.31500 53.01700 27.85500
H  11.68500 54.70200 27.48500
H  11.02400 55.13900 25.40500
H  10.59200 53.35200 25.31900
H  10.42800 54.40200 23.89300
H  16.75000 52.48300 21.46800
H  18.21800 49.85800 21.77100
H  16.06800 49.77000 20.61600
H  15.39200 51.30100 20.27800
H  14.82000 50.33600 21.67800
H  19.72100 52.48200 21.97100
H  18.84000 52.34100 20.60600
H  21.31500 51.07500 20.91300
H  20.25100 50.92800 19.45200
H  20.21800 49.68600 20.68600
H  22.81100 49.03700 25.05000
H  21.48400 48.33900 24.16000
H  22.19800 47.38800 25.43100
H  20.88300 50.10100 30.16800
H  21.24800 47.16000 33.46100
H  20.15000 46.29300 32.32500
H  19.64500 47.63300 33.42700

