158

Mg -1.83200 17.33400 26.12500
C  -2.44800 15.18400 28.88100
C  -3.12700 19.84700 27.99800
C  -1.61100 19.28700 23.56000
C  -1.31300 14.48200 24.12500
N  -2.71900 17.46600 28.22900
C  -2.80900 16.52300 29.17400
C  -3.33500 17.05200 30.53400
C  -3.99300 18.35300 30.03800
C  -3.26600 18.58800 28.66200
C  -5.54400 18.27600 29.93500
C  -2.18200 17.27600 31.52100
C  -2.49900 16.89400 33.00100
H  -1.22900 16.48400 33.87100
N  -1.99900 19.36200 25.95700
C  -2.56700 20.24500 26.80900
C  -2.40600 21.57200 26.29600
C  -1.88800 21.43300 25.00400
C  -1.86300 20.05400 24.74000
C  -2.74700 22.78100 27.13500
C  -1.41500 22.52600 24.10600
O  -0.80600 22.24800 23.07700
C  -1.47700 23.88300 24.55500
N  -1.71900 16.90300 24.18300
C  -1.55400 17.90600 23.26400
C  -1.53100 17.42900 21.85000
C  -1.11900 15.91800 22.03300
C  -1.39100 15.75700 23.54300
C  -2.93000 17.70400 21.26400
C  0.41500 15.58900 21.79900
C  1.46300 16.01500 22.79900
N  -1.86200 15.21600 26.41800
C  -1.60700 14.19300 25.54600
C  -1.67600 12.88600 26.20300
C  -2.01100 13.22300 27.56300
C  -2.11500 14.62800 27.62800
C  -1.52100 11.51200 25.62100
C  -2.23700 12.64300 28.86000
O  -2.24700 11.48800 29.28700
C  -2.55100 13.91500 29.76600
C  -1.57900 13.91600 30.95900
O  -0.37000 13.97200 30.92200
O  -2.31000 13.57000 32.04400
C  -1.53600 13.14900 33.18300
H  -3.55600 20.54400 28.72200
H  -1.57700 19.97000 22.70900
H  -1.02400 13.72700 23.39100
H  -4.02600 16.29300 30.89900
H  -3.74400 19.16100 30.72600
H  -6.08700 19.09100 30.41500
H  -5.84900 17.28800 30.27900
H  -5.81300 18.27000 28.87900
H  -1.85000 18.31300 31.56700
H  -1.42600 16.56000 31.19700
H  -3.25500 16.12400 33.14800
H  -2.86600 17.82400 33.43700
H  -3.12200 22.59600 28.14200
H  -3.48700 23.41000 26.64000
H  -1.81500 23.34700 27.15500
H  -2.47100 24.15000 24.91400
H  -1.23600 24.53600 23.71700
H  -0.68500 24.06100 25.28200
H  -0.74100 17.93400 21.29200
H  -1.75900 15.34200 21.36400
H  -3.40700 16.72500 21.23000
H  -2.82400 18.00300 20.22100
H  -3.54100 18.26900 21.96700
H  0.82500 16.06600 20.90900
H  0.48900 14.54200 21.50600
H  1.90100 15.12100 23.24300
H  1.02200 16.71200 23.51100
H  2.36700 16.40800 22.33400
H  -1.47700 11.49300 24.53300
H  -2.44900 10.99200 25.86100
H  -0.68000 11.00400 26.09200
H  -3.55900 13.73900 30.14200
H  -2.02700 13.66100 34.01100
H  -0.51100 13.51400 33.23700
H  -1.54400 12.06000 33.21900
Mg 36.50300 49.48900 25.05200
C  36.73500 47.73000 28.20000
C  35.63100 52.35600 26.83100
C  36.41000 51.16300 22.20200
C  37.24700 46.45900 23.49900
N  36.20100 49.88700 27.21400
C  36.52100 49.10900 28.31100
C  36.41100 49.90500 29.63200
C  35.85000 51.29500 29.19600
C  35.81100 51.19500 27.60900
C  34.51000 51.74000 29.89700
C  37.81400 50.05400 30.25300
C  38.04300 50.17800 31.83700
H  36.76300 50.40100 32.67100
N  36.02900 51.52500 24.58500
C  35.63700 52.50800 25.41100
C  35.49200 53.75400 24.66800
C  35.67400 53.41600 23.23800
C  35.98900 51.97800 23.31400
C  34.99200 55.01200 25.27400
C  35.56200 54.26900 22.01300
O  35.69000 53.83400 20.82800
C  35.38500 55.67900 22.27600
N  36.60800 48.87400 23.10700
C  36.65200 49.81000 22.07700
C  37.11600 49.13500 20.75200
C  37.60000 47.64700 21.24300
C  37.14300 47.62700 22.70700
C  36.04400 49.13500 19.57200
C  39.14300 47.48000 21.09000
C  39.55700 46.04100 20.69100
N  36.75600 47.50900 25.62400
C  37.06900 46.40200 24.86000
C  37.14500 45.26400 25.70600
C  37.01500 45.78600 27.01000
C  36.76900 47.13900 26.93500
C  37.60200 43.96700 25.35200
C  37.12100 45.37200 28.39200
O  37.46500 44.36300 28.94000
C  36.84700 46.65900 29.23400
C  35.63500 46.37300 30.11300
O  34.65900 45.85200 29.62500
O  35.94200 46.69300 31.40500
C  34.78000 46.39500 32.29400
H  35.48900 53.24100 27.45400
H  36.33600 51.65600 21.23000
H  37.51100 45.55200 22.95100
H  35.68300 49.47800 30.32300
H  36.50700 52.15000 29.35400
H  34.67400 52.61600 30.52500
H  34.13200 51.05600 30.65600
H  33.66500 51.94400 29.23900
H  38.34300 50.86600 29.75400
H  38.37500 49.17100 29.94600
H  38.70600 51.04200 31.88000
H  38.56000 49.31500 32.25700
H  35.67900 55.82400 25.03300
H  35.13200 55.09300 26.35300
H  33.96900 55.35800 25.13000
H  36.13300 56.06100 22.97100
H  34.35100 55.95700 22.47800
H  35.63500 56.14800 21.32500
H  37.96800 49.73600 20.43500
H  36.95100 46.95900 20.70000
H  35.07800 49.12900 20.07600
H  36.09700 48.32400 18.84600
H  36.22500 50.08800 19.07500
H  39.71300 47.44600 22.01900
H  39.63800 48.21900 20.46000
H  38.68100 45.39300 20.71800
H  40.28200 45.61200 21.38300
H  40.05500 46.09500 19.72300
H  38.42200 43.65200 25.99600
H  37.80600 43.81400 24.29300
H  36.72000 43.34700 25.51200
H  37.70900 46.90400 29.85500
H  34.55800 45.33300 32.19400
H  33.94700 47.06900 32.09400
H  34.99600 46.46800 33.36000

