158

Mg -1.61900 17.67900 25.59400
C  -2.19900 15.65000 28.20500
C  -2.73600 20.43500 27.52400
C  -1.27100 19.72000 22.93200
C  -1.13500 14.96300 23.59800
N  -2.24400 18.02100 27.61500
C  -2.48100 17.02500 28.49100
C  -2.90500 17.60300 29.89400
C  -3.61500 18.97500 29.45000
C  -2.81400 19.15500 28.10900
C  -5.17700 19.00300 29.15800
C  -1.77500 17.80300 30.88300
C  -2.08100 17.75100 32.38200
H  -1.10700 17.18500 33.35300
N  -1.84600 19.85300 25.27300
C  -2.35100 20.79900 26.22400
C  -2.48300 22.10500 25.58300
C  -1.98100 21.91800 24.23100
C  -1.67700 20.46700 24.10000
C  -3.07800 23.38200 26.27000
C  -1.68900 22.89700 23.13100
O  -1.17000 22.67000 22.04200
C  -2.10600 24.31200 23.30300
N  -1.32300 17.41100 23.53300
C  -1.23100 18.40800 22.65400
C  -1.00000 17.85100 21.17900
C  -0.88100 16.32100 21.46200
C  -1.02900 16.22700 22.94500
C  -2.10000 18.21500 20.14100
C  0.42500 15.75900 21.00900
C  1.66300 16.23100 21.75900
N  -1.63900 15.65800 25.77800
C  -1.38600 14.65600 24.91800
C  -1.62800 13.37300 25.56000
C  -1.88700 13.72300 26.89700
C  -1.82500 15.11000 26.96300
C  -1.84400 11.99400 24.96700
C  -2.32200 13.24800 28.17000
O  -2.57500 12.14600 28.56900
C  -2.52800 14.50000 29.02600
C  -1.70500 14.43400 30.22600
O  -0.46900 14.48900 30.26500
O  -2.55400 14.17300 31.28200
C  -2.00500 13.38600 32.39900
H  -3.30400 21.19200 28.06800
H  -1.14700 20.42200 22.10500
H  -0.91300 14.17400 22.87700
H  -3.66400 16.93300 30.29800
H  -3.35900 19.80100 30.11400
H  -5.69300 19.69900 29.82000
H  -5.49400 17.98800 29.39700
H  -5.53400 19.36100 28.19200
H  -1.42100 18.80900 30.65800
H  -1.00900 17.05500 30.67700
H  -3.07000 17.34000 32.58600
H  -2.07400 18.76100 32.79200
H  -2.24100 24.05300 26.45800
H  -3.59300 23.20600 27.21400
H  -3.82300 23.86400 25.63700
H  -3.18100 24.29800 23.11900
H  -1.63900 24.97700 22.57700
H  -1.95100 24.74800 24.29000
H  -0.06500 18.25700 20.79400
H  -1.65300 15.78800 20.90600
H  -3.01900 18.39700 20.69900
H  -2.45500 17.38100 19.53600
H  -1.86900 19.06300 19.49600
H  0.52000 16.10000 19.97800
H  0.39200 14.67100 21.06200
H  2.12900 15.31300 22.11700
H  1.36000 16.83600 22.61300
H  2.29200 16.64700 20.97200
H  -2.15600 12.15400 23.93500
H  -2.61200 11.48000 25.54500
H  -0.92400 11.41300 25.02400
H  -3.59600 14.55700 29.23600
H  -1.10900 12.80600 32.17900
H  -2.67800 12.54700 32.57700
H  -1.95100 13.97500 33.31400
Mg 35.65300 -0.12100 29.57000
C  33.62500 1.24900 32.07500
C  38.20800 -0.44200 31.83400
C  37.57700 -1.37300 27.16800
C  33.01900 0.43000 27.29500
N  35.86900 0.32600 31.71200
C  34.91500 0.90100 32.50100
C  35.50300 1.14900 33.88800
C  37.06300 0.91400 33.77800
C  37.09300 0.18300 32.41300
C  37.85900 2.16400 33.80200
C  34.87700 0.28100 34.97800
C  34.89800 0.77700 36.41500
H  35.92300 1.84600 36.75300
N  37.50000 -1.06500 29.61000
C  38.35900 -1.03400 30.60000
C  39.58400 -1.83100 30.25600
C  39.32900 -2.20300 28.92000
C  38.08200 -1.55500 28.44900
C  40.73100 -2.02400 31.18700
C  40.28100 -2.99200 28.01900
O  40.03800 -3.16800 26.85500
C  41.55400 -3.78000 28.58200
N  35.29100 -0.43200 27.47100
C  36.34300 -0.88800 26.66800
C  35.99500 -0.52400 25.12500
C  34.41200 -0.26400 25.22200
C  34.21200 -0.06700 26.72600
C  36.68300 0.74800 24.57000
C  33.54100 -1.43700 24.78200
C  32.49000 -1.02300 23.68300
N  33.66400 0.63000 29.66100
C  32.71500 0.74000 28.64500
C  31.57200 1.41100 29.19900
C  31.83700 1.58500 30.56000
C  33.15300 1.09300 30.75100
C  30.34400 1.66500 28.39900
C  31.31000 2.09100 31.81400
O  30.25700 2.63400 32.14700
C  32.45100 1.90300 32.86100
C  32.68100 3.28700 33.35000
O  32.97400 4.29000 32.72300
O  32.45000 3.23500 34.72400
C  32.49700 4.39800 35.53800
H  38.96400 -0.36400 32.61900
H  38.33300 -1.46000 26.38500
H  32.15400 0.66900 26.67400
H  35.34700 2.21600 34.04600
H  37.39700 0.27600 34.59600
H  37.20100 3.02600 33.69400
H  38.57200 2.16500 32.97800
H  38.44800 2.18200 34.71900
H  35.25300 -0.74100 35.00400
H  33.84800 0.12500 34.65600
H  35.03100 -0.05600 37.10500
H  33.93900 1.25400 36.61900
H  41.60000 -1.91600 30.53900
H  40.79200 -2.96300 31.73700
H  40.76800 -1.20400 31.90400
H  41.72900 -4.58000 27.86200
H  41.43900 -4.18400 29.58800
H  42.50400 -3.24800 28.62500
H  36.29400 -1.44300 24.61900
H  34.12600 0.71300 24.83200
H  37.50300 1.07100 25.21200
H  36.04800 1.61300 24.37700
H  37.20300 0.41100 23.67300
H  32.96600 -1.81900 25.62500
H  34.15500 -2.17200 24.26200
H  31.48100 -1.34400 23.94200
H  32.79700 -1.58000 22.79800
H  32.45700 0.06100 23.56600
H  29.62500 2.17500 29.04100
H  29.82800 0.72900 28.18800
H  30.58900 2.26900 27.52500
H  32.06500 1.22700 33.62400
H  32.82300 4.08700 36.53100
H  31.52500 4.83200 35.77000
H  33.01500 5.23300 35.06600

