158

Mg -2.44200 17.20100 25.89100
C  -2.66600 14.86200 28.53900
C  -3.45700 19.59400 28.17200
C  -2.70300 19.46800 23.43000
C  -1.75800 14.78600 23.74900
N  -2.77300 17.17800 28.28600
C  -2.89200 16.10500 29.11000
C  -3.35300 16.51700 30.49100
C  -3.65700 18.08300 30.26300
C  -3.28200 18.30500 28.80300
C  -5.10300 18.44800 30.68100
C  -2.48200 16.07100 31.65700
C  -2.44400 16.99300 32.81700
H  -2.09600 16.30100 34.09900
N  -2.66500 19.28000 25.87900
C  -3.10300 20.09800 26.93400
C  -3.17000 21.54400 26.48500
C  -2.85200 21.48600 25.09700
C  -2.75000 20.09400 24.76600
C  -3.54700 22.73500 27.36400
C  -2.67200 22.62200 24.05700
O  -2.42000 22.44000 22.86100
C  -2.65900 23.97600 24.56100
N  -2.33300 17.16000 23.90500
C  -2.57100 18.16500 23.03200
C  -2.52900 17.73800 21.59400
C  -1.94100 16.26700 21.76800
C  -1.99600 16.01700 23.24500
C  -3.87900 17.72800 20.77000
C  -0.54800 16.09100 21.02500
C  0.75200 16.15400 21.91700
N  -2.36500 15.20800 25.99800
C  -1.88900 14.38200 25.06400
C  -1.84900 13.02900 25.56300
C  -2.10800 13.19500 26.92900
C  -2.37400 14.55300 27.19300
C  -1.59800 11.74100 24.75500
C  -2.16000 12.45800 28.16400
O  -1.98000 11.30600 28.41800
C  -2.47500 13.55200 29.27700
C  -1.27700 13.57300 30.13300
O  -0.17600 13.99800 29.89800
O  -1.63900 13.06200 31.33800
C  -0.58300 12.88900 32.35400
H  -3.81400 20.31800 28.90700
H  -2.90100 20.15200 22.60200
H  -1.47900 14.07500 22.96800
H  -4.33400 16.04700 30.57100
H  -2.87700 18.69100 30.72200
H  -5.55200 17.85800 31.48000
H  -5.76400 18.40600 29.81500
H  -5.05100 19.49000 30.99900
H  -1.45000 15.93100 31.33700
H  -2.92100 15.10700 31.91700
H  -3.34900 17.60100 32.84500
H  -1.62000 17.68200 32.63100
H  -2.63400 23.32900 27.36900
H  -3.80900 22.43900 28.38000
H  -4.33900 23.31800 26.89400
H  -3.64900 24.26800 24.90800
H  -2.40400 24.69100 23.77900
H  -1.97500 23.98400 25.41000
H  -1.81600 18.37200 21.06700
H  -2.62200 15.58500 21.26000
H  -4.53900 18.32800 21.39600
H  -4.42400 16.80500 20.57300
H  -3.84300 18.42000 19.92800
H  -0.48400 16.99300 20.41500
H  -0.51700 15.22200 20.36800
H  1.48600 16.80100 21.43600
H  1.13500 15.18300 22.23200
H  0.63300 16.76400 22.81200
H  -1.00600 11.14900 25.45300
H  -1.09800 11.78000 23.78700
H  -2.57000 11.32900 24.48500
H  -3.34900 13.21200 29.83100
H  -0.78600 12.28500 33.23800
H  -0.33000 13.84100 32.82000
H  0.29900 12.48000 31.86200
Mg 41.25700 41.38400 27.00000
C  40.18900 43.66700 29.56900
C  42.18800 39.24800 29.52000
C  42.61500 39.61600 24.65300
C  40.70100 43.99800 24.70200
N  41.42500 41.58400 29.29800
C  40.74200 42.51800 30.11300
C  40.84300 42.08200 31.64300
C  41.60300 40.65500 31.56600
C  41.77900 40.49000 30.03700
C  42.94000 40.33800 32.26200
C  39.45700 41.99800 32.41900
C  39.43800 41.68300 33.87300
H  38.84900 42.75700 34.83000
N  42.17000 39.70200 27.06200
C  42.37500 38.85600 28.10200
C  42.98300 37.64300 27.61800
C  43.02100 37.69700 26.26700
C  42.65300 39.06500 25.92700
C  43.30900 36.46700 28.59900
C  43.32100 36.59500 25.25600
O  43.40900 36.78300 24.04900
C  43.62700 35.21200 25.70700
N  41.55500 41.69300 24.90200
C  42.22700 40.83200 24.10800
C  42.27900 41.27500 22.62000
C  41.55400 42.67300 22.76800
C  41.22900 42.78100 24.18000
C  43.71900 41.28500 22.11000
C  40.45100 43.00100 21.73000
C  38.91300 42.66300 22.02100
N  40.42200 43.34400 27.02300
C  40.32500 44.31000 26.03100
C  39.75900 45.55500 26.56100
C  39.74500 45.32200 27.94300
C  40.23600 43.99000 28.16900
C  39.37500 46.76600 25.88000
C  39.39200 45.97400 29.15800
O  38.97000 47.10700 29.37900
C  39.67300 44.96100 30.21200
C  40.50400 45.50200 31.32500
O  41.68700 45.84600 31.28200
O  39.63200 45.65600 32.46200
C  40.13400 46.44900 33.59200
H  42.53200 38.57100 30.30400
H  43.07500 39.00000 23.87800
H  40.55700 44.69200 23.87100
H  41.38200 42.71900 32.34400
H  40.84100 39.92900 31.85000
H  42.62400 39.49000 32.87000
H  43.16100 41.17700 32.92200
H  43.72100 39.98600 31.58800
H  38.92100 41.13300 32.02700
H  39.08200 42.99700 32.19900
H  40.47000 41.43400 34.12100
H  38.75500 40.84700 34.02000
H  42.98900 36.59500 29.63400
H  44.39100 36.33600 28.60600
H  42.84900 35.52600 28.29900
H  43.75900 34.55400 24.84800
H  42.82900 34.84500 26.35300
H  44.52100 35.25200 26.32900
H  41.62600 40.65100 22.00900
H  42.28600 43.47600 22.68500
H  43.81500 40.57600 21.28700
H  44.48500 41.01800 22.83700
H  44.12100 42.27500 21.89700
H  40.65400 42.41500 20.83300
H  40.63500 44.04700 21.48300
H  38.58500 42.05900 21.17500
H  38.29200 43.54900 21.88600
H  38.88400 42.15200 22.98300
H  38.46000 47.05400 26.39700
H  38.96000 46.47500 24.91500
H  40.08900 47.58300 25.77500
H  38.70700 44.77700 30.68200
H  40.57400 45.80900 34.35700
H  39.32300 47.09700 33.92200
H  40.96600 47.11700 33.36900

