158

Mg 24.13300 -5.01400 45.33800
C  26.17300 -2.64600 43.71300
C  21.70700 -4.22600 43.19000
C  22.38800 -7.73500 46.53300
C  26.96000 -6.19000 47.12100
N  24.07100 -3.58900 43.62000
C  24.97400 -2.73500 43.16300
C  24.49900 -1.99800 41.90300
C  23.00100 -2.26200 42.04800
C  22.85100 -3.42000 42.96000
C  22.18100 -1.06200 42.62600
C  25.14200 -2.65600 40.59500
C  25.88600 -1.70800 39.68500
H  25.81400 -1.93000 38.19800
N  22.15900 -5.87700 45.02900
C  21.35000 -5.35100 44.04600
C  20.17800 -6.15000 44.10700
C  20.32700 -7.22900 45.00800
C  21.65900 -7.02300 45.59700
C  19.05700 -5.82900 43.16600
C  19.29700 -8.25600 45.42900
O  18.15600 -8.18100 44.91600
C  19.60700 -9.34200 46.46600
N  24.67400 -6.75600 46.54800
C  23.71500 -7.63800 46.99300
C  24.23400 -8.74100 47.92800
C  25.57900 -8.12400 48.26500
C  25.77600 -6.92900 47.28300
C  23.36600 -9.05200 49.17800
C  26.78100 -9.01900 48.42200
C  27.54300 -8.88800 49.82300
N  26.15400 -4.56200 45.49200
C  27.16300 -5.07500 46.25300
C  28.34100 -4.18900 46.19900
C  27.97000 -3.27200 45.13900
C  26.66000 -3.46700 44.76400
C  29.56200 -4.30700 47.06100
C  28.44900 -2.09600 44.41300
O  29.47400 -1.47700 44.64000
C  27.37100 -1.84300 43.32900
C  27.13500 -0.40400 43.44300
O  26.35300 0.09100 44.18700
O  27.92900 0.36200 42.66600
C  27.84700 1.90400 42.74400
H  20.90700 -3.96000 42.49600
H  21.84800 -8.53500 47.04400
H  27.81600 -6.51100 47.71900
H  24.81300 -0.95900 42.00100
H  22.62000 -2.64700 41.10200
H  22.81700 -0.18500 42.50300
H  21.91600 -1.07600 43.68300
H  21.21700 -0.83600 42.16900
H  24.35200 -3.09000 39.98200
H  25.93200 -3.40300 40.66700
H  26.91300 -1.69500 40.05000
H  25.63700 -0.65400 39.80700
H  18.68700 -6.76600 42.74800
H  19.19900 -5.09700 42.37100
H  18.21700 -5.41100 43.72000
H  18.85900 -10.13000 46.37800
H  19.51100 -9.05900 47.51400
H  20.57500 -9.82000 46.31700
H  24.27600 -9.71200 47.43500
H  25.37500 -7.63900 49.21900
H  23.85600 -9.56100 50.00800
H  22.56700 -9.69700 48.81200
H  22.92400 -8.08900 49.43400
H  27.45500 -8.85800 47.58100
H  26.45200 -10.05800 48.38500
H  28.56900 -8.77900 49.47100
H  27.46500 -9.73900 50.49900
H  27.36800 -7.89000 50.22400
H  29.91800 -5.33600 47.02200
H  29.42000 -3.87000 48.04900
H  30.35000 -3.69400 46.62200
H  27.78900 -2.15300 42.37200
H  28.77600 2.34000 43.11000
H  27.10700 2.28300 43.44800
H  27.66100 2.33200 41.75900
Mg 42.91500 42.21100 25.75800
C  42.07500 44.58200 28.36800
C  43.76500 40.02300 28.29100
C  43.94000 40.12600 23.32900
C  42.31300 44.63200 23.45100
N  42.87400 42.29400 28.13000
C  42.41600 43.32500 28.90600
C  42.49200 42.90700 30.41700
C  43.13800 41.50700 30.34300
C  43.25100 41.20800 28.81200
C  44.47100 41.29000 31.08600
C  41.11400 42.96700 30.99600
C  40.85500 42.27400 32.36100
H  41.25800 43.09200 33.59700
N  43.76500 40.33200 25.78600
C  44.01200 39.57900 26.97700
C  44.46800 38.23900 26.55400
C  44.56700 38.24800 25.08200
C  44.08900 39.59800 24.67600
C  45.00100 37.15700 27.38400
C  44.93700 37.11600 24.13500
O  45.19600 37.31800 23.01800
C  45.16800 35.73100 24.63600
N  43.07900 42.45300 23.71000
C  43.43000 41.35500 22.91000
C  43.28800 41.73300 21.45100
C  42.52200 42.98700 21.51300
C  42.56100 43.38600 23.00200
C  44.66600 41.86000 20.70700
C  41.05600 42.88200 20.95600
C  40.00900 42.34200 22.06000
N  42.50100 44.29100 25.84500
C  42.21300 45.06600 24.79500
C  41.84000 46.37300 25.27100
C  41.70300 46.18900 26.62900
C  42.06900 44.90700 26.95900
C  41.51500 47.45800 24.35200
C  41.29900 46.80400 27.83900
O  40.88800 47.93700 28.06700
C  41.54100 45.80200 29.09500
C  42.58100 46.41200 29.95600
O  43.64400 46.82800 29.49900
O  42.10400 46.62500 31.23200
C  42.95500 47.51700 32.03600
H  44.12400 39.31900 29.04500
H  44.27300 39.46500 22.52600
H  41.94800 45.41500 22.78300
H  43.01800 43.65600 31.00900
H  42.42300 40.80100 30.76600
H  45.23600 41.30800 30.31000
H  44.36100 40.31900 31.57000
H  44.66800 42.17300 31.69300
H  40.41100 42.45300 30.34000
H  40.69600 43.94500 31.23400
H  41.34100 41.30300 32.45700
H  39.78400 42.08800 32.44900
H  45.25100 37.58300 28.35600
H  45.99900 36.81300 27.11200
H  44.41600 36.24500 27.49700
H  44.99200 34.97100 23.87500
H  44.31500 35.50400 25.27600
H  46.16200 35.62700 25.07100
H  42.71500 41.02800 20.84900
H  42.92100 43.76500 20.86100
H  45.36600 41.17300 21.18300
H  45.09500 42.85600 20.81400
H  44.59700 41.65900 19.63800
H  41.01600 42.19300 20.11200
H  40.78300 43.86600 20.57500
H  40.55800 41.66000 22.70900
H  39.31400 41.62800 21.61600
H  39.38600 43.06300 22.58800
H  42.41200 47.80100 23.83600
H  41.17500 48.33600 24.90000
H  40.74800 47.24800 23.60700
H  40.57800 45.58700 29.55700
H  43.47300 46.84500 32.72100
H  42.34700 48.22500 32.60000
H  43.75800 47.94000 31.43300

