158

Mg 44.73700 4.42200 45.77100
C  42.86800 7.58400 45.84400
C  41.71500 2.85500 45.35600
C  46.51300 1.71300 45.12000
C  47.58800 6.42800 45.21600
N  42.54000 5.21000 45.50300
C  42.00800 6.44500 45.62000
C  40.48900 6.37300 45.53100
C  40.20500 4.84300 45.48700
C  41.59200 4.24000 45.47300
C  39.24400 4.27000 46.53800
C  39.85200 7.13800 44.37600
C  40.70600 7.43400 43.10100
H  40.09400 7.01700 41.78200
N  44.21900 2.47800 45.47000
C  42.91100 2.01300 45.30200
C  42.97500 0.62200 44.91400
C  44.37100 0.27500 44.96400
C  45.10300 1.49600 45.22400
C  41.75600 -0.22000 44.69800
C  44.86300 -1.16800 44.63500
O  44.04700 -2.04700 44.30400
C  46.33900 -1.50900 44.54700
N  46.76600 4.18700 45.03700
C  47.24200 2.88800 45.03900
C  48.74600 2.88000 44.71100
C  49.04300 4.41900 44.77400
C  47.76100 5.05900 44.97200
C  49.64000 2.02500 45.65200
C  49.75500 4.91600 43.54100
C  51.11500 5.39200 43.77100
N  45.21900 6.54500 45.76500
C  46.44800 7.18300 45.59500
C  46.26000 8.66900 45.71800
C  44.89900 8.86000 45.96200
C  44.30100 7.53200 45.94800
C  47.32000 9.71200 45.61200
C  43.88200 9.85600 46.19800
O  43.95600 11.06800 46.31500
C  42.51600 9.08800 46.02500
C  41.76000 9.31800 47.27400
O  41.90800 8.63000 48.29400
O  40.94500 10.40700 47.14700
C  40.15000 10.65100 48.37800
H  40.77500 2.32600 45.18700
H  47.03100 0.76500 44.96000
H  48.53800 6.96500 45.18200
H  40.14400 6.79000 46.47600
H  39.74500 4.57200 44.53700
H  39.83700 3.66200 47.22100
H  38.44200 3.64700 46.14300
H  38.79600 5.05100 47.15200
H  39.64900 8.10500 44.83400
H  38.98100 6.58400 44.02600
H  41.69500 7.01700 43.29000
H  40.82000 8.51800 43.10500
H  41.93800 -0.95500 43.91400
H  40.89000 0.33800 44.34200
H  41.49400 -0.68400 45.64900
H  46.30500 -2.58500 44.37600
H  46.77200 -1.36700 45.53700
H  46.84200 -0.97000 43.74400
H  48.74800 2.48500 43.69600
H  49.57500 4.74900 45.66600
H  48.90700 1.70900 46.39400
H  50.50900 2.60600 45.96000
H  50.02400 1.16800 45.10000
H  49.28300 5.70900 42.96100
H  49.95000 4.05400 42.90300
H  51.80900 4.72900 43.25600
H  51.37100 5.22800 44.81800
H  51.39400 6.42600 43.56700
H  46.90400 10.69100 45.84900
H  47.66100 9.81800 44.58200
H  48.08400 9.55000 46.37300
H  41.93000 9.48900 45.19800
H  40.70200 10.40900 49.28600
H  39.16400 10.18900 48.32900
H  39.94800 11.72200 48.34900
Mg 42.51100 41.81100 27.18700
C  41.50600 43.90100 29.82500
C  43.59300 39.50000 29.66900
C  43.59600 39.87300 24.76700
C  41.54500 44.36300 24.89700
N  42.56700 41.74100 29.48400
C  41.87400 42.64900 30.35400
C  41.84500 42.15700 31.79600
C  42.58400 40.68500 31.67400
C  42.88500 40.61200 30.14900
C  43.90300 40.60400 32.55800
C  40.35500 42.07200 32.32400
C  40.15100 42.88900 33.67000
H  39.50100 42.12800 34.87000
N  43.49400 39.95600 27.22000
C  43.81400 39.16300 28.32100
C  44.34200 37.88300 27.84200
C  44.20800 37.87000 26.38100
C  43.74300 39.27800 26.02700
C  44.79900 36.81700 28.81400
C  44.58500 36.83800 25.34200
O  44.48300 36.98400 24.13900
C  45.07400 35.53600 25.83200
N  42.64300 42.11900 25.14300
C  43.07700 41.13100 24.33400
C  43.02700 41.59800 22.83700
C  41.97600 42.77800 22.88700
C  42.03400 43.15200 24.38600
C  44.39400 41.94100 22.25200
C  40.50700 42.41700 22.41100
C  39.78800 41.23700 23.03200
N  41.79000 43.80000 27.26800
C  41.37700 44.68600 26.29800
C  40.86200 45.91100 26.89600
C  40.88000 45.67800 28.30900
C  41.36800 44.33500 28.40200
C  40.45200 47.15900 26.14800
C  40.54200 46.19900 29.61700
O  40.08900 47.28800 29.91700
C  40.85600 45.04800 30.61800
C  41.67300 45.63400 31.73800
O  42.89200 45.89500 31.67300
O  40.84700 45.81800 32.87500
C  41.42000 46.11700 34.20100
H  43.95600 38.88300 30.49400
H  43.97200 39.24000 23.96100
H  41.23400 45.14700 24.20300
H  42.36000 42.83300 32.48000
H  41.89800 39.89100 31.96800
H  44.77300 40.59200 31.90200
H  43.94800 39.61500 33.01500
H  43.71600 41.42200 33.25400
H  40.23400 40.99900 32.47300
H  39.59500 42.23700 31.56000
H  39.50600 43.74700 33.47800
H  41.10000 43.33800 33.96100
H  44.51200 37.14900 29.81200
H  45.87000 36.74100 29.00400
H  44.48400 35.82300 28.49800
H  45.92500 35.80300 26.46000
H  45.55400 35.07400 24.97000
H  44.29300 34.91300 26.26600
H  42.54000 40.80200 22.27500
H  42.33900 43.63900 22.32500
H  45.17400 41.46600 22.84800
H  44.48000 43.02700 22.26600
H  44.26200 41.66800 21.20500
H  40.55100 42.38500 21.32200
H  39.88900 43.27500 22.67400
H  39.24600 40.70100 22.25300
H  39.19100 41.71400 23.80900
H  40.63700 40.76600 23.52700
H  39.96800 46.88000 25.21200
H  41.16700 47.96400 25.97900
H  39.71100 47.62700 26.79600
H  39.94600 44.68400 31.09600
H  42.11700 46.92600 33.98200
H  42.09700 45.36900 34.61200
H  40.59700 46.32800 34.88400

