158

Mg 0.03600 7.14700 25.74000
C  0.86100 9.14800 28.56900
C  0.24400 4.44100 27.95900
C  -0.38000 5.08600 23.10600
C  0.46200 9.84200 23.72200
N  0.39000 6.92700 28.13000
C  0.66400 7.88000 29.00000
C  0.68500 7.36600 30.45600
C  0.92000 5.81900 30.18100
C  0.49000 5.66900 28.67600
C  2.41500 5.32500 30.43600
C  -0.56800 7.73700 31.31000
C  -0.31500 7.67400 32.89900
H  0.72700 6.69500 33.39500
N  -0.16100 5.14300 25.58100
C  -0.07200 4.18800 26.60500
C  -0.34900 2.85600 26.03700
C  -0.43300 2.98100 24.60300
C  -0.31700 4.44700 24.38200
C  -0.51200 1.76000 27.01600
C  -0.52500 1.86800 23.50000
O  -0.39800 2.20100 22.28000
C  -0.57300 0.36800 23.92200
N  0.03200 7.46500 23.66000
C  -0.14100 6.43000 22.76700
C  -0.24900 6.98300 21.35500
C  0.13100 8.47500 21.52800
C  0.20400 8.61100 23.05000
C  0.51800 6.21600 20.24200
C  -0.80400 9.45800 20.87700
C  -0.15200 10.56000 19.94600
N  0.55900 9.10300 26.05500
C  0.55000 10.05100 25.13400
C  0.72900 11.33600 25.80200
C  0.91900 11.04100 27.10900
C  0.76400 9.67100 27.26400
C  0.70500 12.65500 25.08400
C  1.24100 11.63700 28.40400
O  1.70800 12.77100 28.61200
C  1.07700 10.43100 29.40000
C  2.28700 10.40900 30.24900
O  3.43900 10.19200 29.85700
O  2.02200 10.72700 31.57800
C  3.17400 10.81400 32.44000
H  0.45600 3.59100 28.61200
H  -0.43700 4.48100 22.19800
H  0.58400 10.77400 23.16500
H  1.60100 7.81900 30.83600
H  0.29100 5.19000 30.81000
H  2.89700 6.06500 31.07400
H  2.83600 5.34500 29.43000
H  2.47500 4.33100 30.88000
H  -1.47500 7.19300 31.04800
H  -0.63900 8.81500 31.16700
H  -1.25700 7.34800 33.33900
H  -0.23300 8.69100 33.28400
H  -0.73300 2.05700 28.04100
H  0.41900 1.20600 26.90200
H  -1.32100 1.15700 26.60300
H  0.13000 0.22700 24.74400
H  -0.22500 -0.31400 23.14600
H  -1.58300 0.05500 24.18500
H  -1.29900 6.91000 21.07300
H  1.13100 8.59100 21.11000
H  0.03300 6.20600 19.26600
H  0.56600 5.17700 20.56800
H  1.58000 6.43000 20.12500
H  -1.45700 9.92300 21.61400
H  -1.44400 8.82700 20.26000
H  -0.53100 10.41900 18.93400
H  0.93300 10.45600 19.96000
H  -0.37200 11.59100 20.22100
H  1.70200 12.95200 24.76000
H  0.53800 13.45500 25.80600
H  -0.13300 12.72900 24.39000
H  0.17300 10.57000 29.99400
H  4.04900 11.26900 31.97600
H  3.25500 9.82900 32.90000
H  3.03400 11.62600 33.15300
Mg 35.65300 0.93100 28.74200
C  33.53800 2.29800 31.39400
C  38.20600 1.04700 31.00500
C  37.68000 0.55200 26.15600
C  33.01000 1.55800 26.52200
N  35.87800 1.70400 30.86700
C  34.87900 2.11300 31.77500
C  35.47500 2.34900 33.13800
C  36.97100 2.10900 32.90800
C  37.02700 1.58300 31.53200
C  37.90200 3.25500 33.17500
C  34.81300 1.38600 34.21000
C  34.85300 2.03000 35.56600
H  35.74200 3.12700 35.96000
N  37.61300 0.45200 28.67000
C  38.53900 0.57500 29.73000
C  39.78100 0.17200 29.16900
C  39.60100 -0.09700 27.80000
C  38.23900 0.34700 27.45000
C  41.02600 0.10000 30.07400
C  40.59200 -0.57600 26.77300
O  40.38700 -0.61500 25.58400
C  41.99800 -0.96300 27.31700
N  35.32300 0.76600 26.64800
C  36.33000 0.62700 25.80900
C  35.92700 0.86100 24.36700
C  34.35100 0.86600 24.39900
C  34.20000 1.08400 25.94300
C  36.62200 2.00400 23.70100
C  33.56100 -0.49600 23.87900
C  32.56900 -0.31000 22.76600
N  33.65100 1.63900 28.95800
C  32.73800 1.85700 27.90500
C  31.48400 2.39200 28.46200
C  31.74400 2.54300 29.87800
C  33.04500 2.11800 30.05500
C  30.19100 2.62000 27.70700
C  31.24800 2.93700 31.06500
O  30.15200 3.43900 31.35900
C  32.37600 2.74500 32.17700
C  32.59500 4.01300 33.00400
O  33.42800 4.86500 32.69800
O  31.75000 4.01800 34.09500
C  31.85100 5.22500 34.87500
H  39.06700 1.07600 31.67500
H  38.33800 0.48200 25.28800
H  32.16400 1.80500 25.87600
H  35.24700 3.34300 33.52300
H  37.31500 1.28900 33.53800
H  38.76800 3.05500 33.80600
H  37.38900 4.15600 33.51100
H  38.17300 3.62200 32.18500
H  35.44900 0.51200 34.35000
H  33.79800 1.09200 33.94500
H  35.06200 1.24500 36.29300
H  33.90000 2.47700 35.85100
H  40.79600 0.26500 31.12700
H  41.73000 0.87900 29.78000
H  41.45800 -0.90000 30.02000
H  42.45100 -1.71000 26.66500
H  41.84100 -1.60600 28.18200
H  42.65900 -0.11300 27.49100
H  36.19700 -0.06200 23.85400
H  34.05600 1.65700 23.70800
H  35.94700 2.70000 23.20300
H  37.32600 1.59800 22.97500
H  37.19400 2.60500 24.40700
H  33.10400 -0.87000 24.79600
H  34.29900 -1.21500 23.52400
H  31.54100 -0.55600 23.03300
H  32.75300 -0.99400 21.93800
H  32.65900 0.72700 22.44300
H  29.61600 1.70900 27.86900
H  30.31000 2.73900 26.63000
H  29.64300 3.51000 28.01600
H  32.16100 1.85900 32.77500
H  31.74600 6.04100 34.16000
H  32.71600 5.36900 35.52300
H  31.01200 5.22500 35.57100

