158

Mg 42.40300 41.85500 26.41700
C  41.57800 44.24800 28.85000
C  43.85100 39.90700 28.85300
C  43.43800 39.97700 23.98400
C  41.60300 44.40600 23.92600
N  42.84900 42.22900 28.59500
C  42.22600 43.14400 29.41500
C  42.28400 42.70500 30.87600
C  43.27400 41.46800 30.85800
C  43.40300 41.19000 29.36000
C  44.66600 41.80200 31.43900
C  40.84700 42.39300 31.60800
C  40.56000 43.31600 32.86300
H  41.40300 43.07500 34.10700
N  43.21100 40.03600 26.42700
C  43.79700 39.36600 27.51700
C  44.22400 38.04300 26.96400
C  43.84800 38.04900 25.58700
C  43.44000 39.40900 25.26300
C  44.78600 36.96200 27.80500
C  43.96800 36.83600 24.65100
O  43.60200 36.92900 23.45400
C  44.67100 35.57900 25.05500
N  42.61000 42.27000 24.29500
C  42.98600 41.21500 23.51700
C  42.73500 41.46600 22.00100
C  41.86800 42.73500 22.00100
C  42.05700 43.19800 23.46900
C  44.05200 41.67300 21.11200
C  40.31600 42.45300 21.63500
C  39.55100 41.56900 22.66100
N  41.83000 43.96400 26.36600
C  41.48000 44.81700 25.29100
C  40.91400 46.06600 25.84200
C  40.91800 45.83000 27.28600
C  41.53000 44.64800 27.53600
C  40.32300 47.21300 25.05500
C  40.49400 46.43800 28.48900
O  39.92900 47.51600 28.70600
C  40.94800 45.41900 29.60700
C  41.92000 46.18900 30.44900
O  43.09000 46.29400 30.21300
O  41.23400 46.57100 31.60000
C  41.89200 47.12500 32.73400
H  44.08800 39.23800 29.68300
H  43.64900 39.25800 23.19000
H  41.08900 45.04600 23.20500
H  42.73700 43.53600 31.41700
H  42.92700 40.60000 31.41900
H  45.45600 41.24900 30.93000
H  44.75800 41.25800 32.37900
H  44.94300 42.83400 31.65600
H  40.96200 41.40400 32.05200
H  40.04300 42.53100 30.88500
H  39.50600 43.37000 33.13500
H  40.81300 44.30400 32.47700
H  45.08700 37.34500 28.78000
H  45.74400 36.60000 27.43100
H  44.00100 36.24000 28.03100
H  45.71300 35.89600 25.09300
H  44.59900 34.85400 24.24400
H  44.32200 35.13200 25.98600
H  42.20500 40.62700 21.54800
H  42.20100 43.57400 21.39000
H  44.40000 42.69700 20.97400
H  43.74200 41.31100 20.13100
H  44.81900 40.93800 21.35400
H  40.23400 41.97100 20.66100
H  39.76000 43.38900 21.60000
H  38.88300 42.28300 23.14200
H  40.15100 41.22200 23.50200
H  38.98000 40.83700 22.08900
H  41.08900 47.75600 24.50100
H  39.80200 47.86600 25.75500
H  39.59200 46.79100 24.36600
H  40.06500 45.01300 30.10000
H  41.52100 46.68400 33.66000
H  41.62400 48.18100 32.76800
H  42.97100 47.06600 32.58700
Mg 26.75400 50.50800 26.85200
C  24.97300 51.76800 29.65500
C  29.38900 49.79900 28.97300
C  28.78700 50.04500 24.13800
C  24.37000 51.96400 24.82400
N  27.03700 50.50900 29.05100
C  26.11700 51.01200 29.97400
C  26.63200 50.71200 31.36700
C  28.14800 50.49500 31.07500
C  28.22900 50.26900 29.60100
C  29.11700 51.65500 31.57600
C  25.86000 49.42800 31.84100
C  25.22100 49.49800 33.26200
H  25.97100 50.21300 34.38400
N  28.72600 49.75300 26.60800
C  29.64700 49.53200 27.61800
C  30.85700 49.08200 27.03800
C  30.79600 49.23700 25.60200
C  29.40900 49.71900 25.37100
C  31.98100 48.50900 27.84800
C  31.90600 49.00500 24.57600
O  31.73100 49.40500 23.41100
C  33.21700 48.43600 24.87800
N  26.59300 50.93500 24.86900
C  27.51500 50.55500 23.89400
C  26.88100 50.73900 22.49000
C  25.45100 51.24500 22.71900
C  25.44200 51.40700 24.24900
C  27.68600 51.71000 21.51000
C  24.34000 50.28900 22.23800
C  24.34000 48.77600 22.75700
N  24.97500 51.59000 27.09000
C  24.12900 52.20300 26.20500
C  23.08900 52.90200 26.84600
C  23.34600 52.74600 28.21500
C  24.56800 51.99100 28.31400
C  21.96200 53.60800 26.08300
C  22.85800 53.00000 29.59200
O  21.86000 53.67700 29.90000
C  23.92800 52.43600 30.59300
C  24.49100 53.47500 31.50900
O  25.58400 53.99200 31.34900
O  23.59400 53.94300 32.37200
C  24.11200 55.07700 33.14500
H  30.23100 49.61900 29.64400
H  29.33400 49.98800 23.19400
H  23.56500 52.32100 24.17800
H  26.46200 51.53800 32.05700
H  28.51200 49.57300 31.52800
H  29.87400 51.25900 32.25300
H  28.65200 52.44300 32.16900
H  29.60700 52.24300 30.80000
H  26.48100 48.53300 31.87600
H  25.01400 49.15400 31.21100
H  25.05600 48.43300 33.42600
H  24.25100 49.96500 33.09200
H  32.86800 49.14100 27.81800
H  32.15600 47.50500 27.46000
H  31.70400 48.45700 28.90100
H  33.78300 48.92300 25.67200
H  33.94200 48.55000 24.07200
H  32.98600 47.41800 25.19200
H  26.89200 49.74100 22.05300
H  25.45000 52.19700 22.18900
H  28.46300 52.21200 22.08700
H  27.11700 52.42400 20.91300
H  28.22900 51.17400 20.73200
H  24.42900 50.25400 21.15300
H  23.45000 50.91200 22.32500
H  23.36200 48.52200 23.16600
H  25.13300 48.57400 23.47700
H  24.57700 48.09300 21.94100
H  22.28200 54.08200 25.15500
H  21.52700 54.45100 26.62000
H  21.18000 52.87000 25.90900
H  23.58900 51.66400 31.28300
H  24.45700 55.96200 32.61000
H  24.91700 54.73300 33.79400
H  23.31900 55.41100 33.81500

