158

Mg 25.68800 1.74000 29.69300
C  27.69100 1.65700 32.36500
C  22.96900 2.16900 31.83500
C  23.60900 1.40800 27.00500
C  28.31800 0.56100 27.52800
N  25.35000 1.89800 31.86700
C  26.40500 2.09300 32.71200
C  25.96200 2.43000 34.08200
C  24.40700 2.45800 33.95200
C  24.22400 2.23600 32.43400
C  23.54100 1.48500 34.86300
C  26.49600 3.78800 34.65000
C  27.31800 3.66900 35.99300
H  27.14300 4.58700 37.23400
N  23.59700 1.64500 29.51400
C  22.67900 1.86400 30.48500
C  21.36800 1.75800 29.95300
C  21.53900 1.47000 28.57900
C  22.96000 1.52200 28.31300
C  20.08800 1.83600 30.68500
C  20.56900 1.05300 27.49400
O  20.95500 0.60600 26.45700
C  19.15800 1.20400 27.79800
N  25.83100 0.84900 27.56600
C  24.86500 1.03400 26.68700
C  25.37200 0.95900 25.19700
C  26.94500 0.81100 25.40800
C  27.04000 0.69300 26.91200
C  24.71400 -0.17000 24.40300
C  27.71800 1.99500 24.78300
C  28.09900 3.20100 25.56600
N  27.56900 1.31300 29.83800
C  28.48000 0.85700 28.93300
C  29.78100 0.69800 29.67400
C  29.47300 1.06400 30.91500
C  28.13900 1.32800 31.02400
C  31.01700 0.19900 29.16700
C  30.07000 1.21400 32.26000
O  31.19600 1.07100 32.66700
C  28.89200 1.60400 33.21300
C  28.74400 0.63700 34.32600
O  27.99000 -0.33900 34.36600
O  29.43800 1.09400 35.39300
C  29.11500 0.39400 36.61900
H  22.18600 2.48400 32.52700
H  23.00600 1.49800 26.09800
H  29.17200 0.22500 26.93600
H  26.22100 1.59200 34.73000
H  24.08100 3.49600 34.01800
H  22.69800 2.06200 35.24200
H  23.99400 0.97800 35.71500
H  23.05600 0.72300 34.25300
H  25.82800 4.61500 34.88800
H  27.05900 4.22300 33.82400
H  28.38400 3.75200 35.78200
H  27.14200 2.68400 36.42700
H  20.27800 1.92700 31.75400
H  19.60100 0.86600 30.57800
H  19.50400 2.64400 30.24500
H  18.93600 0.33100 28.41200
H  18.55000 1.13500 26.89600
H  18.89900 2.08400 28.38700
H  25.02200 1.90800 24.79100
H  27.32500 -0.12900 25.00700
H  25.39700 -0.88000 23.93700
H  24.29800 0.38200 23.56000
H  23.97400 -0.75300 24.95100
H  27.08100 2.34900 23.97200
H  28.55300 1.51400 24.27300
H  27.60600 3.43600 26.51000
H  27.95900 4.07400 24.92800
H  29.13800 3.00800 25.82900
H  31.81100 0.93400 29.29300
H  30.99100 -0.09700 28.11800
H  31.26200 -0.61300 29.85100
H  29.15400 2.60400 33.55700
H  28.06200 0.56100 36.84400
H  29.66300 0.80700 37.46600
H  29.30100 -0.67600 36.52800
Mg 30.49800 57.60400 39.68600
C  27.68600 55.51100 38.59800
C  32.54100 54.82600 38.52000
C  32.92300 59.54800 39.55100
C  28.25200 60.23500 39.98500
N  30.09200 55.39200 38.46500
C  28.88200 54.83100 38.35500
C  29.00300 53.33100 38.04500
C  30.58900 53.12900 38.01800
C  31.13700 54.52700 38.35900
C  31.11900 52.01000 39.00600
C  28.33100 52.98600 36.57900
C  28.66500 53.71300 35.24300
H  27.63800 54.59400 34.46900
N  32.53300 57.21100 39.28300
C  33.14800 56.11400 38.74800
C  34.58100 56.43200 38.66300
C  34.71700 57.78600 38.91100
C  33.37300 58.23300 39.30700
C  35.55500 55.41000 38.41400
C  35.95600 58.59500 38.70400
O  36.96700 58.09900 38.16100
C  36.09000 60.06600 39.09000
N  30.55400 59.59200 39.64100
C  31.77300 60.22900 39.73900
C  31.67400 61.76100 39.78400
C  30.12700 61.99800 39.95300
C  29.57500 60.55000 39.85000
C  32.50500 62.54000 40.80600
C  29.45800 62.81100 38.73800
C  29.11800 64.24200 38.97900
N  28.36600 57.84200 39.45000
C  27.65500 59.02900 39.72800
C  26.31200 58.70700 39.58700
C  26.22200 57.40200 39.16800
C  27.52700 56.86300 39.08400
C  25.16200 59.71700 39.87500
C  25.36200 56.31600 38.85500
O  24.14500 56.31100 38.87100
C  26.21900 55.07200 38.45300
C  25.89600 53.99400 39.36100
O  26.27800 53.97300 40.50500
O  24.93700 53.17200 38.89900
C  24.11400 52.22300 39.76400
H  33.16200 53.94300 38.35500
H  33.64500 60.35600 39.41500
H  27.58000 61.07700 40.16500
H  28.37100 52.68600 38.65500
H  30.94100 52.87700 37.01800
H  31.41000 52.50500 39.93300
H  31.90300 51.39800 38.56000
H  30.27200 51.33800 39.14900
H  27.26200 53.17900 36.67300
H  28.47900 51.94800 36.28300
H  28.97000 53.00900 34.46900
H  29.54400 54.30400 35.50200
H  36.04100 55.52400 37.44500
H  35.20400 54.37800 38.41700
H  36.22800 55.42700 39.27100
H  37.07300 60.53000 39.01300
H  35.62900 60.32600 40.04300
H  35.50200 60.67900 38.40700
H  31.89300 62.14500 38.78700
H  29.81600 62.40900 40.91400
H  31.93600 63.17500 41.48600
H  33.25400 63.09500 40.24100
H  33.01100 61.83600 41.46600
H  28.50200 62.37500 38.44800
H  30.14900 62.81000 37.89600
H  29.08800 64.70200 37.99100
H  29.99900 64.66500 39.46100
H  28.13400 64.39600 39.42200
H  25.32300 60.53600 39.17500
H  25.23400 60.07100 40.90400
H  24.22400 59.16300 39.91700
H  25.78100 54.98700 37.45900
H  23.29500 51.78700 39.19200
H  23.71700 52.82500 40.58100
H  24.68300 51.42100 40.23400

