158

Mg 15.98800 -2.08400 28.68400
C  14.84500 0.06200 31.20900
C  18.08700 -3.52300 31.16700
C  17.81500 -3.60700 26.33200
C  14.20400 -0.25300 26.32000
N  16.43000 -1.69900 30.79500
C  15.81800 -0.82100 31.63300
C  16.23600 -1.01900 33.07100
C  17.38800 -1.94500 32.98400
C  17.29100 -2.46400 31.57400
C  18.85600 -1.37400 33.41000
C  15.08800 -1.37800 33.99400
C  15.06900 -0.81800 35.46100
H  16.34600 -0.12700 36.00300
N  17.65500 -3.48500 28.78100
C  18.33900 -3.94400 29.81400
C  19.33000 -4.97000 29.46000
C  19.15600 -5.12100 28.00000
C  18.21200 -4.05000 27.65000
C  20.17400 -5.71500 30.43600
C  19.88000 -6.13900 27.07000
O  19.60700 -6.02900 25.91500
C  20.92700 -7.10200 27.54400
N  15.96000 -1.98900 26.71000
C  16.83400 -2.72100 25.90200
C  16.63300 -2.36500 24.36000
C  15.40000 -1.40600 24.38900
C  15.14700 -1.23800 25.93000
C  17.90600 -1.81400 23.68900
C  14.18800 -1.98100 23.58700
C  13.49800 -0.93400 22.68600
N  14.62100 -0.51100 28.66200
C  13.95300 0.13700 27.66400
C  13.19600 1.24800 28.20800
C  13.44800 1.20400 29.60800
C  14.37100 0.18200 29.83900
C  12.39900 2.20300 27.41000
C  13.13200 1.85800 30.93400
O  12.36300 2.77700 31.17200
C  14.05400 1.13700 32.03400
C  14.86400 2.18000 32.78600
O  16.03200 2.42500 32.61200
O  14.04800 2.76400 33.72100
C  14.68300 3.86900 34.51700
H  18.69700 -3.94100 31.97100
H  18.28700 -4.10700 25.48300
H  13.72800 0.32200 25.52300
H  16.55700 -0.03300 33.40900
H  17.31600 -2.80000 33.65500
H  19.05500 -1.90500 34.34100
H  18.71300 -0.32500 33.67000
H  19.60700 -1.45600 32.62500
H  14.89200 -2.45000 33.97300
H  14.15000 -0.97600 33.61200
H  14.88700 -1.62600 36.16900
H  14.16900 -0.23000 35.64000
H  21.11500 -6.00700 29.96900
H  19.65100 -6.63100 30.70800
H  20.41000 -5.12500 31.32100
H  20.52500 -7.86000 28.21500
H  21.74600 -6.58000 28.03900
H  21.34000 -7.64800 26.69600
H  16.32900 -3.30700 23.90400
H  15.78400 -0.44000 24.06100
H  18.63100 -1.49300 24.43600
H  17.59900 -1.07000 22.95300
H  18.34300 -2.65600 23.15200
H  13.42100 -2.43400 24.21600
H  14.44200 -2.87600 23.01900
H  13.41300 -1.44000 21.72500
H  14.18700 -0.09100 22.62700
H  12.57300 -0.58600 23.14700
H  11.66500 1.74500 26.74800
H  13.00500 2.79700 26.72600
H  11.86600 2.72300 28.20600
H  13.29200 0.79200 32.73300
H  15.19200 4.55900 33.84500
H  15.35800 3.50600 35.29200
H  13.88200 4.35500 35.07500
Mg 28.55700 58.42600 42.33400
C  25.85700 56.75100 40.84400
C  30.65000 56.64500 40.19100
C  31.06400 60.72900 42.69800
C  26.34600 60.47200 43.88100
N  28.23700 57.01700 40.62700
C  27.04800 56.38500 40.24800
C  27.27900 55.31800 39.18200
C  28.79700 55.06900 39.29800
C  29.31200 56.35600 40.03000
C  29.29800 53.72700 40.07200
C  26.90000 55.73500 37.74700
C  26.04700 54.72100 37.09000
H  26.43800 54.31100 35.62500
N  30.71700 58.48000 41.87600
C  31.33700 57.63200 40.97900
C  32.74900 57.89300 40.94500
C  32.85900 59.11400 41.67900
C  31.49700 59.51000 42.09100
C  33.76100 57.04200 40.20000
C  34.17900 59.83500 41.90600
O  35.24900 59.48700 41.32600
C  34.19900 60.98700 42.86400
N  28.66400 60.33100 43.18400
C  29.77000 61.07600 43.22100
C  29.52200 62.39000 44.04700
C  28.07600 62.12600 44.68900
C  27.63100 60.96000 43.82200
C  30.64000 62.81400 45.02300
C  27.11900 63.30100 44.50400
C  26.20300 63.64200 45.70500
N  26.44800 58.49200 42.48400
C  25.68500 59.46700 43.06500
C  24.28900 59.17500 42.91500
C  24.29000 57.99000 42.15000
C  25.64800 57.71800 41.83100
C  23.06800 59.89100 43.46900
C  23.48900 56.93300 41.56900
O  22.28000 56.63000 41.67300
C  24.48300 56.14600 40.58700
C  24.44500 54.67100 40.89900
O  24.89400 54.19800 41.97000
O  23.88800 53.99400 39.88100
C  23.74000 52.52600 40.27300
H  31.27200 55.91400 39.67000
H  31.75700 61.57000 42.77800
H  25.64500 61.07700 44.46000
H  26.75400 54.41200 39.48400
H  29.35700 55.14900 38.36600
H  30.04000 53.99500 40.82400
H  29.80400 53.17800 39.27800
H  28.53000 53.14500 40.58100
H  27.75000 55.93200 37.09400
H  26.29700 56.63500 37.87600
H  25.03400 55.12100 37.05700
H  26.07100 53.79400 37.66400
H  34.57200 56.68000 40.83100
H  34.20100 57.62300 39.39000
H  33.26300 56.15400 39.81000
H  33.79300 61.88300 42.39500
H  35.22900 61.12000 43.19600
H  33.57300 60.69200 43.70600
H  29.39500 63.22300 43.35500
H  28.19400 61.98900 45.76400
H  30.18400 62.83000 46.01200
H  30.93800 63.81000 44.69400
H  31.38500 62.02200 44.95200
H  26.46000 63.25100 43.63700
H  27.75300 64.18000 44.38800
H  26.81000 64.28800 46.34000
H  25.79800 62.86000 46.34800
H  25.25000 64.01900 45.33300
H  22.72900 59.38400 44.37200
H  22.31000 59.88300 42.68600
H  23.27400 60.91700 43.77300
H  24.23500 56.16900 39.52600
H  24.66900 51.99700 40.05600
H  23.01800 52.04800 39.61000
H  23.35900 52.42200 41.28900

