158

Mg 44.14800 5.23500 47.14300
C  42.18600 8.10000 46.48700
C  41.32400 3.30300 46.27300
C  46.11200 2.41800 46.83500
C  47.03600 7.20000 47.24800
N  41.96700 5.74600 46.37800
C  41.40100 6.95500 46.38200
C  39.92900 6.79900 46.31300
C  39.58400 5.24300 46.28600
C  41.03700 4.68600 46.33800
C  38.78200 4.60000 47.39300
C  39.28100 7.59400 45.12900
C  39.52800 7.06200 43.71800
H  40.47100 7.80500 42.69500
N  43.71100 3.17400 46.86400
C  42.54400 2.61400 46.48200
C  42.67100 1.20600 46.33600
C  44.00200 0.83200 46.68200
C  44.72500 2.16500 46.85500
C  41.59500 0.27000 45.85400
C  44.59900 -0.56100 46.59200
O  43.89200 -1.51400 46.26600
C  45.97700 -0.92700 46.84700
N  46.25000 4.91000 47.09200
C  46.81000 3.63300 47.10500
C  48.37000 3.68600 47.21400
C  48.66600 5.22300 47.46500
C  47.24900 5.82000 47.31900
C  48.92000 2.83100 48.37100
C  49.82400 5.81900 46.59200
C  50.86200 6.61400 47.26000
N  44.60500 7.22900 46.97700
C  45.79600 7.90800 47.07400
C  45.55500 9.35000 47.06200
C  44.09000 9.42900 46.91000
C  43.56700 8.16600 46.77700
C  46.56100 10.50100 47.13700
C  42.99000 10.36200 46.84000
O  43.00200 11.58600 46.86900
C  41.68900 9.57400 46.68700
C  40.76600 9.73500 47.82000
O  40.79200 9.00500 48.83200
O  39.87200 10.70300 47.63900
C  38.82700 10.86600 48.61500
H  40.45200 2.64700 46.23600
H  46.73200 1.53900 46.64400
H  47.87500 7.88800 47.36800
H  39.53000 7.32500 47.18100
H  39.07700 4.92600 45.37400
H  39.23800 3.75100 47.90200
H  37.96600 4.11900 46.85500
H  38.34000 5.30100 48.10100
H  39.61000 8.63300 45.08500
H  38.22100 7.48800 45.36200
H  38.56000 7.01800 43.21900
H  39.90900 6.05000 43.85000
H  41.23000 -0.25700 46.73600
H  41.93700 -0.35400 45.02800
H  40.82000 0.81700 45.31600
H  45.96400 -1.89000 47.35800
H  46.51000 -0.39800 47.63600
H  46.50300 -1.00900 45.89600
H  48.82200 3.41600 46.26000
H  48.91000 5.51300 48.48700
H  49.95800 3.07400 48.60000
H  48.97800 1.79000 48.05300
H  48.24300 2.98600 49.21200
H  49.36300 6.45300 45.83400
H  50.37900 5.07300 46.02300
H  50.98900 7.51000 46.65200
H  51.80200 6.06300 47.25600
H  50.60400 6.86700 48.28800
H  46.09500 11.30600 47.70600
H  46.88700 10.85900 46.16100
H  47.41300 9.97200 47.56500
H  41.13800 9.93400 45.81800
H  38.72500 11.91500 48.89200
H  39.06600 10.37700 49.56000
H  37.83900 10.45800 48.40300
Mg -11.84900 15.65300 42.03300
C  -8.92400 13.81800 41.94400
C  -10.13900 18.29000 40.69100
C  -14.78700 17.23300 40.94800
C  -13.64500 12.76100 42.74100
N  -9.73600 15.97300 41.37900
C  -8.70600 15.09900 41.49000
C  -7.44900 15.63100 40.86600
C  -7.82600 17.12400 40.82000
C  -9.31100 17.16700 40.97000
C  -7.08100 17.97600 41.88600
C  -7.24300 14.93200 39.46200
C  -5.87400 14.38500 39.16400
H  -5.08800 14.80900 38.00700
N  -12.37400 17.50500 41.10500
C  -11.50100 18.44300 40.73100
C  -12.17100 19.63100 40.20600
C  -13.54500 19.26700 40.06000
C  -13.62600 17.92500 40.69500
C  -11.41000 20.89600 39.84600
C  -14.54100 19.94400 39.18000
O  -14.34500 21.02400 38.61600
C  -15.80800 19.13200 38.76800
N  -13.93300 15.11700 41.90000
C  -15.01800 15.94900 41.51700
C  -16.35200 15.17800 41.51100
C  -15.92100 13.76300 41.98300
C  -14.37500 13.86400 42.18400
C  -17.45900 15.84100 42.39100
C  -16.36600 12.60600 41.10700
C  -17.84200 12.14500 41.42700
N  -11.44500 13.67900 42.49000
C  -12.23600 12.60900 42.82900
C  -11.41800 11.49500 43.10500
C  -10.09700 11.87100 42.71000
C  -10.15700 13.25200 42.33400
C  -11.93900 10.07200 43.54100
C  -8.66300 11.46600 42.72900
O  -8.10300 10.53000 43.18400
C  -7.87600 12.71100 42.13600
C  -6.80100 13.12300 43.02600
O  -6.97000 13.40600 44.21000
O  -5.60400 13.28700 42.38200
C  -4.62000 14.15200 43.11400
H  -9.61000 19.21800 40.46300
H  -15.70300 17.78300 40.72100
H  -14.24300 11.86900 42.94200
H  -6.61700 15.48200 41.55500
H  -7.61900 17.56200 39.84300
H  -6.42600 17.38900 42.53000
H  -7.86000 18.54400 42.39500
H  -6.44200 18.70600 41.38900
H  -7.42600 15.57900 38.60400
H  -8.01400 14.16400 39.39100
H  -5.84600 13.30100 39.06200
H  -5.19100 14.60400 39.98500
H  -12.02600 21.76600 39.62000
H  -10.75300 20.77700 38.98500
H  -10.69000 21.21800 40.59900
H  -15.57800 18.08800 38.55000
H  -15.90700 19.44500 37.72800
H  -16.70300 19.42500 39.31700
H  -16.73500 15.12700 40.49200
H  -16.29600 13.53000 42.97900
H  -18.37200 15.82000 41.79600
H  -17.12600 16.82600 42.71700
H  -17.64200 15.27000 43.30100
H  -15.87100 11.67800 41.39300
H  -16.26300 12.79400 40.03800
H  -17.87300 11.51000 42.31300
H  -18.45000 11.67800 40.65200
H  -18.33600 13.06500 41.73800
H  -11.90500 9.32200 42.75200
H  -12.97800 10.16000 43.86000
H  -11.31000 9.79200 44.38600
H  -7.55800 12.31500 41.17200
H  -3.83200 13.55100 43.56800
H  -4.98600 14.88900 43.82800
H  -4.01700 14.64700 42.35200

