158

Mg 24.86300 1.20600 29.97700
C  26.99900 1.32400 32.65500
C  22.21200 1.49300 32.10600
C  23.12200 1.28900 27.30700
C  27.75400 0.47800 27.93000
N  24.62800 1.58300 32.11300
C  25.64800 1.63100 33.00400
C  25.11500 1.89600 34.44000
C  23.60400 1.84200 34.19600
C  23.41900 1.57600 32.76700
C  22.81000 0.97200 35.26600
C  25.67700 3.15500 35.17500
C  26.30500 2.87200 36.54100
H  26.00000 3.82700 37.71300
N  22.88900 1.04100 29.77700
C  21.91800 1.31500 30.71800
C  20.58400 1.38500 30.09500
C  20.88100 1.26900 28.65700
C  22.37000 1.22400 28.50600
C  19.33400 1.66800 30.84300
C  19.92200 1.21900 27.52100
O  20.22800 1.18600 26.33900
C  18.48600 1.44400 27.89100
N  25.39800 0.70400 27.83800
C  24.47800 1.05400 27.01600
C  25.01200 1.20500 25.56300
C  26.52800 0.70400 25.67300
C  26.59600 0.52400 27.22400
C  24.15100 0.36100 24.49000
C  27.68100 1.63700 25.09200
C  28.40100 1.02700 23.85200
N  26.92500 0.85300 30.21900
C  27.91600 0.54800 29.29100
C  29.19700 0.42000 29.98800
C  28.89000 0.68400 31.28100
C  27.49300 1.00900 31.39000
C  30.50800 -0.00100 29.51100
C  29.44300 0.83200 32.62600
O  30.58100 0.72800 33.01700
C  28.23000 1.21100 33.53500
C  27.98000 0.21600 34.60500
O  27.44100 -0.85300 34.38500
O  28.53500 0.65700 35.78900
C  28.45400 -0.33400 36.85900
H  21.34700 1.67100 32.74800
H  22.64800 1.62700 26.38300
H  28.69600 0.41500 27.38300
H  25.34900 0.97200 34.96900
H  23.24300 2.86200 34.33100
H  23.43500 0.85300 36.15100
H  22.75500 -0.01900 34.81400
H  21.78300 1.28100 35.45900
H  25.00900 4.01500 35.21700
H  26.45900 3.42700 34.46600
H  27.37900 2.78400 36.37600
H  25.92600 1.91200 36.89300
H  19.46300 1.96200 31.88500
H  18.68200 0.79400 30.86900
H  18.81400 2.52900 30.42300
H  18.11100 0.67400 28.56500
H  17.91000 1.58700 26.97600
H  18.54800 2.34300 28.50400
H  24.95500 2.26700 25.32400
H  26.56500 -0.34500 25.37800
H  23.46300 -0.31400 24.99900
H  24.86700 -0.18300 23.87400
H  23.60000 1.08600 23.89200
H  28.39500 1.92300 25.86400
H  27.12500 2.54000 24.83900
H  29.45800 0.86200 24.05900
H  28.33500 1.72600 23.01800
H  28.02000 0.05100 23.55100
H  31.25200 0.60400 30.03000
H  30.62000 0.12400 28.43400
H  30.70200 -1.05500 29.70800
H  28.33000 2.12900 34.11400
H  29.32000 -0.40500 37.51600
H  28.47200 -1.35700 36.48300
H  27.55100 -0.28800 37.46800
Mg -4.64700 25.28300 25.72100
C  -3.48200 26.77200 28.68100
C  -6.80300 23.46400 27.50800
C  -5.64700 23.89400 22.74600
C  -2.19900 27.13100 23.94100
N  -4.99300 25.02600 27.88400
C  -4.52400 25.91400 28.92200
C  -5.26800 25.57400 30.29900
C  -6.01200 24.21300 29.82400
C  -5.99000 24.26800 28.31000
C  -5.23000 22.94400 30.28700
C  -6.26000 26.70700 30.73100
C  -6.40000 26.98400 32.22300
H  -6.25700 25.86400 33.22300
N  -6.02900 23.80100 25.20100
C  -6.90300 23.28200 26.06900
C  -7.86500 22.45600 25.35500
C  -7.45600 22.46300 23.93500
C  -6.33500 23.37200 23.90100
C  -8.86400 21.60300 26.11400
C  -8.10400 21.77600 22.70500
O  -7.58400 21.89500 21.58200
C  -9.35800 21.09400 22.89400
N  -4.04100 25.49900 23.66600
C  -4.62000 24.77000 22.67000
C  -3.85600 25.03300 21.38500
C  -3.06600 26.34600 21.71200
C  -3.04200 26.32600 23.20500
C  -2.92600 23.86200 20.94000
C  -3.78300 27.58400 21.17900
C  -3.08900 28.14500 19.95500
N  -3.11600 26.71600 26.10900
C  -2.31200 27.44600 25.30400
C  -1.64700 28.44800 26.04400
C  -2.01500 28.15900 27.43800
C  -2.90800 27.08800 27.38300
C  -0.75300 29.57100 25.50700
C  -1.85800 28.65700 28.74900
O  -1.21300 29.58500 29.17900
C  -2.75500 27.72500 29.65500
C  -1.72400 27.12400 30.54300
O  -0.91900 26.25400 30.30300
O  -1.99500 27.56700 31.81300
C  -1.19700 27.00200 32.84200
H  -7.51900 22.86400 28.07300
H  -5.82700 23.31500 21.83700
H  -1.52300 27.64600 23.25500
H  -4.57700 25.44500 31.13200
H  -7.05300 24.06500 30.11100
H  -5.74400 22.45100 31.11300
H  -4.28000 23.24600 30.72700
H  -5.01400 22.23100 29.49100
H  -7.27100 26.48600 30.38700
H  -5.79600 27.58400 30.27800
H  -7.36800 27.44200 32.42900
H  -5.58500 27.68400 32.40600
H  -9.73200 22.17900 26.43400
H  -8.39600 21.18300 27.00400
H  -9.15600 20.81600 25.41700
H  -9.07600 20.18800 23.43200
H  -9.90000 20.82800 21.98600
H  -10.07400 21.67200 23.47700
H  -4.58100 25.07800 20.57200
H  -2.05100 26.20000 21.34100
H  -1.90300 24.23700 20.95200
H  -3.26700 23.48400 19.97600
H  -2.96300 23.07400 21.69300
H  -3.83400 28.39600 21.90500
H  -4.82400 27.36400 20.94300
H  -3.19200 27.45400 19.11800
H  -2.03300 28.20800 20.21900
H  -3.60900 29.07800 19.73800
H  -1.12500 30.54800 25.81600
H  -0.64400 29.46700 24.42700
H  0.17000 29.49500 26.08200
H  -3.57800 28.17400 30.21000
H  -0.13300 27.21900 32.74500
H  -1.47000 25.95000 32.93300
H  -1.57800 27.42800 33.77000

