158

Mg 26.62500 50.82700 27.02800
C  24.41200 51.83700 29.52800
C  29.02600 50.26700 29.51700
C  28.87400 50.37400 24.62800
C  24.31900 52.01700 24.62900
N  26.76700 51.33500 29.21700
C  25.66900 51.49000 30.03200
C  25.93400 51.08100 31.49800
C  27.50800 50.83300 31.52700
C  27.79900 50.75100 29.97700
C  28.38500 51.92800 32.23200
C  25.03500 49.95100 32.06100
C  24.18100 50.18700 33.29600
H  24.35700 49.22500 34.40200
N  28.69200 50.23400 27.08000
C  29.44500 49.97100 28.14900
C  30.70500 49.49200 27.70900
C  30.66200 49.53100 26.31800
C  29.36600 50.11000 25.92300
C  31.74600 49.07300 28.68600
C  31.73500 49.05400 25.43100
O  31.68000 49.13900 24.18300
C  33.03300 48.45500 25.93800
N  26.63800 51.21500 24.94600
C  27.64000 50.79200 24.20500
C  27.26000 50.66100 22.70500
C  25.80700 51.21300 22.68300
C  25.52300 51.45300 24.14700
C  28.33100 51.43300 21.71900
C  24.73800 50.38600 21.92800
C  24.14800 51.05400 20.69400
N  24.70700 51.78900 26.95800
C  23.87900 52.27200 25.95700
C  22.66400 52.75000 26.49700
C  22.76600 52.50800 27.88800
C  24.06600 51.98500 28.11500
C  21.51700 53.27800 25.81400
C  22.04600 52.56800 29.12300
O  20.93300 52.90000 29.34800
C  23.11400 52.21800 30.27300
C  23.21400 53.35500 31.15800
O  23.64500 54.46600 30.93600
O  22.81600 52.91500 32.41000
C  22.92300 53.91800 33.50500
H  29.59700 49.80700 30.32600
H  29.52000 50.14700 23.77700
H  23.45500 52.09700 23.96600
H  25.76100 51.97600 32.09700
H  27.84400 49.89100 31.95900
H  29.13800 51.49500 32.89000
H  27.72100 52.55600 32.82500
H  28.83700 52.51100 31.42900
H  25.62200 49.03800 32.16000
H  24.41900 49.70500 31.19500
H  23.17200 50.23300 32.88400
H  24.35700 51.20500 33.64000
H  31.42600 49.00400 29.72600
H  32.62200 49.71800 28.61300
H  31.92000 48.02100 28.45900
H  33.71900 48.38000 25.09500
H  32.79700 47.44700 26.28000
H  33.45500 49.03700 26.75700
H  27.20900 49.61300 22.41200
H  25.78800 52.21500 22.25400
H  29.30900 51.66000 22.14300
H  27.87700 52.32100 21.27900
H  28.46100 50.68500 20.93700
H  23.97300 50.08900 22.64600
H  25.24300 49.48600 21.57600
H  23.21200 51.56100 20.92700
H  23.96300 50.29900 19.92900
H  24.82800 51.79400 20.27200
H  21.78200 54.03800 25.07900
H  20.87500 53.78600 26.53300
H  21.02000 52.38300 25.43900
H  22.64200 51.39100 30.80400
H  22.93900 54.97500 33.24000
H  23.87500 53.81600 34.02700
H  22.13800 53.81000 34.25400
Mg -11.85800 15.68100 41.93500
C  -8.60400 14.01300 41.88000
C  -10.37800 18.38700 40.57300
C  -14.83700 16.81600 41.43800
C  -13.19700 12.54500 42.92300
N  -9.83100 16.06300 41.18500
C  -8.70500 15.35700 41.43000
C  -7.46200 16.11400 40.83900
C  -7.98400 17.62300 40.90000
C  -9.51900 17.38000 40.88700
C  -7.57700 18.42200 42.18200
C  -7.11600 15.51000 39.34700
C  -5.67700 15.07600 39.24700
H  -4.93100 15.90400 38.24500
N  -12.51700 17.35600 41.10700
C  -11.75200 18.34300 40.57400
C  -12.64000 19.35200 40.10000
C  -13.97500 18.89500 40.23900
C  -13.82200 17.60500 40.99100
C  -12.13400 20.63100 39.42400
C  -15.13700 19.65900 39.74200
O  -14.98500 20.78200 39.23000
C  -16.50500 19.05400 39.75800
N  -13.69000 14.73800 42.03600
C  -14.81300 15.50700 41.98200
C  -16.14500 14.77700 42.35400
C  -15.63600 13.35800 42.71000
C  -14.08400 13.55200 42.53700
C  -16.88400 15.42000 43.58600
C  -16.15500 12.17800 41.73700
C  -16.20000 10.77800 42.32300
N  -11.03400 13.74600 42.46900
C  -11.76300 12.57600 42.80100
C  -10.77400 11.48700 43.06800
C  -9.54600 11.98600 42.73100
C  -9.72000 13.35200 42.31700
C  -11.09700 10.12800 43.66400
C  -8.13700 11.69300 42.55500
O  -7.57100 10.61300 42.77200
C  -7.47200 12.97900 42.07400
C  -6.49000 13.54500 43.05700
O  -6.62400 13.78900 44.23700
O  -5.30900 13.64800 42.43600
C  -4.22300 14.40100 43.05800
H  -9.80900 19.20800 40.13100
H  -15.84000 17.20600 41.25200
H  -13.71800 11.62300 43.18900
H  -6.62000 15.89700 41.49700
H  -7.75800 18.12300 39.95800
H  -6.58600 18.17500 42.56200
H  -8.28200 18.15400 42.96800
H  -7.61300 19.49900 42.01700
H  -7.42600 16.25900 38.61800
H  -7.73000 14.62800 39.16000
H  -5.71600 14.00200 39.06400
H  -5.03900 15.30300 40.10000
H  -12.43900 20.77100 38.38700
H  -11.04900 20.71000 39.35300
H  -12.50800 21.48800 39.98400
H  -17.14900 19.50900 39.00600
H  -16.95600 19.06900 40.74900
H  -16.36100 18.03200 39.40600
H  -16.89400 14.77500 41.56200
H  -15.80000 13.05800 43.74500
H  -17.92800 15.71000 43.46900
H  -16.30800 16.34200 43.67800
H  -16.81800 14.78300 44.46800
H  -15.55300 12.00500 40.84500
H  -17.09800 12.51900 41.31000
H  -16.98900 10.16900 41.88100
H  -16.30000 10.89700 43.40200
H  -15.23700 10.29700 42.15300
H  -11.64700 9.52200 42.94400
H  -11.80700 10.14400 44.49000
H  -10.14500 9.68400 43.95600
H  -6.93700 12.93100 41.12600
H  -3.51700 14.31100 42.23200
H  -3.77700 13.91300 43.92400
H  -4.55100 15.42300 43.25200

