158

Mg 45.28800 5.17400 47.68800
C  43.34700 7.84200 46.97300
C  42.80300 3.12400 46.72100
C  47.45800 2.59100 47.89000
C  48.00300 7.41400 48.02100
N  43.34800 5.49600 46.84700
C  42.73800 6.64800 46.70300
C  41.25200 6.53000 46.24100
C  41.01800 5.00600 46.41900
C  42.48000 4.47700 46.66500
C  40.09400 4.56800 47.51400
C  41.14800 7.01700 44.73000
C  39.88200 7.88000 44.37700
H  39.14500 7.67200 43.03800
N  45.13300 3.11700 47.35900
C  44.05600 2.45300 46.89400
C  44.42000 1.08100 46.63500
C  45.75400 0.90000 47.05900
C  46.17700 2.20000 47.55700
C  43.50200 0.00600 46.13400
C  46.55800 -0.41400 46.87200
O  46.10700 -1.36900 46.28300
C  47.89400 -0.48900 47.60400
N  47.42900 5.05600 47.74900
C  48.04100 3.84700 48.02900
C  49.51000 3.99300 48.25600
C  49.71500 5.55500 48.33600
C  48.28700 6.05800 48.11900
C  49.97700 3.20400 49.48300
C  50.66800 6.14500 47.25300
C  51.47600 7.27900 47.69700
N  45.65700 7.27600 47.62200
C  46.72400 8.04700 47.84000
C  46.42700 9.45600 47.74700
C  45.07500 9.45500 47.32300
C  44.65700 8.13900 47.35700
C  47.39000 10.60100 47.77700
C  43.94300 10.27400 46.97700
O  43.79800 11.47200 46.82600
C  42.73600 9.24000 46.78900
C  41.71200 9.54200 47.84400
O  41.49600 8.96400 48.85900
O  40.76800 10.44600 47.30800
C  39.50400 10.61600 48.14800
H  41.97600 2.45100 46.48500
H  48.24800 1.84600 48.00200
H  48.85800 8.08800 48.10900
H  40.58700 7.15700 46.83500
H  40.63200 4.52900 45.51900
H  39.41300 5.39700 47.70200
H  40.47400 4.18500 48.46200
H  39.63400 3.66900 47.10500
H  41.21100 6.11600 44.12100
H  42.06000 7.60300 44.61100
H  40.20400 8.91500 44.26300
H  39.08100 7.88400 45.11500
H  43.73800 -0.35300 45.13200
H  42.42600 0.17800 46.13600
H  43.75100 -0.85900 46.75000
H  48.09200 -1.54800 47.76700
H  47.50400 -0.05600 48.52600
H  48.77100 0.04500 47.24000
H  50.00800 3.60200 47.36800
H  49.92600 5.93500 49.33600
H  50.28100 2.16700 49.34200
H  49.06400 3.17300 50.07700
H  50.68900 3.82000 50.03100
H  49.93700 6.47400 46.51500
H  51.30200 5.33700 46.88800
H  52.44500 7.13700 47.21900
H  51.54700 7.22000 48.78300
H  51.07200 8.20800 47.29500
H  46.87700 11.55100 47.62200
H  48.06200 10.55000 46.92000
H  48.03100 10.62100 48.65900
H  42.19000 9.42600 45.86400
H  39.57700 11.09400 49.12500
H  39.17000 9.60700 48.38700
H  38.77200 11.09400 47.49800
Mg -11.70600 38.73000 42.32600
C  -9.45100 36.17400 41.25800
C  -9.87500 40.91900 40.36500
C  -14.08200 40.99600 43.00600
C  -13.81800 36.22000 43.35700
N  -9.92200 38.54500 40.99100
C  -9.10300 37.43600 40.71600
C  -7.98400 37.72200 39.77200
C  -8.05800 39.28000 39.72500
C  -9.39300 39.59000 40.32800
C  -6.94200 40.29300 40.08100
C  -8.18800 36.89900 38.41700
C  -7.12400 35.76800 38.13500
H  -6.25500 35.93400 36.91000
N  -11.87000 40.73300 41.87300
C  -11.01400 41.42100 41.01400
C  -11.49300 42.76500 40.98000
C  -12.59300 42.88600 41.85800
C  -12.86300 41.51500 42.35000
C  -10.89800 43.73900 40.06600
C  -13.33500 44.20400 42.10300
O  -12.95200 45.27600 41.62900
C  -14.57100 44.28900 42.97500
N  -13.65200 38.58700 43.16600
C  -14.39200 39.67000 43.37900
C  -15.80800 39.36800 43.67800
C  -15.80600 37.78100 43.51600
C  -14.34200 37.47700 43.35400
C  -16.40200 40.03300 45.00000
C  -16.71300 37.25400 42.35100
C  -18.19700 37.06900 42.72400
N  -11.66700 36.63700 42.46800
C  -12.57900 35.73300 42.91400
C  -12.07700 34.40000 42.98400
C  -10.80900 34.53000 42.32900
C  -10.59900 35.90200 42.08100
C  -12.67100 33.22600 43.65800
C  -9.64000 33.83900 41.89300
O  -9.37100 32.65800 41.92000
C  -8.69500 34.84400 41.21900
C  -7.32100 34.80200 41.82300
O  -6.43100 34.00300 41.69200
O  -7.18900 35.91400 42.69500
C  -6.03000 35.91300 43.56300
H  -9.28800 41.66100 39.81900
H  -14.88900 41.70500 43.20200
H  -14.59100 35.53500 43.71100
H  -7.07600 37.29500 40.19800
H  -8.15300 39.48800 38.65900
H  -6.13600 39.66100 40.45400
H  -7.31600 41.08800 40.72600
H  -6.73700 40.69900 39.09100
H  -8.20600 37.59400 37.57700
H  -9.14100 36.37200 38.45800
H  -7.65100 34.82400 37.99500
H  -6.53500 35.65200 39.04500
H  -10.29200 43.31200 39.26600
H  -10.15600 44.28400 40.64900
H  -11.52300 44.46400 39.54400
H  -15.34800 43.79500 42.39200
H  -14.71000 45.34700 43.20000
H  -14.49200 43.79700 43.94400
H  -16.42200 39.76300 42.86900
H  -16.15500 37.31100 44.43600
H  -16.94000 39.23300 45.50900
H  -17.08500 40.83000 44.70700
H  -15.52400 40.27500 45.59900
H  -16.23900 36.41400 41.84400
H  -16.63900 37.96200 41.52600
H  -18.57800 37.79300 43.44400
H  -18.34100 36.02900 43.01600
H  -18.78200 37.27000 41.82600
H  -13.35000 32.65600 43.02400
H  -13.23700 33.68500 44.46900
H  -11.83800 32.58400 43.94300
H  -8.51000 34.35400 40.26200
H  -6.28700 36.48700 44.45300
H  -5.19200 36.47100 43.14400
H  -5.54400 35.02400 43.96300

