158

Mg 16.72200 -2.61900 29.02800
C  15.57700 -0.27400 31.33400
C  18.95800 -3.75600 31.38700
C  18.17500 -4.51200 26.66100
C  14.74000 -1.11200 26.55900
N  17.11800 -2.09700 31.10800
C  16.49300 -1.18200 31.85000
C  16.86400 -1.34400 33.32300
C  18.08600 -2.35800 33.35000
C  18.04200 -2.79300 31.86600
C  19.46600 -1.92600 33.85200
C  15.77400 -1.81500 34.26700
C  15.44500 -0.88600 35.42200
H  16.52100 -0.28900 36.39400
N  18.33600 -3.98600 29.06700
C  19.09500 -4.35700 30.12400
C  20.07700 -5.35000 29.67200
C  19.88300 -5.52700 28.25900
C  18.73200 -4.67700 27.96600
C  20.97100 -6.13500 30.64000
C  20.77700 -6.33100 27.37300
O  20.55700 -6.47000 26.19200
C  21.99800 -7.07500 27.85600
N  16.67000 -2.73100 26.90100
C  17.23700 -3.69900 26.11200
C  16.66400 -3.72700 24.72400
C  15.73700 -2.45000 24.68100
C  15.66700 -2.14700 26.18400
C  17.78600 -3.52300 23.71300
C  14.30800 -2.75000 24.07900
C  13.70600 -1.70400 23.10000
N  15.43800 -1.08600 28.93800
C  14.72500 -0.53000 27.85600
C  13.98300 0.57100 28.33000
C  14.27200 0.71100 29.66600
C  15.17700 -0.27000 30.00300
C  12.95300 1.44900 27.55500
C  13.98600 1.53500 30.85700
O  13.33000 2.56400 30.94100
C  14.73300 0.76400 32.00400
C  15.39300 1.90400 32.84500
O  16.58600 2.10600 32.92300
O  14.48600 2.52800 33.61600
C  15.03800 3.39500 34.69300
H  19.68200 -4.09200 32.13200
H  18.53300 -5.27800 25.96900
H  14.14800 -0.66600 25.75700
H  17.18700 -0.38600 33.73200
H  17.80100 -3.16200 34.02800
H  19.45700 -1.01400 34.45000
H  20.06500 -1.68400 32.97400
H  19.88700 -2.74800 34.43100
H  15.77600 -2.83400 34.65500
H  14.90200 -1.69000 33.62400
H  14.69700 -1.32500 36.08200
H  14.88200 -0.01900 35.07600
H  20.88300 -7.20600 30.45700
H  20.80800 -5.76000 31.65000
H  22.00000 -5.83900 30.43600
H  22.55800 -7.30400 26.94900
H  21.62400 -8.02400 28.23900
H  22.58300 -6.48600 28.56300
H  16.04300 -4.58000 24.45200
H  16.32300 -1.65500 24.21800
H  18.14600 -4.48800 23.35300
H  18.60500 -2.95900 24.15900
H  17.30200 -2.99200 22.89400
H  13.63700 -2.84200 24.93400
H  14.21000 -3.72400 23.60100
H  13.03200 -1.13100 23.73600
H  13.18700 -2.20800 22.28500
H  14.34600 -0.95300 22.63500
H  12.13100 0.84200 27.17700
H  13.46400 1.98200 26.75300
H  12.69100 2.19000 28.31000
H  14.04800 0.26300 32.68800
H  15.09500 4.46300 34.48200
H  16.06400 3.17800 34.98800
H  14.31700 3.27200 35.50100
Mg 47.77800 16.80800 27.61500
C  45.60400 16.86700 30.51900
C  49.96600 18.71300 29.16000
C  49.41700 16.81700 24.82000
C  44.91400 15.28800 25.95700
N  47.66200 17.81000 29.55800
C  46.82400 17.53200 30.64600
C  47.49400 18.05000 31.96300
C  48.78000 18.84300 31.44400
C  48.83700 18.46100 29.94500
C  48.77200 20.36300 31.64400
C  47.91500 16.87000 32.85800
C  47.90100 17.18000 34.42300
H  47.60700 18.61500 35.05500
N  49.42800 17.68700 27.10600
C  50.29400 18.38400 27.87500
C  51.44900 18.86200 27.18500
C  51.32400 18.30000 25.87700
C  50.05700 17.52500 25.89000
C  52.52200 19.80900 27.74700
C  52.23400 18.49800 24.69200
O  51.96000 17.97400 23.60900
C  53.46200 19.32700 24.71500
N  47.28200 15.98200 25.65000
C  48.24000 16.06800 24.70100
C  47.62000 15.61200 23.27400
C  46.14200 15.22600 23.60000
C  46.06800 15.55300 25.15500
C  47.85500 16.60300 22.10500
C  45.74500 13.69100 23.23900
C  45.98800 13.20400 21.84600
N  45.70100 16.28800 28.06600
C  44.72700 15.60700 27.32900
C  43.52800 15.26100 28.16000
C  43.83000 15.76800 29.42500
C  45.13800 16.37800 29.32700
C  42.26200 14.47600 27.72500
C  43.31300 15.95800 30.76500
O  42.22300 15.80000 31.24100
C  44.49800 16.60100 31.54600
C  44.01500 17.76600 32.33600
O  43.77300 18.87500 31.92100
O  43.67700 17.32600 33.57300
C  43.04700 18.21800 34.57100
H  50.65800 19.30800 29.76000
H  49.90700 16.92000 23.85000
H  44.06100 14.78200 25.50000
H  46.83500 18.75000 32.47700
H  49.72700 18.55300 31.89900
H  49.70900 20.62500 32.13500
H  47.92500 20.71400 32.23300
H  48.58900 20.91100 30.72000
H  48.93600 16.55600 32.64200
H  47.30100 16.00200 32.61700
H  48.89100 16.84300 34.72700
H  47.20400 16.52400 34.94400
H  52.47100 19.82200 28.83600
H  52.21900 20.77800 27.35200
H  53.54700 19.48100 27.57300
H  53.20900 20.33600 25.04100
H  53.83100 19.47900 23.70100
H  54.18100 18.93400 25.43400
H  48.19800 14.74800 22.94500
H  45.40900 15.86300 23.10600
H  48.18400 17.55600 22.52100
H  46.92800 16.71100 21.54300
H  48.59400 16.23100 21.39500
H  44.67500 13.63800 23.44200
H  46.26600 13.07100 23.96900
H  46.56200 13.95800 21.30600
H  45.02700 13.17500 21.33400
H  46.58200 12.29100 21.81000
H  41.55200 15.19200 27.31000
H  41.83700 14.00300 28.61000
H  42.47000 13.71400 26.97400
H  44.90600 15.88400 32.25900
H  42.27300 17.81400 35.22300
H  42.60600 19.04800 34.01900
H  43.93500 18.62200 35.05700

