158

Mg 17.30800 -1.21600 28.29200
C  16.22700 0.90900 30.91300
C  19.15400 -2.94300 30.42400
C  18.66900 -2.71400 25.52400
C  15.73800 1.10100 26.04800
N  17.57200 -1.01400 30.46500
C  16.99500 -0.18300 31.33100
C  17.52100 -0.49700 32.71200
C  18.59800 -1.57600 32.48100
C  18.41600 -1.94300 31.00400
C  19.99100 -1.28200 32.99500
C  16.33800 -0.79400 33.67600
C  16.47900 -0.29000 35.13000
H  17.80700 0.20000 35.61800
N  18.62600 -2.68300 28.06100
C  19.33200 -3.27700 29.02300
C  20.14100 -4.38500 28.52800
C  19.88800 -4.47800 27.13100
C  19.00900 -3.21500 26.82500
C  21.02200 -5.28400 29.40500
C  20.24200 -5.52500 26.19900
O  19.87700 -5.55300 25.03700
C  21.13100 -6.73400 26.59000
N  17.25300 -0.78900 26.05600
C  17.88500 -1.61400 25.12300
C  17.38200 -1.42500 23.71100
C  16.37100 -0.19200 23.97800
C  16.37800 0.04500 25.45200
C  18.52900 -1.21800 22.67800
C  15.04600 -0.46500 23.38200
C  14.00000 -1.17100 24.21100
N  16.10700 0.57900 28.39900
C  15.58500 1.45400 27.43700
C  14.88400 2.56400 27.98400
C  15.08500 2.33500 29.42200
C  15.78900 1.19900 29.60300
C  14.16900 3.64000 27.18200
C  14.72300 2.89100 30.68500
O  14.06900 3.87400 31.01300
C  15.49000 1.97200 31.73200
C  16.36100 2.96100 32.51600
O  17.28500 3.58000 32.00900
O  15.86900 3.15800 33.82400
C  16.48300 4.07000 34.75600
H  19.76500 -3.46900 31.16100
H  19.08100 -3.32500 24.71800
H  15.19000 1.73300 25.34600
H  18.14300 0.33600 33.04100
H  18.31200 -2.45600 33.05800
H  20.21900 -1.89100 33.86900
H  20.12300 -0.23900 33.28300
H  20.71100 -1.52500 32.21400
H  16.41600 -1.87400 33.79900
H  15.39900 -0.47300 33.22400
H  16.17100 -1.17800 35.68100
H  15.78300 0.52300 35.33600
H  20.63700 -6.29200 29.25600
H  20.95100 -5.06600 30.47100
H  22.06400 -5.19300 29.09900
H  20.52800 -7.43100 27.17200
H  21.97200 -6.44600 27.22000
H  21.55800 -7.27000 25.74200
H  16.81900 -2.33200 23.49200
H  16.83300 0.68800 23.53100
H  19.44900 -1.68600 23.02800
H  18.57900 -0.14300 22.50700
H  18.22200 -1.77700 21.79400
H  15.19900 -1.25300 22.64400
H  14.68100 0.39000 22.81400
H  14.08800 -0.87100 25.25500
H  14.12900 -2.23900 24.38600
H  12.98800 -0.92900 23.88600
H  14.01500 3.31900 26.15200
H  14.76600 4.54900 27.11200
H  13.19700 3.94100 27.57200
H  14.75600 1.46100 32.35500
H  16.44400 5.10000 34.40300
H  17.52600 3.77300 34.86500
H  15.91500 4.05500 35.68600
Mg 30.33400 58.12000 40.23100
C  27.69300 56.03800 38.99100
C  32.41400 55.82400 38.55400
C  32.71200 60.30200 40.34200
C  27.87000 60.41600 41.07100
N  29.99600 56.27600 38.65800
C  28.89500 55.62900 38.41800
C  29.17400 54.22900 37.81900
C  30.69600 54.12800 37.89600
C  31.05000 55.47100 38.36000
C  31.18100 52.95800 38.88100
C  28.68400 54.10000 36.32700
C  29.16800 55.28600 35.48300
H  28.00200 55.91700 34.62100
N  32.32100 58.07700 39.72100
C  33.01600 57.00200 39.12700
C  34.40600 57.29700 39.16600
C  34.52100 58.64100 39.65500
C  33.16800 59.06600 39.91500
C  35.41500 56.31000 38.61600
C  35.80100 59.39500 39.79600
O  36.85800 58.89100 39.49700
C  35.94800 60.89100 40.19400
N  30.34900 59.94700 40.96400
C  31.46400 60.71300 40.78900
C  31.21900 62.23800 40.91500
C  29.67500 62.28800 41.07300
C  29.27400 60.82900 41.06200
C  31.99400 62.95400 42.08600
C  28.96000 63.10300 39.97300
C  28.48700 64.49600 40.44600
N  28.30500 58.20600 40.26100
C  27.46000 59.15700 40.66600
C  26.11400 58.72900 40.55400
C  26.17500 57.56100 39.91800
C  27.50800 57.22000 39.72700
C  24.89300 59.47700 41.08900
C  25.33400 56.50800 39.26000
O  24.12600 56.53700 39.04900
C  26.33000 55.45100 38.72600
C  25.96800 54.13000 39.39600
O  26.41400 53.65600 40.45300
O  24.99000 53.55300 38.63400
C  24.34800 52.41000 39.30800
H  33.14900 55.05300 38.31400
H  33.46600 61.07500 40.18200
H  27.19300 61.27300 41.08600
H  28.58600 53.56200 38.45000
H  31.17200 53.91900 36.93800
H  30.35100 52.30800 39.15500
H  31.76300 53.36800 39.70600
H  31.95900 52.32300 38.45600
H  27.59900 54.02400 36.39500
H  29.09800 53.25900 35.77000
H  30.00700 54.98300 34.85600
H  29.44700 56.14000 36.10000
H  36.37400 56.81400 38.49000
H  35.12900 56.08000 37.59000
H  35.49500 55.38200 39.18300
H  35.43400 61.57900 39.52200
H  36.98700 61.14800 39.98500
H  35.73900 61.10500 41.24200
H  31.53700 62.71000 39.98500
H  29.39100 62.61500 42.07300
H  32.34600 63.92600 41.74100
H  32.82800 62.32300 42.39300
H  31.36500 63.14500 42.95500
H  28.20900 62.47300 39.49800
H  29.65200 63.14800 39.13200
H  28.80100 64.73400 41.46200
H  27.41600 64.31900 40.34600
H  28.66900 65.30400 39.73700
H  24.11900 58.71000 41.11700
H  24.57300 60.27800 40.42300
H  25.01800 59.85900 42.10200
H  26.07600 55.51300 37.66800
H  23.50900 52.04300 38.71800
H  23.90700 52.67800 40.26800
H  25.08000 51.63000 39.52200

