158

Mg 49.05500 44.83300 43.23800
C  45.55500 44.96700 42.55800
C  48.81600 41.36900 42.57300
C  52.27100 44.71600 43.36000
C  49.03200 48.39100 43.00100
N  47.36700 43.33200 42.59700
C  46.05600 43.61500 42.39900
C  45.19600 42.53800 41.77600
C  46.19000 41.36700 42.12100
C  47.62300 42.02200 42.41300
C  45.70400 40.43800 43.29900
C  44.96200 42.66600 40.24000
C  44.25100 41.44100 39.61200
H  43.67300 41.69800 38.20400
N  50.39900 43.23900 43.19700
C  50.12700 41.92200 42.89500
C  51.36900 41.17300 42.78900
C  52.47600 42.13800 43.05600
C  51.74000 43.44700 43.22800
C  51.43500 39.63200 42.45000
C  53.97400 41.79200 43.12400
O  54.38000 40.61800 42.92200
C  54.98200 42.98100 43.17200
N  50.45400 46.37100 42.91100
C  51.75900 46.04000 43.25200
C  52.60000 47.32000 43.52600
C  51.68000 48.50500 43.08800
C  50.32600 47.77600 42.90300
C  53.04000 47.38200 45.12400
C  52.13500 49.13700 41.70000
C  51.71600 50.62200 41.53800
N  47.66700 46.39600 43.02500
C  47.82200 47.77200 43.01900
C  46.53400 48.43900 42.95700
C  45.60600 47.38100 42.79100
C  46.31900 46.12400 42.80400
C  46.39400 49.95400 42.96200
C  44.17800 47.07700 42.60400
O  43.21700 47.86200 42.53000
C  44.11600 45.51600 42.39200
C  43.10900 44.85600 43.26300
O  43.32300 44.08800 44.21000
O  41.88600 45.30800 42.87900
C  40.75500 44.89500 43.73500
H  48.89800 40.28900 42.43400
H  53.35000 44.74400 43.52400
H  48.95700 49.48000 42.99300
H  44.21800 42.30600 42.19800
H  46.47200 40.74400 41.27200
H  44.86100 40.95300 43.75800
H  46.55300 40.32000 43.97200
H  45.32000 39.48100 42.94500
H  45.94400 42.80800 39.78900
H  44.35000 43.55600 40.09300
H  43.48300 41.12600 40.31900
H  44.83000 40.51800 39.59500
H  51.62900 39.51500 41.38400
H  50.49800 39.16000 42.74300
H  52.27900 39.20000 42.98700
H  54.66000 43.69900 42.41900
H  55.99800 42.65600 42.94900
H  55.08600 43.39200 44.17600
H  53.49100 47.33600 42.89900
H  51.53600 49.17300 43.93700
H  53.24900 46.33800 45.35600
H  52.32800 47.92600 45.74500
H  53.99000 47.91500 45.10100
H  51.83500 48.57100 40.81800
H  53.22400 49.16900 41.73500
H  51.69000 50.85000 40.47300
H  52.37300 51.27500 42.11200
H  50.70100 50.61400 41.93700
H  46.69700 50.50300 42.07000
H  46.87200 50.36800 43.85000
H  45.31500 50.01300 43.10800
H  43.62100 45.37300 41.43100
H  41.08800 45.05600 44.76000
H  40.55800 43.84900 43.49900
H  39.84600 45.46700 43.54600
Mg 36.07100 49.45600 24.60200
C  36.05900 47.65100 27.57500
C  34.60400 52.08300 26.18000
C  35.86900 50.97400 21.61300
C  37.24300 46.52500 23.03300
N  35.32700 49.75100 26.62700
C  35.65400 48.97200 27.73900
C  35.54700 49.75400 29.04500
C  34.85700 51.11100 28.55800
C  34.97400 51.01600 27.05100
C  33.44700 51.30700 28.98300
C  36.82800 49.85500 29.93700
C  36.57500 49.68200 31.50100
H  35.17100 49.81900 32.07700
N  35.31500 51.18400 24.03200
C  34.78700 52.19500 24.79900
C  34.43200 53.32100 24.03000
C  34.85800 53.07000 22.70500
C  35.40700 51.68100 22.71300
C  33.78200 54.50400 24.65700
C  34.78100 53.97500 21.47500
O  35.16600 53.62400 20.33500
C  34.01400 55.36500 21.54700
N  36.29700 48.77600 22.51500
C  36.29000 49.66400 21.48100
C  36.72800 49.02800 20.13900
C  37.33300 47.67400 20.65300
C  36.90900 47.61800 22.15800
C  35.62200 48.93700 19.08300
C  38.89200 47.49400 20.37300
C  39.99000 47.96100 21.34000
N  36.47500 47.43300 25.07300
C  37.00200 46.36900 24.40900
C  37.17600 45.18600 25.25300
C  36.77200 45.69600 26.50500
C  36.38600 47.04700 26.31700
C  37.53400 43.86800 24.67600
C  36.64600 45.30000 27.86900
O  36.79100 44.22600 28.40900
C  36.18100 46.56700 28.65000
C  35.01600 46.35600 29.43500
O  33.86300 46.46500 28.94900
O  35.34900 45.95900 30.74800
C  34.25300 45.27300 31.39200
H  34.36100 53.00200 26.71700
H  35.86600 51.52400 20.67000
H  37.70200 45.67900 22.51700
H  34.82100 49.09000 29.51400
H  35.34000 51.94400 29.06800
H  33.06700 50.59200 29.71200
H  32.76600 51.29200 28.13100
H  33.28400 52.29300 29.41700
H  37.11100 50.90600 29.88500
H  37.62600 49.23900 29.52200
H  37.20300 50.37000 32.06700
H  37.01200 48.69000 31.61500
H  34.51700 55.19900 25.06200
H  33.28900 54.17300 25.57100
H  32.99600 55.00700 24.09500
H  32.93000 55.25000 21.52300
H  34.36900 55.99800 20.73400
H  34.32800 55.88600 22.45100
H  37.50800 49.60000 19.63700
H  36.80300 46.86800 20.14600
H  34.65900 49.02600 19.58500
H  35.79200 48.00400 18.54500
H  35.81700 49.75800 18.39400
H  39.22400 47.98600 19.45900
H  38.96400 46.41800 20.21500
H  39.59900 48.15700 22.33800
H  40.56900 48.79100 20.93600
H  40.74400 47.19100 21.50500
H  37.63400 43.14600 25.48700
H  38.53600 43.99200 24.26600
H  36.71100 43.77200 23.96800
H  37.06900 46.87900 29.19900
H  33.35200 45.85700 31.20000
H  34.23100 45.42100 32.47200
H  34.25900 44.23000 31.07700

