158

Mg 30.53000 57.11200 40.10200
C  27.75200 54.98700 39.33300
C  32.61900 54.52700 38.99700
C  33.07800 59.27700 40.12300
C  28.22300 59.74800 40.69100
N  30.20000 55.05700 39.11900
C  29.01300 54.34000 39.05700
C  29.26100 52.86700 38.60400
C  30.82300 52.70400 38.77500
C  31.26100 54.17800 38.96500
C  31.23600 51.81700 39.96400
C  28.79100 52.60800 37.14100
C  28.46500 53.74900 36.13300
H  28.56400 53.34800 34.62000
N  32.57300 56.87800 39.72400
C  33.18700 55.78100 39.26900
C  34.64000 56.00700 39.13400
C  34.85800 57.25400 39.67000
C  33.46800 57.88600 39.84400
C  35.68600 54.84200 38.85000
C  36.18300 57.85800 39.96600
O  37.18700 57.24700 39.70000
C  36.40900 59.21500 40.48900
N  30.63200 59.27400 40.29200
C  31.83500 59.92100 40.32200
C  31.64800 61.39600 40.59500
C  30.07200 61.59800 40.85200
C  29.58400 60.10300 40.56700
C  32.55100 61.93600 41.70800
C  29.27500 62.69100 39.97900
C  29.52600 64.09500 40.48500
N  28.44800 57.46700 39.96700
C  27.70600 58.54200 40.22900
C  26.29200 58.22200 40.00100
C  26.27200 56.74700 39.68000
C  27.68000 56.38700 39.67300
C  25.12900 59.23400 40.21300
C  25.40100 55.66200 39.46300
O  24.14800 55.61800 39.55100
C  26.29700 54.39200 39.23400
C  25.93400 53.28400 40.13500
O  26.47800 52.93800 41.15900
O  24.94400 52.51100 39.52000
C  24.68900 51.19500 40.07500
H  33.22900 53.64200 38.80400
H  33.94500 59.94100 40.14500
H  27.53300 60.56200 40.92400
H  28.74200 52.24400 39.33200
H  31.23500 52.27600 37.86100
H  31.94100 51.02800 39.70400
H  30.39200 51.33500 40.45900
H  31.67500 52.43100 40.75000
H  27.94200 51.93000 37.22400
H  29.60400 51.99600 36.75100
H  29.23500 54.48500 36.36700
H  27.47600 54.15500 36.34200
H  36.58500 55.16700 38.32600
H  35.12400 54.10200 38.28100
H  36.06600 54.32000 39.72900
H  35.75800 59.34000 41.35400
H  36.35700 60.05100 39.79100
H  37.45700 59.26200 40.78400
H  31.89700 61.92000 39.67200
H  29.90700 61.75300 41.91800
H  33.49200 61.39200 41.63900
H  32.05800 61.80400 42.67100
H  32.92500 62.94000 41.50800
H  28.20000 62.53000 40.05600
H  29.58100 62.71300 38.93300
H  30.33100 64.05800 41.21800
H  28.61100 64.62400 40.75300
H  30.11500 64.67900 39.77800
H  24.32200 59.00000 39.51900
H  25.54200 60.22100 40.00400
H  24.75100 59.34200 41.23000
H  26.03600 54.16800 38.20000
H  23.73300 51.29900 40.58700
H  25.42100 50.86800 40.81300
H  24.74300 50.54600 39.20100
Mg -11.76200 17.12100 41.50500
C  -8.72300 15.43600 40.83000
C  -10.38200 19.95300 39.99600
C  -14.82300 18.39100 41.26900
C  -13.08900 13.97700 42.50300
N  -9.86600 17.55100 40.40600
C  -8.76200 16.71900 40.25400
C  -7.58200 17.38600 39.60600
C  -8.10500 18.82100 39.47700
C  -9.54000 18.81100 39.98600
C  -7.26000 19.93200 40.17200
C  -7.20200 16.71000 38.28500
C  -5.79300 16.09500 38.14400
H  -4.98700 16.42300 36.85500
N  -12.49200 18.99200 40.86700
C  -11.75300 20.01800 40.32900
C  -12.61300 21.07500 40.02400
C  -13.93900 20.71100 40.43000
C  -13.79800 19.30100 40.89500
C  -12.21600 22.40900 39.50500
C  -15.17800 21.64600 40.52700
O  -15.12400 22.86000 40.36100
C  -16.50600 21.07600 40.95400
N  -13.70600 16.33300 41.91000
C  -14.83800 17.07200 41.70400
C  -16.10500 16.24200 41.88700
C  -15.57100 14.93800 42.61800
C  -14.02800 15.00900 42.25000
C  -17.33800 16.84400 42.57700
C  -16.31800 13.69500 42.13500
C  -16.37800 12.56400 43.17800
N  -11.12900 15.11700 41.71000
C  -11.72000 13.98700 42.20200
C  -10.73100 12.98300 42.45900
C  -9.55400 13.47500 41.86600
C  -9.84900 14.79400 41.40000
C  -11.08800 11.57500 42.98500
C  -8.16500 13.06500 41.59600
O  -7.50500 12.06500 41.83100
C  -7.52900 14.42100 41.04200
C  -6.32700 14.83700 41.87500
O  -6.35000 15.43000 42.92100
O  -5.17800 14.48600 41.19700
C  -4.00600 14.69300 42.02800
H  -9.93600 20.86500 39.59200
H  -15.85600 18.67600 41.06300
H  -13.41100 13.01000 42.89500
H  -6.70600 17.31300 40.25100
H  -8.08200 19.05300 38.41200
H  -7.04600 20.75000 39.48400
H  -6.37100 19.49700 40.63000
H  -7.88300 20.33800 40.96900
H  -7.25800 17.37800 37.42500
H  -8.00400 16.00100 38.08000
H  -5.80800 15.00500 38.15300
H  -5.26500 16.50900 39.00300
H  -11.14100 22.57300 39.58100
H  -12.43100 23.18900 40.23500
H  -12.67100 22.78400 38.58800
H  -17.16600 21.92800 41.11600
H  -16.38100 20.50700 41.87500
H  -17.03700 20.41900 40.26500
H  -16.46400 15.93700 40.90400
H  -15.55400 15.05700 43.70200
H  -18.20400 17.00800 41.93500
H  -17.07100 17.82000 42.98000
H  -17.66700 16.22700 43.41300
H  -15.81400 13.45200 41.19900
H  -17.35200 13.88400 41.84800
H  -17.44200 12.40800 43.35300
H  -15.87100 12.77100 44.12000
H  -15.99000 11.68100 42.67100
H  -11.66500 10.90600 42.34700
H  -11.65600 11.72800 43.90300
H  -10.21800 10.92300 43.06700
H  -7.19000 14.13700 40.04500
H  -3.11100 14.19200 41.66200
H  -4.09300 14.50600 43.09800
H  -3.81800 15.76000 41.90500

