158

Mg 26.06300 51.29500 26.28300
C  24.12800 52.17200 29.15400
C  28.77300 50.68600 28.43400
C  28.08300 51.29200 23.59000
C  23.33000 52.24000 24.24500
N  26.32700 51.42300 28.49400
C  25.38800 51.70200 29.46600
C  25.93000 51.38200 30.94100
C  27.49500 51.03600 30.60700
C  27.54700 51.03300 29.05600
C  28.62900 51.90000 31.28600
C  25.24200 50.27300 31.65500
C  24.57300 50.58400 33.00500
H  25.32500 51.32100 34.16200
N  28.09100 50.89000 25.99500
C  29.04700 50.59100 27.02900
C  30.37100 50.45400 26.39700
C  30.11900 50.64400 25.01100
C  28.70100 50.92500 24.78200
C  31.59200 50.17400 27.27000
C  31.10900 50.58800 23.80700
O  30.75900 50.67000 22.62200
C  32.54400 50.29800 24.15400
N  25.77100 51.89400 24.18800
C  26.76100 51.64800 23.29600
C  26.28100 52.13500 21.92100
C  24.74700 52.27800 22.01500
C  24.58300 52.18600 23.61100
C  26.91600 53.63200 21.68300
C  23.91500 51.30600 21.14700
C  23.89200 49.94500 21.76200
N  24.09000 51.97700 26.62300
C  23.08900 52.23900 25.68000
C  21.93300 52.66400 26.41100
C  22.27200 52.66100 27.77300
C  23.59300 52.27900 27.82400
C  20.55700 52.96100 25.88500
C  21.79000 52.93600 29.18000
O  20.68600 53.30500 29.60900
C  22.93900 52.51800 30.12600
C  23.24500 53.57000 31.03500
O  23.95300 54.48800 30.71500
O  22.55100 53.37400 32.21000
C  22.63400 54.42600 33.20100
H  29.51100 50.34000 29.16100
H  28.64300 51.24000 22.65300
H  22.41300 52.38500 23.67000
H  25.75700 52.24100 31.58800
H  27.60800 50.00200 30.93100
H  29.26100 51.26000 31.90100
H  28.19500 52.65500 31.94200
H  29.12500 52.55800 30.57200
H  25.90000 49.43000 31.87000
H  24.41400 49.86900 31.07200
H  24.33500 49.57600 33.34600
H  23.65800 51.15700 32.85100
H  31.27400 50.04300 28.30400
H  32.24700 51.04400 27.31100
H  32.11200 49.27400 26.94400
H  32.73600 49.30800 24.56800
H  32.82500 51.08100 24.85900
H  33.10000 50.34400 23.21800
H  26.57500 51.61100 21.01200
H  24.43600 53.29500 21.77600
H  27.87900 53.48000 21.19500
H  26.98200 54.22600 22.59400
H  26.26900 54.15800 20.98100
H  24.35200 51.29300 20.14800
H  22.90200 51.69300 21.03500
H  24.28700 49.27700 20.99600
H  22.86200 49.71900 22.03800
H  24.48700 49.78400 22.66100
H  20.42300 52.39800 24.96100
H  20.68200 54.01800 25.65000
H  19.70300 52.73700 26.52400
H  22.61000 51.60300 30.61900
H  22.26600 54.11800 34.18000
H  21.94300 55.15700 32.78200
H  23.61800 54.89400 33.19600
Mg 8.67100 46.90100 25.53600
C  6.75300 46.69900 28.42500
C  11.26300 48.06100 27.42200
C  10.42200 47.29000 22.73700
C  5.72000 46.42600 23.70000
N  8.97900 47.32200 27.76000
C  8.05400 47.21800 28.78100
C  8.64400 47.84700 30.08700
C  9.95900 48.52700 29.58800
C  10.09500 47.92400 28.20600
C  10.10100 50.12000 29.69500
C  8.91600 46.86700 31.27600
C  8.20400 47.25100 32.60400
H  8.19200 46.06600 33.64400
N  10.60900 47.47000 25.15100
C  11.55900 47.73300 26.11400
C  12.87500 47.73800 25.46200
C  12.70500 47.50500 24.04400
C  11.20500 47.43000 23.92000
C  14.17600 48.10600 26.16400
C  13.66000 47.40200 22.87300
O  13.23000 47.39800 21.69700
C  15.12100 47.14500 23.17300
N  8.17100 46.71300 23.52700
C  9.03500 47.07700 22.53800
C  8.41700 47.28300 21.15300
C  6.95400 46.88300 21.51800
C  6.92300 46.66000 22.97400
C  8.54800 48.69000 20.52000
C  6.57500 45.51900 20.77600
C  5.13400 45.44500 20.23300
N  6.65400 46.59500 25.88500
C  5.60200 46.29800 25.09700
C  4.40700 46.05500 25.82100
C  4.83800 46.21100 27.13800
C  6.17600 46.49600 27.14800
C  3.02600 45.91300 25.24200
C  4.41400 46.21500 28.51800
O  3.31800 46.07200 29.00000
C  5.67900 46.60300 29.39000
C  5.81900 45.56500 30.40400
O  6.23900 44.45000 30.21400
O  5.25100 45.95100 31.57200
C  4.86300 44.98100 32.56700
H  12.09200 48.40300 28.04500
H  10.98200 47.35700 21.80200
H  4.81000 46.27500 23.11500
H  7.97300 48.60000 30.49900
H  10.76400 48.06800 30.16200
H  9.14000 50.63400 29.69300
H  10.70200 50.47200 28.85600
H  10.64800 50.36900 30.60500
H  9.96400 46.71900 31.53400
H  8.44900 45.93400 30.95900
H  7.18100 47.60600 32.48000
H  8.73900 48.03800 33.13500
H  14.76500 48.75100 25.51300
H  14.73500 47.21900 26.46200
H  14.02500 48.73200 27.04400
H  15.42600 48.18800 23.25900
H  15.72500 46.71700 22.37300
H  15.30800 46.67300 24.13800
H  8.92300 46.60100 20.46800
H  6.22900 47.62500 21.18400
H  7.60000 49.18800 20.72100
H  8.70800 48.72000 19.44200
H  9.31200 49.38400 20.87100
H  6.63600 44.62300 21.39400
H  7.19700 45.46700 19.88200
H  4.60300 46.29500 20.66000
H  4.73200 44.47700 20.53300
H  5.05700 45.48700 19.14600
H  3.03500 45.46400 24.24900
H  2.54600 46.88900 25.32600
H  2.52700 45.13900 25.82500
H  5.53500 47.52900 29.94700
H  3.77500 45.04500 32.55200
H  5.24900 45.26400 33.54600
H  5.25100 43.96900 32.44800

