158

Mg 44.72800 4.09100 46.51900
C  42.69000 7.06100 46.29900
C  41.60200 2.47400 45.66000
C  46.39700 1.30600 45.97800
C  47.55300 6.11400 46.52900
N  42.41300 4.69200 46.06900
C  41.89400 5.96900 46.04200
C  40.40900 5.96500 45.82400
C  40.03800 4.45800 45.78200
C  41.42100 3.80700 45.84900
C  38.99500 3.97000 46.86900
C  39.96200 6.70900 44.53100
C  40.99700 6.89300 43.36600
H  40.52300 7.21300 41.93100
N  44.11100 2.13900 46.07700
C  42.79300 1.67600 45.76000
C  42.88000 0.23500 45.47600
C  44.28600 -0.17700 45.53800
C  44.98800 1.11600 45.84600
C  41.62300 -0.57300 45.15200
C  44.83000 -1.59400 45.22300
O  44.05900 -2.49200 44.85700
C  46.32700 -1.88400 45.41500
N  46.69300 3.79700 46.47100
C  47.13700 2.49600 46.20300
C  48.68500 2.50300 46.18100
C  49.03700 4.02700 46.34000
C  47.70900 4.70600 46.41200
C  49.31600 1.55600 47.18500
C  49.92100 4.68800 45.15800
C  51.20900 5.44600 45.58300
N  45.16300 6.13300 46.57600
C  46.37200 6.79800 46.55400
C  46.12000 8.24600 46.65700
C  44.72200 8.40200 46.60000
C  44.12400 7.07500 46.49100
C  47.02200 9.44600 46.70600
C  43.66500 9.33900 46.73400
O  43.68700 10.54000 46.93700
C  42.34700 8.58100 46.48900
C  41.51100 8.71600 47.65400
O  41.68900 8.17700 48.75500
O  40.46500 9.56100 47.40600
C  39.55900 9.74800 48.52800
H  40.78900 1.83500 45.30800
H  47.13800 0.51600 45.83800
H  48.42800 6.76300 46.46400
H  40.02800 6.42500 46.73600
H  39.55600 4.22500 44.83300
H  38.55900 4.77900 47.45600
H  39.54200 3.22600 47.44900
H  38.15200 3.53500 46.33200
H  39.78900 7.69300 44.96700
H  39.07000 6.23900 44.11700
H  41.61400 5.99500 43.32500
H  41.71200 7.69100 43.56600
H  40.77700 -0.18700 45.72100
H  41.73100 -1.65200 45.25800
H  41.50800 -0.52000 44.06900
H  46.24200 -2.93500 45.69000
H  46.80600 -1.35500 46.24000
H  46.88600 -1.68900 44.50000
H  48.87000 2.27600 45.13100
H  49.53700 4.24400 47.28500
H  50.27400 2.01500 47.42900
H  49.44100 0.55400 46.77300
H  48.68000 1.50100 48.06800
H  49.31400 5.20100 44.41100
H  50.26300 3.80600 44.61700
H  51.95400 4.81900 45.09500
H  51.58500 5.43200 46.60600
H  51.07800 6.47300 45.24300
H  46.56500 10.25700 46.13800
H  47.94200 9.18800 46.18100
H  47.31400 9.81000 47.69100
H  41.83200 8.90300 45.58500
H  39.71100 10.75700 48.91200
H  39.62400 8.97500 49.29400
H  38.59500 9.56500 48.05300
Mg -12.24200 38.54500 41.94900
C  -10.15100 35.87300 40.74400
C  -10.40600 40.76300 40.18100
C  -14.80400 40.88200 42.40100
C  -14.40900 36.05900 43.33300
N  -10.51500 38.32800 40.42500
C  -9.78200 37.20000 40.28200
C  -8.48500 37.54500 39.51600
C  -8.46200 39.06900 39.47100
C  -9.83400 39.47000 40.12800
C  -7.28100 39.71100 40.17900
C  -8.55200 36.86100 38.12500
C  -7.53400 35.72600 37.82600
H  -6.50100 36.04500 36.69400
N  -12.56900 40.60300 41.46200
C  -11.63400 41.29500 40.76200
C  -12.04100 42.63400 40.58700
C  -13.36000 42.71200 41.16300
C  -13.63300 41.38800 41.74300
C  -11.40000 43.64700 39.62000
C  -14.23500 43.91900 41.17600
O  -13.83600 44.95300 40.61700
C  -15.56600 44.10100 41.88400
N  -14.33000 38.42700 42.56600
C  -15.12700 39.57400 42.73800
C  -16.45800 39.16600 43.30000
C  -16.27100 37.73500 43.79200
C  -14.89400 37.33500 43.17000
C  -17.02300 40.09700 44.44600
C  -17.44600 36.70200 43.48400
C  -17.74200 35.71300 44.62200
N  -12.39400 36.38400 42.01200
C  -13.25600 35.53700 42.72500
C  -12.69100 34.22500 42.81300
C  -11.49800 34.27600 42.05800
C  -11.32900 35.61100 41.58000
C  -13.19400 33.12800 43.63700
C  -10.34700 33.56100 41.55900
O  -10.10100 32.33500 41.68100
C  -9.42600 34.53300 40.73100
C  -8.04500 34.54600 41.33200
O  -7.10100 33.96300 40.84900
O  -8.03500 35.29500 42.44000
C  -6.71600 35.80100 42.87600
H  -9.69200 41.50300 39.81300
H  -15.52000 41.67400 42.63100
H  -15.08400 35.39200 43.87400
H  -7.53900 37.19400 39.92900
H  -8.59900 39.52100 38.48900
H  -7.13400 39.12800 41.08900
H  -7.26800 40.78700 40.34800
H  -6.38600 39.63100 39.56300
H  -8.52500 37.74200 37.48300
H  -9.50100 36.34300 37.98500
H  -7.96900 34.73200 37.71800
H  -6.92800 35.59500 38.72200
H  -12.08900 43.84700 38.79900
H  -10.40000 43.30900 39.34800
H  -11.28300 44.59000 40.15500
H  -15.82800 45.15600 41.80800
H  -15.21700 43.92100 42.90100
H  -16.34900 43.42800 41.53600
H  -17.19500 39.19900 42.49800
H  -15.95200 37.77400 44.83400
H  -17.81400 40.65000 43.94000
H  -16.25700 40.75600 44.85400
H  -17.48900 39.48100 45.21500
H  -17.33700 36.19100 42.52700
H  -18.34400 37.29300 43.30800
H  -17.64400 34.72700 44.16800
H  -18.70800 35.84400 45.11200
H  -17.01500 35.82000 45.42700
H  -12.81800 32.16000 43.30500
H  -14.27400 33.09700 43.48900
H  -13.06800 33.31700 44.70300
H  -9.31900 34.23600 39.68700
H  -6.07100 36.11600 42.05600
H  -6.23700 34.97100 43.39600
H  -6.78400 36.73000 43.44200

