158

Mg 1.15900 8.32700 25.08300
C  1.93500 10.35500 27.96400
C  1.32100 5.65100 27.17200
C  0.84700 6.41800 22.45300
C  1.50900 11.16700 23.10300
N  1.61300 8.11200 27.39900
C  1.75300 9.01300 28.32200
C  1.64900 8.36000 29.73700
C  1.67300 6.83300 29.40500
C  1.55700 6.80300 27.85300
C  2.91600 6.02600 29.96200
C  0.46500 8.79800 30.65200
C  0.77200 9.23000 32.03200
H  1.74600 8.48400 32.94400
N  1.07000 6.29100 24.79500
C  1.09400 5.36200 25.79300
C  0.92500 3.95400 25.28500
C  0.77500 4.19600 23.83900
C  0.91400 5.67300 23.61400
C  0.90400 2.70800 26.12800
C  0.54300 3.23300 22.80600
O  0.46300 3.58200 21.62400
C  0.37100 1.79400 23.14200
N  1.50400 8.65000 22.91500
C  1.04300 7.72000 22.10000
C  0.84400 8.22700 20.69200
C  1.13100 9.76600 20.86000
C  1.33600 9.89900 22.38300
C  1.75400 7.56800 19.51000
C  0.02800 10.67000 20.27500
C  -1.19000 11.12500 21.17500
N  1.53100 10.34500 25.34600
C  1.69900 11.36100 24.41100
C  2.04800 12.60600 25.14800
C  2.04300 12.24300 26.50100
C  1.80600 10.86300 26.54500
C  2.20800 14.03300 24.47700
C  2.20700 12.74900 27.83100
O  2.37000 13.93200 28.16900
C  2.10200 11.61100 28.89900
C  3.28100 11.66300 29.82400
O  4.37400 11.30900 29.35100
O  2.98000 11.97400 31.14900
C  4.06800 12.03000 32.09000
H  1.32100 4.75700 27.79800
H  0.62100 5.90300 21.51600
H  1.50700 11.99300 22.38900
H  2.60200 8.55800 30.22700
H  0.80100 6.30000 29.78300
H  2.56900 5.41000 30.79100
H  3.72400 6.61500 30.39500
H  3.29100 5.29400 29.24600
H  -0.25600 7.98100 30.67000
H  0.05100 9.67300 30.15100
H  -0.18300 9.29800 32.55300
H  1.03100 10.28500 31.94100
H  0.53400 1.77300 25.70800
H  0.27900 2.97300 26.98000
H  1.90200 2.54800 26.53500
H  1.20600 1.38300 23.70900
H  0.21300 1.04700 22.36500
H  -0.58500 1.71600 23.66000
H  -0.18000 8.05000 20.36100
H  2.08100 10.14700 20.48600
H  2.48600 6.87500 19.92600
H  2.27700 8.32100 18.92000
H  1.13500 7.06000 18.77100
H  -0.42000 10.13300 19.43900
H  0.43700 11.63300 19.96900
H  -1.04900 12.14500 21.53000
H  -1.17700 10.34400 21.93500
H  -2.16600 11.05700 20.69500
H  1.27700 14.59800 24.52300
H  2.32600 13.96100 23.39600
H  2.92200 14.71900 24.93300
H  1.18600 11.67000 29.48800
H  4.36300 13.06100 32.28500
H  4.84600 11.31700 31.81400
H  3.57600 11.71000 33.00800
Mg 46.96800 44.75700 41.72600
C  43.63500 43.83100 42.49400
C  47.66200 41.35300 41.53800
C  49.85000 45.48300 40.28500
C  45.92300 48.18700 41.51600
N  45.79600 42.85200 42.09000
C  44.45900 42.78300 42.27700
C  43.93700 41.37400 42.24200
C  45.28500 40.50800 42.24200
C  46.35200 41.62900 41.94700
C  45.52100 39.78600 43.58700
C  43.03800 40.88800 41.04900
C  43.00800 41.71100 39.71700
H  42.89200 40.91700 38.43200
N  48.55600 43.54500 40.95800
C  48.67400 42.22400 41.04000
C  50.03600 41.85900 40.71500
C  50.61100 43.03900 40.19200
C  49.62200 44.07300 40.40900
C  50.62800 40.54700 40.75000
C  51.96400 43.14300 39.50400
O  52.71900 42.17000 39.29000
C  52.41500 44.38200 38.81400
N  47.71700 46.50900 40.93500
C  49.00100 46.58700 40.55300
C  49.56800 47.97800 40.52800
C  48.22900 48.87800 40.62200
C  47.23300 47.83300 41.12900
C  50.64100 48.20400 41.63800
C  47.85800 49.57000 39.34500
C  48.43000 50.96900 38.98000
N  45.17600 45.88200 42.11600
C  44.92000 47.21800 41.93600
C  43.47700 47.43200 42.35500
C  42.92900 46.13200 42.50700
C  43.97400 45.22600 42.46300
C  42.79400 48.73800 42.43800
C  41.66200 45.39000 42.65900
O  40.47300 45.83400 42.72200
C  42.09100 43.81900 42.81300
C  41.75400 43.35600 44.18600
O  42.13400 43.79800 45.23800
O  40.91100 42.24300 44.02300
C  40.48400 41.72100 45.29300
H  47.95200 40.30000 41.54100
H  50.83100 45.86900 40.00300
H  45.65000 49.24300 41.44800
H  43.48400 41.20900 43.22000
H  45.43900 39.79700 41.43000
H  46.37300 39.12300 43.43300
H  44.63600 39.22800 43.89200
H  45.90800 40.41500 44.38900
H  42.03300 40.71700 41.43300
H  43.28700 39.93300 40.58700
H  43.84100 42.40600 39.61300
H  42.09600 42.30900 39.74000
H  50.57300 40.03700 39.78900
H  50.16100 39.85900 41.45500
H  51.64700 40.64000 41.12800
H  51.67500 44.90900 38.21200
H  53.17300 44.19800 38.05300
H  52.73700 45.01500 39.64200
H  49.95600 48.13100 39.52200
H  48.24500 49.63500 41.40700
H  50.89200 47.23800 42.07700
H  50.24100 48.85800 42.41200
H  51.57800 48.67000 41.33400
H  46.77200 49.66200 39.34200
H  48.06000 48.92100 38.49300
H  49.02800 51.29600 39.83100
H  47.54200 51.59600 39.06000
H  49.04300 50.90000 38.08200
H  41.99500 48.81900 41.70100
H  43.46300 49.55200 42.15700
H  42.41800 48.89400 43.44900
H  41.46400 43.26300 42.11600
H  40.13800 42.50500 45.96600
H  41.29800 41.09700 45.66200
H  39.61700 41.06400 45.23500

