158

Mg 17.27000 -1.99600 28.28900
C  16.21900 0.19200 30.87500
C  19.16800 -3.73000 30.78500
C  18.69800 -3.72900 25.85100
C  15.36100 -0.16000 26.06400
N  17.73100 -1.63500 30.57900
C  16.99800 -0.80400 31.40100
C  17.17100 -1.15300 32.82700
C  18.34000 -2.31300 32.84100
C  18.42100 -2.67600 31.34600
C  19.67100 -1.85300 33.52300
C  15.93300 -1.68000 33.54500
C  15.74300 -1.04600 34.91400
H  16.88200 -0.44600 35.76300
N  18.66100 -3.51800 28.30300
C  19.25100 -4.17000 29.35900
C  20.08800 -5.25800 28.91100
C  20.15700 -5.16400 27.47600
C  19.14400 -4.12400 27.13000
C  20.85800 -6.12700 29.87100
C  21.10700 -5.92600 26.49800
O  21.04800 -5.72800 25.28100
C  22.07000 -7.00800 27.08300
N  17.08800 -1.90600 26.30600
C  17.74900 -2.75000 25.47700
C  17.09100 -2.74100 23.98400
C  15.98300 -1.68000 24.13700
C  16.10400 -1.27200 25.61900
C  18.16500 -2.52300 22.85500
C  14.51000 -2.13600 23.72900
C  14.38200 -2.19000 22.17800
N  16.07700 -0.26400 28.36000
C  15.30300 0.30800 27.39500
C  14.62100 1.40900 27.96400
C  14.94500 1.39200 29.29900
C  15.79200 0.33100 29.53100
C  13.64400 2.37700 27.34500
C  14.81000 2.17000 30.49100
O  14.22300 3.24500 30.77100
C  15.51900 1.36300 31.63300
C  16.42400 2.26600 32.39000
O  17.58600 2.59600 32.09400
O  15.66300 2.61200 33.58600
C  16.31700 3.52200 34.54400
H  19.62700 -4.36500 31.54500
H  19.10100 -4.28400 25.00100
H  14.75600 0.31100 25.28600
H  17.54600 -0.25200 33.31400
H  18.08800 -3.27900 33.27900
H  19.55200 -0.87500 33.98800
H  20.47000 -1.80800 32.78400
H  20.00400 -2.50700 34.32900
H  15.87000 -2.76200 33.65900
H  15.05400 -1.44300 32.94500
H  15.23100 -1.75700 35.56200
H  15.04200 -0.22500 34.76200
H  20.94200 -7.17100 29.56800
H  20.25800 -6.20000 30.77800
H  21.81100 -5.61700 30.01000
H  22.51500 -6.60000 27.99100
H  22.80500 -7.02300 26.27900
H  21.62000 -7.97400 27.31500
H  16.66500 -3.73900 23.87400
H  16.21500 -0.82800 23.49800
H  19.11800 -2.20700 23.28000
H  17.84400 -1.83600 22.07200
H  18.22700 -3.50800 22.39200
H  13.87600 -1.31800 24.07200
H  14.28900 -3.08500 24.21900
H  13.68600 -3.01200 22.01300
H  15.31600 -2.44800 21.67900
H  13.96300 -1.24800 21.82300
H  13.14000 1.95000 26.47700
H  14.18400 3.24100 26.95800
H  13.05700 2.75200 28.18300
H  14.60200 0.98800 32.08800
H  15.76800 3.44900 35.48300
H  16.45600 4.54800 34.20300
H  17.30700 3.10800 34.73600
Mg 47.77100 15.16300 28.36800
C  45.86500 15.26400 31.34200
C  49.93600 17.35300 29.82100
C  49.32600 15.30800 25.47900
C  45.16500 13.19700 26.87500
N  47.89300 16.19300 30.42100
C  47.07000 16.06300 31.48200
C  47.68100 16.73500 32.70300
C  48.89500 17.51000 32.11600
C  48.87400 17.06500 30.67100
C  48.82500 19.01500 32.34600
C  47.88700 15.83900 33.86100
C  47.14900 16.08000 35.23500
H  47.02500 17.49000 35.76500
N  49.35000 16.16600 27.72300
C  50.12200 17.06300 28.43800
C  51.29000 17.43500 27.65100
C  51.18400 16.79600 26.39700
C  49.92000 16.01900 26.50500
C  52.34100 18.36300 28.14500
C  51.99800 16.99600 25.16100
O  51.81900 16.36500 24.12500
C  53.22600 17.86400 25.25000
N  47.32400 14.31700 26.46400
C  48.12600 14.50700 25.41500
C  47.59700 13.95700 24.10500
C  46.32300 13.26600 24.57000
C  46.27500 13.58300 26.06300
C  47.36200 15.12200 22.97800
C  46.18300 11.67400 24.28600
C  46.87600 10.66900 25.23100
N  45.98000 14.37800 28.95200
C  45.00700 13.60800 28.22800
C  43.85600 13.31000 29.05300
C  44.22100 13.96400 30.26700
C  45.46600 14.56600 30.14000
C  42.66300 12.42400 28.69300
C  43.70800 14.16300 31.62200
O  42.65800 13.65700 32.08300
C  44.82400 14.96300 32.44400
C  44.02100 16.13900 32.94700
O  43.82800 17.17400 32.33900
O  43.55100 15.89700 34.24000
C  42.75800 16.98000 34.85100
H  50.64500 18.07400 30.23200
H  49.92000 15.27600 24.56400
H  44.29500 12.64200 26.51800
H  46.86600 17.39300 33.00700
H  49.75000 17.01700 32.57900
H  48.10900 19.24800 33.13400
H  48.56800 19.61100 31.47100
H  49.77700 19.43400 32.67400
H  48.93100 15.82800 34.17300
H  47.51500 14.89300 33.46500
H  47.72800 15.37000 35.82600
H  46.09700 15.81300 35.13200
H  52.07200 19.40400 27.96200
H  53.36700 18.16100 27.83700
H  52.45500 18.36300 29.22900
H  53.17100 18.85000 25.71000
H  53.39300 18.06000 24.19100
H  54.05800 17.34900 25.72900
H  48.39000 13.26800 23.81500
H  45.45400 13.68000 24.05800
H  46.49600 14.85900 22.37000
H  48.21200 15.04500 22.30000
H  47.36300 16.10400 23.45100
H  46.49400 11.54000 23.25000
H  45.14600 11.36800 24.42800
H  47.39200 11.11800 26.07900
H  47.63900 10.10800 24.69100
H  46.19200 9.90300 25.59600
H  42.99900 11.56300 28.11600
H  42.05500 13.07500 28.06400
H  42.06100 12.03500 29.51500
H  45.11800 14.51200 33.39200
H  41.74300 16.67500 35.10700
H  42.60100 17.90000 34.28800
H  43.25300 17.31000 35.76400

