158

Mg 48.59200 34.67500 27.05600
C  46.59200 33.68000 29.82800
C  49.03100 37.55400 28.56100
C  49.62900 35.99700 24.11800
C  47.11800 32.09200 25.31500
N  48.02700 35.38700 29.00400
C  47.28700 34.84800 30.01800
C  47.30000 35.74200 31.33100
C  47.74600 37.12600 30.68600
C  48.28700 36.66000 29.30900
C  46.65100 38.21500 30.56000
C  48.26600 35.32800 32.40500
C  47.68600 35.37600 33.89300
H  48.47100 35.97700 34.94600
N  49.52000 36.45000 26.53900
C  49.61900 37.57600 27.25900
C  50.42800 38.58000 26.61400
C  50.65000 38.02600 25.29600
C  49.93600 36.80000 25.30100
C  50.88600 39.90900 27.23900
C  51.53600 38.53800 24.18200
O  51.71800 37.94400 23.14400
C  52.27100 39.85800 24.36000
N  48.31900 34.25100 25.01200
C  48.89200 34.84100 23.94700
C  48.76300 34.09400 22.60400
C  47.85400 32.85800 23.02400
C  47.76900 33.07100 24.54400
C  48.35500 34.95000 21.42200
C  48.44400 31.48500 22.43800
C  49.86400 31.14800 22.97800
N  47.22800 33.12500 27.43600
C  46.73100 32.10600 26.62200
C  45.80600 31.23600 27.37900
C  45.72000 31.83000 28.69100
C  46.62000 32.95700 28.66500
C  45.06800 30.09200 26.88200
C  45.08200 31.77000 29.99900
O  44.28900 30.98200 30.45500
C  45.59700 33.08200 30.77300
C  45.99600 32.75000 32.17500
O  46.96700 31.99900 32.39300
O  45.06600 33.21300 33.04800
C  45.08500 32.48500 34.28500
H  49.33400 38.44000 29.12200
H  49.90500 36.31500 23.11100
H  46.64800 31.31700 24.70700
H  46.30200 35.89000 31.74300
H  48.49600 37.59800 31.32000
H  45.75100 37.70600 30.90400
H  46.53800 38.74300 29.61300
H  46.97400 39.00300 31.24000
H  49.23500 35.82100 32.32900
H  48.50000 34.28400 32.20000
H  47.63800 34.34100 34.23300
H  46.70900 35.85500 33.83700
H  50.24500 40.20800 28.06800
H  50.81100 40.74000 26.53700
H  51.88700 39.87400 27.66800
H  51.51100 40.63900 24.36000
H  53.02700 39.99000 23.58600
H  52.78600 39.97400 25.31300
H  49.80100 33.84300 22.38400
H  46.86200 33.04100 22.61000
H  49.19600 35.13000 20.75200
H  47.89600 35.91400 21.63700
H  47.64200 34.39100 20.81600
H  48.69200 31.57200 21.38000
H  47.73400 30.72500 22.76400
H  49.70300 30.18000 23.45200
H  50.28700 31.90200 23.64200
H  50.52700 31.04600 22.11900
H  45.72600 29.22900 26.78300
H  44.59200 30.23800 25.91200
H  44.22100 29.92900 27.54900
H  44.71300 33.70800 30.89100
H  45.15000 31.43100 34.01300
H  44.21400 32.79700 34.86100
H  45.94200 32.85800 34.84600
Mg 6.89000 53.22600 41.58000
C  6.56200 49.78300 41.46300
C  10.00100 52.85500 40.22700
C  7.06900 56.58300 41.48100
C  3.52700 53.49800 42.62800
N  8.05600 51.53500 40.72900
C  7.71700 50.20100 40.78900
C  8.80800 49.26000 40.33300
C  10.03200 50.31200 40.22000
C  9.29600 51.64600 40.33000
C  11.16500 50.29800 41.25400
C  8.62600 48.64400 38.91600
C  7.87600 49.45800 37.84500
H  8.71700 49.78500 36.61500
N  8.42200 54.60400 40.98200
C  9.58800 54.21300 40.39200
C  10.33700 55.46300 40.07100
C  9.58000 56.57800 40.48100
C  8.30000 55.96600 40.99300
C  11.84100 55.43700 39.53400
C  9.93000 58.02500 40.31500
O  11.03900 58.46900 39.94700
C  8.94900 59.01900 40.60700
N  5.44800 54.88600 41.77300
C  5.78600 56.12100 41.84900
C  4.70300 57.14400 42.34000
C  3.60900 56.05700 42.65800
C  4.18100 54.69200 42.34100
C  5.04800 58.04400 43.60200
C  2.22600 56.29800 41.97400
C  1.85700 55.72100 40.65600
N  5.24200 51.99800 41.88100
C  4.02300 52.18700 42.48500
C  3.42800 50.95000 42.83500
C  4.42600 49.96700 42.53900
C  5.48400 50.64000 41.89400
C  2.04300 50.66400 43.39200
C  4.69200 48.47100 42.48000
O  4.03700 47.48900 42.83700
C  6.08900 48.35600 41.70300
C  5.71100 47.57900 40.42800
O  5.02200 48.01400 39.52100
O  6.07000 46.22100 40.48500
C  5.76800 45.37800 39.34700
H  11.05700 52.82000 39.95200
H  7.12900 57.67300 41.45400
H  2.54000 53.55600 43.09200
H  8.92300 48.52500 41.13000
H  10.50900 50.29000 39.24000
H  10.95700 50.91700 42.12700
H  12.09200 50.69500 40.83900
H  11.33800 49.27800 41.59800
H  8.06100 47.72000 39.03500
H  9.53500 48.18500 38.52700
H  7.59900 50.42500 38.26600
H  7.02200 48.80700 37.65900
H  11.94100 56.17300 38.73600
H  12.06100 54.47800 39.06500
H  12.57300 55.58500 40.32800
H  9.33600 60.02300 40.43400
H  8.78800 58.89500 41.67800
H  8.06200 59.01900 39.97400
H  4.37500 57.70000 41.46200
H  3.46200 56.19400 43.72900
H  4.51900 57.81100 44.52600
H  4.87000 59.10200 43.41300
H  6.13600 58.05100 43.67600
H  2.01600 57.35500 41.81300
H  1.45400 55.97000 42.67000
H  2.66000 55.11500 40.23700
H  1.67100 56.55600 39.98100
H  0.87200 55.25800 40.70100
H  2.20500 49.95100 44.20000
H  1.36200 50.40700 42.58100
H  1.68100 51.59200 43.83500
H  6.80700 47.73600 42.24100
H  6.54000 45.51900 38.59000
H  4.80500 45.59300 38.88400
H  5.72700 44.36900 39.75800

