158

Mg 35.02100 2.24800 30.19800
C  32.64400 3.30200 32.45500
C  37.44800 2.60500 32.55800
C  37.17400 1.63900 27.72600
C  32.41300 2.24900 27.81700
N  35.02500 2.87700 32.22700
C  33.94200 3.10200 32.99900
C  34.26400 3.36700 34.40900
C  35.83600 3.31900 34.47600
C  36.16000 3.00300 32.93000
C  36.49100 4.62100 35.03900
C  33.54200 2.47300 35.50800
C  33.02200 3.22100 36.75500
H  33.83800 4.33000 37.43100
N  37.00200 2.04500 30.13500
C  37.86400 2.12900 31.26600
C  39.22900 1.87800 30.85400
C  39.19900 1.59700 29.47400
C  37.75400 1.76800 29.01800
C  40.37600 1.76900 31.81800
C  40.37100 1.32600 28.48800
O  40.22800 1.26900 27.29400
C  41.71500 1.42200 28.98800
N  34.85300 2.15500 27.99200
C  35.89200 1.73800 27.25900
C  35.41500 1.36500 25.72400
C  33.88800 1.43700 25.91700
C  33.73200 1.96500 27.34600
C  35.83700 2.21800 24.45700
C  33.16700 0.07200 25.67400
C  33.07200 -0.23200 24.15500
N  32.92300 2.57700 30.08300
C  32.00700 2.58200 28.99500
C  30.74200 2.99200 29.49900
C  30.95800 3.34200 30.84500
C  32.26900 3.00200 31.17600
C  29.57300 3.17900 28.69500
C  30.36700 4.00100 31.95800
O  29.25900 4.52300 32.11800
C  31.45000 3.80900 33.15900
C  31.52100 5.09800 33.92900
O  32.28500 6.03900 33.64100
O  30.62200 5.13900 34.97400
C  30.57400 6.36000 35.81500
H  38.15500 2.67200 33.38800
H  37.82300 1.21300 26.95800
H  31.57700 2.14900 27.12200
H  34.06800 4.42300 34.59400
H  36.10800 2.46100 35.09000
H  36.09700 5.57200 34.68000
H  37.53500 4.64600 34.72800
H  36.48700 4.58600 36.12800
H  34.23600 1.74600 35.93100
H  32.70700 2.02500 34.96900
H  32.69200 2.42700 37.42500
H  32.14100 3.66400 36.29000
H  39.91300 1.82200 32.80400
H  41.12800 2.52800 31.60000
H  40.79100 0.78500 31.59800
H  41.85100 2.46300 29.28200
H  42.54300 1.17200 28.32500
H  41.80400 0.76500 29.85300
H  35.70700 0.32400 25.58500
H  33.35000 2.17100 25.31700
H  36.61400 1.67000 23.92300
H  36.17100 3.08400 25.02800
H  34.99200 2.59300 23.88000
H  32.13500 0.19000 26.00600
H  33.68600 -0.72600 26.20500
H  33.42000 0.60000 23.54300
H  32.12600 -0.67800 23.84600
H  33.82500 -1.00200 23.98900
H  29.04600 4.05200 29.07900
H  28.93400 2.31900 28.89400
H  29.79300 3.29600 27.63400
H  31.08800 3.00600 33.80200
H  29.60500 6.79500 35.56800
H  31.31300 7.12900 35.59000
H  30.72500 6.04800 36.84900
Mg 49.35200 44.90700 42.67600
C  45.91200 45.08200 42.35300
C  49.08600 41.48700 42.17300
C  52.70500 44.72000 42.14000
C  49.43500 48.28500 42.93400
N  47.60000 43.42200 42.06000
C  46.30200 43.77300 42.19500
C  45.47100 42.47000 42.13700
C  46.57300 41.33500 42.42100
C  47.82800 42.10900 42.25300
C  46.41900 40.53900 43.77000
C  44.62700 42.30800 40.78600
C  44.61800 43.32700 39.64800
H  44.65100 42.66900 38.26700
N  50.77200 43.30800 42.28700
C  50.45600 42.04400 42.19400
C  51.68500 41.21200 42.28600
C  52.76700 42.07300 42.25600
C  52.13800 43.41700 42.23900
C  51.80200 39.69100 42.25000
C  54.27800 41.75300 42.14900
O  54.62500 40.59300 42.08500
C  55.37500 42.79300 42.26700
N  50.78300 46.31200 42.33300
C  52.10300 45.99000 42.16200
C  52.88500 47.29100 41.89500
C  51.93400 48.45000 42.33000
C  50.63300 47.64300 42.53800
C  54.23600 47.32700 42.60400
C  51.84000 49.63900 41.34200
C  52.17300 51.12600 41.83100
N  48.01600 46.44600 42.70400
C  48.16800 47.75500 42.90600
C  46.87800 48.39900 42.94500
C  45.97400 47.37500 42.69300
C  46.71100 46.21400 42.56800
C  46.49000 49.85700 43.12300
C  44.55200 47.09800 42.46300
O  43.57900 47.80300 42.38100
C  44.55600 45.65500 42.11800
C  43.43900 44.98600 42.77000
O  42.58700 44.36100 42.15000
O  43.33800 45.30900 44.13900
C  42.07800 45.00200 44.87100
H  49.05800 40.40300 42.29900
H  53.78700 44.66100 42.01200
H  49.47800 49.33900 43.21600
H  44.79800 42.40400 42.99200
H  46.66400 40.60600 41.61500
H  47.32100 40.32200 44.34300
H  45.79400 39.67000 43.56300
H  45.82900 41.09200 44.50100
H  43.60600 42.22800 41.16000
H  44.73200 41.31800 40.34200
H  45.31300 44.16600 39.68700
H  43.61900 43.76200 39.61100
H  52.29100 39.41400 41.31600
H  50.75800 39.39900 42.36500
H  52.45400 39.34700 43.05300
H  56.25100 42.22000 42.57100
H  55.03800 43.50800 43.01700
H  55.56700 43.17400 41.26400
H  53.02800 47.43400 40.82400
H  52.23900 48.89200 43.27800
H  54.15500 46.68500 43.48000
H  54.41600 48.36300 42.89300
H  55.02300 47.05000 41.90200
H  50.86600 49.59400 40.85300
H  52.43900 49.44800 40.45200
H  52.27000 51.21500 42.91300
H  51.24000 51.63200 41.58200
H  53.00100 51.56300 41.27300
H  45.97800 50.05500 42.18200
H  47.30900 50.57300 43.19500
H  45.92100 49.84800 44.05300
H  44.38400 45.59800 41.04300
H  41.30700 44.52700 44.26400
H  41.58200 45.80600 45.41600
H  42.43600 44.29900 45.62300

