158

Mg 0.83900 8.25700 26.86000
C  1.54200 10.44500 29.53400
C  0.81800 5.65400 28.94500
C  0.40900 6.19500 24.28900
C  1.13500 11.08200 24.67400
N  1.36400 8.08500 28.94200
C  1.53900 9.08100 29.84500
C  1.42000 8.49900 31.28400
C  1.45200 6.97900 31.08800
C  1.18500 6.87300 29.56300
C  2.85800 6.24800 31.38100
C  0.16700 9.02000 32.13900
C  0.36700 9.28200 33.69600
H  1.58700 8.56400 34.28200
N  0.44800 6.24900 26.69000
C  0.47000 5.33900 27.61700
C  0.27300 4.00900 27.12300
C  0.05700 4.11200 25.73300
C  0.30300 5.57700 25.51800
C  0.21600 2.75200 27.98600
C  -0.31000 3.04600 24.68200
O  -0.28000 3.20600 23.48200
C  -0.76400 1.64800 25.10800
N  1.05300 8.61900 24.78500
C  0.76600 7.58000 23.92600
C  0.72100 8.04500 22.45800
C  0.51200 9.61400 22.62800
C  0.98900 9.81200 24.11900
C  1.98400 7.55600 21.73600
C  -1.01200 9.99200 22.56500
C  -1.40600 10.68200 21.23000
N  1.32100 10.49600 26.99600
C  1.45500 11.45800 26.03300
C  1.56400 12.73300 26.75700
C  1.73400 12.47000 28.13600
C  1.52100 11.03200 28.24800
C  1.59800 14.00700 26.03400
C  1.88900 12.97500 29.44400
O  2.03500 14.09600 29.89600
C  1.76800 11.72200 30.34500
C  2.84100 11.63100 31.34000
O  3.90300 11.08300 31.11900
O  2.51100 12.24900 32.53700
C  3.48400 12.12400 33.61000
H  0.88400 4.88400 29.71700
H  0.21100 5.59600 23.39800
H  0.91000 11.84300 23.92400
H  2.28600 8.90900 31.80500
H  0.70500 6.42500 31.65700
H  3.36600 6.09800 30.42800
H  2.77700 5.37200 32.02400
H  3.46000 6.97500 31.92700
H  -0.67000 8.33300 32.01600
H  0.03700 9.99700 31.67300
H  -0.53700 9.04300 34.25700
H  0.51100 10.35800 33.78700
H  0.61300 1.97900 27.32900
H  -0.81500 2.52100 28.25200
H  0.83700 2.83700 28.87800
H  0.06800 0.99300 25.36800
H  -1.39300 1.28300 24.29600
H  -1.39500 1.63700 25.99700
H  -0.12300 7.50000 22.03600
H  1.07000 10.23100 21.92400
H  2.62400 7.03500 22.44800
H  2.62200 8.37100 21.39400
H  1.79000 6.84100 20.93700
H  -1.38100 10.59300 23.39600
H  -1.62500 9.10400 22.71700
H  -2.07400 10.03800 20.65900
H  -0.53700 10.93800 20.62500
H  -2.04000 11.55600 21.37600
H  0.56300 14.25900 25.80300
H  2.10600 13.82900 25.08700
H  2.18900 14.84500 26.40600
H  0.81200 11.79900 30.86400
H  4.41000 11.59800 33.38000
H  3.10000 11.62200 34.49800
H  3.63600 13.13100 34.00000
Mg -2.85000 34.77100 27.25400
C  -4.72000 33.08700 29.43600
C  -1.67300 36.82100 29.66100
C  -1.23100 36.62200 24.84300
C  -4.42700 32.97200 24.66800
N  -3.31700 34.99000 29.31600
C  -3.88100 34.05900 30.11600
C  -3.69500 34.36100 31.58800
C  -3.00400 35.77500 31.58700
C  -2.67400 35.97400 30.07300
C  -3.95700 36.95000 32.24300
C  -2.96000 33.23300 32.39800
C  -3.54600 32.72000 33.70600
H  -3.67400 33.73900 34.85700
N  -1.50200 36.41400 27.29400
C  -1.20800 37.12900 28.38500
C  -0.20400 38.10900 27.99300
C  0.02900 37.97500 26.59800
C  -0.96900 37.00700 26.16700
C  0.42600 38.96000 28.97900
C  0.92400 38.77800 25.67200
O  0.92600 38.54900 24.44800
C  1.86500 39.86500 26.23900
N  -3.04000 34.93700 25.02400
C  -2.12800 35.66200 24.32400
C  -1.92000 35.24000 22.87000
C  -2.97800 34.10000 22.72000
C  -3.50400 33.95300 24.20900
C  -1.97800 36.46900 21.79700
C  -2.45800 32.71300 22.25200
C  -3.17100 32.09600 21.00700
N  -4.37000 33.38900 27.02900
C  -4.80700 32.68800 25.95600
C  -5.69000 31.56700 26.36500
C  -5.64700 31.67700 27.73200
C  -4.89600 32.79300 28.05600
C  -6.38400 30.58700 25.57500
C  -6.07700 31.07800 28.91500
O  -6.70500 30.03600 29.07000
C  -5.56000 31.96800 30.08800
C  -6.75200 32.59400 30.74300
O  -7.40800 33.56100 30.33200
O  -6.96300 32.02700 31.95700
C  -7.97300 32.67600 32.86900
H  -1.27400 37.47300 30.44100
H  -0.67500 37.12700 24.05000
H  -4.81000 32.15900 24.04700
H  -4.65200 34.37900 32.11100
H  -2.11500 35.68100 32.21000
H  -3.74000 37.93200 31.82100
H  -3.66900 36.93000 33.29400
H  -5.03800 36.85700 32.14000
H  -1.99000 33.64100 32.67900
H  -2.72400 32.39200 31.74600
H  -2.97000 31.82100 33.92100
H  -4.56600 32.37100 33.54200
H  1.47700 38.83100 28.72000
H  0.27200 38.59800 29.99500
H  0.05000 39.98300 28.97800
H  1.32500 40.57500 26.86600
H  2.50900 40.19900 25.42500
H  2.62400 39.41400 26.87700
H  -0.93000 34.78300 22.88600
H  -3.79400 34.40500 22.06400
H  -2.68700 36.19000 21.01700
H  -0.97900 36.54800 21.36700
H  -2.38700 37.32300 22.33700
H  -2.65000 32.02200 23.07300
H  -1.38200 32.67700 22.08300
H  -2.35100 32.00100 20.29500
H  -3.94300 32.67200 20.49700
H  -3.48400 31.05200 21.01800
H  -6.24600 30.83300 24.52200
H  -7.38400 30.54900 26.00700
H  -5.85500 29.63800 25.48000
H  -4.97500 31.40100 30.81100
H  -8.50100 31.93800 33.47300
H  -8.73800 33.32000 32.43500
H  -7.53200 33.29900 33.64700

