158

Mg 8.83200 3.86800 27.93000
C  10.20400 2.51100 30.80100
C  6.81800 5.86400 29.88000
C  7.17900 4.70900 25.12400
C  10.36200 1.15400 26.04100
N  8.41400 3.95400 30.12200
C  9.34700 3.53600 31.10100
C  9.17400 4.23300 32.41400
C  8.04200 5.28500 32.07400
C  7.70100 5.03200 30.57700
C  6.86200 5.22100 33.05600
C  10.42500 4.79900 33.10000
C  10.76800 4.33000 34.49000
H  11.37600 5.33800 35.54900
N  7.26700 5.16100 27.53600
C  6.59400 6.00000 28.45600
C  5.80600 7.01700 27.69800
C  5.94400 6.65500 26.30100
C  6.83600 5.42900 26.27000
C  5.17600 8.27800 28.32500
C  5.45100 7.29000 25.03600
O  5.65000 6.94700 23.82600
C  4.60800 8.55300 25.03500
N  8.86500 3.08200 25.89300
C  8.02600 3.59700 24.91200
C  8.13900 2.93800 23.51600
C  9.11300 1.73700 23.80300
C  9.51400 2.01600 25.30900
C  6.75600 2.47700 23.13300
C  10.23000 1.56900 22.82800
C  10.04200 0.38600 21.86600
N  10.16100 2.35100 28.28800
C  10.59300 1.30200 27.46100
C  11.36200 0.40900 28.24300
C  11.26900 0.86900 29.52100
C  10.51600 2.02500 29.50900
C  12.10300 -0.78300 27.82900
C  11.82300 0.67900 30.83900
O  12.52800 -0.21400 31.31400
C  11.15200 1.73600 31.82400
C  10.39600 0.96900 32.93500
O  9.31100 0.41400 32.85500
O  11.12400 1.12100 34.07900
C  10.49700 0.87400 35.35400
H  6.34000 6.58200 30.55100
H  6.54000 4.92500 24.26500
H  10.70200 0.33600 25.40200
H  8.75800 3.47100 33.07300
H  8.58100 6.23100 32.12900
H  7.20600 5.56500 34.03200
H  6.34000 4.26700 33.13000
H  6.11100 5.95900 32.77200
H  10.28700 5.87100 33.24200
H  11.28400 4.67300 32.44100
H  11.56600 3.60000 34.34800
H  9.95600 3.75600 34.93700
H  5.51500 8.36100 29.35800
H  4.10600 8.08500 28.26000
H  5.45900 9.20500 27.82500
H  3.96300 8.64800 24.16200
H  5.25400 9.42300 25.15300
H  3.83000 8.46400 25.79400
H  8.44600 3.62800 22.73000
H  8.54200 0.81000 23.73700
H  5.93800 2.83200 23.76000
H  6.71500 1.39500 23.25500
H  6.59900 2.75800 22.09200
H  11.16000 1.46700 23.38700
H  10.21800 2.46300 22.20400
H  9.80200 0.75100 20.86800
H  9.13900 -0.15500 22.15100
H  10.87600 -0.31000 21.95900
H  11.94500 -0.68100 26.75500
H  11.57200 -1.65000 28.22300
H  13.15000 -0.78700 28.13000
H  11.89000 2.39300 32.28400
H  10.78700 -0.15700 35.55900
H  9.40900 0.80900 35.35000
H  10.87200 1.51500 36.15200
Mg -4.74300 25.07700 25.67200
C  -3.57900 26.95100 28.40500
C  -5.90400 22.81800 28.12300
C  -5.88500 23.36300 23.21200
C  -3.19500 27.39000 23.59400
N  -4.79800 24.95600 28.02900
C  -4.35200 25.89800 28.85900
C  -4.87600 25.67100 30.32700
C  -5.35700 24.17100 30.24900
C  -5.27000 23.90600 28.74600
C  -4.57900 23.10100 31.08300
C  -5.85500 26.74900 30.71600
C  -5.76700 27.32800 32.18300
H  -5.31700 26.31500 33.22200
N  -5.81900 23.36200 25.61500
C  -6.12600 22.54200 26.73900
C  -6.98900 21.38700 26.15700
C  -7.10100 21.64600 24.77900
C  -6.14300 22.76100 24.45300
C  -7.67400 20.34300 26.98200
C  -7.92900 20.89300 23.68900
O  -7.98100 21.13000 22.50800
C  -8.78100 19.71100 24.11700
N  -4.57000 25.36700 23.73200
C  -5.19900 24.53000 22.85600
C  -4.93400 24.91900 21.37900
C  -4.26900 26.37200 21.53400
C  -3.93700 26.36100 23.07600
C  -4.14400 23.82700 20.58200
C  -5.07600 27.62300 21.20500
C  -5.79900 27.55100 19.83300
N  -3.47900 26.79800 25.86900
C  -2.91600 27.57600 24.96900
C  -2.16300 28.63500 25.64000
C  -2.35500 28.35100 26.99200
C  -3.16900 27.24600 27.07000
C  -1.47600 29.75800 24.93600
C  -2.15400 28.96000 28.26100
O  -1.56000 29.98400 28.54900
C  -2.88900 28.03800 29.29900
C  -1.88800 27.48100 30.25700
O  -1.09700 26.60600 29.93000
O  -2.10500 28.00400 31.50400
C  -1.36900 27.35900 32.52200
H  -6.35500 22.07900 28.78700
H  -6.24500 22.86900 22.30700
H  -2.72500 28.13300 22.94700
H  -4.00600 25.79500 30.97100
H  -6.41100 24.11200 30.52000
H  -5.24000 22.43400 31.63500
H  -3.80700 23.47200 31.75700
H  -4.07900 22.38800 30.42700
H  -6.81600 26.24200 30.62800
H  -5.88700 27.54500 29.97200
H  -6.78900 27.59900 32.45000
H  -5.20300 28.26000 32.20600
H  -7.67700 19.36800 26.49400
H  -8.75400 20.47900 27.03700
H  -7.25400 20.18200 27.97400
H  -8.13800 18.86900 24.37400
H  -9.42500 19.46300 23.27300
H  -9.42300 20.02600 24.94000
H  -5.90200 25.19000 20.95700
H  -3.34100 26.58000 21.00100
H  -3.89700 22.95500 21.18800
H  -3.32100 24.09800 19.92100
H  -4.86100 23.29400 19.95700
H  -4.32500 28.40000 21.34300
H  -5.75400 27.79700 22.04100
H  -5.48500 26.70200 19.22500
H  -5.59800 28.45000 19.25100
H  -6.87200 27.40500 19.95900
H  -1.40200 29.56900 23.86500
H  -0.52900 29.79200 25.47300
H  -2.07800 30.66600 24.95000
H  -3.70200 28.50700 29.85300
H  -0.30600 27.58400 32.43000
H  -1.36600 26.27100 32.44900
H  -1.78600 27.77500 33.43900

