158

Mg 24.80200 -7.95900 47.02700
C  27.16200 -5.60500 45.98300
C  22.59900 -6.60700 44.75200
C  22.66700 -10.46500 47.69200
C  27.31600 -9.52600 48.97000
N  24.97000 -6.40600 45.42900
C  25.99100 -5.55900 45.20700
C  25.61700 -4.50200 44.14000
C  24.10200 -4.64000 44.02200
C  23.81300 -5.98100 44.79300
C  23.20100 -3.45400 44.48300
C  26.44400 -4.72400 42.81000
C  27.16200 -3.51400 42.18900
H  26.44600 -2.59500 41.27800
N  22.82000 -8.38000 46.34500
C  22.10600 -7.69700 45.43100
C  20.84800 -8.36800 45.21300
C  20.85900 -9.57600 45.94500
C  22.14100 -9.51000 46.69000
C  19.81800 -7.91500 44.15100
C  19.80200 -10.55500 45.93600
O  18.68200 -10.23200 45.51000
C  19.88300 -11.95900 46.48100
N  24.95100 -9.69900 48.21800
C  23.92700 -10.53900 48.36500
C  24.37100 -11.84100 49.18400
C  25.89700 -11.52800 49.43800
C  26.09300 -10.15800 48.84600
C  23.52300 -11.94100 50.50900
C  26.84900 -12.60500 48.96700
C  26.67000 -12.92800 47.50100
N  26.73800 -7.53900 47.64900
C  27.64700 -8.29400 48.38100
C  28.88700 -7.56400 48.53200
C  28.66200 -6.49200 47.64400
C  27.40300 -6.51900 47.08500
C  30.14200 -7.89400 49.30600
C  29.34900 -5.37000 47.00700
O  30.52100 -4.94200 47.23500
C  28.38500 -4.71000 46.00700
C  28.16100 -3.31900 46.44500
O  27.76800 -2.98500 47.57700
O  28.30600 -2.45700 45.41100
C  28.06500 -1.05700 45.75700
H  21.90500 -6.16200 44.03600
H  21.97300 -11.29000 47.86400
H  28.11500 -9.97800 49.56100
H  25.83700 -3.47100 44.41800
H  23.71200 -4.70400 43.00600
H  22.61200 -3.03500 43.66600
H  23.71400 -2.57300 44.86900
H  22.59900 -3.78600 45.32900
H  25.69500 -5.01900 42.07500
H  27.15600 -5.53500 42.96700
H  27.97600 -3.91100 41.58400
H  27.60200 -2.92900 42.99700
H  20.12300 -7.24300 43.34900
H  19.01800 -7.41300 44.69600
H  19.48100 -8.74800 43.53400
H  19.68900 -11.82900 47.54600
H  20.85100 -12.30700 46.12100
H  19.13200 -12.65300 46.10500
H  24.37000 -12.79300 48.65400
H  26.12400 -11.52900 50.50400
H  23.96400 -11.49700 51.40100
H  23.47100 -13.02100 50.64700
H  22.54100 -11.47300 50.43800
H  26.55300 -13.51600 49.48700
H  27.88900 -12.38200 49.20500
H  27.65400 -13.16700 47.09700
H  26.14800 -12.08600 47.04700
H  26.07900 -13.81400 47.27100
H  30.41500 -8.94900 49.30100
H  29.95300 -7.69000 50.36000
H  30.93300 -7.20800 49.00400
H  28.79500 -4.64700 44.99900
H  27.01700 -0.81400 45.92800
H  28.23100 -0.38100 44.91800
H  28.49400 -0.71500 46.69900
Mg 36.36000 49.67500 24.19800
C  36.38600 48.35500 27.35700
C  35.23200 52.74000 25.69900
C  36.07500 51.18700 21.08700
C  37.52200 46.78900 22.82800
N  35.85400 50.41800 26.28000
C  35.95000 49.69000 27.36000
C  35.58800 50.50000 28.62000
C  35.07600 51.84900 28.06300
C  35.44200 51.63700 26.55500
C  33.53500 52.11200 28.24100
C  36.80300 50.57700 29.61400
C  36.53400 50.09800 31.06300
H  35.07700 49.89500 31.67600
N  35.76600 51.62500 23.46900
C  35.34100 52.73500 24.32300
C  35.08300 53.85600 23.55200
C  35.10200 53.43600 22.17300
C  35.64300 51.99700 22.16100
C  34.63500 55.16900 24.26600
C  34.68600 54.26600 21.04100
O  34.72600 53.77800 19.91700
C  34.11300 55.59900 21.15500
N  36.82000 49.12600 22.26200
C  36.58900 49.91000 21.12900
C  37.04000 49.16000 19.90600
C  37.60300 47.78300 20.44900
C  37.22200 47.88200 21.93000
C  35.96400 49.09400 18.82100
C  39.12700 47.60600 20.19900
C  40.22900 48.25100 21.12800
N  36.80700 47.88500 24.85900
C  37.34700 46.78900 24.20200
C  37.63200 45.74300 25.11500
C  37.31800 46.30700 26.38100
C  36.78500 47.58600 26.18300
C  38.16400 44.33900 24.77900
C  37.31900 46.12900 27.80100
O  37.76300 45.14000 28.44800
C  36.56900 47.28000 28.47000
C  35.28500 46.86100 29.00500
O  34.22100 47.21000 28.57000
O  35.56000 46.14000 30.13100
C  34.42200 45.79700 31.01100
H  34.91100 53.61300 26.27200
H  36.02600 51.65700 20.10300
H  38.04500 45.99700 22.28800
H  34.79000 49.93600 29.10400
H  35.63700 52.72000 28.40400
H  33.08100 51.55200 29.05900
H  33.02200 51.56200 27.45100
H  33.34000 53.18200 28.30000
H  37.23300 51.57000 29.74500
H  37.61800 49.93900 29.27400
H  37.09300 50.82500 31.65300
H  37.06700 49.14800 31.12000
H  35.08800 55.32400 25.24500
H  33.56700 55.09700 24.47100
H  34.77200 55.98800 23.56000
H  34.90200 56.26700 21.50200
H  33.23800 55.66700 21.80100
H  33.78300 55.99800 20.19600
H  37.83000 49.78700 19.49300
H  37.09700 46.90800 20.04200
H  36.15700 49.59500 17.87200
H  34.94500 49.37000 19.09300
H  35.93200 48.09000 18.39900
H  39.21200 47.95300 19.16900
H  39.30200 46.53800 20.06900
H  40.23900 47.63500 22.02700
H  39.83000 49.24100 21.34900
H  41.21000 48.28700 20.65400
H  39.09500 44.47900 24.22900
H  37.41900 43.73000 24.26700
H  38.50000 43.72700 25.61600
H  37.15700 47.78200 29.23900
H  33.78700 45.02500 30.57600
H  33.80200 46.69300 31.04900
H  34.74600 45.52100 32.01400

