158

Mg 44.25400 3.29500 47.56800
C  42.14200 6.11700 46.97100
C  41.29600 1.24000 47.25300
C  46.10900 0.67000 47.69200
C  47.02300 5.51100 47.00500
N  42.03300 3.65900 47.18200
C  41.41000 4.88500 47.13600
C  39.83700 4.76600 47.19600
C  39.65700 3.21700 47.30200
C  41.08300 2.68000 47.27600
C  38.96900 2.75300 48.65500
C  39.01200 5.46800 46.00700
C  39.71700 5.52300 44.64300
H  39.34100 4.63600 43.46000
N  43.77700 1.18300 47.53500
C  42.53600 0.52500 47.37900
C  42.75900 -0.92600 47.34900
C  44.14400 -1.13300 47.58800
C  44.73900 0.26800 47.62200
C  41.57400 -1.91400 47.25500
C  44.87900 -2.42200 47.70200
O  44.25400 -3.49800 47.69200
C  46.35100 -2.60700 47.71600
N  46.27800 3.05600 47.26500
C  46.81700 1.87300 47.47200
C  48.32200 1.87400 47.47900
C  48.64500 3.38000 47.23100
C  47.19500 4.05200 47.15000
C  48.89100 1.50300 48.84900
C  49.59000 3.81800 46.00100
C  50.52000 2.81500 45.26300
N  44.56600 5.37900 47.18500
C  45.72500 6.03900 46.95000
C  45.43800 7.45600 46.81300
C  44.05300 7.50400 46.78800
C  43.55100 6.27000 46.99700
C  46.50900 8.53700 46.68500
C  42.94900 8.40400 46.78000
O  42.85100 9.63900 46.77900
C  41.64900 7.51900 46.73300
C  40.75100 7.99600 47.89800
O  40.87000 7.61500 49.07200
O  39.75400 8.90000 47.43700
C  38.90900 9.39900 48.51300
H  40.49200 0.50200 47.23000
H  46.72700 -0.21800 47.83800
H  47.95600 6.07800 46.96400
H  39.52900 5.39800 48.02900
H  39.13800 2.81500 46.43200
H  39.56200 2.26600 49.42900
H  38.23000 1.99300 48.39900
H  38.42200 3.60900 49.05000
H  38.78500 6.47600 46.35400
H  38.04100 4.98300 45.90900
H  40.78800 5.33200 44.70800
H  39.66500 6.54700 44.27200
H  40.79700 -1.55600 46.57900
H  41.03200 -1.98200 48.19800
H  41.89200 -2.92900 47.01400
H  46.82300 -2.05400 46.90400
H  46.55100 -3.67600 47.63600
H  46.75700 -2.22400 48.65200
H  48.75300 1.17700 46.76100
H  49.13100 3.88000 48.06800
H  49.46900 0.60200 48.64400
H  48.14400 1.48100 49.64300
H  49.65400 2.21800 49.15700
H  50.23600 4.61600 46.36700
H  48.99300 4.38000 45.28300
H  51.54800 3.12200 45.45400
H  50.44300 2.80400 44.17500
H  50.41900 1.81800 45.69200
H  47.15300 8.26600 45.84900
H  46.93000 8.63900 47.68600
H  45.93200 9.44300 46.49900
H  41.08600 7.66400 45.81100
H  38.03900 9.85300 48.03900
H  39.46100 10.10800 49.13100
H  38.47200 8.62400 49.14300
Mg 0.11100 43.21500 27.01500
C  2.51400 42.86300 29.42600
C  -2.34200 42.20900 29.41800
C  -2.35000 43.45900 24.66700
C  2.50900 43.53500 24.52400
N  0.09200 42.61800 29.15000
C  1.18400 42.67000 29.96700
C  0.81900 42.56300 31.45100
C  -0.59100 41.89000 31.37000
C  -0.98900 42.30900 29.87100
C  -0.59100 40.39300 31.57100
C  0.92800 43.86200 32.14200
C  0.90100 43.80300 33.65900
H  0.26800 42.63300 34.41500
N  -2.03500 42.91300 27.04600
C  -2.77500 42.57900 28.13500
C  -4.19100 42.63600 27.80900
C  -4.24200 43.07000 26.43100
C  -2.88700 43.24600 25.97000
C  -5.30900 42.27000 28.78000
C  -5.49500 43.31000 25.40100
O  -5.40100 43.72800 24.25300
C  -6.84300 42.86200 25.89100
N  0.05700 43.25900 24.86700
C  -1.05700 43.47800 24.17600
C  -0.73000 43.72500 22.64500
C  0.77600 43.76800 22.56600
C  1.16200 43.58500 24.07600
C  -1.35500 42.67000 21.71500
C  1.41500 44.91800 21.82900
C  1.92600 46.09000 22.73900
N  2.09600 43.19700 26.92000
C  2.94900 43.32500 25.84200
C  4.35200 43.32200 26.32100
C  4.20000 43.05500 27.68300
C  2.77100 43.01300 28.04700
C  5.71900 43.43700 25.55500
C  5.00600 42.86200 28.89100
O  6.19000 42.57900 29.18600
C  3.95800 42.84400 30.09600
C  4.25200 41.71900 31.03300
O  4.33000 40.52300 30.75000
O  4.39200 42.19400 32.24800
C  4.47500 41.19100 33.30500
H  -3.07300 41.87600 30.15800
H  -3.07200 43.68000 23.87800
H  3.33500 43.66000 23.82100
H  1.47900 41.86200 31.96200
H  -1.27900 42.31400 32.10200
H  0.36500 39.93300 31.82100
H  -0.80600 39.97000 30.59000
H  -1.36400 40.20800 32.31700
H  0.21700 44.58300 31.73900
H  1.90100 44.29600 31.90900
H  0.50600 44.76800 33.97800
H  1.90500 43.88000 34.07700
H  -6.13900 42.91300 28.48800
H  -5.13600 42.60600 29.80300
H  -5.58200 41.21500 28.74600
H  -6.78900 41.83000 26.23800
H  -7.63100 43.08400 25.17200
H  -7.09800 43.47300 26.75700
H  -1.14700 44.70000 22.39400
H  1.16000 42.84100 22.13900
H  -0.56800 42.31500 21.05000
H  -2.25300 43.11800 21.29000
H  -1.59300 41.80000 22.32600
H  0.90000 45.26800 20.93500
H  2.36900 44.48400 21.53000
H  1.22600 46.25500 23.55900
H  2.04300 46.98600 22.12900
H  2.93800 46.00200 23.13300
H  6.51300 43.15100 26.24500
H  5.83900 44.43200 25.12600
H  5.79500 42.73200 24.72800
H  4.12500 43.82600 30.53800
H  5.49500 41.23900 33.68600
H  4.04400 40.19800 33.17800
H  3.85500 41.62400 34.09100

