158

Mg 16.54500 -1.39500 27.97000
C  15.18200 0.91400 30.48300
C  18.51200 -2.65800 30.54900
C  18.18300 -2.98600 25.66800
C  15.02400 0.72400 25.66900
N  16.83300 -0.87200 30.29100
C  16.15900 0.07200 31.03600
C  16.44600 -0.18500 32.49900
C  17.60200 -1.19100 32.46000
C  17.67400 -1.68100 30.99800
C  18.96200 -0.64900 32.97100
C  15.19200 -0.79200 33.22000
C  15.03500 -0.36300 34.71100
H  16.15600 0.43000 35.54200
N  18.05700 -2.79800 28.09300
C  18.68400 -3.19900 29.17500
C  19.63000 -4.17500 28.80100
C  19.52700 -4.43900 27.42000
C  18.62500 -3.39000 26.96800
C  20.51100 -4.84900 29.83100
C  20.27100 -5.40400 26.50100
O  20.24100 -5.47600 25.24100
C  21.05400 -6.47500 27.08400
N  16.55400 -1.21500 25.89400
C  17.35600 -2.01000 25.19400
C  17.20800 -1.67200 23.64700
C  16.21700 -0.43700 23.74000
C  15.89600 -0.29100 25.21500
C  18.52900 -1.26500 22.97200
C  15.06100 -0.81200 22.84900
C  14.75200 -0.13900 21.53500
N  15.18700 0.26000 27.99200
C  14.67100 0.91300 26.99400
C  13.72500 1.94500 27.47600
C  13.92900 1.94800 28.84700
C  14.84000 0.95700 29.09100
C  12.75900 2.81800 26.66400
C  13.42200 2.54800 30.10100
O  12.50500 3.32200 30.26100
C  14.20700 1.79800 31.30300
C  14.93400 2.82700 32.07700
O  15.95500 3.45800 31.75600
O  14.34500 2.92200 33.25900
C  14.91000 3.82000 34.25300
H  19.17500 -3.16500 31.25300
H  18.71000 -3.57600 24.91600
H  14.58200 1.39600 24.93100
H  16.71300 0.72600 33.03500
H  17.31600 -1.95800 33.18000
H  19.33100 -1.41500 33.65400
H  18.87100 0.21800 33.62600
H  19.61600 -0.34700 32.15300
H  15.16300 -1.87300 33.08400
H  14.33100 -0.55100 32.59800
H  15.02700 -1.29600 35.27400
H  14.08500 0.14100 34.89000
H  21.39800 -5.30100 29.38600
H  20.05800 -5.64000 30.42900
H  20.92000 -3.98700 30.35800
H  20.58900 -6.78100 28.02100
H  22.04300 -6.01700 27.10000
H  20.98700 -7.40900 26.52600
H  16.74200 -2.49300 23.10300
H  16.70400 0.45000 23.33400
H  19.28900 -0.84000 23.62700
H  18.39200 -0.49700 22.21000
H  18.92500 -2.17400 22.51900
H  14.11200 -0.73800 23.37900
H  14.87700 -1.86900 22.65600
H  14.78700 -0.86300 20.72100
H  15.52600 0.59500 21.31100
H  13.79900 0.38800 21.48700
H  11.81000 2.28800 26.75100
H  13.06100 2.95200 25.62500
H  12.63500 3.83800 27.02700
H  13.52100 1.32100 32.00200
H  14.56600 4.84900 34.15200
H  15.99800 3.78100 34.31600
H  14.48100 3.47600 35.19400
Mg 16.55800 51.53300 26.15700
C  18.35600 49.97300 28.81900
C  14.43400 52.88700 28.47200
C  14.73900 52.73100 23.57000
C  18.65700 49.86800 23.85200
N  16.33500 51.32100 28.38600
C  17.21800 50.75500 29.27400
C  16.88800 51.00600 30.77700
C  15.45200 51.69400 30.63500
C  15.34900 51.99400 29.09500
C  14.25900 50.88700 31.12600
C  17.92500 51.82000 31.60500
C  17.58000 52.06500 33.11800
H  16.44600 51.27000 33.77000
N  14.91100 52.76400 26.02800
C  14.13900 53.17600 27.09900
C  13.06200 54.10800 26.63900
C  13.27700 54.12700 25.22500
C  14.37900 53.17500 24.84600
C  11.93400 54.59900 27.55600
C  12.52300 54.96800 24.17600
O  12.80500 54.96500 23.00900
C  11.50900 56.00400 24.64900
N  16.61100 51.23900 24.03900
C  15.72700 51.77900 23.19500
C  15.81600 51.03600 21.82200
C  17.24500 50.50900 21.87300
C  17.53200 50.54900 23.34900
C  14.68000 49.99700 21.69800
C  18.31700 51.39000 21.20100
C  19.58800 50.59200 20.79000
N  18.20500 50.25200 26.28800
C  18.92800 49.62000 25.25900
C  20.09100 48.82400 25.82200
C  19.83400 48.96900 27.21800
C  18.79700 49.86700 27.47000
C  21.20400 48.02300 25.16800
C  20.30600 48.48800 28.53700
O  21.26800 47.77800 28.77500
C  19.44200 49.19500 29.63700
C  18.87900 48.24000 30.56900
O  17.97700 47.46600 30.29200
O  19.47100 48.24400 31.78500
C  18.88800 47.47100 32.85900
H  13.86800 53.44800 29.21900
H  14.01300 53.05200 22.82100
H  19.19400 49.21300 23.16300
H  16.81900 49.97900 31.13700
H  15.39600 52.64000 31.17300
H  13.74900 51.43100 31.92000
H  14.59000 49.93300 31.53600
H  13.49200 50.72600 30.36900
H  18.09100 52.78000 31.11600
H  18.89300 51.32800 31.50900
H  17.29300 53.11700 33.13300
H  18.49400 51.89900 33.68700
H  11.75100 55.66500 27.69700
H  11.99200 54.20300 28.57000
H  10.98900 54.27100 27.12400
H  11.01700 56.46500 23.79300
H  11.95800 56.87200 25.13000
H  10.80700 55.38100 25.20400
H  15.69400 51.90900 21.18000
H  17.26100 49.53500 21.38400
H  14.03300 50.34400 20.89200
H  14.11500 49.87500 22.62200
H  14.97500 48.97900 21.44200
H  18.62300 52.20900 21.85200
H  17.93200 51.95700 20.35400
H  19.73100 50.59100 19.70900
H  19.47200 49.52400 20.97400
H  20.49100 51.03700 21.20800
H  21.94600 48.78100 24.91700
H  20.82400 47.63000 24.22500
H  21.69400 47.25200 25.76300
H  20.17400 49.90600 30.01900
H  19.14300 46.41200 32.82400
H  17.82400 47.69500 32.93100
H  19.15400 47.93900 33.80700

