158

Mg 48.09600 25.66100 27.70200
C  48.89600 27.73400 30.26900
C  47.20000 23.23900 29.88600
C  47.70200 23.53400 25.03900
C  49.63000 27.99000 25.48600
N  48.23000 25.46100 29.87600
C  48.26200 26.55900 30.70800
C  47.83700 26.16900 32.12800
C  47.48000 24.65600 32.02700
C  47.56900 24.45800 30.49100
C  48.28700 23.57900 32.81500
C  46.64800 27.14500 32.66100
C  45.96100 26.58100 33.85500
H  46.05500 27.50100 35.03300
N  47.48400 23.63200 27.47300
C  47.14500 22.80400 28.51400
C  46.70100 21.48600 27.95900
C  46.84700 21.57200 26.52500
C  47.38400 22.94500 26.29200
C  46.22300 20.48200 28.88300
C  46.64200 20.46600 25.53400
O  46.78400 20.76300 24.29900
C  46.21600 19.08000 25.92900
N  48.59100 25.77600 25.51100
C  48.19400 24.79300 24.61400
C  48.49800 25.17200 23.18200
C  49.24400 26.56500 23.33100
C  49.11600 26.83800 24.84800
C  49.37400 24.11000 22.38500
C  48.76400 27.73000 22.35300
C  49.84000 28.37800 21.39100
N  49.02500 27.47000 27.81400
C  49.57200 28.35000 26.88000
C  50.25000 29.49800 27.53200
C  49.94300 29.28600 28.84200
C  49.24000 28.06500 28.95600
C  50.84300 30.70700 26.81700
C  49.97200 29.89400 30.16000
O  50.45800 30.96200 30.54000
C  49.23400 28.94500 31.07000
C  50.11800 28.64100 32.22800
O  51.11300 27.99700 32.22600
O  49.61600 29.14400 33.43000
C  50.22200 28.79300 34.66600
H  46.89500 22.58200 30.70300
H  47.49700 22.90500 24.17000
H  50.17600 28.64400 24.80200
H  48.67900 26.15900 32.82000
H  46.43800 24.45100 32.27600
H  48.77800 22.89900 32.11800
H  47.52100 23.09300 33.41900
H  49.11600 23.91300 33.43800
H  45.99200 27.28800 31.80300
H  47.09800 28.09200 32.95900
H  46.37200 25.58400 34.01400
H  44.91300 26.49700 33.56800
H  46.93300 19.79200 29.34000
H  45.49100 19.85300 28.37600
H  45.63300 20.83600 29.72800
H  46.69100 18.86600 26.88600
H  46.59100 18.35400 25.20800
H  45.12800 19.14100 25.89700
H  47.55800 25.42400 22.69100
H  50.32300 26.55300 23.17300
H  48.61100 23.44000 21.98900
H  50.04700 23.43100 22.90800
H  49.95800 24.70800 21.68500
H  48.32400 28.53000 22.94700
H  47.95900 27.31200 21.74700
H  49.52600 28.38700 20.34700
H  50.64700 27.64600 21.36300
H  50.13500 29.33000 21.83200
H  50.20500 31.50900 27.18900
H  50.71900 30.60800 25.73800
H  51.84700 30.93600 27.17600
H  48.35900 29.47500 31.44700
H  51.29200 28.71500 34.47100
H  49.81900 27.84100 35.01100
H  49.99500 29.59600 35.36600
Mg -1.46400 33.78300 26.98000
C  -3.48200 32.65800 29.59100
C  0.03000 35.91700 29.16700
C  -0.02100 35.39000 24.43600
C  -3.50500 32.03700 24.78200
N  -1.64200 34.16800 29.13400
C  -2.59500 33.60900 29.97600
C  -2.31300 33.93900 31.40300
C  -1.24900 35.13800 31.23100
C  -1.01500 35.19600 29.71600
C  -1.60700 36.47800 31.86100
C  -1.76000 32.71800 32.26100
C  -1.19800 33.15300 33.62500
H  -1.73900 32.59800 34.84000
N  -0.01000 35.28500 26.82300
C  0.54100 36.00700 27.83800
C  1.48800 36.89300 27.38500
C  1.47000 36.90600 25.96700
C  0.44600 35.87100 25.65600
C  2.34600 37.75800 28.36400
C  2.29500 37.60400 24.91700
O  2.20400 37.44700 23.75400
C  3.42100 38.48900 25.29700
N  -1.74800 33.70000 24.88400
C  -0.99500 34.45100 24.07300
C  -1.12800 34.05300 22.60100
C  -2.18000 32.89200 22.74200
C  -2.52300 32.85000 24.16100
C  -1.53700 35.20100 21.62300
C  -1.87200 31.51700 21.99700
C  -0.43700 31.08500 21.58900
N  -3.02200 32.52600 27.14800
C  -3.77700 31.92600 26.17500
C  -4.80500 31.07400 26.75200
C  -4.69400 31.36300 28.09400
C  -3.66900 32.26500 28.25900
C  -5.62800 30.05600 26.00000
C  -5.30800 30.93100 29.31600
O  -6.27200 30.18300 29.53500
C  -4.60000 31.85000 30.36200
C  -5.58700 32.69700 31.03900
O  -6.13000 33.70400 30.58900
O  -5.83500 32.20000 32.28800
C  -7.07300 32.68900 32.91000
H  0.48000 36.63900 29.85200
H  0.57600 35.75000 23.59500
H  -4.13900 31.49200 24.08000
H  -3.21500 34.40400 31.80100
H  -0.34000 34.85500 31.76200
H  -2.56100 36.50200 32.38700
H  -1.83200 37.20800 31.08400
H  -0.77500 36.84200 32.46400
H  -0.97100 32.28900 31.64400
H  -2.48200 31.93400 32.49000
H  -1.23000 34.24200 33.60200
H  -0.12200 32.97800 33.60200
H  2.33200 37.22700 29.31600
H  1.86700 38.72600 28.50800
H  3.37200 37.88700 28.02100
H  4.18400 37.89400 25.79900
H  3.01100 39.19600 26.01800
H  3.84400 39.04800 24.46200
H  -0.15200 33.78300 22.19800
H  -3.12000 33.26600 22.33800
H  -0.71100 35.37400 20.93300
H  -1.71300 36.11700 22.18700
H  -2.44100 35.01200 21.04400
H  -2.48300 31.59200 21.09800
H  -2.29800 30.72600 22.61300
H  0.33500 31.78700 21.90300
H  -0.36700 31.13100 20.50200
H  -0.23700 30.06000 21.90200
H  -6.54700 30.32900 25.48100
H  -5.68900 29.25200 26.73400
H  -5.05300 29.68700 25.15100
H  -4.14600 31.14400 31.05600
H  -7.63700 33.46200 32.38800
H  -6.70700 33.16100 33.82200
H  -7.57700 31.78800 33.26200

