158

Mg -2.38000 17.15800 26.24700
C  -2.75400 15.12900 29.15900
C  -2.72500 19.88300 28.15100
C  -2.70500 19.16300 23.39500
C  -2.51600 14.28000 24.24600
N  -2.65700 17.41300 28.37900
C  -2.70400 16.52200 29.42000
C  -2.89400 17.18600 30.80800
C  -2.85800 18.68600 30.35600
C  -2.69100 18.67700 28.87100
C  -4.05600 19.46600 31.02200
C  -1.87700 16.77700 31.89600
C  -1.74800 17.85900 32.97100
H  -1.26200 17.27000 34.31100
N  -2.55900 19.29500 25.90100
C  -2.71700 20.21700 26.84100
C  -2.79900 21.55700 26.27000
C  -2.75800 21.37200 24.88800
C  -2.64700 19.89500 24.67400
C  -2.83300 22.77200 27.09200
C  -2.80500 22.39500 23.74600
O  -2.67800 21.96300 22.55300
C  -2.90100 23.88300 23.96600
N  -2.67700 16.75200 24.14400
C  -2.65300 17.77400 23.17400
C  -2.59200 17.12800 21.70100
C  -2.43700 15.61000 22.05000
C  -2.54000 15.51000 23.58800
C  -3.71800 17.48200 20.73500
C  -1.11200 14.92500 21.45100
C  -1.26000 14.01800 20.22100
N  -2.48100 15.06500 26.57200
C  -2.58600 14.03700 25.67000
C  -2.68200 12.81000 26.43300
C  -2.85600 13.18300 27.76500
C  -2.65800 14.58400 27.82900
C  -2.73400 11.38300 25.83500
C  -3.03700 12.74200 29.17700
O  -3.02800 11.62100 29.64000
C  -2.99300 13.99600 30.08400
C  -1.89800 13.75700 31.03600
O  -0.75700 14.12000 30.83100
O  -2.32000 13.16100 32.17300
C  -1.37500 13.01000 33.26000
H  -2.79600 20.75600 28.80200
H  -2.95600 19.72700 22.49400
H  -2.48200 13.37600 23.63500
H  -3.94900 16.99400 31.00700
H  -1.94800 19.17400 30.70600
H  -4.56800 20.18600 30.38300
H  -3.68200 20.04400 31.86700
H  -4.82600 18.84100 31.47400
H  -0.94900 16.49500 31.39800
H  -2.30200 15.92700 32.42900
H  -2.65100 18.45800 33.08900
H  -0.95400 18.46000 32.52700
H  -2.14900 22.58700 27.92100
H  -3.82400 22.85800 27.53900
H  -2.49400 23.63600 26.52100
H  -3.66700 23.98900 24.73400
H  -3.05600 24.42400 23.03300
H  -1.99900 24.33700 24.37700
H  -1.68600 17.46000 21.19300
H  -3.37400 15.09500 21.83800
H  -4.10200 16.61100 20.20500
H  -3.47300 18.24100 19.99200
H  -4.55900 17.90400 21.28600
H  -0.94100 14.15800 22.20700
H  -0.34100 15.66700 21.24400
H  -1.10000 14.64800 19.34600
H  -2.25600 13.57600 20.19800
H  -0.43700 13.30400 20.20900
H  -1.77300 10.91600 26.04900
H  -2.91900 11.36200 24.76100
H  -3.63100 11.01000 26.32900
H  -3.91800 14.13400 30.64400
H  -1.55300 12.00500 33.64400
H  -1.53100 13.71300 34.07900
H  -0.35800 13.01800 32.87000
Mg 35.41000 2.69200 30.29600
C  33.15700 3.57100 32.95200
C  37.84300 2.59900 32.65200
C  37.60100 2.31700 27.83300
C  32.75400 3.22500 27.98200
N  35.51000 3.13900 32.56900
C  34.48600 3.39700 33.42100
C  34.95600 3.46800 34.89800
C  36.47000 3.22100 34.71500
C  36.63300 2.97800 33.21000
C  37.36700 4.38300 35.27800
C  34.16200 2.53300 35.80300
C  34.80800 1.95800 37.04700
H  35.35700 2.90700 38.23400
N  37.43700 2.51100 30.25700
C  38.29800 2.44600 31.29600
C  39.60500 1.94500 30.89900
C  39.63100 1.94100 29.45200
C  38.16900 2.29600 29.09800
C  40.64900 1.75000 31.90600
C  40.70600 1.66600 28.45600
O  40.52100 1.76200 27.24300
C  42.06500 1.33100 28.88800
N  35.18100 2.89800 28.21500
C  36.27500 2.70100 27.44400
C  35.83900 2.75100 25.90400
C  34.26700 2.56000 26.02100
C  34.03500 2.92900 27.47800
C  36.30200 4.05400 25.13600
C  33.75900 1.14900 25.60600
C  32.46400 1.16000 24.82500
N  33.32500 3.28500 30.34800
C  32.40700 3.37600 29.40200
C  31.16100 3.86400 29.98200
C  31.41100 3.94600 31.35300
C  32.74300 3.56900 31.55100
C  29.81800 4.13400 29.27200
C  30.78600 4.24900 32.59900
O  29.67500 4.66600 32.82600
C  31.85400 3.94500 33.70500
C  32.08700 5.17300 34.56300
O  32.57200 6.24200 34.17400
O  31.68500 5.00000 35.85700
C  31.76500 6.11200 36.77500
H  38.58000 2.50400 33.45200
H  38.18400 2.20500 26.91800
H  31.90900 3.18600 27.29100
H  34.69400 4.47700 35.21700
H  36.74800 2.27100 35.17000
H  37.90800 4.84200 34.45000
H  38.04900 3.91400 35.98700
H  36.71700 5.07600 35.81200
H  33.73600 1.73700 35.19200
H  33.27900 2.97000 36.26900
H  35.62000 1.32000 36.69700
H  34.08400 1.31600 37.54700
H  41.38100 1.02200 31.55800
H  40.20900 1.30800 32.80000
H  40.94800 2.76600 32.16500
H  42.33800 0.27500 28.90900
H  42.36400 1.82000 29.81500
H  42.76900 1.79100 28.19500
H  36.30400 1.91000 25.38900
H  33.74100 3.35500 25.49200
H  36.96800 4.62500 25.78300
H  35.44200 4.62100 24.78300
H  36.86300 3.85600 24.22300
H  33.49100 0.49500 26.43600
H  34.54300 0.62600 25.05800
H  31.68300 0.67900 25.41300
H  32.42900 0.63300 23.87200
H  32.14600 2.14500 24.48300
H  29.06300 3.81900 29.99300
H  29.81900 3.58000 28.33300
H  29.73200 5.14900 28.88400
H  31.46400 3.09600 34.26600
H  30.73700 6.44300 36.92100
H  32.39900 6.95100 36.48800
H  32.07300 5.87900 37.79400

