158

Mg 8.00400 3.02100 27.59500
C  9.17700 1.57800 30.47600
C  5.94500 5.12400 29.63500
C  6.26700 4.05000 24.87000
C  9.52700 0.58100 25.72600
N  7.62600 3.30500 29.76400
C  8.42200 2.70600 30.74700
C  8.28200 3.41400 32.13900
C  7.09700 4.42500 31.77200
C  6.91500 4.32300 30.28500
C  5.82800 4.23400 32.60200
C  9.52200 3.95800 32.81200
C  9.90700 3.33000 34.09700
H  10.15400 4.23000 35.27900
N  6.36400 4.43900 27.32500
C  5.70600 5.24600 28.27700
C  4.90200 6.22600 27.56200
C  5.06300 6.01600 26.16200
C  5.87700 4.77400 26.04700
C  4.32400 7.47800 28.27900
C  4.46700 6.79700 25.06700
O  4.68900 6.54100 23.84800
C  3.56300 7.96600 25.33900
N  7.95600 2.44600 25.61600
C  7.12400 2.99400 24.71000
C  7.16700 2.23800 23.39600
C  8.38800 1.37000 23.56500
C  8.68600 1.45700 25.04700
C  5.84000 1.59600 22.86700
C  9.68200 1.77000 22.72900
C  10.46700 0.67400 21.96000
N  9.22000 1.36400 27.96200
C  9.75800 0.49300 27.13300
C  10.64400 -0.39700 27.89900
C  10.45200 -0.04100 29.23700
C  9.54700 1.03700 29.24600
C  11.37500 -1.63700 27.39500
C  10.82500 -0.36800 30.59000
O  11.51800 -1.23500 31.06900
C  10.01700 0.69800 31.42100
C  9.11500 0.03500 32.38200
O  7.90700 -0.02900 32.39900
O  9.90900 -0.31900 33.49000
C  9.15400 -0.73500 34.71500
H  5.55600 5.89100 30.30900
H  5.82800 4.29500 23.90100
H  10.09100 -0.15300 25.14700
H  7.87800 2.65200 32.80500
H  7.54000 5.41200 31.90000
H  5.97800 3.36900 33.24700
H  4.94200 4.21200 31.96600
H  5.70100 5.05100 33.31200
H  9.33600 5.02100 32.96400
H  10.30700 3.88900 32.05900
H  10.86100 2.89400 33.80200
H  9.29400 2.48300 34.40500
H  4.70700 8.38500 27.81200
H  4.54100 7.46600 29.34700
H  3.24900 7.41800 28.10900
H  2.70100 7.48300 25.79900
H  3.20100 8.26000 24.35400
H  4.02100 8.82200 25.83500
H  7.46100 3.03600 22.71400
H  8.02600 0.37500 23.30600
H  5.12400 1.68100 23.68400
H  5.93500 0.55500 22.55700
H  5.55500 2.23700 22.03300
H  10.36600 2.21400 23.45200
H  9.45600 2.52200 21.97300
H  11.46200 0.73600 22.40000
H  10.49200 0.76000 20.87300
H  10.15700 -0.31800 22.28800
H  11.24400 -2.39300 28.16800
H  12.43900 -1.45400 27.24900
H  10.85300 -2.09700 26.55600
H  10.76400 1.26200 31.97800
H  8.74100 -1.72000 34.49800
H  8.30500 -0.05500 34.78100
H  9.66700 -0.70700 35.67700
Mg -11.36700 37.23300 41.80900
C  -9.36800 34.41800 40.91800
C  -8.72500 39.11000 40.35100
C  -13.24900 39.85300 41.87300
C  -13.99000 35.22600 42.40400
N  -9.29500 36.75600 40.73300
C  -8.73500 35.54600 40.52800
C  -7.29200 35.66900 39.99100
C  -7.06800 37.25800 40.06200
C  -8.44600 37.76500 40.41400
C  -5.98900 37.65400 41.09500
C  -7.04700 34.97000 38.59800
C  -5.54700 35.08600 38.15800
H  -5.30800 35.59400 36.76300
N  -11.03300 39.17900 41.35200
C  -9.90500 39.73000 40.72300
C  -10.02900 41.10700 40.49100
C  -11.26400 41.44600 41.05700
C  -11.91700 40.14800 41.45600
C  -9.10000 42.01400 39.68200
C  -11.92400 42.90300 41.19400
O  -11.30800 43.91100 40.74200
C  -13.29500 43.13300 41.74100
N  -13.48400 37.44400 41.55200
C  -13.95900 38.67000 41.86900
C  -15.38300 38.59900 42.46600
C  -15.75000 37.04500 42.23000
C  -14.33500 36.56100 42.04500
C  -15.33500 39.13900 43.95600
C  -16.66600 36.82900 40.92100
C  -16.78600 35.43900 40.34600
N  -11.68000 35.24900 41.71900
C  -12.76200 34.53100 42.15500
C  -12.48000 33.13800 42.15500
C  -11.13800 33.02300 41.75600
C  -10.67400 34.37800 41.48400
C  -13.51600 32.14800 42.50000
C  -10.01100 32.12300 41.49900
O  -9.86500 30.95500 41.75900
C  -8.91900 32.99700 40.75500
C  -7.59300 32.70500 41.35000
O  -6.60400 32.27700 40.71800
O  -7.59700 33.12500 42.65000
C  -6.24300 32.92700 43.27100
H  -7.81200 39.56800 39.96400
H  -13.81300 40.75500 42.11800
H  -14.76100 34.61000 42.87200
H  -6.69400 35.04100 40.65100
H  -6.84000 37.58700 39.04800
H  -5.36600 36.77100 41.23800
H  -6.42300 37.96400 42.04600
H  -5.37100 38.43900 40.65800
H  -7.68300 35.24600 37.75700
H  -7.18400 33.94400 38.93800
H  -4.94400 34.18700 38.28500
H  -5.03500 35.84800 38.74500
H  -8.73000 42.71700 40.42700
H  -9.63500 42.60100 38.93500
H  -8.31600 41.50200 39.12400
H  -13.44600 44.20700 41.85300
H  -13.33800 42.67800 42.73000
H  -14.06800 42.78500 41.05500
H  -16.15300 39.14800 41.92400
H  -16.26800 36.48500 43.00800
H  -15.81800 40.09900 44.13800
H  -14.33800 39.30600 44.36200
H  -15.81500 38.36300 44.55200
H  -16.31200 37.59000 40.22500
H  -17.64100 37.19500 41.24400
H  -17.42400 34.81600 40.97300
H  -15.86400 34.86300 40.42100
H  -17.09600 35.40400 39.30100
H  -14.25200 32.63200 43.14300
H  -13.00700 31.36600 43.06400
H  -13.97900 31.64400 41.65200
H  -8.87900 32.68200 39.71200
H  -5.91500 33.92200 43.57000
H  -5.38300 32.54700 42.71900
H  -6.54500 32.38300 44.16600

