158

Mg 44.15900 4.74300 47.82900
C  41.81800 7.23900 47.46300
C  41.58000 2.46800 47.67700
C  46.44100 2.45700 48.38300
C  46.69500 7.19600 47.32200
N  41.93100 4.86500 47.52300
C  41.19300 6.00200 47.52100
C  39.64100 5.72400 47.57000
C  39.63500 4.16400 47.60000
C  41.18100 3.84300 47.66500
C  38.85400 3.53100 48.83000
C  38.62500 6.33600 46.53100
C  39.20000 6.77400 45.17300
H  38.62400 6.05500 43.97200
N  44.11600 2.68800 47.71600
C  42.92600 1.93100 47.72900
C  43.26600 0.55300 47.79100
C  44.64100 0.55100 47.98500
C  45.14200 1.92000 48.04300
C  42.26200 -0.57200 47.58000
C  45.41900 -0.74400 48.15000
O  44.84600 -1.85800 48.36200
C  46.91000 -0.71100 47.90400
N  46.25800 4.74000 47.53600
C  46.91500 3.74600 48.23400
C  48.38500 4.10600 48.44100
C  48.48400 5.54800 47.87400
C  47.08600 5.84900 47.51100
C  48.96800 4.01000 49.80400
C  49.50000 5.66300 46.71000
C  50.96200 5.88200 47.10100
N  44.27400 6.76700 47.46900
C  45.39300 7.61600 47.34200
C  44.97500 8.92900 47.23000
C  43.54200 8.86000 47.27800
C  43.16700 7.53500 47.38800
C  45.78200 10.19800 46.99600
C  42.28500 9.73700 47.24700
O  42.12200 10.93300 47.21600
C  41.12700 8.61500 47.35700
C  40.36400 8.85600 48.68000
O  40.48700 8.29900 49.74600
O  39.39300 9.77000 48.37900
C  38.41100 10.02800 49.44400
H  40.76400 1.74300 47.73200
H  47.20600 1.82000 48.83100
H  47.34100 8.07500 47.29000
H  39.37300 6.06300 48.57000
H  39.21400 3.71800 46.69900
H  38.31200 2.60700 48.63100
H  38.13000 4.25500 49.20500
H  39.60300 3.30800 49.59000
H  38.20800 7.21200 47.02800
H  37.81900 5.62600 46.34600
H  40.25400 6.50200 45.11800
H  39.12600 7.84600 44.98800
H  41.27700 -0.10800 47.61400
H  42.46600 -1.37700 48.28700
H  42.34600 -1.03900 46.59900
H  47.16200 0.23500 47.42400
H  47.25200 -1.58100 47.34400
H  47.41000 -0.73800 48.87200
H  48.87500 3.42400 47.74600
H  48.79400 6.32200 48.57600
H  48.27300 3.62700 50.55200
H  49.29400 4.97400 50.19300
H  49.81100 3.32200 49.87100
H  49.23000 6.49400 46.05900
H  49.50100 4.74100 46.12900
H  51.24600 6.93400 47.06400
H  51.57900 5.29300 46.42300
H  51.02900 5.43100 48.09100
H  46.42000 10.43000 47.84900
H  45.12400 11.05800 46.87000
H  46.41300 10.12800 46.11000
H  40.39900 8.52600 46.55100
H  37.69800 9.20900 49.53700
H  37.91100 10.99300 49.36100
H  38.93700 10.03800 50.39900
Mg 36.68200 48.95100 24.63400
C  36.59400 47.43400 27.80300
C  36.08400 51.92800 26.22300
C  36.42200 50.23700 21.63300
C  37.07900 45.76000 23.26900
N  36.25100 49.54700 26.82900
C  36.36700 48.82800 27.92400
C  36.05200 49.62000 29.23700
C  35.81200 51.05300 28.69000
C  36.05500 50.85400 27.14900
C  34.46100 51.69400 29.07700
C  37.32800 49.52200 30.13000
C  37.03600 49.13700 31.61200
H  35.84500 49.77700 32.24800
N  36.24000 50.80300 23.96800
C  36.17500 51.92200 24.76000
C  36.10600 53.08100 23.92500
C  36.26000 52.66900 22.63400
C  36.26500 51.15400 22.67600
C  35.88100 54.47100 24.51800
C  36.28600 53.44700 21.38000
O  36.29000 52.88900 20.21300
C  36.33400 55.04600 21.30600
N  36.52900 48.08100 22.60800
C  36.55900 48.85700 21.60400
C  36.68100 48.02200 20.25000
C  37.05900 46.58500 20.79800
C  36.83200 46.77800 22.29000
C  35.40300 48.12000 19.34800
C  38.49600 46.18000 20.29800
C  39.64400 46.58400 21.25400
N  36.94500 47.07700 25.34000
C  37.10900 45.82100 24.70200
C  37.44600 44.76800 25.64400
C  37.12500 45.30100 26.86000
C  36.83700 46.69200 26.60800
C  37.82800 43.37600 25.27600
C  37.08400 44.97800 28.27400
O  37.29700 43.95200 28.90500
C  36.68200 46.42900 28.94700
C  35.42400 46.21900 29.72100
O  34.26400 46.29000 29.27500
O  35.71100 45.93500 31.05300
C  34.58700 45.81800 32.00000
H  35.99700 52.87000 26.76800
H  36.20400 50.53800 20.60700
H  37.24400 44.79500 22.78400
H  35.23600 49.10000 29.74000
H  36.54600 51.78900 29.01700
H  33.86400 51.95400 28.20300
H  34.57600 52.63700 29.61200
H  33.88200 51.14200 29.81800
H  37.80800 50.49600 30.22200
H  38.08900 48.84700 29.73700
H  37.89900 49.55900 32.12700
H  37.07900 48.04900 31.55900
H  36.89700 54.83400 24.66900
H  35.30700 54.46500 25.44500
H  35.44400 55.14500 23.78100
H  37.09400 55.50300 21.94000
H  35.33100 55.36100 21.59300
H  36.50600 55.23200 20.24600
H  37.57300 48.38800 19.74200
H  36.28100 45.84900 20.59400
H  34.58000 48.40600 20.00400
H  35.17200 47.12700 18.96300
H  35.41000 48.82300 18.51500
H  38.54400 46.52000 19.26400
H  38.50300 45.09400 20.20600
H  39.35000 47.16100 22.13100
H  40.35200 47.16800 20.66600
H  40.16400 45.66700 21.53100
H  38.40800 43.34400 24.35300
H  36.91900 42.78100 25.19500
H  38.52000 42.91600 25.98200
H  37.50300 46.66100 29.62500
H  34.74300 46.24200 32.99200
H  34.46300 44.81200 32.40100
H  33.61900 46.16800 31.64000

