158

Mg 44.66000 4.12200 49.31200
C  42.35200 6.53300 48.03200
C  42.17900 1.68000 48.94400
C  46.97800 1.77300 49.94300
C  47.14500 6.56500 49.18000
N  42.52100 4.06600 48.63000
C  41.88500 5.19000 48.07300
C  40.46800 4.84400 47.57100
C  40.38900 3.27200 47.87600
C  41.76300 2.97000 48.58800
C  39.21200 2.76300 48.67600
C  40.29800 5.16200 46.02300
C  39.05100 5.95900 45.62200
H  38.42300 5.67900 44.22600
N  44.63600 2.03600 49.33000
C  43.50700 1.30100 49.26100
C  43.96100 -0.07300 49.27500
C  45.32200 -0.17200 49.43600
C  45.72800 1.24900 49.65000
C  42.94900 -1.26200 49.11700
C  46.16400 -1.48000 49.37400
O  45.66500 -2.62400 49.25900
C  47.67000 -1.36800 49.44900
N  46.75300 4.14000 49.29800
C  47.41500 3.03300 49.81200
C  48.90600 3.40000 50.08400
C  48.97200 4.95800 49.85300
C  47.54900 5.26900 49.43200
C  49.56400 2.92500 51.42600
C  50.09100 5.39800 48.82600
C  51.34500 6.04400 49.46100
N  44.82800 6.17100 48.70100
C  45.90000 7.01400 48.74700
C  45.45200 8.34000 48.21500
C  44.07800 8.15700 47.96500
C  43.73600 6.80900 48.26900
C  46.25600 9.61800 48.12700
C  42.87100 8.87800 47.61800
O  42.74000 10.05300 47.29600
C  41.73100 7.81800 47.63200
C  40.58600 8.13600 48.50900
O  40.39600 7.55400 49.57000
O  39.76700 9.13300 48.07400
C  38.64500 9.48300 48.98900
H  41.31800 1.02600 48.78700
H  47.72500 1.08500 50.34400
H  47.98700 7.24800 49.05200
H  39.79500 5.40700 48.21800
H  40.27500 2.65500 46.98400
H  38.44000 3.52500 48.78600
H  39.45600 2.58800 49.72400
H  38.75500 1.84300 48.31100
H  40.27100 4.29400 45.36500
H  41.17100 5.71800 45.68100
H  39.37100 6.99700 45.53200
H  38.28400 5.96400 46.39700
H  41.92500 -0.90900 48.99700
H  42.98400 -1.69200 50.11800
H  43.35200 -1.90200 48.33300
H  48.04800 -0.59000 48.78600
H  48.06800 -2.31400 49.08300
H  47.86700 -1.16800 50.50200
H  49.52800 2.85100 49.37700
H  49.17300 5.45400 50.80300
H  50.02400 1.95600 51.22800
H  48.78300 2.64300 52.13100
H  50.17700 3.67100 51.93200
H  49.79100 6.06800 48.02000
H  50.50400 4.51600 48.33600
H  51.39200 7.04300 49.02800
H  52.16900 5.34400 49.32300
H  51.17600 6.23200 50.52100
H  46.42900 10.08300 49.09700
H  45.98000 10.38800 47.40600
H  47.18600 9.18500 47.75700
H  41.25200 7.74300 46.65600
H  38.93900 9.60600 50.03100
H  37.85300 8.73400 48.99600
H  38.19800 10.42500 48.67100
Mg 47.58100 44.23600 41.61900
C  44.00400 43.86400 41.75700
C  47.78700 40.88800 41.61200
C  50.82200 44.64500 41.21700
C  47.13000 47.70700 41.36300
N  46.06800 42.61700 41.59300
C  44.68900 42.63900 41.62800
C  44.09400 41.21700 41.70600
C  45.36200 40.23100 41.85700
C  46.45900 41.30700 41.74600
C  45.36000 39.36000 43.08700
C  43.24900 40.83300 40.42100
C  43.56100 41.56400 39.06800
H  43.63800 40.69600 37.85400
N  49.11300 42.95400 41.44300
C  49.03900 41.56400 41.47200
C  50.35900 40.98100 41.29600
C  51.28300 42.06600 41.27700
C  50.44100 43.33500 41.36200
C  50.72800 39.46400 41.30700
C  52.81400 41.97500 41.22000
O  53.46000 40.93500 41.18400
C  53.65700 43.19000 41.23100
N  48.77200 45.93300 41.07400
C  50.08300 45.82700 41.17600
C  50.75800 47.19000 40.93600
C  49.60800 48.13600 40.91400
C  48.38100 47.24800 41.15800
C  51.88000 47.48500 42.00200
C  49.39600 48.96900 39.66900
C  49.22900 50.48800 39.88900
N  45.93200 45.57200 41.59000
C  45.92300 46.97200 41.42700
C  44.55800 47.39800 41.55600
C  43.78900 46.20200 41.71200
C  44.63000 45.12900 41.68300
C  44.00400 48.75700 41.44200
C  42.42000 45.61000 41.90700
O  41.37000 46.12300 42.15500
C  42.50400 44.08800 41.88300
C  41.83200 43.33100 43.01800
O  41.19800 42.31400 42.91300
O  42.17900 43.95100 44.14600
C  41.42500 43.46400 45.34700
H  48.03700 39.82700 41.55400
H  51.85500 44.98500 41.11900
H  47.06100 48.78700 41.51100
H  43.47200 41.18700 42.60000
H  45.44000 39.52900 41.02600
H  44.40600 38.83300 43.09000
H  45.33600 39.96600 43.99200
H  46.05300 38.51900 43.11600
H  42.19000 40.90700 40.66500
H  43.42800 39.76900 40.26800
H  44.53100 42.02900 39.24400
H  42.74700 42.25300 38.84200
H  50.99700 39.02700 40.34500
H  49.84400 38.86200 41.51700
H  51.53900 39.31600 42.02100
H  53.32700 43.72700 40.34200
H  54.71100 42.96700 41.06300
H  53.41000 43.76000 42.12700
H  51.32600 47.16300 40.00600
H  49.67000 48.71400 41.83600
H  51.76000 46.79100 42.83400
H  51.70700 48.49900 42.36000
H  52.84000 47.40000 41.49300
H  48.50500 48.74800 39.08200
H  50.24900 48.88900 38.99500
H  48.14800 50.59100 39.79100
H  49.96000 51.08400 39.34200
H  49.45900 50.80800 40.90500
H  43.51900 48.99800 40.49600
H  44.71800 49.57500 41.54100
H  43.25800 48.97800 42.20500
H  42.04200 43.84000 40.92700
H  40.41200 43.86100 45.41000
H  41.97800 43.64700 46.26800
H  41.45400 42.37500 45.32200

