158

Mg 25.64400 1.46200 29.74200
C  27.58800 1.00300 32.64600
C  22.84900 1.52500 31.72100
C  23.69800 1.11100 26.94400
C  28.46300 0.67400 27.80200
N  25.19900 1.15600 31.95300
C  26.19100 1.09600 32.92000
C  25.56700 1.14200 34.33300
C  24.07400 1.51200 33.97700
C  23.99400 1.35600 32.49000
C  22.97900 0.83000 34.79300
C  26.27500 2.18600 35.28600
C  25.39000 3.03400 36.10300
H  25.91200 3.25700 37.62300
N  23.58700 1.51700 29.38200
C  22.57800 1.62800 30.35400
C  21.28300 1.79200 29.72300
C  21.51300 1.64500 28.37300
C  22.97400 1.40600 28.15000
C  20.00400 1.98800 30.55500
C  20.44900 1.75000 27.30100
O  20.62000 1.42600 26.09900
C  19.07300 2.30900 27.65300
N  26.02400 1.01100 27.69100
C  25.07500 0.94400 26.79300
C  25.77400 0.97500 25.37800
C  27.27900 0.83900 25.59400
C  27.22500 0.84400 27.14200
C  25.27800 0.05500 24.18500
C  28.06200 1.95200 25.01500
C  29.51500 1.67700 24.73500
N  27.62200 0.93000 30.11100
C  28.65800 0.64200 29.21500
C  29.82300 0.25100 29.90300
C  29.50300 0.48300 31.24900
C  28.13500 0.87500 31.29900
C  31.03400 -0.32700 29.29800
C  30.03000 0.39500 32.60300
O  31.15000 0.06100 33.00200
C  28.81700 0.67500 33.59000
C  28.60600 -0.54500 34.54000
O  27.86200 -1.49300 34.33100
O  29.18000 -0.31200 35.76100
C  29.14200 -1.54500 36.61900
H  22.06100 1.78000 32.43400
H  23.14700 0.97300 26.01200
H  29.30900 0.41200 27.16400
H  25.47100 0.19500 34.86300
H  23.82300 2.56700 34.09100
H  22.17100 1.54200 34.96300
H  23.37000 0.47700 35.74700
H  22.56900 0.03600 34.16900
H  26.68800 2.92600 34.60200
H  27.01600 1.70300 35.92400
H  24.42000 2.57100 36.28200
H  25.24000 3.97900 35.58100
H  20.25900 2.12800 31.60600
H  19.48500 1.03500 30.45700
H  19.30500 2.72200 30.15400
H  18.40800 1.98400 26.85300
H  19.14200 3.38500 27.81300
H  18.53400 1.79200 28.44600
H  25.56500 1.96100 24.96200
H  27.67800 -0.16700 25.46000
H  24.63100 -0.69400 24.64300
H  26.12800 -0.40200 23.67900
H  24.66800 0.70100 23.55300
H  27.95700 2.76300 25.73600
H  27.72300 2.30700 24.04200
H  30.10700 2.29100 25.41300
H  29.79900 1.84800 23.69600
H  29.65600 0.64300 25.04900
H  31.53600 0.59500 29.00400
H  30.97400 -0.82900 28.33200
H  31.60900 -0.96300 29.97100
H  29.10400 1.53300 34.19900
H  29.15700 -2.49600 36.08600
H  28.26800 -1.55800 37.27100
H  30.00600 -1.40300 37.26800
Mg 35.40300 2.69400 30.09800
C  33.05600 3.71300 32.60100
C  37.74600 2.42300 32.52100
C  37.51200 2.47800 27.69200
C  32.78500 3.21000 27.73600
N  35.39500 3.16800 32.27800
C  34.38800 3.50600 33.09800
C  34.79800 3.38900 34.60100
C  36.28000 3.16500 34.53700
C  36.51300 2.88400 32.99100
C  37.01800 4.39300 35.19900
C  34.02900 2.22300 35.36300
C  33.96400 2.29400 36.86400
H  34.66800 3.41200 37.67500
N  37.31500 2.51300 30.12600
C  38.10900 2.29800 31.20500
C  39.51900 2.02600 30.78500
C  39.47200 1.96900 29.38700
C  38.06300 2.33900 29.05300
C  40.66300 1.65900 31.79200
C  40.57600 1.72200 28.35700
O  40.58800 1.73800 27.11900
C  42.01500 1.48800 28.96400
N  35.18800 3.09700 27.94000
C  36.19000 2.66100 27.20100
C  35.78100 2.56500 25.73500
C  34.25700 2.80800 25.79200
C  34.03500 3.05700 27.23500
C  36.59000 3.67400 24.94900
C  33.39700 1.68300 25.26800
C  33.43600 0.36500 26.03900
N  33.34100 3.34400 30.10500
C  32.47400 3.47900 29.07200
C  31.18600 4.04600 29.58300
C  31.43600 4.14300 31.01000
C  32.71200 3.63600 31.26500
C  29.96900 4.33900 28.70600
C  30.80400 4.48000 32.26300
O  29.68000 4.94700 32.38500
C  31.80800 4.15100 33.34300
C  32.01400 5.39700 34.09600
O  32.48000 6.44700 33.75600
O  31.33000 5.19300 35.26800
C  31.22100 6.45900 36.06100
H  38.40300 2.01500 33.29200
H  38.24400 2.21700 26.92500
H  31.92400 3.33000 27.07600
H  34.56700 4.35700 35.04600
H  36.45800 2.26800 35.12900
H  37.40400 5.03800 34.40900
H  37.82200 4.02000 35.83200
H  36.39300 5.09500 35.75100
H  34.44500 1.27500 35.02000
H  33.04000 2.16200 34.90900
H  34.41300 1.35100 37.17400
H  32.93300 2.19800 37.20400
H  41.01700 2.62300 32.15600
H  41.44400 1.05500 31.33000
H  40.30900 1.09100 32.65200
H  42.77100 1.71300 28.21100
H  42.14500 0.49700 29.39700
H  42.16200 2.22200 29.75800
H  35.87800 1.57100 25.29700
H  33.96500 3.65700 25.17400
H  37.06300 3.32200 24.03200
H  37.41600 4.08600 25.52800
H  35.96900 4.54300 24.73100
H  33.60800 1.38000 24.24200
H  32.38600 2.08900 25.24900
H  32.42200 -0.00600 26.18400
H  33.84400 0.63900 27.01200
H  34.11100 -0.34600 25.56200
H  30.27300 5.21500 28.13400
H  29.21200 4.63100 29.43400
H  29.65000 3.54700 28.02900
H  31.26900 3.38100 33.89500
H  32.12700 6.99700 36.34200
H  30.64100 6.27000 36.96400
H  30.62000 7.13100 35.44900

