158

Mg 0.08500 7.22200 26.96700
C  0.85700 9.43100 29.45400
C  -0.05400 4.61500 29.32500
C  -0.50200 5.03700 24.50200
C  0.20200 9.87400 24.70400
N  0.65400 7.07000 29.07500
C  0.81800 8.12300 29.96600
C  0.86400 7.67500 31.44200
C  0.79800 6.10100 31.29400
C  0.36000 5.92500 29.79100
C  2.15300 5.34800 31.41500
C  -0.31000 8.12200 32.32500
C  -0.02700 8.30700 33.84200
H  -0.71100 7.49300 35.02000
N  -0.21200 5.08100 26.86300
C  -0.24300 4.19300 27.93700
C  -0.52500 2.90300 27.48700
C  -0.60500 2.94700 26.01000
C  -0.42100 4.40200 25.72600
C  -0.73800 1.79300 28.43400
C  -0.84700 1.85000 25.00300
O  -0.76200 2.00500 23.82700
C  -0.89700 0.50500 25.55800
N  0.11100 7.40500 24.88800
C  -0.29100 6.34700 24.07500
C  -0.59400 6.81800 22.61900
C  -0.55900 8.32500 22.75600
C  -0.04200 8.58400 24.16500
C  0.45500 6.30000 21.66600
C  -1.89600 9.11000 22.49000
C  -1.73200 10.11400 21.39200
N  0.57600 9.20300 27.02300
C  0.65500 10.18600 25.98700
C  0.96300 11.40400 26.53100
C  1.10000 11.15300 27.87400
C  0.86300 9.83100 28.10400
C  1.15700 12.67500 25.74000
C  1.38600 11.74900 29.18800
O  1.67700 12.92600 29.48800
C  1.04500 10.73900 30.22400
C  2.22400 10.60100 31.08800
O  3.37500 10.28600 30.72900
O  1.93900 11.01800 32.34100
C  2.95300 11.28200 33.37100
H  -0.05800 3.92400 30.17000
H  -0.76500 4.40200 23.65400
H  -0.06000 10.66100 23.99300
H  1.81700 7.76700 31.96400
H  0.10400 5.57100 31.94700
H  2.09700 4.98300 32.44000
H  2.96000 6.01600 31.11300
H  2.17400 4.54800 30.67500
H  -1.07900 7.34900 32.30100
H  -0.80800 8.99300 31.90000
H  -0.03700 9.38900 33.97600
H  1.01300 8.07900 34.07500
H  -1.78100 1.53800 28.62000
H  -0.12000 1.93700 29.32100
H  -0.19900 0.98000 27.94600
H  -1.87000 0.22200 25.96100
H  0.01500 0.41700 26.14900
H  -0.72700 -0.13200 24.69000
H  -1.56900 6.54300 22.21800
H  0.27300 8.55200 22.09000
H  0.75100 7.05600 20.94000
H  0.03100 5.43200 21.16100
H  1.28000 6.12900 22.35800
H  -2.29600 9.57600 23.39000
H  -2.74100 8.48800 22.19700
H  -2.66000 10.10000 20.82100
H  -0.90400 9.83200 20.74100
H  -1.46200 11.10600 21.75300
H  1.94800 12.49000 25.01300
H  1.52700 13.42600 26.43800
H  0.24700 12.88500 25.17700
H  0.17900 11.04600 30.81200
H  3.76200 12.00100 33.24100
H  3.29200 10.28000 33.63400
H  2.50100 11.74500 34.24800
Mg 36.50200 48.58100 24.78200
C  36.70400 46.63500 27.76100
C  34.93200 51.11600 26.55000
C  35.61500 49.96000 21.88300
C  37.33600 45.56900 22.97500
N  35.92900 48.80300 26.92800
C  36.19400 47.96700 27.96700
C  35.66500 48.61800 29.21000
C  35.23200 50.06500 28.87700
C  35.36100 50.01100 27.35800
C  33.78300 50.48000 29.32400
C  36.49200 48.40900 30.47600
C  36.37700 49.43700 31.69300
H  35.15400 49.36700 32.61100
N  35.67300 50.37700 24.31600
C  35.02800 51.25700 25.15500
C  34.49200 52.41300 24.39200
C  34.81800 52.06400 23.05300
C  35.38100 50.76100 23.05800
C  33.87200 53.59200 25.11300
C  34.56200 52.84100 21.79200
O  34.84000 52.42700 20.67000
C  33.89700 54.20600 21.78400
N  36.40000 47.89400 22.80800
C  36.14400 48.71700 21.76800
C  36.52000 48.11500 20.39200
C  37.48700 46.99900 20.88700
C  37.06600 46.79300 22.30800
C  35.31000 47.65700 19.59900
C  38.98700 47.34600 20.67000
C  39.58100 47.08100 19.30600
N  36.95800 46.51800 25.26600
C  37.21900 45.43400 24.39900
C  37.53900 44.28600 25.19400
C  37.36000 44.68800 26.48100
C  37.03500 46.09000 26.52400
C  37.79700 42.96100 24.63000
C  37.27600 44.14400 27.82500
O  37.42900 43.02900 28.27000
C  36.82700 45.43600 28.70700
C  35.45700 45.05400 29.26700
O  34.40400 45.19300 28.67800
O  35.61300 44.52800 30.50600
C  34.36200 44.35700 31.28900
H  34.40700 51.89900 27.10100
H  35.42700 50.38400 20.89400
H  37.86000 44.85200 22.34000
H  34.75600 48.07400 29.46700
H  35.99400 50.80200 29.12900
H  33.97300 51.44500 29.79300
H  33.47100 49.77500 30.09500
H  33.05100 50.46600 28.51700
H  37.53800 48.11700 30.38500
H  36.09500 47.53400 30.98900
H  36.49600 50.43500 31.27100
H  37.26300 49.29900 32.31400
H  33.14600 54.12100 24.49700
H  34.62300 54.36000 25.29600
H  33.42200 53.18600 26.01900
H  34.46000 54.86800 22.44200
H  32.89500 53.92000 22.10400
H  33.84800 54.69200 20.81000
H  37.03400 48.91100 19.85300
H  37.11400 46.13600 20.33600
H  34.43200 47.57000 20.23900
H  35.57000 46.73100 19.08600
H  35.08600 48.31600 18.76000
H  39.69500 46.94600 21.39600
H  39.02400 48.41200 20.89700
H  38.77100 46.81400 18.62700
H  40.38300 46.35600 19.43900
H  40.08200 47.89200 18.77700
H  38.60900 42.95700 23.90400
H  36.97800 42.49500 24.08200
H  38.09000 42.35000 25.48500
H  37.49000 45.68100 29.53700
H  34.48600 43.72100 32.16600
H  33.57700 43.83000 30.74600
H  33.97700 45.34100 31.55500

