158

Mg 53.35000 23.99500 45.50700
C  50.56700 26.21900 44.65600
C  51.24900 21.30200 44.78100
C  55.99200 22.05200 45.65100
C  55.28100 26.86400 45.92500
N  51.29000 23.85500 44.59900
C  50.28500 24.86000 44.51900
C  48.85900 24.21400 44.43200
C  49.11900 22.76900 44.87600
C  50.65800 22.59900 44.72100
C  48.73700 22.55200 46.41700
C  48.16400 24.40800 43.07400
C  49.02700 24.28900 41.79900
H  48.33500 23.62900 40.49000
N  53.55100 21.90500 45.28700
C  52.62500 21.00200 44.90400
C  53.29400 19.69500 44.85700
C  54.69000 19.89100 44.86300
C  54.81400 21.33400 45.29200
C  52.53600 18.42700 44.52800
C  55.74300 18.81200 44.61900
O  55.49800 17.80800 43.94500
C  57.19600 18.98200 44.98600
N  55.37300 24.44900 45.55100
C  56.26700 23.40200 45.76800
C  57.74200 24.04300 45.91600
C  57.48800 25.61000 45.96500
C  55.99500 25.70800 45.79800
C  58.70800 23.40400 46.91500
C  58.31500 26.43600 44.94900
C  57.51300 26.92900 43.74500
N  53.06000 26.06800 45.37400
C  53.91200 27.10800 45.60400
C  53.31900 28.43600 45.40900
C  51.92100 28.07000 45.11800
C  51.86400 26.65800 44.95800
C  53.99700 29.77100 45.62800
C  50.62800 28.62800 44.94600
O  50.26800 29.80500 44.86300
C  49.76600 27.50600 44.62200
C  49.25900 27.85800 43.28600
O  49.94600 27.83400 42.23700
O  47.93300 28.17900 43.33100
C  47.37200 28.81000 42.17300
H  50.66000 20.38300 44.74600
H  56.89900 21.44600 45.72000
H  55.90300 27.70300 46.24400
H  48.15300 24.73300 45.08000
H  48.56900 22.10600 44.20800
H  48.20300 23.39500 46.85500
H  49.60900 22.46900 47.06500
H  48.20600 21.60100 46.45100
H  47.67600 25.37800 42.97500
H  47.31800 23.72700 42.98900
H  49.89400 23.67200 42.03800
H  49.41700 25.27500 41.54700
H  53.07000 17.51700 44.80000
H  52.27000 18.18900 43.49900
H  51.65400 18.31100 45.15800
H  57.89600 18.16900 44.79000
H  57.11300 19.32800 46.01600
H  57.55600 19.79800 44.36000
H  58.20200 23.82100 44.95300
H  57.74600 25.89700 46.98400
H  59.13200 24.16600 47.56900
H  59.50700 22.97100 46.31400
H  58.27200 22.56700 47.46000
H  59.20100 25.93500 44.55600
H  58.55400 27.35600 45.48200
H  58.23300 26.96700 42.92700
H  57.07800 27.92800 43.77300
H  56.75800 26.19900 43.45400
H  54.22600 29.96700 46.67500
H  53.43700 30.65300 45.31600
H  54.89400 29.69800 45.01200
H  49.00100 27.35300 45.38400
H  46.43900 29.28100 42.48400
H  47.14700 28.10700 41.37200
H  48.00100 29.63300 41.83400
Mg 29.21900 58.71700 41.57100
C  26.26200 57.07600 40.84600
C  30.88200 56.07700 39.96800
C  31.79000 60.69800 41.36200
C  27.15300 61.48700 42.61500
N  28.63000 56.79600 40.58000
C  27.39500 56.40300 40.30600
C  27.30700 55.15600 39.53900
C  28.79400 54.67500 39.57600
C  29.51200 55.91600 40.04300
C  28.99800 53.53100 40.60500
C  26.73700 55.43300 38.03400
C  26.28300 54.25100 37.21500
H  25.73000 54.60800 35.79500
N  31.15100 58.37100 40.97400
C  31.68200 57.23000 40.34000
C  33.07400 57.38600 40.13600
C  33.33300 58.74700 40.35000
C  32.04100 59.41500 40.91200
C  34.02500 56.31900 39.68100
C  34.59700 59.45600 40.06600
O  35.57400 58.82100 39.66200
C  34.76200 60.91600 40.07900
N  29.40700 60.89500 41.85800
C  30.65300 61.40200 41.86500
C  30.61300 62.84100 42.35100
C  29.18700 63.06900 42.87600
C  28.47400 61.77500 42.32500
C  31.68800 63.33600 43.28400
C  28.56500 64.47600 42.42600
C  28.07600 65.45900 43.54500
N  27.07500 59.19000 41.84600
C  26.43100 60.30900 42.32300
C  25.01900 60.06800 42.36500
C  24.89300 58.84200 41.75400
C  26.19300 58.36900 41.51800
C  23.97700 60.91700 42.99500
C  23.95700 57.77000 41.45600
O  22.71800 57.75500 41.47500
C  24.83500 56.60600 40.76900
C  24.54100 55.39700 41.52600
O  24.57600 55.27900 42.72600
O  23.94100 54.38100 40.76500
C  23.55100 53.12600 41.54800
H  31.34600 55.21100 39.49200
H  32.65400 61.35800 41.26000
H  26.62400 62.28000 43.14900
H  26.64300 54.42400 39.99900
H  29.13600 54.32400 38.60300
H  28.22300 53.71200 41.35000
H  29.98000 53.66900 41.05700
H  29.09100 52.51500 40.22100
H  27.57700 55.83000 37.46400
H  25.97200 56.20900 38.06600
H  25.43900 53.87100 37.79000
H  27.06800 53.49800 37.15100
H  33.39100 55.43200 39.68100
H  34.68800 56.18800 40.53600
H  34.45400 56.46900 38.69000
H  34.04700 61.39300 39.40800
H  35.70800 61.34400 39.74600
H  34.73700 61.32900 41.08800
H  30.81700 63.47000 41.48500
H  29.22600 63.09400 43.96500
H  32.56300 62.68700 43.31500
H  31.43600 63.33200 44.34400
H  32.02400 64.32000 42.95500
H  27.77000 64.37800 41.68700
H  29.33400 64.96300 41.82700
H  27.01400 65.65600 43.39400
H  28.62100 66.40200 43.54100
H  28.17000 64.93800 44.49800
H  24.13300 61.99300 42.92100
H  23.98100 60.82300 44.08100
H  23.03900 60.57500 42.55900
H  24.55700 56.49600 39.72100
H  24.08700 53.01400 42.49100
H  23.71900 52.26800 40.89700
H  22.48400 53.27600 41.70900

