158

Mg 53.21800 23.27500 44.47500
C  50.51500 25.54300 43.72700
C  50.96200 20.77000 43.49500
C  55.79600 21.23700 44.54900
C  55.22200 25.94200 45.28000
N  51.19200 23.15500 43.37800
C  50.36900 24.26900 43.14100
C  49.12300 23.83500 42.29300
C  48.99500 22.33300 42.75700
C  50.42900 22.09500 43.29700
C  47.79700 22.11600 43.81300
C  49.45100 24.06800 40.82900
C  48.30300 24.66300 39.99900
H  47.82900 23.86900 38.79100
N  53.35200 21.26900 44.16500
C  52.29600 20.40900 43.82500
C  52.87200 19.02100 43.99400
C  54.25100 19.17900 44.24100
C  54.49100 20.61500 44.35600
C  51.94500 17.81400 43.93300
C  55.22100 18.01000 44.47800
O  54.79900 16.84000 44.39700
C  56.74000 18.14900 44.72400
N  55.34700 23.59200 44.42600
C  56.18100 22.53400 44.64000
C  57.61000 23.02300 44.84500
C  57.42300 24.52100 45.19000
C  55.91000 24.73400 44.92900
C  58.48700 22.21500 45.84800
C  58.43000 25.51100 44.57000
C  59.84900 25.64300 45.20900
N  52.97500 25.34500 44.48900
C  53.84100 26.25300 45.01900
C  53.09700 27.45200 45.23000
C  51.73600 27.27400 44.73600
C  51.76500 25.95600 44.23800
C  53.66200 28.69400 45.91400
C  50.44600 27.83300 44.44000
O  49.90500 28.91800 44.61900
C  49.54300 26.72200 43.78900
C  49.16600 27.21400 42.50900
O  49.91500 27.33900 41.49300
O  47.84700 27.52200 42.56500
C  47.38100 28.36500 41.52400
H  50.28500 19.92500 43.35100
H  56.71000 20.64500 44.46600
H  55.89700 26.72400 45.63300
H  48.24100 24.38200 42.62700
H  48.76500 21.77100 41.85200
H  47.41800 23.06200 44.19800
H  48.15600 21.50400 44.64000
H  46.94200 21.69400 43.28400
H  49.85500 23.19300 40.31800
H  50.33400 24.70300 40.76300
H  48.72200 25.58900 39.60600
H  47.50600 24.90700 40.70100
H  51.66800 17.44500 42.94500
H  51.00900 18.11600 44.40400
H  52.23600 16.99600 44.59100
H  57.16500 18.63600 43.84700
H  57.14900 17.15200 44.88700
H  56.85400 18.76700 45.61500
H  58.01700 22.91300 43.84100
H  57.53600 24.60800 46.27100
H  57.81200 21.78900 46.59000
H  59.22700 22.88700 46.28300
H  59.04000 21.45700 45.29300
H  58.02100 26.52100 44.53600
H  58.55600 25.27300 43.51400
H  60.61900 25.50900 44.44900
H  59.93300 24.95000 46.04600
H  60.06200 26.61400 45.65600
H  53.09000 28.94200 46.80800
H  53.62800 29.54100 45.22900
H  54.66900 28.45600 46.25800
H  48.65300 26.50800 44.38200
H  47.21200 27.73300 40.65300
H  48.04900 29.18300 41.25300
H  46.44200 28.79700 41.87000
Mg 47.66700 15.45200 28.37200
C  45.51300 15.45300 31.10500
C  49.69200 17.58500 30.04300
C  49.53500 15.54000 25.64500
C  45.16900 13.62400 26.55700
N  47.51400 16.43200 30.24100
C  46.63800 16.16000 31.29900
C  47.21000 16.60100 32.67200
C  48.27100 17.65400 32.16200
C  48.51800 17.19900 30.71200
C  47.83800 19.21300 32.15100
C  47.73900 15.46000 33.55900
C  47.53800 15.71200 35.01300
H  48.72800 15.45600 35.97300
N  49.34300 16.46100 27.92200
C  50.03100 17.25900 28.76200
C  51.29600 17.68300 28.05600
C  51.19500 17.05800 26.73900
C  49.96900 16.30600 26.70500
C  52.40100 18.48700 28.77600
C  52.24500 17.16100 25.61400
O  52.27700 16.51700 24.60400
C  53.37500 18.22300 25.57500
N  47.36100 14.69600 26.39300
C  48.39100 14.75700 25.51300
C  48.03100 13.98800 24.20900
C  46.72200 13.25200 24.56900
C  46.35700 13.90500 25.92200
C  47.96100 14.90000 22.90200
C  46.82700 11.70000 24.54300
C  47.09400 11.09300 23.14100
N  45.74700 14.71000 28.72800
C  44.88400 14.03100 27.87800
C  43.68000 13.73200 28.62800
C  43.93400 14.20000 29.91600
C  45.18600 14.77500 29.93900
C  42.51800 12.86100 28.25500
C  43.37000 14.19300 31.24900
O  42.30600 13.74600 31.65100
C  44.51900 15.00800 32.12200
C  43.73200 16.15200 32.63600
O  43.07200 16.93600 31.94700
O  43.89000 16.14700 34.04500
C  42.91400 16.89100 34.76400
H  50.47300 18.11200 30.59600
H  50.28400 15.46700 24.85300
H  44.40500 13.05100 26.02800
H  46.39900 17.08100 33.22000
H  49.22900 17.60400 32.68100
H  48.73700 19.71100 32.51400
H  46.93000 19.28800 32.74900
H  47.46800 19.54300 31.18000
H  48.82900 15.48800 33.54900
H  47.38300 14.44100 33.40600
H  46.82400 15.06000 35.51600
H  47.32400 16.76700 35.18400
H  53.33400 18.42900 28.21500
H  52.54900 18.25200 29.83000
H  52.00100 19.50000 28.81800
H  54.12100 17.95300 26.32200
H  52.80200 19.13600 25.73600
H  53.96300 18.15000 24.65900
H  48.73000 13.18300 23.97800
H  45.96900 13.54700 23.83800
H  48.22200 14.31100 22.02300
H  48.71000 15.68900 22.97700
H  46.93300 15.25000 22.81400
H  45.81500 11.41100 24.82500
H  47.59500 11.27400 25.18800
H  47.61600 11.82600 22.52600
H  46.24100 10.72100 22.57400
H  47.75300 10.27900 23.44200
H  42.68600 11.78800 28.34300
H  42.14500 13.15200 27.27300
H  41.75200 13.14100 28.97900
H  44.95600 14.40800 32.92100
H  43.29800 17.07900 35.76600
H  42.09100 16.18900 34.89400
H  42.65600 17.87700 34.37900

