158

Mg 54.08400 24.52700 44.10200
C  51.05800 26.10600 43.40700
C  52.86400 21.56100 42.78100
C  57.30300 23.20100 43.99600
C  55.37300 27.60400 44.99000
N  52.30900 24.01100 43.05500
C  51.16600 24.76800 42.90700
C  50.08200 23.97200 42.08200
C  50.56500 22.51100 42.35300
C  51.99000 22.69900 42.80200
C  49.79800 21.69900 43.49500
C  49.86400 24.50900 40.62600
C  48.43900 24.55700 40.06400
H  48.03900 23.71900 38.79800
N  54.97300 22.62600 43.50800
C  54.24800 21.52800 43.15800
C  55.11900 20.42000 43.08200
C  56.41200 20.85000 43.46300
C  56.27700 22.30100 43.67100
C  54.66700 19.08900 42.58200
C  57.59400 19.90700 43.49300
O  57.40900 18.66900 43.23800
C  58.98700 20.38400 43.82200
N  56.09000 25.30100 44.40600
C  57.25400 24.59200 44.29300
C  58.43000 25.33700 44.72500
C  57.81800 26.79500 44.94100
C  56.31400 26.54400 44.81600
C  59.05000 24.81400 46.00400
C  58.43600 27.77300 43.94200
C  59.41100 28.74700 44.53900
N  53.40500 26.40300 44.30500
C  54.01200 27.52000 44.76000
C  53.06600 28.58200 44.90700
C  51.86200 28.03900 44.45000
C  52.13500 26.70500 44.01300
C  53.29200 29.87200 45.57100
C  50.42700 28.29800 44.23400
O  49.62300 29.23600 44.45900
C  49.91000 27.10500 43.53400
C  49.55600 27.60800 42.13900
O  50.32800 28.04800 41.29700
O  48.14800 27.80300 42.07200
C  47.77900 28.54600 40.81700
H  52.46400 20.60800 42.43100
H  58.27000 22.78800 44.29200
H  55.75900 28.56100 45.34800
H  49.19200 24.13300 42.69100
H  50.56800 21.98200 41.40000
H  48.96100 22.27400 43.89200
H  50.35200 21.35700 44.36900
H  49.51700 20.75500 43.02900
H  50.34000 23.82800 39.92100
H  50.31600 25.49100 40.48600
H  48.18400 25.59800 39.86400
H  47.65200 24.26400 40.75800
H  53.68500 19.05100 42.10900
H  54.65000 18.41300 43.43600
H  55.38400 18.71200 41.85300
H  59.29600 21.21500 43.18700
H  59.59400 19.48500 43.71700
H  58.95200 20.70200 44.86400
H  59.23300 25.38400 43.99000
H  57.95600 27.15600 45.96000
H  59.87200 25.43200 46.36400
H  59.53200 23.87200 45.74300
H  58.35900 24.67700 46.83600
H  57.61500 28.23800 43.39700
H  58.97400 27.38600 43.07600
H  60.41100 28.32000 44.61100
H  59.05300 28.92900 45.55200
H  59.34900 29.73900 44.09200
H  53.22500 29.55900 46.61300
H  52.37400 30.44000 45.41700
H  54.24500 30.30400 45.26800
H  49.14700 26.58300 44.11300
H  46.71100 28.39100 40.66300
H  48.29000 28.16100 39.93500
H  47.98700 29.59900 41.00600
Mg -5.68100 25.14900 25.95800
C  -4.11400 26.89400 28.61200
C  -6.78500 22.75800 28.04300
C  -6.98500 23.76000 23.28800
C  -3.96800 27.53700 23.77900
N  -5.51100 24.84700 28.10200
C  -4.85400 25.71900 28.95600
C  -5.30400 25.32600 30.44300
C  -5.80700 23.84100 30.24300
C  -6.07400 23.80400 28.70000
C  -4.89400 22.77400 30.74100
C  -6.36700 26.28400 31.05100
C  -6.61400 26.26800 32.50200
H  -6.07400 25.12700 33.30200
N  -6.91500 23.62000 25.71900
C  -7.25600 22.70200 26.74700
C  -8.09600 21.68400 26.13900
C  -8.18300 22.00100 24.74400
C  -7.33300 23.20300 24.52600
C  -8.79200 20.56100 26.90600
C  -8.93400 21.21100 23.69500
O  -9.04000 21.59300 22.56300
C  -9.59900 19.87200 24.08800
N  -5.54800 25.66000 23.83300
C  -6.07600 24.77200 22.98000
C  -5.79900 25.22800 21.57900
C  -4.87400 26.48900 21.69700
C  -4.79800 26.56500 23.20400
C  -5.17600 24.11900 20.61800
C  -5.45600 27.83300 21.01000
C  -4.73900 28.54100 19.84600
N  -4.18800 26.77200 26.16700
C  -3.65600 27.65100 25.19900
C  -2.75400 28.58400 25.84100
C  -2.85800 28.32600 27.21400
C  -3.84100 27.25200 27.31200
C  -1.96600 29.71800 25.12400
C  -2.41400 28.72700 28.55100
O  -1.56800 29.59700 28.79800
C  -3.31600 27.87500 29.46000
C  -2.43700 27.33300 30.54600
O  -1.49800 26.55400 30.43200
O  -2.85600 27.79500 31.80700
C  -2.24400 27.26400 33.06200
H  -7.13200 21.98300 28.73000
H  -7.29200 23.34200 22.32700
H  -3.43800 28.15500 23.05200
H  -4.47700 25.41500 31.14700
H  -6.74200 23.73000 30.79300
H  -3.89100 23.09700 30.46200
H  -5.11200 21.82800 30.24600
H  -4.92400 22.62900 31.82100
H  -7.32300 25.93900 30.65800
H  -6.24900 27.34600 30.83700
H  -7.67600 26.29100 32.74700
H  -6.17200 27.17800 32.90900
H  -8.71300 19.58600 26.42500
H  -9.86300 20.76500 26.91900
H  -8.56600 20.41200 27.96200
H  -10.40300 20.05000 24.80300
H  -8.85100 19.17700 24.46900
H  -10.08600 19.32800 23.27800
H  -6.73600 25.61000 21.17400
H  -3.86200 26.27800 21.35100
H  -4.11800 24.31300 20.44100
H  -5.62100 24.11300 19.62300
H  -5.20700 23.09500 20.99000
H  -5.43500 28.53600 21.84200
H  -6.51600 27.80700 20.75800
H  -3.96200 27.94700 19.36400
H  -4.26800 29.43200 20.26000
H  -5.46300 29.01400 19.18300
H  -1.11300 29.78500 25.79800
H  -2.59500 30.60800 25.10900
H  -1.65100 29.40200 24.12900
H  -4.02200 28.45800 30.05100
H  -3.06400 27.28700 33.78000
H  -1.38100 27.81500 33.43400
H  -1.91200 26.23000 32.97200

