158

Mg 24.22100 -7.14500 47.95100
C  26.59800 -5.06800 46.74700
C  22.14400 -5.98100 45.32400
C  21.91700 -9.44600 48.88900
C  26.53300 -8.59700 50.12100
N  24.33900 -5.53000 46.40500
C  25.40700 -4.80400 46.06100
C  25.22900 -3.86900 44.81200
C  23.64800 -3.92900 44.74400
C  23.36200 -5.26200 45.48900
C  22.89000 -2.71300 45.38000
C  25.88300 -4.34000 43.57500
C  26.65500 -3.20000 42.81500
H  26.02600 -2.82300 41.43500
N  22.36300 -7.57900 47.22600
C  21.67100 -7.02300 46.14000
C  20.47000 -7.81000 45.92500
C  20.35400 -8.74900 46.95800
C  21.51400 -8.53700 47.79200
C  19.51800 -7.57300 44.77900
C  19.07600 -9.67300 47.12900
O  18.23200 -9.76000 46.22700
C  18.82600 -10.44100 48.42900
N  24.22900 -8.82300 49.31400
C  23.13100 -9.60000 49.54500
C  23.54500 -10.75300 50.51700
C  24.83900 -10.20300 51.20200
C  25.22000 -9.12400 50.14400
C  22.42600 -11.19800 51.53700
C  25.95100 -11.28800 51.33300
C  26.50900 -11.87900 50.10100
N  26.18400 -7.00000 48.35500
C  27.03000 -7.57900 49.29000
C  28.34700 -7.02900 49.18300
C  28.20400 -5.99100 48.15200
C  26.89600 -6.01300 47.72900
C  29.50700 -7.24600 50.12200
C  28.86100 -4.93400 47.45200
O  30.03800 -4.65600 47.44100
C  27.90400 -4.41100 46.44600
C  27.92400 -2.92500 46.59000
O  27.23400 -2.27300 47.37000
O  28.79900 -2.45900 45.65900
C  28.83000 -1.01200 45.52900
H  21.53000 -5.53800 44.53800
H  21.20500 -10.23300 49.14800
H  27.33500 -8.85200 50.81800
H  25.42800 -2.82100 45.03500
H  23.23500 -4.09700 43.74900
H  22.09500 -3.10200 46.01600
H  22.39500 -2.12300 44.60800
H  23.54100 -2.05300 45.95400
H  25.08800 -4.82300 43.00600
H  26.60800 -5.12100 43.79900
H  27.65900 -3.57700 42.61700
H  26.78400 -2.42000 43.56500
H  19.31900 -8.50300 44.24600
H  19.94400 -6.86600 44.06800
H  18.58000 -7.23100 45.21600
H  17.75300 -10.61800 48.36000
H  18.86600 -9.77800 49.29300
H  19.31000 -11.39900 48.61600
H  23.75900 -11.59100 49.85400
H  24.59700 -9.86100 52.20800
H  21.54700 -10.63400 51.22700
H  22.73300 -10.96400 52.55600
H  22.23200 -12.25500 51.35500
H  25.36500 -12.03100 51.87400
H  26.66300 -10.99600 52.10400
H  26.15600 -11.36200 49.20800
H  26.35600 -12.94700 49.94900
H  27.59800 -11.88700 50.13600
H  29.11500 -6.92400 51.08700
H  30.27000 -6.62800 49.64900
H  29.64900 -8.32500 50.06500
H  28.23100 -4.62900 45.43000
H  29.62600 -0.60900 46.15500
H  27.94500 -0.54600 45.96300
H  28.94700 -0.73500 44.48200
Mg 40.93300 8.66700 28.79700
C  42.62800 10.13500 31.45600
C  38.79200 7.24500 31.15500
C  39.23200 6.96000 26.18900
C  43.38200 9.67000 26.67000
N  40.82600 8.66000 31.02100
C  41.47200 9.43500 31.85600
C  40.98600 9.45800 33.29000
C  39.73700 8.55100 33.18300
C  39.75400 8.08700 31.71000
C  39.77600 7.30200 34.17700
C  40.84500 10.92900 33.94600
C  39.81700 11.04800 35.05700
H  40.38900 11.14200 36.50100
N  39.21400 7.34800 28.66900
C  38.45900 6.89000 29.77900
C  37.36500 6.19000 29.31200
C  37.45100 6.14700 27.91600
C  38.67700 6.82200 27.50900
C  36.32300 5.57700 30.20000
C  36.48300 5.45200 26.92800
O  36.71800 5.48000 25.72500
C  35.22400 4.66400 27.39800
N  41.33500 8.13300 26.70400
C  40.48000 7.57100 25.83100
C  40.81400 7.96600 24.42600
C  42.08300 8.90200 24.60600
C  42.28000 8.92500 26.10800
C  40.93400 6.76700 23.48300
C  41.97700 10.28600 23.90700
C  41.45900 11.57500 24.62800
N  42.66700 9.68800 28.94800
C  43.60200 9.98400 28.00800
C  44.75500 10.66600 28.62700
C  44.31000 10.89100 29.92100
C  43.12900 10.17500 30.15000
C  45.91100 11.18300 27.87800
C  44.65800 11.53600 31.19500
O  45.60000 12.16300 31.57800
C  43.61600 11.03300 32.26600
C  44.20500 10.24800 33.35100
O  44.53600 9.06400 33.30100
O  44.40500 10.99200 34.47300
C  44.90600 10.39400 35.67200
H  38.05700 6.95400 31.90800
H  38.71100 6.50000 25.34700
H  44.07600 10.22300 26.03300
H  41.77900 8.95100 33.83900
H  38.82500 9.14600 33.23000
H  40.64700 7.43400 34.82000
H  39.87600 6.40900 33.55900
H  38.92300 7.31100 34.85600
H  40.58400 11.71300 33.23500
H  41.81600 11.29000 34.28500
H  39.35600 10.06000 35.09000
H  39.22800 11.90400 34.72700
H  36.57600 5.68500 31.25400
H  36.38600 4.49900 30.05000
H  35.34900 6.01800 29.98700
H  35.57200 3.77700 27.92700
H  34.62800 4.37600 26.53200
H  34.62100 5.38800 27.94600
H  40.09400 8.63500 23.95700
H  42.87900 8.24700 24.25400
H  41.28600 5.86600 23.98400
H  41.73600 7.18500 22.87500
H  39.97300 6.69900 22.97200
H  41.29500 10.08400 23.08100
H  42.93100 10.59200 23.47800
H  41.19600 11.50600 25.68300
H  40.55100 11.95400 24.15800
H  42.16900 12.38200 24.44700
H  46.86600 11.02000 28.37800
H  45.83000 12.23800 27.61800
H  46.02800 10.59100 26.97100
H  43.03900 11.86500 32.66900
H  45.34700 9.41200 35.50500
H  44.05300 10.30200 36.34400
H  45.58300 11.05800 36.21000

