158

Mg 42.07900 40.71300 26.39100
C  41.57600 43.26900 28.80900
C  42.98300 38.61600 28.80500
C  42.71400 38.51300 23.92900
C  41.48500 43.20900 23.81700
N  42.49100 41.03200 28.60800
C  41.99300 42.03600 29.35900
C  42.11000 41.69600 30.86200
C  42.90300 40.34900 30.79000
C  42.75700 39.91800 29.29700
C  44.41000 40.55600 31.27600
C  40.66400 41.43500 31.59500
C  40.60800 42.14000 32.92300
H  39.87200 41.38500 34.02900
N  42.79000 38.76000 26.42100
C  43.12100 37.99700 27.46500
C  43.36900 36.63400 27.04700
C  43.23600 36.63200 25.61900
C  42.91300 38.02100 25.24800
C  43.66100 35.46500 28.03200
C  43.40500 35.44500 24.73100
O  43.16700 35.48500 23.56000
C  43.78100 34.11400 25.23300
N  42.20500 40.82000 24.17100
C  42.39400 39.76100 23.37500
C  42.28200 40.03200 21.89000
C  41.97700 41.55400 21.89200
C  41.79900 41.88800 23.34700
C  43.46500 39.49300 20.99200
C  40.75100 41.89700 20.94500
C  40.78500 41.52400 19.38400
N  41.49300 42.73500 26.26300
C  41.32100 43.56200 25.17400
C  40.97800 44.91600 25.63300
C  40.95200 44.78400 27.08500
C  41.36800 43.47700 27.39800
C  40.52300 46.12600 24.81000
C  40.77400 45.49100 28.37000
O  40.42900 46.70300 28.63500
C  41.01900 44.44000 29.54300
C  41.98100 45.12300 30.45900
O  43.16300 45.23400 30.25400
O  41.35400 45.77700 31.50300
C  42.20100 46.31500 32.55700
H  43.13100 37.97400 29.67700
H  42.91100 37.89100 23.05400
H  41.23000 43.94300 23.05000
H  42.63900 42.49500 31.38100
H  42.55800 39.55600 31.45400
H  44.64900 41.61700 31.35200
H  45.07400 40.03100 30.58800
H  44.49900 40.15500 32.28500
H  40.64700 40.35700 31.75000
H  39.87100 41.81400 30.95100
H  40.16300 43.13400 32.88900
H  41.62900 42.23600 33.29300
H  43.01100 34.62800 27.77700
H  43.67500 35.71700 29.09200
H  44.66000 35.12300 27.75900
H  43.92300 33.46800 24.36700
H  43.01900 33.60200 25.82100
H  44.74600 34.23100 25.72500
H  41.38900 39.50000 21.56300
H  42.92600 41.97100 21.55400
H  44.17700 39.08800 21.71100
H  43.95600 40.31500 20.47200
H  43.11300 38.69900 20.33400
H  40.59700 42.97600 20.91000
H  39.82700 41.45500 21.31900
H  40.24400 40.59900 19.18600
H  41.80600 41.49900 19.00200
H  40.30100 42.32600 18.82600
H  40.74400 46.95500 25.48100
H  39.46500 46.00800 24.57400
H  41.10000 46.11500 23.88500
H  40.08300 44.29200 30.08200
H  42.87700 47.00700 32.05400
H  42.68400 45.48100 33.06500
H  41.66700 47.01000 33.20400
Mg -12.70900 16.14300 42.71800
C  -9.58200 14.53000 42.35900
C  -11.31500 18.76100 41.00300
C  -15.79800 17.38800 42.26700
C  -13.95700 13.15500 43.95200
N  -10.64000 16.53500 41.73500
C  -9.53400 15.79400 41.81300
C  -8.37500 16.44700 41.09500
C  -8.92800 17.90500 40.94000
C  -10.39100 17.75100 41.20900
C  -8.29200 18.98100 41.85100
C  -8.05400 15.73500 39.72300
C  -6.53200 15.44300 39.45900
H  -5.93500 16.34300 38.30800
N  -13.47500 17.90500 41.80500
C  -12.72300 18.83400 41.16200
C  -13.55500 19.90100 40.70700
C  -14.89500 19.52400 40.95800
C  -14.77300 18.21300 41.69500
C  -12.95600 21.09300 39.91200
C  -16.06400 20.36900 40.65600
O  -15.84000 21.46500 40.10200
C  -17.49300 19.99700 41.08800
N  -14.56700 15.38500 43.16200
C  -15.75600 16.09800 42.94000
C  -16.96900 15.31500 43.48900
C  -16.42500 13.91600 43.90100
C  -14.91300 14.09300 43.58300
C  -17.69800 16.23300 44.56600
C  -17.04000 12.69400 43.11700
C  -17.49000 11.38700 43.89000
N  -11.92700 14.22000 43.19200
C  -12.57000 13.08300 43.64600
C  -11.64900 11.94100 43.70400
C  -10.46500 12.51800 43.30300
C  -10.68000 13.91300 42.95100
C  -11.99300 10.52600 44.14000
C  -9.09200 12.18800 43.00800
O  -8.54800 11.11500 43.13000
C  -8.50800 13.48900 42.32700
C  -7.34300 13.89700 43.16100
O  -7.33300 13.84100 44.38100
O  -6.19700 14.25300 42.36600
C  -5.00300 14.45900 43.18200
H  -10.77300 19.58500 40.53300
H  -16.80800 17.76500 42.09100
H  -14.40400 12.24600 44.36100
H  -7.46300 16.45100 41.69200
H  -8.83800 18.24100 39.90700
H  -7.65000 18.58200 42.63600
H  -8.98500 19.63300 42.38100
H  -7.86400 19.75100 41.20900
H  -8.39100 16.34600 38.88600
H  -8.62900 14.81400 39.62800
H  -6.39500 14.38200 39.24700
H  -5.91900 15.63700 40.33900
H  -13.18600 21.15400 38.84800
H  -11.88500 21.28100 39.84000
H  -13.29700 21.91500 40.54100
H  -17.80300 19.14100 40.48800
H  -18.22500 20.75900 40.81700
H  -17.54800 19.73100 42.14400
H  -17.56200 15.16900 42.58700
H  -16.81700 13.82900 44.91400
H  -17.83500 15.66500 45.48600
H  -18.73500 16.45000 44.30900
H  -17.27500 17.21400 44.78000
H  -16.55200 12.34300 42.20700
H  -18.00700 13.05800 42.77000
H  -16.81500 10.60200 43.55100
H  -18.46300 10.96900 43.63000
H  -17.36000 11.47900 44.96800
H  -12.52800 10.41900 45.08300
H  -11.13800 9.85000 44.11100
H  -12.59400 10.06400 43.35700
H  -8.10800 13.11700 41.38400
H  -5.23300 15.35600 43.75800
H  -4.18300 14.62300 42.48200
H  -4.78200 13.75800 43.98800

