158

Mg -2.14300 17.19200 27.55400
C  -2.22900 15.15000 30.26500
C  -2.60500 19.94800 29.52400
C  -2.41200 19.21800 24.71000
C  -2.12100 14.42900 25.41400
N  -2.40500 17.47400 29.63300
C  -2.29300 16.50300 30.60200
C  -2.36300 17.21000 32.00200
C  -2.72500 18.68900 31.73100
C  -2.57700 18.71000 30.22100
C  -3.86900 19.26400 32.46800
C  -0.91400 17.09100 32.78500
C  -0.58200 18.03000 34.02000
H  0.32400 17.52000 35.11300
N  -2.29700 19.33500 27.19700
C  -2.48100 20.26400 28.13500
C  -2.40400 21.60000 27.53200
C  -2.32800 21.38300 26.12300
C  -2.35600 19.95100 25.94500
C  -2.40200 22.88600 28.28600
C  -2.21800 22.49100 25.00000
O  -2.34200 22.20800 23.81300
C  -2.14900 23.99300 25.40600
N  -2.38400 16.82200 25.49900
C  -2.51700 17.79300 24.51200
C  -2.58800 17.20500 23.03400
C  -1.95400 15.81000 23.30900
C  -2.12300 15.66800 24.84800
C  -3.92800 17.23200 22.24800
C  -0.49500 15.76700 22.81100
C  0.59500 16.67200 23.33600
N  -2.14900 15.18500 27.74000
C  -2.17600 14.15700 26.81800
C  -2.35100 12.88100 27.47700
C  -2.32100 13.19000 28.85900
C  -2.19300 14.57500 28.92500
C  -2.40500 11.51000 26.79700
C  -2.31600 12.69400 30.19800
O  -2.39000 11.53500 30.56900
C  -2.23700 13.89600 31.11000
C  -1.13200 13.79600 32.09700
O  0.06700 14.04500 31.94300
O  -1.57500 13.32600 33.28000
C  -0.67200 13.27600 34.45400
H  -2.58900 20.86300 30.12000
H  -2.41600 19.83300 23.80700
H  -2.21500 13.57100 24.74400
H  -3.19700 16.84800 32.60200
H  -1.94200 19.39600 32.00300
H  -3.55800 20.09800 33.09800
H  -4.23100 18.50500 33.16100
H  -4.59000 19.61700 31.73100
H  -0.18500 17.32700 32.01000
H  -0.69100 16.07900 33.12300
H  -1.51100 18.33300 34.50300
H  -0.06900 18.93100 33.68100
H  -2.42600 22.74200 29.36600
H  -3.33800 23.32900 27.94600
H  -1.53100 23.50600 28.07200
H  -2.25000 24.57800 24.49200
H  -1.20100 24.17800 25.91000
H  -3.03900 24.31600 25.94600
H  -1.83700 17.72900 22.44400
H  -2.49000 15.00400 22.80900
H  -4.64900 17.91600 22.69600
H  -4.34200 16.22700 22.16000
H  -3.76000 17.73100 21.29400
H  -0.67300 15.93700 21.74900
H  -0.21800 14.74300 23.06000
H  1.19800 16.10200 24.04200
H  0.18400 17.56000 23.81500
H  1.26900 17.09800 22.59300
H  -1.54400 11.44200 26.13300
H  -3.33700 11.45500 26.23400
H  -2.52800 10.84100 27.64900
H  -3.11000 13.94600 31.76100
H  -0.42700 14.26100 34.85100
H  0.24900 12.83400 34.07400
H  -1.11100 12.65900 35.23800
Mg -3.10500 34.52000 26.51500
C  -4.28900 33.17200 29.62300
C  -1.21200 36.69700 28.43100
C  -2.65200 36.28100 23.66200
C  -4.84100 32.08500 24.88000
N  -2.85400 34.92200 28.77600
C  -3.29300 34.14700 29.84700
C  -2.67300 34.58900 31.16500
C  -1.91200 35.86300 30.80900
C  -1.97200 35.84300 29.26800
C  -2.41600 37.17100 31.48100
C  -1.87000 33.45800 31.95600
C  -2.45800 33.12800 33.39300
H  -1.48200 33.02200 34.55500
N  -2.08500 36.29800 26.13900
C  -1.29300 36.92800 27.02800
C  -0.56000 37.92700 26.21400
C  -1.04100 37.84100 24.89700
C  -1.92800 36.70500 24.82000
C  0.39000 38.86200 26.88600
C  -0.68400 38.74100 23.73200
O  -0.84900 38.37300 22.56800
C  -0.07200 40.17600 23.96200
N  -3.74300 34.38200 24.57100
C  -3.39600 35.12100 23.51700
C  -3.93800 34.48700 22.18300
C  -4.23500 33.01000 22.60600
C  -4.26300 33.15400 24.12800
C  -5.17900 35.21900 21.59800
C  -3.22900 31.92000 22.14000
C  -3.98000 30.61300 21.83500
N  -4.43100 33.01500 27.08700
C  -4.88200 31.98600 26.28200
C  -5.55900 30.97000 27.16500
C  -5.37200 31.37800 28.44300
C  -4.70300 32.63600 28.38100
C  -6.36000 29.83500 26.63900
C  -5.56500 31.06900 29.88000
O  -6.16800 30.14700 30.41500
C  -4.88300 32.21400 30.62600
C  -5.86600 32.88900 31.49100
O  -6.63300 33.78000 31.16800
O  -5.74600 32.36300 32.76900
C  -6.48300 32.92300 33.80900
H  -0.55900 37.43200 28.90700
H  -2.63700 36.91700 22.77500
H  -5.29200 31.14400 24.55800
H  -3.50100 34.84900 31.82500
H  -0.89000 35.77900 31.17800
H  -2.18300 37.12700 32.54500
H  -3.50300 37.18300 31.40000
H  -1.92400 38.04300 31.05000
H  -0.86100 33.84400 32.10200
H  -1.74400 32.50700 31.43700
H  -2.96900 32.16600 33.37400
H  -3.14800 33.89300 33.74700
H  1.07300 39.22800 26.11900
H  1.02100 38.33300 27.60000
H  -0.13700 39.59800 27.49400
H  -0.47800 40.77100 23.14300
H  1.00300 40.04500 23.84300
H  -0.26400 40.55400 24.96600
H  -3.11700 34.65300 21.48500
H  -5.29000 32.80300 22.43200
H  -5.01000 35.73300 20.65200
H  -5.47400 36.04900 22.24100
H  -6.02200 34.55000 21.42500
H  -2.58300 31.75200 23.00200
H  -2.84400 32.31800 21.20100
H  -3.39300 30.06900 21.09500
H  -4.92500 30.90200 21.37600
H  -4.10000 29.96400 22.70300
H  -6.31200 28.91000 27.21300
H  -6.15000 29.64100 25.58700
H  -7.38800 30.15900 26.79700
H  -4.03600 31.84400 31.20400
H  -5.81000 33.65100 34.26100
H  -6.79700 32.22100 34.58100
H  -7.36900 33.36000 33.34700

