158

Mg 17.09100 -0.63300 27.67000
C  15.84400 1.23200 30.26700
C  19.07200 -2.39700 29.86800
C  18.70100 -2.09000 24.89500
C  15.43100 1.53300 25.34200
N  17.43100 -0.46600 29.78800
C  16.81700 0.27400 30.68900
C  17.18000 -0.19000 32.13600
C  18.29400 -1.23900 31.88500
C  18.21700 -1.42300 30.39500
C  19.71300 -0.84400 32.46100
C  15.95000 -0.59100 32.95300
C  15.73900 0.17500 34.32600
H  16.92000 0.78000 35.14800
N  18.59300 -2.09200 27.43300
C  19.24800 -2.68800 28.52300
C  20.15000 -3.71900 27.97000
C  20.05000 -3.66800 26.53300
C  19.06500 -2.60800 26.19400
C  20.88500 -4.69500 28.78400
C  20.58000 -4.64100 25.55500
O  20.18100 -4.69700 24.40000
C  21.74300 -5.69800 25.93800
N  17.02500 -0.38500 25.44700
C  17.85200 -1.06200 24.57700
C  17.71800 -0.57600 23.15300
C  16.69000 0.57900 23.23500
C  16.28400 0.57500 24.75600
C  19.13700 -0.14100 22.55100
C  15.47200 0.42400 22.21800
C  15.05500 1.79500 21.52200
N  15.88100 1.01900 27.64900
C  15.27700 1.76400 26.70900
C  14.52500 2.86100 27.34200
C  14.73900 2.70000 28.75700
C  15.57500 1.54100 28.88300
C  13.77600 3.85500 26.61600
C  14.42300 3.20700 30.09100
O  13.83200 4.20700 30.49900
C  15.13200 2.28900 31.12700
C  16.02500 3.04500 32.07300
O  17.20400 3.38200 31.88900
O  15.26800 3.45900 33.17300
C  15.75000 4.55200 34.03500
H  19.56000 -2.96000 30.66700
H  19.23800 -2.52800 24.05100
H  15.02500 2.22900 24.60500
H  17.62700 0.68200 32.61300
H  17.96400 -2.22200 32.22200
H  20.51100 -0.76600 31.72200
H  19.96700 -1.71700 33.06200
H  19.69500 0.10100 33.00400
H  15.82600 -1.66300 33.10700
H  15.16600 -0.28300 32.26100
H  15.31700 -0.66200 34.88300
H  14.96000 0.87500 34.02500
H  20.26400 -5.57300 28.96600
H  20.98600 -4.17000 29.73300
H  21.93400 -4.84700 28.52700
H  21.21000 -6.40700 26.57100
H  22.48500 -5.40200 26.67900
H  22.23900 -6.17900 25.09400
H  17.41600 -1.43600 22.55500
H  17.22600 1.50700 23.03800
H  19.94000 -0.11400 23.28800
H  19.10400 0.82400 22.04600
H  19.44900 -0.80900 21.74800
H  14.59000 0.01400 22.70900
H  15.80800 -0.18800 21.38100
H  15.71600 2.64700 21.68200
H  14.07200 2.07300 21.90200
H  14.88600 1.73100 20.44800
H  12.87500 3.43700 26.16600
H  14.36900 4.35700 25.85300
H  13.48300 4.63700 27.31700
H  14.37000 1.82700 31.75500
H  16.30800 4.20500 34.90400
H  14.82900 5.10300 34.22800
H  16.36700 5.14000 33.35400
Mg 47.69400 23.92200 28.11500
C  48.69400 25.99700 30.60100
C  46.74600 21.53000 30.42000
C  47.04800 21.84400 25.54300
C  49.12100 26.14700 25.74300
N  47.65700 23.79900 30.30500
C  48.05500 24.84500 31.10900
C  47.61900 24.51300 32.54100
C  47.28100 23.01900 32.47100
C  47.27600 22.71300 30.96100
C  48.10600 22.00600 33.25700
C  46.67600 25.52800 33.22000
C  47.32600 26.03300 34.47300
H  46.72800 27.29600 35.17600
N  46.98300 21.92000 28.00500
C  46.68900 21.11600 29.06700
C  46.22100 19.87300 28.53100
C  45.94500 20.04800 27.14400
C  46.61400 21.30700 26.82200
C  45.96700 18.72800 29.43400
C  45.30900 19.07600 26.17100
O  45.23700 19.39200 24.96700
C  44.59700 17.74200 26.47200
N  48.02300 24.01100 26.00500
C  47.58000 23.05700 25.14100
C  47.86200 23.34800 23.65200
C  48.29100 24.82900 23.67300
C  48.53300 25.00000 25.21700
C  48.99700 22.42600 23.02100
C  47.35600 25.86400 23.08900
C  47.98900 26.88200 22.06000
N  48.61200 25.66600 28.10200
C  49.13200 26.42400 27.09400
C  49.70000 27.63500 27.64100
C  49.51900 27.49700 29.02200
C  48.85600 26.29600 29.25000
C  50.42700 28.83700 26.94000
C  49.80200 28.18300 30.30100
O  50.44400 29.23200 30.56300
C  49.11800 27.33900 31.39600
C  50.13300 27.14300 32.44800
O  50.92100 26.17300 32.47800
O  50.13400 28.13300 33.36400
C  50.92400 27.97400 34.65600
H  46.34100 20.92400 31.23300
H  46.84300 21.20700 24.68100
H  49.46900 26.87200 25.00400
H  48.56900 24.60600 33.06600
H  46.32900 22.90600 32.99000
H  47.52900 21.62800 34.10000
H  49.12600 22.35300 33.42200
H  48.11800 21.15400 32.57800
H  45.75700 25.03900 33.54200
H  46.33000 26.20800 32.44200
H  48.37700 26.32400 34.47600
H  47.36600 25.30400 35.28200
H  44.88800 18.66400 29.57600
H  46.40200 18.83700 30.42800
H  46.38500 17.80800 29.02600
H  45.05500 17.33700 27.37500
H  44.59600 16.89500 25.78600
H  43.60100 17.92300 26.87700
H  46.94600 23.24800 23.06900
H  49.29300 24.95600 23.26400
H  49.67200 22.05800 23.79300
H  49.74700 22.94100 22.42100
H  48.67300 21.47600 22.59700
H  46.97400 26.46200 23.91700
H  46.37800 25.49600 22.77900
H  47.47900 26.72800 21.10900
H  49.07700 26.82000 22.08500
H  47.67800 27.89200 22.32500
H  51.43200 28.79800 27.36100
H  50.00400 29.82600 27.12000
H  50.63600 28.80200 25.87100
H  48.27300 27.91000 31.78100
H  51.65900 28.77700 34.70900
H  51.43600 27.02500 34.81600
H  50.27000 28.13600 35.51300

