158

Mg 48.57600 44.13300 42.93100
C  45.08400 43.50000 42.81300
C  48.95200 40.58900 42.45000
C  51.80500 44.60600 42.53600
C  47.93400 47.64100 42.63800
N  47.16400 42.25100 42.63200
C  45.73500 42.27500 42.55500
C  45.13400 40.93500 42.30700
C  46.39200 39.96600 42.27900
C  47.59500 40.99200 42.48200
C  46.41800 38.82800 43.28100
C  44.22800 40.75800 41.07400
C  44.73400 41.52900 39.77500
H  44.38800 40.87000 38.48200
N  50.15500 42.88700 42.53500
C  50.08700 41.45300 42.44700
C  51.39600 41.02600 42.15700
C  52.30600 42.07100 42.24800
C  51.44700 43.29300 42.43900
C  51.71700 39.53700 41.87100
C  53.86000 41.96800 42.07500
O  54.40700 40.89000 41.90900
C  54.73100 43.16500 42.24400
N  49.72900 45.91200 42.26700
C  51.08000 45.79000 42.47200
C  51.67200 47.15800 42.85200
C  50.44100 48.13400 42.57100
C  49.23600 47.17700 42.49500
C  52.38600 47.24900 44.27900
C  50.54700 48.91000 41.22900
C  50.03500 50.37600 41.32700
N  46.88600 45.34100 42.79700
C  46.81300 46.75100 42.68600
C  45.35200 47.07700 42.73900
C  44.68100 45.85900 42.85900
C  45.61600 44.83600 42.79700
C  44.86400 48.47800 42.78800
C  43.36100 45.27200 42.82300
O  42.25200 45.87400 42.74800
C  43.55200 43.67900 42.90200
C  42.87700 43.19900 44.10200
O  42.23700 42.15300 44.19700
O  43.18100 44.02000 45.12400
C  42.39500 43.81400 46.35700
H  49.04900 39.52400 42.22800
H  52.85900 44.88500 42.59900
H  47.82500 48.71800 42.78100
H  44.52800 40.76100 43.19600
H  46.54500 39.62100 41.25700
H  46.86700 39.21000 44.19800
H  47.01400 38.04100 42.81900
H  45.39600 38.52100 43.50200
H  43.23700 41.10100 41.37100
H  44.39200 39.71500 40.80400
H  45.82200 41.58500 39.82500
H  44.44700 42.58000 39.79400
H  51.81700 39.28500 40.81600
H  50.97500 38.90500 42.35900
H  52.72600 39.25400 42.17200
H  54.64100 43.92100 41.46400
H  55.75900 42.91000 42.50000
H  54.38500 43.63400 43.16400
H  52.42700 47.40500 42.10500
H  50.40900 48.82200 43.41600
H  52.59300 46.25900 44.68500
H  51.75100 47.81600 44.96000
H  53.31300 47.82100 44.33000
H  49.97800 48.40300 40.45100
H  51.56400 48.85200 40.84000
H  50.64800 51.14000 40.84900
H  49.79400 50.70900 42.33700
H  49.05500 50.26200 40.86500
H  45.11600 48.85700 43.77900
H  43.78000 48.58800 42.78100
H  45.26000 49.00300 41.91900
H  42.96200 43.26800 42.08300
H  43.21900 43.44200 46.96600
H  41.50400 43.18900 46.30300
H  42.24600 44.77800 46.84400
Mg -12.07200 38.89800 42.54200
C  -10.61400 35.85700 41.57800
C  -9.51500 40.49000 40.75700
C  -13.58500 41.80000 43.04700
C  -14.68200 37.09400 44.02600
N  -10.30100 38.22800 41.21300
C  -9.89900 36.92100 41.05900
C  -8.52200 36.86400 40.28200
C  -8.29400 38.42400 40.02400
C  -9.38100 39.11300 40.83300
C  -6.82400 38.84200 40.19800
C  -8.52900 36.07300 38.96500
C  -7.56500 34.82400 38.95200
H  -6.55200 34.86700 37.84300
N  -11.54600 40.90400 42.06600
C  -10.49100 41.34300 41.34900
C  -10.49600 42.77300 41.36300
C  -11.76200 43.20800 41.92200
C  -12.38400 41.95000 42.33000
C  -9.37500 43.63400 40.81100
C  -12.27400 44.63000 42.02400
O  -11.72500 45.51300 41.38100
C  -13.63500 45.08300 42.67100
N  -13.99900 39.36900 43.22200
C  -14.33900 40.70100 43.44500
C  -15.70900 40.77600 44.22400
C  -16.07000 39.27500 44.41300
C  -14.81900 38.51200 43.91900
C  -15.69900 41.61300 45.47900
C  -17.40400 38.73400 43.77000
C  -18.41800 38.03500 44.66200
N  -12.56200 36.88600 42.80900
C  -13.66300 36.29000 43.44900
C  -13.53300 34.81200 43.45600
C  -12.32700 34.67500 42.68900
C  -11.83400 35.89500 42.34000
C  -14.53600 33.77700 43.98600
C  -11.41000 33.61000 42.19000
O  -11.38100 32.41300 42.35200
C  -10.27000 34.38100 41.43800
C  -9.05500 34.01300 42.11900
O  -8.61500 34.59400 43.10000
O  -8.52900 32.95400 41.44000
C  -7.21600 32.56400 41.98300
H  -8.64500 40.99500 40.33300
H  -14.20600 42.67500 43.24800
H  -15.46300 36.49900 44.50500
H  -7.76800 36.45100 40.95200
H  -8.45500 38.77300 39.00400
H  -6.37300 39.08900 39.23700
H  -6.26800 37.95300 40.49600
H  -6.74600 39.72900 40.82700
H  -8.27400 36.70400 38.11300
H  -9.55000 35.74500 38.77300
H  -8.17700 33.95300 38.71700
H  -7.02900 34.73500 39.89700
H  -8.35700 43.36800 41.09500
H  -9.50800 44.54100 41.40100
H  -9.46100 43.87900 39.75200
H  -13.68300 44.59300 43.64400
H  -14.53000 44.71700 42.16700
H  -13.77200 46.16300 42.71400
H  -16.40800 41.16900 43.48600
H  -16.03600 39.02700 45.47400
H  -16.71000 41.99300 45.62700
H  -15.09800 42.49500 45.25900
H  -15.35600 41.10800 46.38200
H  -17.31400 37.97700 42.99000
H  -17.95800 39.58900 43.38300
H  -18.82100 37.15100 44.16900
H  -19.33300 38.60800 44.81200
H  -18.07000 37.70700 45.64100
H  -15.49100 33.76600 43.46200
H  -14.65000 33.83400 45.06900
H  -14.11100 32.80400 43.73800
H  -10.22800 33.98600 40.42300
H  -6.59500 33.39200 42.32500
H  -6.54800 32.02500 41.31100
H  -7.36300 31.88400 42.82300

