158

Mg 26.39400 49.78200 26.90200
C  24.48500 51.35000 29.47100
C  28.83600 49.24000 29.39200
C  28.37400 48.76600 24.52500
C  24.17800 51.35200 24.55800
N  26.50600 50.11000 29.20000
C  25.48700 50.59400 29.97700
C  25.85800 50.38900 31.45700
C  27.36600 49.99700 31.39000
C  27.67100 49.80400 29.89800
C  28.37400 50.98700 32.12700
C  24.95000 49.26300 32.24600
C  24.16100 49.80400 33.35800
H  24.06000 49.02100 34.72700
N  28.20000 48.92800 26.98300
C  29.14100 48.87400 28.04500
C  30.30500 48.27700 27.55300
C  30.20600 48.11000 26.14700
C  28.87000 48.55800 25.84000
C  31.53400 48.03000 28.40400
C  31.29900 47.84000 25.07200
O  31.16600 47.76700 23.83700
C  32.77300 47.57500 25.47300
N  26.31500 49.95000 24.82800
C  27.20800 49.30900 24.04800
C  26.90200 49.55800 22.55700
C  25.57500 50.35600 22.60400
C  25.33700 50.62200 24.12500
C  28.09100 50.29600 21.69900
C  24.39400 49.55400 22.02300
C  23.11900 50.26900 21.52400
N  24.62500 51.05500 26.93600
C  23.91100 51.67400 25.92700
C  22.69600 52.33600 26.51500
C  23.01500 52.25700 27.93600
C  24.16400 51.49300 28.10500
C  21.50800 52.83000 25.74400
C  22.52200 52.60400 29.20200
O  21.50900 53.17000 29.42600
C  23.44600 52.07700 30.31800
C  24.03700 53.18500 31.11100
O  24.68900 54.06900 30.60200
O  23.65700 53.08000 32.41500
C  24.21400 54.10600 33.36500
H  29.70700 49.22300 30.05000
H  28.95700 48.45200 23.65700
H  23.54500 51.74400 23.76000
H  25.80800 51.34500 31.97800
H  27.48600 49.02500 31.86900
H  29.08900 51.36200 31.39500
H  28.82200 50.41500 32.93900
H  27.84000 51.80700 32.60700
H  25.61600 48.51100 32.66900
H  24.41800 48.82400 31.40300
H  23.15200 49.96200 32.97700
H  24.58600 50.77400 33.61600
H  31.90000 47.03300 28.15700
H  31.32400 48.05900 29.47300
H  32.26200 48.79300 28.12900
H  33.49500 47.55200 24.65700
H  33.03700 46.74600 26.13000
H  33.03100 48.53100 25.92900
H  26.72800 48.54000 22.20900
H  25.59800 51.34400 22.14600
H  28.61400 51.06100 22.27300
H  27.57300 50.82000 20.89500
H  28.84600 49.62500 21.28900
H  24.19600 48.88500 22.86100
H  24.67100 48.89000 21.20500
H  22.79800 49.88600 20.55600
H  23.29700 51.33600 21.39000
H  22.33000 50.15200 22.26700
H  20.65500 52.43000 26.29200
H  21.42400 52.55400 24.69300
H  21.43300 53.91500 25.82400
H  22.90400 51.33100 30.89900
H  24.51800 55.03200 32.87600
H  25.11500 53.79000 33.89100
H  23.48600 54.38700 34.12700
Mg 0.35900 43.23100 26.05400
C  2.46700 43.44000 28.77900
C  -2.11800 42.36400 28.34100
C  -1.52500 42.63100 23.50700
C  3.10100 43.64800 23.89800
N  0.09200 43.51800 28.40200
C  1.09600 43.49700 29.26500
C  0.63800 43.42100 30.67500
C  -0.79500 42.83000 30.55300
C  -0.93900 42.88800 29.00100
C  -1.14400 41.54600 31.35200
C  0.76500 44.82500 31.37900
C  0.63300 44.79500 32.92800
H  0.68800 43.48900 33.70800
N  -1.64800 42.87300 25.93800
C  -2.51600 42.57200 26.95100
C  -3.85100 42.20900 26.40200
C  -3.62800 42.16100 24.99000
C  -2.19600 42.49300 24.75300
C  -5.10100 41.98300 27.26200
C  -4.62300 41.79300 23.98200
O  -4.31800 41.66600 22.79400
C  -6.11100 41.49800 24.35000
N  0.67200 43.27900 24.00100
C  -0.24700 42.89700 23.11800
C  0.20400 42.87200 21.59600
C  1.67600 43.41800 21.80000
C  1.83700 43.45000 23.31500
C  0.07300 41.45100 20.95800
C  1.90200 44.82200 21.11100
C  1.30000 46.01800 21.86900
N  2.37900 43.48700 26.20000
C  3.38500 43.52800 25.30700
C  4.62800 43.58900 26.00300
C  4.30800 43.50400 27.32800
C  2.93900 43.48000 27.40200
C  6.00200 43.62400 25.46300
C  4.88800 43.39500 28.60200
O  6.02400 43.40400 28.97100
C  3.75000 43.46400 29.65700
C  3.98600 42.29200 30.50800
O  3.50500 41.15700 30.40900
O  4.68500 42.69900 31.59000
C  4.97700 41.64100 32.52400
H  -2.89500 42.05200 29.04200
H  -2.11200 42.29000 22.65200
H  4.00700 43.66400 23.28900
H  1.26200 42.69300 31.19300
H  -1.51600 43.59400 30.84300
H  -1.19300 40.73200 30.62800
H  -2.15700 41.64600 31.74000
H  -0.36900 41.29100 32.07500
H  -0.12200 45.32400 30.98900
H  1.66200 45.25800 30.93500
H  -0.18800 45.42100 33.27800
H  1.56500 45.22300 33.29700
H  -5.91200 42.67800 27.04600
H  -4.83800 41.97600 28.32000
H  -5.39400 40.96200 27.01900
H  -6.31200 40.55400 24.85600
H  -6.72100 41.61700 23.45500
H  -6.43200 42.29400 25.02100
H  -0.47100 43.51800 21.03500
H  2.44500 42.75600 21.40200
H  1.07400 41.02900 21.04600
H  -0.17500 41.59600 19.90600
H  -0.71800 40.85000 21.40800
H  1.42000 44.76400 20.13500
H  2.97300 45.02400 21.10100
H  0.67800 46.54300 21.14400
H  2.13000 46.60000 22.26800
H  0.59000 45.78700 22.66300
H  6.10700 44.68100 25.21800
H  6.12400 43.02700 24.56000
H  6.77400 43.29500 26.15800
H  3.79800 44.38400 30.24000
H  5.55900 40.79400 32.15800
H  4.11200 41.22100 33.03700
H  5.60900 42.10400 33.28200

