158

Mg 46.99700 16.61800 29.10600
C  44.82400 16.03000 31.79700
C  49.03700 18.29800 31.29700
C  48.59300 17.97800 26.44900
C  44.58600 15.33600 27.01400
N  46.83600 17.09400 31.31900
C  45.93900 16.74300 32.21600
C  46.33700 17.15900 33.66000
C  47.65800 17.96000 33.45500
C  47.88700 17.76000 31.92000
C  47.69300 19.43700 33.81200
C  46.57800 15.86800 34.56000
C  46.11600 15.96300 35.99500
H  45.90300 17.34600 36.59200
N  48.77300 17.71400 28.90000
C  49.51200 18.24700 29.93000
C  50.65900 18.94100 29.28100
C  50.52500 18.74200 27.83300
C  49.26600 18.07400 27.66500
C  51.72500 19.65100 30.11000
C  51.50700 19.16100 26.78800
O  51.28300 18.98400 25.61400
C  52.86300 19.63500 27.09100
N  46.61100 16.72300 27.07500
C  47.41100 17.35900 26.14700
C  47.04100 17.07300 24.67300
C  45.87600 16.00200 24.89800
C  45.73400 15.90100 26.42800
C  46.65100 18.37400 23.89600
C  46.32000 14.55800 24.30600
C  45.22300 13.91900 23.37800
N  45.08200 15.78000 29.31600
C  44.33800 15.23500 28.37100
C  43.15700 14.67700 28.92600
C  43.33800 14.94200 30.31200
C  44.54000 15.61900 30.49800
C  42.12900 13.96400 28.23600
C  42.76600 14.73000 31.63200
O  41.72800 14.16200 31.93900
C  43.72300 15.43800 32.61200
C  42.97100 16.50400 33.31100
O  42.35000 17.41700 32.75700
O  43.06000 16.33000 34.69000
C  42.19400 17.29800 35.35800
H  49.76200 18.66200 32.02900
H  49.06800 18.46200 25.59300
H  43.89900 14.91400 26.27700
H  45.54700 17.83600 33.98600
H  48.52400 17.58700 34.00300
H  47.97700 20.06900 32.97100
H  48.41300 19.62200 34.60800
H  46.70800 19.72700 34.18000
H  47.61500 15.53000 34.57500
H  46.01200 15.04200 34.13100
H  46.92900 15.60500 36.62700
H  45.19300 15.41000 36.16800
H  52.32900 18.77700 30.35400
H  51.29900 19.97900 31.05800
H  52.27100 20.42600 29.57200
H  53.32800 19.79500 26.11800
H  53.35600 18.85600 27.67300
H  52.82500 20.58400 27.62500
H  47.94300 16.67800 24.20600
H  44.94500 16.29700 24.41300
H  47.00000 19.27000 24.40900
H  45.56500 18.38500 23.79600
H  46.92800 18.32900 22.84300
H  46.70600 14.00000 25.16000
H  47.05100 14.93300 23.59000
H  45.78700 13.63600 22.48900
H  44.41800 14.59400 23.08900
H  44.72200 13.06300 23.82900
H  41.36600 13.54500 28.89100
H  42.67100 13.13400 27.78300
H  41.58300 14.41700 27.40800
H  44.05000 14.66900 33.31300
H  41.12000 17.16200 35.23500
H  42.53600 18.28500 35.04800
H  42.38200 17.17500 36.42500
Mg 1.08700 43.43500 26.25000
C  2.53200 43.46400 29.37900
C  -1.71000 41.99200 27.62100
C  0.01000 42.56300 23.15400
C  4.18600 44.32400 24.85800
N  0.47000 42.83100 28.34900
C  1.20800 43.03000 29.44300
C  0.40400 42.57500 30.66000
C  -0.93800 41.99700 30.01500
C  -0.72000 42.27300 28.57000
C  -1.37200 40.53100 30.45300
C  0.20600 43.56400 31.83600
C  1.13800 43.44200 33.02500
H  0.78200 42.38900 34.07600
N  -0.77200 42.68100 25.51000
C  -1.68900 41.95900 26.22000
C  -2.64300 41.36400 25.39200
C  -2.16400 41.60000 24.06800
C  -0.91500 42.33400 24.18800
C  -3.85000 40.50100 25.94600
C  -2.79400 41.20100 22.76400
O  -2.27200 41.27200 21.65400
C  -4.18300 40.55100 22.73100
N  2.04300 43.36800 24.19200
C  1.29600 43.07700 23.05600
C  2.17100 43.34300 21.82500
C  3.34600 44.18400 22.45300
C  3.25300 43.93800 23.91900
C  2.67900 42.08200 21.04100
C  3.18700 45.68100 22.19300
C  4.13400 46.34800 21.09600
N  2.99100 43.85600 26.90300
C  4.12600 44.21800 26.25500
C  5.14400 44.44600 27.22300
C  4.56900 44.17700 28.48300
C  3.23900 43.80200 28.23200
C  6.50800 44.91200 26.94500
C  4.90900 44.18700 29.91300
O  5.83100 44.49200 30.65400
C  3.61700 43.54200 30.46400
C  4.03600 42.20900 30.94800
O  4.19800 41.16000 30.26100
O  4.25800 42.24000 32.32800
C  4.40200 40.96800 33.00100
H  -2.59000 41.54300 28.08700
H  -0.24400 42.37300 22.10900
H  5.10200 44.76500 24.46000
H  0.96000 41.75100 31.10800
H  -1.74000 42.54300 30.51300
H  -2.45100 40.57100 30.60400
H  -0.97100 40.35100 31.45000
H  -1.11900 39.74700 29.73800
H  -0.75600 43.37600 32.31300
H  0.29700 44.57700 31.44500
H  1.25300 44.42000 33.49300
H  2.08200 43.07300 32.62200
H  -3.89200 40.59700 27.03100
H  -3.66000 39.46600 25.66300
H  -4.74600 40.90900 25.47600
H  -4.45900 40.33000 21.70000
H  -4.81500 41.31700 23.18000
H  -4.03500 39.70500 23.40300
H  1.61500 44.00000 21.15600
H  4.32300 43.77200 22.19700
H  3.56200 41.68600 21.54300
H  2.87700 42.33700 20.00000
H  1.94200 41.27900 21.01800
H  3.36600 46.23500 23.11400
H  2.11300 45.84400 22.10200
H  4.70400 47.12700 21.60400
H  3.37000 46.81100 20.47200
H  4.84000 45.67600 20.60800
H  6.44500 45.82000 26.34500
H  7.23300 44.33500 26.37000
H  6.98100 45.13000 27.90300
H  3.31600 44.08100 31.36200
H  5.40100 40.64300 32.70800
H  3.65400 40.20700 32.78000
H  4.38800 41.11000 34.08200

