158

Mg 46.76200 24.81500 28.53000
C  47.60600 27.04400 31.11300
C  46.07300 22.52200 30.95800
C  46.41100 22.63400 26.00900
C  47.86600 27.25800 26.24700
N  46.80800 24.87200 30.77300
C  47.06500 25.85200 31.58900
C  46.92500 25.47100 33.10500
C  46.72200 23.96500 32.98600
C  46.40400 23.76500 31.47600
C  47.76000 22.89000 33.47600
C  45.64000 26.21700 33.74000
C  45.86100 26.48000 35.24100
H  44.71400 26.27500 36.22300
N  46.18100 22.82600 28.48600
C  45.97800 22.11200 29.63200
C  45.68900 20.80800 29.18500
C  45.66800 20.80300 27.69400
C  46.07800 22.15100 27.31500
C  45.39300 19.66600 30.23400
C  45.36500 19.63800 26.69600
O  45.49400 19.72700 25.45700
C  44.91600 18.36600 27.25900
N  47.24400 24.91100 26.47100
C  47.03100 23.89000 25.63400
C  47.43600 24.27100 24.18200
C  47.40800 25.81300 24.22300
C  47.42000 26.05800 25.72200
C  48.85100 23.73900 23.56500
C  46.22700 26.43100 23.49300
C  44.85200 26.17000 24.23500
N  47.61300 26.76800 28.59300
C  47.94000 27.64700 27.58800
C  48.40500 28.88400 28.21400
C  48.31700 28.65600 29.57100
C  47.91600 27.36300 29.75800
C  49.11500 30.01700 27.42100
C  48.51500 29.28700 30.82500
O  48.88500 30.40500 31.11200
C  48.06100 28.28000 31.89800
C  49.04800 28.05900 32.96900
O  50.21200 27.67600 32.77200
O  48.40200 28.39800 34.18300
C  49.32800 28.48100 35.33800
H  45.84500 21.78500 31.73100
H  46.43200 21.99100 25.12700
H  48.19500 27.96500 25.48300
H  47.86700 25.73800 33.58500
H  45.78500 23.63200 33.43200
H  48.24100 22.28300 32.70800
H  47.33700 22.16800 34.17400
H  48.53200 23.46300 33.98900
H  44.78200 25.57900 33.52500
H  45.48100 27.17900 33.25300
H  46.13700 27.51200 35.45800
H  46.70300 25.87800 35.58500
H  45.47200 19.89400 31.29700
H  46.05400 18.79900 30.22200
H  44.39600 19.24600 30.10200
H  44.81300 17.58200 26.50900
H  44.04400 18.42200 27.91200
H  45.71700 18.01300 27.90900
H  46.61400 24.07700 23.49200
H  48.33300 26.19300 23.79000
H  49.55300 24.54700 23.35900
H  48.64600 23.25800 22.60800
H  49.12700 22.90500 24.21000
H  46.12300 26.10600 22.45800
H  46.30800 27.51700 23.45200
H  43.95900 26.09300 23.61400
H  44.66900 27.01100 24.90300
H  44.85600 25.16600 24.65900
H  49.41500 29.76900 26.40300
H  49.99600 30.29800 27.99900
H  48.49300 30.91300 27.41100
H  47.11800 28.73900 32.19600
H  48.83400 27.99400 36.17900
H  49.45100 29.55100 35.50600
H  50.24600 27.92200 35.15600
Mg 30.01800 58.79500 39.11900
C  27.32600 56.86500 38.09800
C  32.04700 56.20500 37.71500
C  32.49500 60.97300 38.96500
C  27.71500 61.56800 39.11100
N  29.75500 56.76700 38.07500
C  28.54400 56.24100 37.78400
C  28.63900 54.85000 36.94600
C  30.13600 54.52300 37.19300
C  30.73300 55.87400 37.71500
C  30.42000 53.39000 38.23100
C  28.22700 55.06100 35.41200
C  27.10300 54.33300 34.69400
H  26.31500 55.17700 33.66000
N  32.00800 58.56600 38.62300
C  32.67500 57.44800 38.10400
C  34.00400 57.76100 37.90100
C  34.20400 59.07600 38.38800
C  32.93000 59.63700 38.68300
C  34.95400 56.82200 37.18600
C  35.50200 59.82000 38.42300
O  36.45200 59.26500 37.85700
C  35.78100 61.17800 39.09700
N  30.09100 61.00100 39.14200
C  31.27700 61.64800 39.15200
C  31.11000 63.16800 39.06800
C  29.53600 63.30000 38.97700
C  29.06800 61.83200 39.08300
C  31.88900 64.01500 40.15300
C  29.03600 64.00200 37.71800
C  28.08700 65.14100 37.89100
N  27.92200 59.18200 38.84500
C  27.13500 60.28100 38.90400
C  25.70700 59.89600 38.90500
C  25.69300 58.59300 38.66000
C  27.09900 58.19100 38.55700
C  24.52400 60.77200 38.89800
C  24.90500 57.35900 38.49600
O  23.69000 57.24900 38.55300
C  25.86800 56.29100 37.97500
C  25.65000 55.11700 38.96900
O  26.21300 55.02200 40.03200
O  24.77500 54.13000 38.46200
C  24.38600 52.97300 39.30200
H  32.63600 55.34400 37.39000
H  33.40600 61.56900 39.05300
H  27.07800 62.44600 39.24200
H  28.00900 54.11200 37.44300
H  30.66400 54.21100 36.29200
H  31.08000 53.75800 39.01700
H  30.81500 52.48600 37.76600
H  29.47400 53.19300 38.73400
H  29.05800 54.73700 34.78600
H  28.03900 56.12700 35.28200
H  26.39800 53.86300 35.37900
H  27.58300 53.50800 34.16800
H  35.41800 57.27000 36.30700
H  34.53400 55.88000 36.83400
H  35.75900 56.50200 37.84700
H  36.83700 61.20200 39.36600
H  35.26900 61.38100 40.03800
H  35.53400 61.99200 38.41600
H  31.48600 63.37800 38.06700
H  29.20000 63.77100 39.90100
H  32.95600 63.79400 40.18100
H  31.29900 63.88000 41.05900
H  31.78600 65.07900 39.94100
H  28.61900 63.28000 37.01500
H  29.87200 64.48800 37.21700
H  28.32800 66.02300 37.29700
H  27.88400 65.29900 38.95000
H  27.14900 64.75500 37.49100
H  24.50900 61.48000 39.72600
H  23.60200 60.22000 39.08100
H  24.62300 61.37500 37.99500
H  25.68300 56.03300 36.93200
H  23.84600 53.18800 40.22400
H  25.11200 52.16300 39.37100
H  23.66100 52.51400 38.63000

