158

Mg -1.73900 17.50100 27.94200
C  -1.77300 14.94200 30.36700
C  -2.21100 19.85200 30.34500
C  -2.06800 19.65200 25.49100
C  -1.75200 14.79700 25.57100
N  -2.08500 17.33600 30.11400
C  -1.85900 16.22900 30.92300
C  -1.92600 16.60700 32.38000
C  -2.54300 18.11700 32.22500
C  -2.30600 18.48900 30.82000
C  -4.00700 18.13300 32.80800
C  -0.51700 16.68300 33.00100
C  -0.34700 17.33700 34.40500
H  0.44000 16.57100 35.44200
N  -1.91800 19.50800 27.95100
C  -2.12000 20.30600 29.01700
C  -2.27400 21.68400 28.55700
C  -2.24600 21.60200 27.13000
C  -2.07100 20.23100 26.78200
C  -2.40400 22.91500 29.49700
C  -2.32400 22.78500 26.19500
O  -2.25600 22.64400 25.00200
C  -2.51400 24.19500 26.62200
N  -1.67900 17.21500 25.95400
C  -1.86900 18.31400 25.09900
C  -1.92500 17.91200 23.59400
C  -1.41800 16.41200 23.67200
C  -1.64900 16.09800 25.14100
C  -3.32500 18.10400 22.99900
C  0.05700 16.15000 23.15100
C  1.28600 16.45900 24.12400
N  -1.80900 15.30000 27.89700
C  -1.70600 14.41700 26.87600
C  -1.70300 13.01700 27.37900
C  -1.67800 13.14700 28.78400
C  -1.79700 14.58400 29.00600
C  -1.79200 11.74400 26.51000
C  -1.71500 12.52700 30.04100
O  -1.89900 11.34900 30.38500
C  -1.72800 13.66800 31.10800
C  -0.41100 13.54400 31.80600
O  0.72100 13.65600 31.22500
O  -0.62300 13.16100 33.10200
C  0.58800 12.97000 33.82500
H  -2.40500 20.61000 31.10700
H  -2.27600 20.26600 24.61200
H  -1.73000 14.00700 24.81800
H  -2.49400 15.83700 32.90200
H  -2.05100 18.77900 32.93600
H  -4.04200 18.84100 33.63600
H  -4.33200 17.10600 32.97700
H  -4.59600 18.52200 31.97700
H  0.16600 17.19500 32.32300
H  -0.09100 15.68500 33.10300
H  -1.35900 17.55500 34.74600
H  0.11400 18.31900 34.29800
H  -3.37200 23.38300 29.31900
H  -1.54900 23.58500 29.40800
H  -2.58000 22.55400 30.51100
H  -3.53500 24.39300 26.94700
H  -2.13300 24.78000 25.78400
H  -1.96000 24.48900 27.51300
H  -1.23000 18.59300 23.10200
H  -2.10300 15.81800 23.06600
H  -3.83700 18.92100 23.50800
H  -3.94700 17.22100 23.15100
H  -3.21300 18.30400 21.93400
H  0.19200 16.71100 22.22600
H  0.17200 15.10700 22.85700
H  1.90400 15.57300 24.26900
H  0.83900 16.99600 24.96100
H  1.84800 17.15800 23.50400
H  -1.45700 11.97200 25.49800
H  -2.84600 11.46500 26.52400
H  -1.11800 10.95400 26.84200
H  -2.61400 13.57900 31.73700
H  0.81800 11.90400 33.85000
H  0.47900 13.29400 34.86000
H  1.48500 13.47500 33.46800
Mg 41.61300 7.80300 30.22000
C  43.31900 8.70100 33.08600
C  39.34600 6.16600 32.12000
C  40.11400 6.56800 27.32700
C  44.13800 8.96100 28.30400
N  41.57800 7.18700 32.37900
C  42.25900 7.88900 33.34800
C  41.59800 7.57100 34.68200
C  40.63600 6.36300 34.33700
C  40.45200 6.61300 32.88400
C  41.16100 4.94200 34.68200
C  41.04100 8.75900 35.45100
C  41.17300 8.71700 36.98800
H  41.56600 10.01500 37.79900
N  39.96500 6.65900 29.82300
C  39.05400 6.14700 30.77500
C  37.86600 5.60400 30.09300
C  38.10300 5.73500 28.65600
C  39.38400 6.35100 28.58300
C  36.69900 4.96500 30.87100
C  37.12100 5.49900 27.45400
O  37.30500 5.93500 26.32700
C  35.74200 4.89000 27.74500
N  42.10500 7.59200 28.08800
C  41.32700 7.16900 27.09200
C  41.91500 7.44400 25.64500
C  42.96400 8.46700 26.06400
C  43.12400 8.31000 27.58500
C  42.48900 6.09100 25.11600
C  42.61900 9.94400 25.71400
C  41.25600 10.49500 26.20600
N  43.40800 8.68000 30.62400
C  44.31900 9.08100 29.72100
C  45.39100 9.87500 30.48800
C  44.90600 9.82300 31.76100
C  43.79400 8.96500 31.82600
C  46.56600 10.51800 29.90400
C  45.25800 10.20900 33.08600
O  46.11600 10.87100 33.52800
C  44.18500 9.57200 34.05800
C  44.77900 8.72700 35.08500
O  45.18800 7.61400 34.95200
O  44.80300 9.42600 36.22200
C  45.46000 8.86300 37.41900
H  38.49900 5.67400 32.60400
H  39.56100 6.37200 26.40600
H  44.70500 9.54200 27.57400
H  42.32000 6.99400 35.26000
H  39.69300 6.48100 34.87000
H  40.43700 4.42900 35.31400
H  42.10600 4.90000 35.22500
H  41.23700 4.34800 33.77200
H  39.99400 8.97100 35.23300
H  41.58100 9.66300 35.17000
H  41.81900 7.88500 37.26900
H  40.27700 8.29800 37.44500
H  36.84300 4.97900 31.95100
H  36.63500 3.92700 30.54700
H  35.80500 5.55000 30.65300
H  35.32500 4.67800 26.76100
H  35.16300 5.70800 28.17200
H  35.78400 3.99400 28.36400
H  41.13800 7.85700 25.00100
H  43.96900 8.23000 25.71700
H  41.87100 5.68400 24.31500
H  42.58500 5.31900 25.87900
H  43.48600 6.27500 24.71600
H  42.55200 10.03000 24.62900
H  43.35800 10.68500 26.02000
H  40.52000 10.53100 25.40200
H  41.45800 11.37500 26.81600
H  40.83100 9.68500 26.79800
H  46.36800 11.52700 29.54300
H  46.90700 9.95200 29.03700
H  47.35900 10.54700 30.65100
H  43.60000 10.45500 34.31500
H  44.74800 8.22400 37.94200
H  45.80100 9.68700 38.04500
H  46.36500 8.34100 37.11100

