158

Mg 0.90300 43.20600 25.62800
C  2.84100 42.99100 28.50600
C  -1.86100 42.43000 27.73700
C  -0.99400 42.55000 22.88800
C  3.69400 43.29600 23.67300
N  0.49800 43.00300 27.92100
C  1.46600 42.96300 28.87700
C  0.83500 42.74300 30.24800
C  -0.62500 42.54400 29.94500
C  -0.67300 42.63400 28.41900
C  -1.47200 41.41000 30.62200
C  1.17900 43.99600 31.14100
C  1.46600 43.71500 32.59900
H  0.89000 42.45300 33.33700
N  -1.14300 42.77100 25.36300
C  -2.11500 42.58200 26.35100
C  -3.40900 42.69800 25.72300
C  -3.19100 42.67200 24.24100
C  -1.71600 42.59300 24.11000
C  -4.71000 42.83800 26.51100
C  -4.25000 42.69400 23.18500
O  -3.94600 42.66200 22.00300
C  -5.70400 42.73500 23.52500
N  1.32700 42.82000 23.55900
C  0.35700 42.70900 22.60400
C  0.91600 42.97900 21.20900
C  2.47400 43.38300 21.51500
C  2.53600 43.11000 23.01200
C  0.77900 41.85300 20.13400
C  2.91700 44.81500 21.20200
C  4.20000 44.99400 20.49500
N  2.86800 43.27100 25.93100
C  3.89100 43.28000 25.06100
C  5.18400 43.14900 25.73100
C  4.78500 43.08100 27.11000
C  3.40000 43.17700 27.19300
C  6.56000 43.21700 25.12600
C  5.30900 42.91300 28.44300
O  6.45900 42.79100 28.78900
C  4.04600 42.97400 29.40600
C  4.13500 41.74000 30.25100
O  4.34200 40.60300 29.82100
O  3.98800 42.09800 31.59200
C  4.20300 40.99700 32.47100
H  -2.72600 42.32700 28.39600
H  -1.65100 42.45400 22.02100
H  4.59500 43.41300 23.06700
H  1.30800 41.84100 30.63600
H  -1.13500 43.45400 30.25800
H  -2.35500 41.86400 31.07100
H  -0.82400 40.91500 31.34500
H  -1.79000 40.70400 29.85400
H  0.32800 44.67600 31.10800
H  1.91200 44.71300 30.77300
H  1.02900 44.56100 33.13000
H  2.55300 43.76300 32.66200
H  -5.33400 43.66800 26.17900
H  -4.59400 42.82100 27.59500
H  -5.24900 41.93900 26.21400
H  -6.24700 42.87300 22.59000
H  -5.82200 43.67000 24.07300
H  -6.02400 41.86300 24.09600
H  0.37700 43.85600 20.85000
H  3.12800 42.71500 20.95400
H  0.16200 41.01100 20.44900
H  1.74300 41.38100 19.94800
H  0.30800 42.24400 19.23200
H  2.86100 45.38700 22.12800
H  2.13000 45.26000 20.59300
H  4.10100 45.74600 19.71300
H  4.38600 44.13000 19.85700
H  5.04700 45.28200 21.11900
H  6.69000 42.44900 24.36400
H  7.29800 42.92100 25.87200
H  6.81400 44.17100 24.66400
H  4.04800 43.80200 30.11500
H  5.23400 40.64400 32.42600
H  3.58400 40.10000 32.45400
H  4.16700 41.42200 33.47400
Mg -10.77000 17.74700 41.47000
C  -7.36400 17.06100 41.44100
C  -10.03600 21.03200 40.66500
C  -14.01200 18.31400 41.13900
C  -11.27300 14.35100 41.37100
N  -8.85400 18.91000 41.19700
C  -7.60500 18.44600 41.21100
C  -6.57300 19.59400 40.87100
C  -7.50600 20.87900 41.12000
C  -8.90000 20.26500 41.01500
C  -7.28900 21.70300 42.42800
C  -6.16400 19.35800 39.40800
C  -4.68500 18.94900 39.17400
H  -4.41100 17.91000 38.12000
N  -11.92000 19.45300 40.99600
C  -11.40300 20.69200 40.68900
C  -12.52100 21.59600 40.49600
C  -13.70000 20.86900 40.76400
C  -13.24000 19.49500 41.04300
C  -12.33500 23.07800 40.01200
C  -15.14000 21.43900 40.60900
O  -15.34200 22.59700 40.40700
C  -16.38200 20.52500 40.76100
N  -12.41800 16.53100 40.93200
C  -13.66000 16.97100 41.08500
C  -14.70900 15.84100 41.17300
C  -13.79500 14.53800 41.04100
C  -12.37700 15.19400 41.19900
C  -15.59700 15.90100 42.48000
C  -13.85800 13.73100 39.74900
C  -13.80100 12.19700 39.80100
N  -9.64000 16.01300 41.45600
C  -9.94300 14.70800 41.38600
C  -8.79400 13.92100 41.51000
C  -7.74300 14.74500 41.50800
C  -8.31000 16.03300 41.50700
C  -8.68100 12.39100 41.60800
C  -6.31100 14.80900 41.53500
O  -5.45400 13.91500 41.50200
C  -6.02700 16.37400 41.47100
C  -5.28900 16.75900 42.74700
O  -4.11300 16.58900 42.91600
O  -6.15000 17.04400 43.80000
C  -5.53600 16.88700 45.12700
H  -9.78300 22.05900 40.39300
H  -15.09100 18.45000 41.04200
H  -11.47000 13.27700 41.38900
H  -5.80100 19.47800 41.63200
H  -7.30800 21.59400 40.32200
H  -6.26400 21.72600 42.79900
H  -7.97000 21.27600 43.16500
H  -7.67100 22.70200 42.21600
H  -6.27400 20.23400 38.76900
H  -6.89000 18.64400 39.01900
H  -4.30300 18.77600 40.18000
H  -4.23200 19.83700 38.73200
H  -12.59900 23.70100 40.86600
H  -13.02000 23.38400 39.22100
H  -11.30500 23.27100 39.71300
H  -16.15900 19.71100 40.07200
H  -17.33900 20.95300 40.46000
H  -16.48400 20.15400 41.78000
H  -15.39300 15.91100 40.32700
H  -14.00300 13.89600 41.89700
H  -15.68200 14.89500 42.89000
H  -16.61900 16.17900 42.22200
H  -15.10500 16.70200 43.03200
H  -13.13000 14.06300 39.00900
H  -14.82800 13.81600 39.25900
H  -14.81500 11.79800 39.81000
H  -13.19600 11.90500 40.65900
H  -13.40300 11.87500 38.83800
H  -9.63100 11.86800 41.49500
H  -8.08200 12.02500 42.44200
H  -8.14500 12.18300 40.68200
H  -5.44300 16.76900 40.64000
H  -6.19800 17.37500 45.84200
H  -4.62700 17.47200 45.26900
H  -5.34700 15.83900 45.36100

