158

Mg 17.28000 -1.74200 29.52700
C  15.82400 0.75500 31.45500
C  18.83600 -3.05400 32.24900
C  18.66500 -4.13700 27.52900
C  15.71700 -0.19100 26.77300
N  17.28900 -1.21300 31.55600
C  16.60600 -0.19700 32.15100
C  16.77300 -0.25000 33.71700
C  17.96800 -1.22200 33.92100
C  18.08200 -1.88400 32.52900
C  19.28700 -0.45600 34.38100
C  15.46300 -0.83400 34.35700
C  15.32300 -0.62800 35.94000
H  16.49400 0.07300 36.75100
N  18.49300 -3.37800 29.88300
C  19.02300 -3.76100 31.09700
C  19.83400 -4.96000 30.94500
C  19.81000 -5.27200 29.55300
C  19.03500 -4.25900 28.93000
C  20.54400 -5.66000 32.22500
C  20.41400 -6.47900 28.87800
O  20.29300 -6.76500 27.69100
C  21.23100 -7.40400 29.73300
N  17.15600 -2.11100 27.45400
C  17.79500 -3.24700 26.86500
C  17.50100 -3.29200 25.38400
C  16.36100 -2.17100 25.26900
C  16.47800 -1.40200 26.58000
C  18.74000 -3.12700 24.43800
C  14.99600 -2.64400 24.96000
C  14.30800 -1.69700 23.91300
N  16.05300 -0.02900 29.09400
C  15.52900 0.49200 27.97500
C  14.70700 1.62700 28.19400
C  14.82300 1.81600 29.60200
C  15.63000 0.76400 30.07800
C  13.97100 2.48000 27.22400
C  14.37700 2.58300 30.71300
O  13.69500 3.60400 30.80000
C  14.95500 1.82700 31.98800
C  15.75000 2.91000 32.75000
O  16.62900 3.54800 32.25200
O  15.26800 3.07300 34.00100
C  15.90600 4.06300 34.90100
H  19.08800 -3.47500 33.22500
H  19.13200 -4.82000 26.81700
H  15.37800 0.20400 25.81300
H  17.06900 0.73900 34.06800
H  17.60100 -1.95900 34.63600
H  19.12200 0.62200 34.36300
H  20.07400 -0.72600 33.67700
H  19.51900 -0.83100 35.37800
H  15.50000 -1.90700 34.16700
H  14.52600 -0.39500 34.01400
H  15.15500 -1.63000 36.33700
H  14.51100 0.07200 36.13600
H  20.27000 -6.71300 32.28700
H  20.28400 -5.20400 33.18100
H  21.60900 -5.43400 32.17000
H  22.08200 -6.94700 30.23900
H  21.73500 -8.10000 29.06300
H  20.65100 -7.95200 30.47500
H  17.00100 -4.24600 25.21100
H  16.76700 -1.49900 24.51200
H  19.57700 -3.14000 25.13500
H  18.70300 -2.17400 23.91100
H  18.73700 -3.91500 23.68500
H  14.30400 -2.71900 25.79800
H  14.95000 -3.64100 24.52100
H  13.67900 -0.91600 24.34100
H  13.68500 -2.20200 23.17500
H  15.10300 -1.16100 23.39400
H  13.75100 1.92200 26.31400
H  14.63400 3.34300 27.15400
H  13.05400 2.78900 27.72400
H  14.14100 1.40100 32.57400
H  15.47400 5.06300 34.93900
H  16.99200 4.10800 34.83000
H  15.69800 3.70700 35.91000
Mg 25.72700 -0.76900 29.37800
C  27.44900 -0.97200 32.33700
C  22.78600 -0.52200 31.22900
C  23.92700 -0.76700 26.57500
C  28.63300 -1.36000 27.55300
N  25.21700 -1.02600 31.51500
C  26.05800 -0.93500 32.59300
C  25.34800 -0.53000 33.96600
C  23.91300 -0.86700 33.49400
C  23.96300 -0.85300 31.94600
C  23.30100 -2.22300 34.13600
C  25.72900 0.90200 34.40600
C  24.83200 1.63300 35.40800
H  25.59700 2.19100 36.68600
N  23.68500 -0.51400 28.95100
C  22.66900 -0.38600 29.82700
C  21.44600 -0.07300 29.14000
C  21.79400 -0.10100 27.78600
C  23.19200 -0.46000 27.71100
C  20.10000 0.07000 29.84400
C  20.97700 0.31400 26.56000
O  21.48900 0.34700 25.44800
C  19.53200 0.82400 26.67800
N  26.26100 -1.08500 27.39600
C  25.29900 -1.09200 26.36500
C  25.97300 -1.26800 25.03200
C  27.51300 -1.24400 25.34700
C  27.45000 -1.31000 26.82500
C  25.50600 -2.55900 24.21100
C  28.21800 0.10000 24.94100
C  29.29800 0.05900 23.81900
N  27.67400 -1.25600 29.80000
C  28.75000 -1.38900 28.95900
C  29.90000 -1.54700 29.80500
C  29.48300 -1.28000 31.10900
C  28.12900 -1.15400 31.06200
C  31.25000 -1.86100 29.29100
C  29.93300 -1.03000 32.46000
O  31.07500 -1.04900 32.89800
C  28.61400 -0.69600 33.31900
C  28.67000 -1.68600 34.39900
O  28.46400 -2.89300 34.23800
O  29.07400 -1.09000 35.63000
C  29.37400 -2.01200 36.74800
H  21.90700 -0.43500 31.87100
H  23.33900 -0.85400 25.65900
H  29.52000 -1.46700 26.92500
H  25.63100 -1.23200 34.75000
H  23.40900 0.04400 33.81800
H  23.96800 -2.67900 34.86800
H  23.06400 -2.94500 33.35600
H  22.31300 -1.95000 34.50600
H  25.80800 1.45400 33.47000
H  26.71400 0.89300 34.87300
H  23.98100 1.05100 35.76100
H  24.43700 2.56400 35.00100
H  19.50100 0.89300 29.45600
H  20.17000 0.12300 30.93100
H  19.44300 -0.78900 29.70700
H  19.19900 1.07700 25.67100
H  19.46600 1.64200 27.39500
H  18.81800 0.08800 27.04900
H  25.55900 -0.41900 24.48800
H  28.00200 -2.16900 25.04100
H  24.65900 -3.07400 24.66500
H  26.21500 -3.38300 24.12900
H  25.18800 -2.35500 23.18800
H  28.71300 0.64400 25.74600
H  27.48500 0.80000 24.53800
H  30.22300 0.39800 24.28600
H  28.97300 0.59400 22.92700
H  29.40400 -0.98000 23.50700
H  31.33500 -2.05600 28.22200
H  31.77800 -2.64900 29.82800
H  31.82900 -0.94100 29.37600
H  28.59700 0.28500 33.79500
H  29.35300 -3.05100 36.41700
H  28.55900 -1.90300 37.46300
H  30.30900 -1.81200 37.27200

