158

Mg 17.21000 -1.83600 28.33400
C  16.19800 0.38600 30.80700
C  19.28700 -3.38700 30.58900
C  18.44600 -3.59100 25.79600
C  15.47600 0.32400 26.00400
N  17.62300 -1.55200 30.43900
C  17.03500 -0.58500 31.24600
C  17.48800 -0.83500 32.66800
C  18.60600 -1.96900 32.61500
C  18.45000 -2.38000 31.13800
C  20.07400 -1.72500 32.97700
C  16.24900 -1.28300 33.61000
C  16.20500 -0.47000 34.88600
H  17.52100 -0.08300 35.55000
N  18.74800 -3.24400 28.23200
C  19.40400 -3.83300 29.24400
C  20.05500 -5.01600 28.83400
C  19.77400 -5.20900 27.39300
C  18.90300 -4.00500 27.06600
C  20.87700 -5.94600 29.75900
C  20.28100 -6.17800 26.41000
O  20.07500 -6.23400 25.16000
C  21.25100 -7.21400 26.89200
N  16.93400 -1.74300 26.24000
C  17.67900 -2.50400 25.39500
C  17.29400 -2.18700 23.92100
C  16.34900 -0.92800 23.98900
C  16.25000 -0.71900 25.51900
C  18.52300 -1.95800 23.01200
C  14.97100 -1.16100 23.28000
C  13.99500 -2.03500 24.03100
N  15.92800 -0.07500 28.38100
C  15.34700 0.67600 27.39000
C  14.46000 1.69600 27.97300
C  14.79900 1.67300 29.33300
C  15.72400 0.64400 29.48400
C  13.47700 2.65800 27.33500
C  14.62600 2.37100 30.65100
O  13.92600 3.32800 30.94900
C  15.49000 1.50400 31.63400
C  16.35800 2.30900 32.35200
O  17.42400 2.70700 32.01200
O  15.83300 2.71600 33.52500
C  16.47400 3.73600 34.34000
H  19.96600 -3.85700 31.30400
H  18.82700 -4.12400 24.92400
H  14.98400 0.99900 25.30100
H  18.04800 0.04500 32.98300
H  18.29800 -2.83900 33.19600
H  20.05000 -0.87500 33.65800
H  20.59000 -1.55300 32.03200
H  20.42000 -2.60400 33.52000
H  16.39500 -2.31200 33.93900
H  15.34200 -1.16600 33.01600
H  15.52900 -1.04200 35.52100
H  15.66600 0.42100 34.56200
H  20.46800 -6.94300 29.59800
H  20.83300 -5.70500 30.82100
H  21.92000 -5.84600 29.45700
H  20.73800 -7.82100 27.63900
H  22.20400 -6.80000 27.22000
H  21.58200 -7.88100 26.09600
H  16.78100 -3.08400 23.57500
H  16.71700 -0.02300 23.50700
H  18.34100 -1.31600 22.15100
H  18.75800 -2.97000 22.68200
H  19.30100 -1.45900 23.59100
H  15.08100 -1.64500 22.30900
H  14.41000 -0.22900 23.20700
H  13.08800 -1.45100 24.18900
H  14.39300 -2.40200 24.97700
H  13.67600 -2.89700 23.44500
H  13.10400 2.16000 26.44000
H  14.04800 3.51600 26.97900
H  12.61600 2.97500 27.92300
H  14.73500 1.04800 32.27400
H  17.23100 4.28500 33.78000
H  17.00500 3.37100 35.22000
H  15.62100 4.34100 34.64600
Mg 26.98300 50.27100 26.89200
C  24.62400 51.13000 29.45100
C  29.12000 49.34900 29.53300
C  29.19200 49.95400 24.55500
C  24.71300 51.65400 24.57500
N  26.87300 50.28100 29.26600
C  25.80200 50.59300 30.03900
C  26.09500 50.47600 31.55500
C  27.55700 49.90900 31.54600
C  27.88400 49.83100 30.02000
C  28.66800 50.73100 32.27300
C  25.01900 49.45500 32.22700
C  24.62800 49.80000 33.70500
H  24.97500 48.83000 34.85600
N  28.84200 49.67400 27.00300
C  29.56800 49.30900 28.15900
C  30.91000 48.88300 27.76600
C  31.04100 49.22700 26.35200
C  29.64100 49.60100 25.88300
C  31.97900 48.28100 28.67000
C  32.18000 49.33100 25.42200
O  32.12400 49.88600 24.35000
C  33.55400 48.86400 25.89800
N  27.02600 51.02700 24.93800
C  27.96900 50.44100 24.12000
C  27.56000 50.42000 22.61800
C  26.13600 50.79000 22.62700
C  25.90400 51.18600 24.15200
C  28.46200 51.28100 21.78100
C  25.15700 49.74200 22.15600
C  24.19300 50.22900 21.07200
N  25.13900 51.29600 26.97400
C  24.33800 51.75600 25.91400
C  23.12600 52.23800 26.39100
C  23.22700 52.01600 27.79600
C  24.45900 51.36600 28.07400
C  21.98600 52.66600 25.49600
C  22.32700 52.09400 28.97300
O  21.15800 52.40000 29.12800
C  23.28000 51.61600 30.11800
C  23.58400 52.79500 30.96900
O  24.56000 53.50100 30.86100
O  22.61500 52.85700 31.87100
C  22.79100 53.74100 33.03100
H  29.78600 49.02900 30.33700
H  29.89100 49.68900 23.75900
H  24.00100 51.96900 23.81000
H  25.92200 51.43800 32.03600
H  27.45200 48.86900 31.85400
H  28.44200 51.54200 32.96500
H  29.25900 51.18100 31.47500
H  29.12300 49.92000 32.84200
H  25.42600 48.44400 32.20500
H  24.11000 49.37700 31.63100
H  23.53800 49.76200 33.72200
H  24.95800 50.79800 33.99300
H  31.61200 48.06100 29.67200
H  32.83800 48.94400 28.76800
H  32.32500 47.34500 28.22900
H  33.50000 47.97400 26.52500
H  33.87900 49.74000 26.45900
H  34.31600 48.73600 25.12900
H  27.67000 49.40700 22.23100
H  26.05900 51.67500 21.99600
H  28.93500 50.63700 21.04000
H  29.12200 51.78000 22.49000
H  27.95000 52.16100 21.39100
H  24.51800 49.55400 23.01900
H  25.71700 48.82500 21.97000
H  24.57300 51.15100 20.63300
H  23.20000 50.39400 21.49100
H  24.11500 49.42300 20.34200
H  22.04200 53.73300 25.27700
H  21.05900 52.30800 25.94400
H  22.04700 52.08700 24.57500
H  22.81700 50.84800 30.73700
H  23.66700 54.38600 32.95900
H  23.08100 53.13300 33.88800
H  21.85100 54.16800 33.37900

