158

Mg 0.10500 7.83900 27.02000
C  0.80900 9.90400 29.81800
C  0.57200 5.23400 28.83500
C  -0.04500 6.11400 24.18700
C  0.57600 10.82100 25.02500
N  0.48100 7.66600 29.04300
C  0.60000 8.55800 30.09500
C  0.55900 7.94300 31.46200
C  0.83500 6.42200 31.08200
C  0.66100 6.44000 29.51700
C  2.17900 5.76200 31.51200
C  -0.76600 8.33100 32.13300
C  -0.69200 8.76400 33.61900
H  0.53000 8.28200 34.46400
N  0.24500 5.86600 26.54800
C  0.32300 4.92300 27.51700
C  0.16800 3.59800 26.92800
C  0.09600 3.84700 25.50200
C  0.05100 5.33800 25.36000
C  0.44800 2.29700 27.67400
C  0.08100 2.89900 24.32600
O  -0.10100 3.20700 23.10400
C  0.26800 1.39700 24.62800
N  0.21000 8.36800 24.95300
C  0.04700 7.45500 23.93000
C  0.28100 8.07400 22.54500
C  0.13500 9.61700 22.81700
C  0.40000 9.58800 24.35100
C  1.62800 7.51000 22.04600
C  -1.26900 10.22900 22.48900
C  -1.23200 11.09000 21.28200
N  0.53600 10.00600 27.29900
C  0.68600 11.07100 26.41500
C  0.85600 12.28800 27.12700
C  0.87700 11.87700 28.46700
C  0.75300 10.50600 28.52000
C  1.13100 13.71500 26.42100
C  1.11800 12.41000 29.79200
O  1.33200 13.65400 30.10000
C  0.91000 11.17600 30.81700
C  2.02500 11.24000 31.76500
O  3.11000 10.67200 31.72000
O  1.57300 11.89800 32.90700
C  2.41600 11.77100 34.11400
H  0.77200 4.35700 29.45500
H  -0.09500 5.57500 23.23900
H  0.59900 11.68600 24.35800
H  1.32800 8.45800 32.03800
H  0.14700 5.81200 31.66800
H  2.73000 6.37400 32.22700
H  2.82700 5.45300 30.69200
H  1.98700 4.87800 32.12100
H  -1.44000 7.47400 32.10900
H  -1.19100 9.17300 31.58700
H  -1.56600 8.36500 34.13300
H  -0.70100 9.85200 33.68300
H  -0.20200 1.50400 27.30500
H  0.34900 2.39800 28.75400
H  1.48800 2.06800 27.43800
H  -0.72900 1.17100 25.00800
H  1.07100 1.24900 25.35000
H  0.38900 0.82200 23.71000
H  -0.44000 7.73500 21.80100
H  0.91500 10.23700 22.37600
H  1.95100 8.08200 21.17600
H  1.57800 6.46800 21.73100
H  2.34700 7.56300 22.86400
H  -1.61000 10.88500 23.29100
H  -2.02700 9.48600 22.23900
H  -0.37300 10.88900 20.64200
H  -1.11300 12.13900 21.55400
H  -2.11400 10.82900 20.69800
H  1.70500 13.47100 25.52700
H  1.78800 14.31600 27.05000
H  0.24000 14.26200 26.11500
H  -0.07400 11.24400 31.28000
H  3.28600 11.14900 33.90200
H  1.84000 11.30800 34.91400
H  2.87000 12.72600 34.38000
Mg 16.72300 -0.68300 27.46500
C  15.81900 1.24900 30.19300
C  18.83200 -2.48900 29.41400
C  18.18600 -1.76300 24.66600
C  14.82300 1.61400 25.36900
N  17.24000 -0.65900 29.61600
C  16.79200 0.23100 30.50900
C  17.20800 -0.18100 31.96000
C  18.25700 -1.28400 31.68600
C  18.10200 -1.55000 30.16500
C  19.69100 -0.97400 32.27700
C  16.02600 -0.69500 32.79700
C  15.95100 -0.48700 34.33000
H  17.08800 0.24600 35.07500
N  18.16500 -2.09900 27.08400
C  18.80400 -2.83000 28.02300
C  19.65000 -3.85200 27.27300
C  19.46300 -3.57700 25.85500
C  18.62100 -2.40700 25.85000
C  20.57800 -4.83000 28.01300
C  19.99300 -4.37600 24.67200
O  19.83200 -4.04800 23.52600
C  20.81700 -5.57400 24.92700
N  16.56300 -0.09000 25.35700
C  17.29900 -0.74500 24.42700
C  17.05500 -0.14700 23.05600
C  15.76600 0.71900 23.22300
C  15.67200 0.70900 24.73100
C  18.22400 0.59700 22.38800
C  14.49000 0.02800 22.64100
C  13.66100 0.93700 21.69600
N  15.47700 1.03800 27.67700
C  14.72400 1.84100 26.78400
C  13.92600 2.80600 27.50200
C  14.36100 2.62100 28.87500
C  15.33800 1.58900 28.92400
C  12.80700 3.67300 27.01200
C  14.20400 3.15200 30.19800
O  13.50000 4.04800 30.70900
C  15.11500 2.25100 31.14000
C  16.03300 3.00400 31.98200
O  17.12700 3.32300 31.62600
O  15.44600 3.41800 33.19100
C  16.28400 4.35600 33.99700
H  19.48600 -3.04200 30.09100
H  18.71200 -2.26100 23.84900
H  14.28900 2.30000 24.70800
H  17.73800 0.59800 32.50800
H  17.97400 -2.24800 32.11000
H  20.45100 -1.21000 31.53100
H  19.79700 -1.69500 33.08800
H  19.84100 0.00400 32.73400
H  15.96700 -1.78200 32.74500
H  15.15300 -0.42000 32.20400
H  15.84100 -1.46500 34.80000
H  15.02900 0.09400 34.34500
H  20.79500 -4.42700 29.00200
H  21.54000 -4.83300 27.50200
H  20.13300 -5.81100 28.18400
H  20.39600 -6.13100 25.76400
H  21.74700 -5.05100 25.15100
H  20.80100 -6.29100 24.10600
H  16.85800 -1.08000 22.52700
H  15.92200 1.72000 22.82100
H  17.95900 1.50500 21.84600
H  18.57900 -0.11500 21.64400
H  18.98400 0.85300 23.12700
H  13.78100 -0.13300 23.45400
H  14.55100 -0.98900 22.25200
H  14.13900 1.90800 21.56300
H  12.59000 1.07600 21.84100
H  13.95500 0.57600 20.71100
H  12.08900 3.78700 27.82400
H  12.30300 3.21500 26.16100
H  13.22100 4.60500 26.62600
H  14.46400 1.75500 31.86000
H  16.75400 3.77400 34.78900
H  15.49600 4.98800 34.40700
H  17.02900 4.92400 33.43900

