158

Mg 53.24800 23.54700 44.50700
C  50.67100 25.86000 43.66400
C  51.12900 20.95000 43.54100
C  55.99200 21.54700 44.39900
C  55.38300 26.30300 44.99900
N  51.19300 23.51100 43.44700
C  50.32500 24.50300 43.37600
C  48.98900 23.98500 42.84800
C  49.00100 22.47800 43.21800
C  50.57800 22.23200 43.43400
C  48.27100 21.99500 44.51500
C  48.58700 24.28400 41.33500
C  49.70300 24.00500 40.33500
H  49.43900 24.22000 38.82300
N  53.47800 21.44100 44.25700
C  52.49100 20.61600 43.85700
C  53.08500 19.25500 43.79600
C  54.48400 19.39100 44.06100
C  54.75500 20.81200 44.23500
C  52.13800 18.12200 43.54200
C  55.42200 18.18000 43.95500
O  55.05200 17.11200 43.37900
C  56.89800 18.37100 44.37600
N  55.43600 23.91800 44.55900
C  56.24100 22.87800 44.63900
C  57.72500 23.35300 44.93600
C  57.48600 24.86000 45.35700
C  56.06400 25.10000 44.87100
C  58.48400 22.50500 46.06200
C  58.49500 25.83400 44.65400
C  59.98500 25.49000 44.72500
N  53.13300 25.61100 44.33600
C  54.08700 26.63800 44.60200
C  53.46700 27.91600 44.50000
C  52.14200 27.68700 44.19100
C  51.95900 26.27700 44.04300
C  54.09900 29.19200 44.94100
C  50.91100 28.31600 43.88100
O  50.71000 29.51500 43.75700
C  49.81700 27.17800 43.52500
C  49.38300 27.41000 42.11000
O  50.12800 27.58300 41.16700
O  48.03400 27.49900 42.00400
C  47.45000 27.91000 40.70900
H  50.47800 20.12700 43.23600
H  56.87800 20.91000 44.37600
H  56.04200 27.14500 45.22000
H  48.28500 24.46500 43.52800
H  48.63400 21.83700 42.41700
H  48.91700 21.33800 45.09800
H  47.40300 21.42800 44.17900
H  48.11000 22.93200 45.04700
H  48.13100 25.26900 41.23200
H  47.73900 23.70800 40.96400
H  49.87700 22.92900 40.33800
H  50.66600 24.46300 40.55900
H  52.68100 17.21100 43.29200
H  51.39200 18.38000 42.79000
H  51.61500 17.93700 44.48100
H  57.41300 19.07900 43.72700
H  57.25800 17.34300 44.42600
H  56.88500 18.73500 45.40300
H  58.26000 23.23900 43.99300
H  57.61800 24.90600 46.43800
H  57.76700 21.71100 46.27000
H  58.80900 23.07500 46.93200
H  59.24000 21.94300 45.51200
H  58.27900 26.83500 45.02500
H  58.19100 25.70300 43.61500
H  60.19300 24.58800 45.30000
H  60.41400 26.38100 45.18500
H  60.48100 25.38600 43.76000
H  53.41300 30.03800 44.95800
H  54.95000 29.50600 44.33700
H  54.44400 29.09300 45.97000
H  49.00500 27.17300 44.25200
H  46.82100 28.77300 40.92900
H  46.90400 27.16500 40.13100
H  48.17500 28.20200 39.94900
Mg 8.47800 48.04700 25.30900
C  6.47900 48.24400 28.01400
C  11.20600 48.83900 27.37600
C  10.58200 47.84900 22.58400
C  5.81800 47.70200 23.19300
N  8.83800 48.36400 27.52400
C  7.81200 48.35100 28.43300
C  8.38000 48.72600 29.81700
C  9.71900 49.41900 29.42900
C  10.00100 48.85900 28.06300
C  9.68500 50.98300 29.38700
C  8.61700 47.40500 30.66000
C  8.51000 47.54500 32.15300
H  7.80700 46.50600 33.00600
N  10.50700 48.32200 25.01500
C  11.48700 48.50000 25.99300
C  12.79800 48.46200 25.42300
C  12.67000 48.04400 24.11300
C  11.23100 48.06000 23.85400
C  14.04700 48.97500 26.13900
C  13.71500 47.72900 23.07100
O  13.50600 47.43700 21.90800
C  15.16900 47.77800 23.39500
N  8.23400 47.94200 23.09200
C  9.21900 47.76500 22.21900
C  8.72500 47.46600 20.82900
C  7.21100 47.25800 21.02600
C  7.08200 47.56800 22.52700
C  9.02800 48.60200 19.83700
C  6.59800 45.84300 20.69300
C  5.41600 45.76200 19.69900
N  6.59700 47.93000 25.52400
C  5.55600 47.90500 24.59100
C  4.29300 47.92800 25.19600
C  4.65000 47.94500 26.60100
C  6.04100 48.07800 26.69100
C  2.95000 47.89100 24.61700
C  4.06100 48.03600 27.88900
O  2.82200 48.03900 28.10700
C  5.19600 48.24300 28.92200
C  5.05300 47.10200 29.87200
O  5.65600 46.08000 29.76400
O  4.22600 47.40000 30.94000
C  4.00200 46.38800 32.02300
H  11.98000 49.11300 28.09500
H  11.27600 47.72300 21.75000
H  4.91600 47.57900 22.59000
H  7.62400 49.39400 30.22900
H  10.56900 49.03100 29.99100
H  8.70600 51.41300 29.60200
H  9.87600 51.21700 28.34000
H  10.52500 51.45900 29.89300
H  9.60600 47.01600 30.41700
H  7.83800 46.71400 30.33900
H  8.13600 48.51300 32.48600
H  9.52800 47.50400 32.54000
H  13.96100 49.13000 27.21400
H  14.44800 49.93300 25.80800
H  14.83200 48.22500 26.04800
H  15.52100 46.90700 23.94700
H  15.38800 48.70700 23.92200
H  15.68100 47.81800 22.43400
H  9.22700 46.51300 20.66000
H  6.54700 47.96100 20.52300
H  8.83800 49.59200 20.25000
H  8.34700 48.54200 18.98800
H  10.04700 48.51900 19.45600
H  6.35000 45.25700 21.57800
H  7.40800 45.32800 20.17700
H  5.50100 44.82700 19.14600
H  5.37700 46.60700 19.01200
H  4.49800 45.87900 20.27500
H  2.73200 48.95100 24.48500
H  2.22000 47.38700 25.25100
H  3.01300 47.35400 23.67100
H  4.94100 49.20200 29.37500
H  2.94800 46.24600 32.26200
H  4.57100 46.75400 32.87900
H  4.35400 45.45100 31.59100

