158

Mg 17.60600 -0.55900 27.31000
C  16.16600 1.07100 30.09000
C  19.36700 -2.57200 29.33000
C  18.68700 -1.78900 24.58600
C  15.80800 1.83800 25.28500
N  17.81700 -0.64300 29.53800
C  17.08300 0.05300 30.48700
C  17.62400 -0.34300 31.95600
C  18.65200 -1.55900 31.59400
C  18.61800 -1.67900 30.06100
C  20.09700 -1.38000 32.07000
C  16.54200 -0.72900 33.02200
C  16.56300 -0.04300 34.43400
H  17.84300 0.60500 34.99600
N  18.86200 -1.96000 27.03300
C  19.45700 -2.70600 27.98200
C  20.33600 -3.64800 27.28100
C  20.12000 -3.53700 25.89800
C  19.13000 -2.39800 25.77700
C  21.21300 -4.70300 28.03500
C  20.42200 -4.44500 24.76200
O  20.00200 -4.19100 23.64800
C  21.26800 -5.69800 25.03500
N  17.38300 0.07800 25.23700
C  17.86400 -0.69400 24.31600
C  17.77900 -0.14300 22.87100
C  16.67800 1.02700 23.15400
C  16.68500 1.04900 24.64400
C  19.24300 0.40500 22.41800
C  15.27000 0.79100 22.48100
C  14.20300 -0.09300 23.19700
N  16.21600 1.04400 27.54200
C  15.58200 1.90100 26.63600
C  14.71000 2.73200 27.31000
C  14.84600 2.43600 28.68500
C  15.79800 1.39700 28.72800
C  13.87300 3.69100 26.69800
C  14.39100 2.74900 30.04800
O  13.51700 3.52400 30.50100
C  15.33100 1.97500 30.98000
C  16.22700 2.82300 31.74000
O  17.29100 3.33100 31.41300
O  15.53600 3.13800 32.87400
C  16.21600 4.03700 33.78500
H  20.09300 -3.19100 29.86000
H  18.99700 -2.15400 23.60500
H  15.18000 2.50000 24.68300
H  18.27700 0.44600 32.32900
H  18.27400 -2.53200 31.90800
H  20.38700 -2.33900 32.49700
H  20.22600 -0.50500 32.70800
H  20.78600 -1.15400 31.25600
H  16.52500 -1.79600 33.24300
H  15.54400 -0.66300 32.58900
H  16.25500 -0.73700 35.21700
H  15.77300 0.68900 34.26600
H  22.14800 -4.76200 27.47900
H  20.64000 -5.62900 28.08800
H  21.56900 -4.32500 28.99300
H  22.28500 -5.32800 25.16600
H  21.19800 -6.28900 24.12200
H  21.02900 -6.28500 25.92300
H  17.45200 -0.94700 22.21100
H  17.04100 2.00200 22.82800
H  20.07100 0.21400 23.10100
H  19.17600 1.47500 22.22100
H  19.51600 -0.11200 21.49800
H  15.37600 0.40100 21.46900
H  14.87900 1.77400 22.22100
H  13.48700 -0.53100 22.50200
H  13.59500 0.59500 23.78300
H  14.69300 -0.93300 23.69000
H  14.40400 4.51600 26.22400
H  13.32800 4.21100 27.48600
H  13.23000 3.34200 25.89000
H  14.81900 1.29700 31.66300
H  15.54400 4.77200 34.22900
H  17.01900 4.58600 33.29300
H  16.71000 3.42700 34.54100
Mg 43.15500 41.88200 25.67700
C  42.35500 44.41900 28.00000
C  44.32700 39.97500 28.26100
C  44.27500 39.69300 23.42900
C  42.68800 44.27800 23.20700
N  43.18700 42.14600 27.90500
C  42.84000 43.24900 28.63500
C  43.00100 43.11000 30.05900
C  43.81900 41.76900 30.12400
C  43.80200 41.23300 28.67600
C  45.25600 41.93600 30.60700
C  41.75500 43.21900 31.02200
C  41.70000 42.27100 32.23500
H  40.74200 42.74100 33.37700
N  43.95100 39.94300 25.87300
C  44.41400 39.37500 27.02900
C  44.95200 38.06900 26.70500
C  44.85100 37.90200 25.27100
C  44.33800 39.21400 24.81800
C  45.59500 37.14100 27.69800
C  45.25500 36.69400 24.33700
O  45.10900 36.84900 23.12500
C  45.77800 35.47200 24.80600
N  43.43400 41.99900 23.59200
C  43.88800 40.95100 22.90000
C  44.01400 41.30900 21.36200
C  43.42400 42.76500 21.32400
C  43.04100 42.98300 22.83900
C  45.46800 41.08000 20.79300
C  42.23900 42.82200 20.30700
C  40.87300 42.39700 20.87600
N  42.59900 43.91900 25.57000
C  42.41100 44.75200 24.46000
C  41.96200 46.06400 24.90400
C  41.82900 45.91200 26.25500
C  42.24700 44.60300 26.62300
C  41.84000 47.25900 24.05100
C  41.41600 46.60500 27.44800
O  41.06700 47.79400 27.63900
C  41.65000 45.60500 28.64000
C  42.45400 46.34800 29.66200
O  43.64100 46.58200 29.50000
O  41.72000 46.61600 30.78000
C  42.55600 47.03200 31.88300
H  44.81600 39.39500 29.04600
H  44.63700 39.09000 22.59400
H  42.52700 44.95400 22.36400
H  43.55500 44.00300 30.34600
H  43.38500 41.09200 30.85900
H  45.61000 42.92600 30.89500
H  45.92900 41.62000 29.81000
H  45.45700 41.23500 31.41800
H  40.83700 42.99800 30.47800
H  41.75800 44.28000 31.27100
H  42.66400 41.93400 32.61600
H  41.24100 41.38800 31.79000
H  46.55100 36.88400 27.24100
H  45.01200 36.23300 27.85300
H  45.80000 37.50500 28.70500
H  45.63300 34.67800 24.07400
H  45.17000 35.25200 25.68400
H  46.81100 35.58700 25.13600
H  43.30900 40.69900 20.79700
H  44.07200 43.55200 20.93700
H  46.06700 40.31900 21.29200
H  46.05000 42.00200 20.82600
H  45.44700 40.74000 19.75800
H  42.42100 42.18300 19.44300
H  42.11600 43.85800 19.99300
H  40.29300 43.31600 20.96300
H  40.92600 41.84300 21.81300
H  40.46900 41.64400 20.20100
H  41.56900 46.94800 23.04200
H  42.80500 47.75700 24.13800
H  40.94600 47.78000 24.39300
H  40.68500 45.38200 29.09400
H  42.07700 47.88400 32.36800
H  43.55000 47.42500 31.66900
H  42.63500 46.20600 32.59000

