158

Mg 40.57300 9.22500 29.77600
C  42.56800 10.56200 32.41600
C  38.23300 8.41100 32.15700
C  39.01100 7.42700 27.32600
C  43.20700 9.73800 27.55000
N  40.52400 9.39500 32.06100
C  41.38300 10.06600 32.86600
C  40.86400 10.03400 34.34200
C  39.49000 9.24600 34.24200
C  39.37700 9.01900 32.71500
C  39.35600 7.93400 34.95100
C  40.92300 11.47700 34.94700
C  40.08200 11.66300 36.31300
H  40.85400 12.12200 37.53600
N  38.79300 8.27300 29.71200
C  37.91300 8.03200 30.83200
C  36.65800 7.53100 30.28200
C  36.87200 7.23200 28.88600
C  38.32400 7.58500 28.56200
C  35.38700 7.29000 31.17000
C  35.82200 6.85200 27.82800
O  35.98600 6.80200 26.63500
C  34.45200 6.76300 28.25000
N  41.06400 8.55100 27.75300
C  40.29900 7.82600 26.93100
C  40.78300 7.87900 25.45600
C  41.90300 9.04100 25.52000
C  42.10500 9.08200 27.02100
C  41.24000 6.47700 24.87700
C  41.61500 10.39500 24.88100
C  42.84700 11.24300 24.42200
N  42.50200 10.00700 29.94000
C  43.41000 10.24400 28.90300
C  44.62500 10.88800 29.50900
C  44.29800 11.09900 30.86100
C  43.01100 10.49100 31.06700
C  45.78300 11.29100 28.66500
C  44.74000 11.70100 32.07000
O  45.81300 12.25600 32.32000
C  43.62800 11.24500 33.17600
C  44.33200 10.39100 34.16400
O  44.78500 9.29000 33.92600
O  44.37700 11.05700 35.32400
C  44.94900 10.46000 36.56100
H  37.51900 8.16900 32.94800
H  38.54700 6.82200 26.54400
H  43.98700 9.99900 26.83200
H  41.61000 9.43200 34.86200
H  38.60500 9.80700 34.54200
H  38.47900 8.09700 35.57700
H  40.25200 7.80500 35.55800
H  39.15200 7.00000 34.42700
H  40.36700 12.04400 34.20000
H  41.94100 11.76800 35.20300
H  39.68600 10.68300 36.58200
H  39.19600 12.27100 36.12700
H  34.36200 7.47200 30.84800
H  35.57400 7.97900 31.99300
H  35.51100 6.34100 31.69100
H  33.75700 6.54800 27.43800
H  34.20300 7.73400 28.67700
H  34.28300 6.04700 29.05500
H  39.91800 8.19700 24.87500
H  42.82700 8.64500 25.10000
H  42.23800 6.54400 24.44300
H  40.72300 6.04500 24.02100
H  41.19900 5.84100 25.76100
H  41.12500 11.05300 25.59900
H  41.01800 10.34700 23.97000
H  43.74700 10.62900 24.44500
H  42.89200 12.07200 25.12700
H  42.79700 11.75700 23.46200
H  46.38400 10.41600 28.41800
H  46.37300 11.98900 29.25900
H  45.49700 11.86400 27.78300
H  43.30700 12.17500 33.64600
H  45.87100 10.91400 36.92500
H  44.97300 9.37600 36.67200
H  44.27700 10.82400 37.33800
Mg 9.20000 47.56100 25.24700
C  6.94600 48.23300 27.87100
C  11.67700 49.09000 27.24700
C  11.23600 47.46500 22.65900
C  6.51400 46.88700 23.25900
N  9.35200 48.49500 27.36900
C  8.31700 48.47700 28.31500
C  8.78700 48.91400 29.71900
C  10.27800 49.39000 29.45500
C  10.46500 49.03000 27.97500
C  10.74000 50.79600 29.89100
C  8.54200 47.82300 30.80000
C  9.36000 47.73500 32.04100
H  8.77100 47.05100 33.29700
N  11.15000 48.06100 25.00800
C  12.00200 48.60600 25.95000
C  13.34100 48.66000 25.37400
C  13.25900 48.02500 24.15400
C  11.86300 47.83000 23.86900
C  14.64300 49.16000 26.11400
C  14.37800 47.71100 23.14500
O  14.17000 47.11700 22.10300
C  15.80900 48.17300 23.42000
N  8.95500 47.19300 23.23000
C  9.93200 47.10700 22.33800
C  9.49000 46.57300 20.97600
C  7.96100 46.28600 21.25600
C  7.77300 46.83500 22.63200
C  9.86600 47.54400 19.74300
C  7.49100 44.81400 21.11500
C  7.88700 43.76600 22.18600
N  7.12200 47.36000 25.53300
C  6.16500 47.20900 24.56400
C  4.85500 47.18100 25.19700
C  5.11000 47.52500 26.54300
C  6.52700 47.75700 26.66600
C  3.60100 46.80000 24.47500
C  4.50200 47.77100 27.82700
O  3.33500 47.69200 28.17400
C  5.61600 48.27700 28.71600
C  5.47100 47.42200 29.93900
O  5.96600 46.36400 30.08200
O  4.64500 48.13000 30.84500
C  4.65700 47.49800 32.18200
H  12.45100 49.36100 27.96900
H  11.84800 47.28500 21.77200
H  5.75200 46.74400 22.49000
H  8.24700 49.82300 29.98400
H  10.87500 48.72500 30.08000
H  9.94900 51.38600 30.35300
H  11.07100 51.34200 29.00700
H  11.52000 50.80800 30.65300
H  8.50900 46.83400 30.34200
H  7.61700 48.20100 31.23400
H  9.67700 48.71100 32.40900
H  10.25700 47.14900 31.84200
H  14.38400 49.73100 27.00500
H  15.30800 49.94600 25.75700
H  15.20100 48.27200 26.41100
H  16.07100 49.22500 23.53500
H  16.37400 47.80600 22.56300
H  16.21700 47.65300 24.28700
H  10.05800 45.64600 20.89500
H  7.36800 46.91900 20.59600
H  10.32400 48.41100 20.21900
H  9.01800 47.71600 19.07900
H  10.58900 47.10800 19.05400
H  7.86700 44.58500 20.11800
H  6.40400 44.76900 21.04000
H  8.47400 44.18800 23.00100
H  8.56200 43.01100 21.78300
H  6.94300 43.37100 22.56200
H  3.34300 45.75700 24.65600
H  3.76700 47.14700 23.45600
H  2.75800 47.34600 24.89900
H  5.39600 49.31100 28.98200
H  3.73500 47.80800 32.67400
H  5.53900 47.85400 32.71400
H  4.64000 46.41700 32.04200

