158

Mg 35.39000 1.95200 29.06100
C  33.21700 3.09400 31.76800
C  37.86800 2.14600 31.40900
C  37.44800 1.42500 26.64600
C  32.70900 2.41500 26.81400
N  35.52300 2.54500 31.40900
C  34.48900 2.86000 32.28500
C  35.00700 2.93100 33.70300
C  36.52100 2.82600 33.48000
C  36.68000 2.37700 32.01900
C  37.35700 4.14600 33.61500
C  34.44100 1.77100 34.66900
C  34.06100 2.18300 36.13000
H  34.80000 3.49900 36.68800
N  37.40800 1.72600 29.08000
C  38.24500 1.77200 30.12700
C  39.60700 1.51500 29.70500
C  39.51900 1.39000 28.27100
C  38.07600 1.49700 27.90400
C  40.67900 1.49300 30.61600
C  40.68900 1.22100 27.22400
O  40.42800 1.00500 26.06200
C  42.14700 1.32800 27.59000
N  35.07200 1.82100 27.03800
C  36.13100 1.49600 26.23000
C  35.65200 1.22300 24.79400
C  34.10700 1.34400 24.91900
C  33.95000 1.93700 26.30400
C  36.20000 2.29300 23.77600
C  33.43200 -0.01500 24.74500
C  31.93400 0.00400 24.32800
N  33.35000 2.68600 29.15400
C  32.41100 2.79900 28.19300
C  31.20600 3.28800 28.76800
C  31.45700 3.39800 30.18400
C  32.80900 3.06300 30.34700
C  29.91900 3.53900 28.08600
C  30.86600 3.69700 31.47200
O  29.73100 4.00800 31.76300
C  32.04100 3.55900 32.60200
C  32.24100 4.81200 33.31200
O  32.79700 5.80600 32.86500
O  31.65200 4.61900 34.60200
C  31.80800 5.88500 35.36900
H  38.75100 2.08100 32.04800
H  38.12600 1.27400 25.80300
H  31.89900 2.52200 26.08900
H  34.65700 3.86900 34.13500
H  36.93800 2.09100 34.16900
H  37.32900 4.70700 32.68100
H  38.36400 3.86900 33.92700
H  37.17600 4.79600 34.47100
H  35.09200 0.89700 34.68200
H  33.50100 1.51500 34.17900
H  34.42500 1.35100 36.73200
H  32.99400 2.17700 36.35600
H  41.47700 0.80200 30.34600
H  40.29600 0.93600 31.47100
H  41.03300 2.47300 30.93700
H  42.60200 0.50700 28.14400
H  42.24500 2.27500 28.12000
H  42.70500 1.29600 26.65300
H  35.95300 0.20500 24.54600
H  33.73100 2.08300 24.21200
H  37.17500 2.63700 24.12000
H  35.57200 3.17100 23.62300
H  36.29800 1.77500 22.82200
H  33.57800 -0.58000 25.66500
H  33.92700 -0.54600 23.93300
H  31.80300 -0.44400 23.34300
H  31.59900 1.02400 24.14200
H  31.24000 -0.42600 25.05000
H  29.57200 2.64100 27.57500
H  30.28400 4.23100 27.32800
H  29.10100 4.02900 28.61600
H  31.60900 2.78600 33.23700
H  31.85600 5.74200 36.44900
H  30.93400 6.46400 35.07100
H  32.68100 6.50500 35.16800
Mg 16.65300 51.82600 26.81400
C  18.84800 50.74600 29.32900
C  14.52700 52.87700 29.38900
C  14.65600 53.06300 24.57600
C  18.90300 50.75300 24.45200
N  16.65900 51.75000 29.12800
C  17.68200 51.30700 29.88600
C  17.40600 51.53000 31.32600
C  15.85800 51.92600 31.36200
C  15.59900 52.20100 29.86100
C  14.88600 50.90500 31.95400
C  18.35500 52.66500 31.86300
C  18.26100 53.04100 33.42600
H  17.38200 52.10100 34.30500
N  14.77400 52.71000 26.94600
C  14.19000 53.23100 28.08200
C  13.09600 54.03800 27.67300
C  13.07400 54.14800 26.26000
C  14.22200 53.29700 25.86100
C  12.13400 54.66600 28.71600
C  12.18800 54.86100 25.32300
O  12.29600 54.82400 24.10200
C  11.13100 55.78700 25.96000
N  16.75100 51.72000 24.82500
C  15.71800 52.30700 24.01000
C  15.88100 51.92600 22.49200
C  17.42800 51.64700 22.52300
C  17.69300 51.28400 23.98800
C  15.09100 50.65800 21.98200
C  18.23400 52.91500 21.93300
C  19.47500 52.58200 21.04700
N  18.52600 50.89600 26.75500
C  19.27600 50.48600 25.72400
C  20.52200 49.91500 26.17800
C  20.33700 49.92600 27.56600
C  19.11000 50.55500 27.90100
C  21.62500 49.45500 25.33600
C  20.98700 49.68900 28.86200
O  22.10500 49.23600 29.17800
C  20.00400 50.15000 30.00300
C  19.66300 48.93800 30.82600
O  19.14500 47.92800 30.37300
O  20.06300 49.09600 32.17200
C  19.59900 48.08700 33.15800
H  13.89300 53.20300 30.21600
H  13.97700 53.37700 23.78100
H  19.58800 50.45800 23.65400
H  17.48300 50.62900 31.93500
H  15.83900 52.91700 31.81500
H  14.21300 51.44000 32.62400
H  15.40900 50.07800 32.43400
H  14.28700 50.48300 31.14700
H  18.10900 53.55400 31.28200
H  19.39400 52.40600 31.66500
H  17.95500 54.07800 33.56200
H  19.31600 53.18900 33.65600
H  11.33500 53.95700 28.93500
H  11.75900 55.64900 28.43300
H  12.59100 54.77400 29.69900
H  11.57900 56.65200 26.45000
H  10.49500 55.20100 26.62400
H  10.48800 55.99600 25.10500
H  15.74200 52.68200 21.71900
H  17.76500 50.77000 21.96900
H  14.26000 50.45700 22.65800
H  15.64300 49.72100 22.04900
H  14.78600 50.82500 20.94800
H  18.57300 53.46100 22.81300
H  17.55700 53.67100 21.53500
H  19.24900 52.86600 20.01900
H  19.71300 51.51800 21.02800
H  20.35600 53.01900 21.51700
H  21.98300 50.14900 24.57600
H  21.41900 48.53600 24.78700
H  22.42400 49.18700 26.02700
H  20.64700 50.77000 30.62800
H  18.89400 47.34200 32.79000
H  19.01100 48.65600 33.87800
H  20.48300 47.62000 33.59100

