158

Mg 49.11700 47.36000 42.12700
C  45.78200 47.49000 41.25100
C  49.31900 44.18600 40.75100
C  52.42200 47.70900 41.87100
C  48.85400 50.73800 43.11900
N  47.67900 45.96900 41.05000
C  46.34400 46.24400 40.90300
C  45.69900 45.05000 40.11200
C  46.79800 43.88900 40.16200
C  48.02400 44.68300 40.65300
C  46.48800 42.71900 41.20800
C  45.31200 45.54300 38.69200
C  43.90600 45.07500 38.16400
H  43.80800 44.57100 36.78900
N  50.66000 46.04000 41.57500
C  50.50000 44.75200 41.15200
C  51.87400 44.18600 41.00000
C  52.82800 45.22500 41.22000
C  51.97500 46.40700 41.59900
C  52.19900 42.78100 40.44600
C  54.37800 45.11400 41.12000
O  54.89700 44.05700 40.87000
C  55.20800 46.28700 41.30300
N  50.38100 48.97900 42.33400
C  51.77100 48.81000 42.26300
C  52.54500 50.11500 42.62800
C  51.37800 51.07000 43.07900
C  50.08400 50.18800 42.85400
C  53.65700 49.94200 43.68400
C  51.19700 52.32800 42.25100
C  51.02900 53.59600 43.11100
N  47.67700 48.89000 42.19600
C  47.68800 50.21000 42.72600
C  46.39700 50.82300 42.60700
C  45.58200 49.75100 42.03200
C  46.42300 48.62900 41.82200
C  45.80900 52.14300 42.91400
C  44.32600 49.37200 41.67800
O  43.26900 49.93700 41.74900
C  44.32500 47.96400 41.18200
C  43.42600 47.09100 41.96600
O  43.54100 46.81000 43.10900
O  42.54900 46.56700 41.10200
C  41.51200 45.62200 41.50200
H  49.31200 43.14100 40.43600
H  53.44600 48.00300 41.63000
H  48.85300 51.66800 43.69000
H  44.77300 44.77100 40.61500
H  47.03300 43.47500 39.18200
H  45.68000 42.86900 41.92500
H  47.38700 42.63600 41.81800
H  46.20700 41.77200 40.74700
H  46.06400 45.25600 37.95700
H  45.22500 46.62900 38.68400
H  43.15800 45.86300 38.24100
H  43.57200 44.30800 38.86300
H  51.30300 42.16100 40.46200
H  52.76200 42.10300 41.08700
H  52.61300 42.82100 39.43900
H  54.84400 47.05500 40.62100
H  56.26000 46.07200 41.11900
H  55.10400 46.53200 42.36000
H  53.02500 50.45100 41.70800
H  51.39700 51.28700 44.14700
H  53.31800 49.04100 44.19500
H  53.63400 50.86600 44.26100
H  54.57500 49.74400 43.12900
H  50.38400 52.29900 41.52600
H  52.11200 52.40700 41.66300
H  52.01400 53.98300 43.37200
H  50.26500 53.35000 43.84900
H  50.51300 54.38400 42.56300
H  45.77000 52.27100 43.99600
H  44.74800 52.13800 42.66600
H  46.34300 53.02600 42.56300
H  43.96100 48.02200 40.15600
H  42.04500 44.70200 41.74400
H  40.78200 45.42500 40.71800
H  40.99800 46.03300 42.37000
Mg 42.73700 41.39000 26.44800
C  41.60300 43.71300 28.92000
C  43.68800 39.29300 29.02800
C  43.81800 39.30500 24.09800
C  41.95500 43.77900 23.96300
N  42.69600 41.53200 28.76900
C  42.12600 42.53900 29.52900
C  42.13200 42.09500 30.98300
C  42.90200 40.74500 31.01900
C  43.14600 40.47600 29.50100
C  44.24800 40.70300 31.84100
C  40.81000 42.06000 31.77100
C  40.64200 43.08900 32.96500
H  40.23300 42.56400 34.35400
N  43.59000 39.56700 26.56400
C  43.93400 38.85000 27.69300
C  44.65600 37.71000 27.31800
C  44.62400 37.64500 25.94400
C  44.01000 38.89100 25.46300
C  45.30800 36.78600 28.27500
C  44.93100 36.43900 25.04300
O  44.87500 36.42700 23.80800
C  45.36800 35.20400 25.59000
N  42.85700 41.51000 24.38100
C  43.30100 40.49300 23.63000
C  43.07600 40.74600 22.06500
C  42.53500 42.22100 22.09700
C  42.47700 42.55100 23.57200
C  44.32100 40.52800 21.19500
C  41.09800 42.34900 21.46100
C  41.07400 42.71600 19.99000
N  42.00400 43.32900 26.36500
C  41.69000 44.13700 25.30800
C  41.19700 45.42200 25.85200
C  41.16400 45.20300 27.20100
C  41.63600 43.91200 27.52200
C  40.85200 46.71100 24.99500
C  40.76900 45.79400 28.46400
O  40.29300 46.91300 28.68000
C  41.02300 44.87300 29.54400
C  42.11700 45.45700 30.44500
O  43.27200 45.69600 30.16200
O  41.47800 45.81400 31.64500
C  42.42200 46.23800 32.75400
H  43.92800 38.58200 29.82100
H  44.19800 38.70700 23.26700
H  41.71600 44.52100 23.19800
H  42.77600 42.76200 31.55500
H  42.22500 39.99700 31.43000
H  45.10600 40.81400 31.17900
H  44.41600 39.85500 32.50400
H  44.44600 41.61400 32.40600
H  40.59100 41.07400 32.17900
H  39.98900 42.31600 31.10100
H  39.73600 43.63000 32.69200
H  41.51700 43.73900 32.99700
H  45.49400 37.32000 29.20700
H  46.24900 36.35700 27.93100
H  44.64400 35.96700 28.55100
H  45.55900 34.43300 24.84500
H  44.59300 34.90500 26.29600
H  46.34700 35.31000 26.05800
H  42.30800 40.07900 21.67300
H  43.25000 42.84400 21.56000
H  45.18700 40.86000 21.76800
H  44.13600 41.15300 20.32200
H  44.54600 39.51100 20.87200
H  40.50600 43.08700 22.00000
H  40.58700 41.40600 21.65400
H  40.21700 43.33800 19.73300
H  40.96300 41.80600 19.40000
H  41.96500 43.30200 19.76700
H  40.15600 46.43300 24.20400
H  41.74800 47.15400 24.56000
H  40.34600 47.44400 25.62300
H  40.12900 44.57400 30.09100
H  42.01500 45.97800 33.73100
H  42.40600 47.32800 32.77500
H  43.41800 45.80000 32.81700

