158

Mg 16.85000 -1.04100 27.29100
C  16.04700 1.18400 29.91400
C  18.90500 -2.68200 29.47500
C  18.30100 -2.61800 24.68900
C  15.52800 1.49300 25.01200
N  17.57400 -0.68900 29.43600
C  16.91800 0.15400 30.33700
C  17.39600 -0.10900 31.80500
C  18.44200 -1.24700 31.61600
C  18.35400 -1.59700 30.09500
C  19.91300 -0.86900 31.99700
C  16.16200 -0.42000 32.73600
C  16.25600 0.01600 34.27000
H  17.62100 0.57000 34.77200
N  18.17600 -2.64400 27.10800
C  18.83000 -3.13600 28.13200
C  19.69300 -4.25800 27.61000
C  19.45900 -4.29000 26.25900
C  18.60900 -3.16000 25.92700
C  20.48600 -5.19700 28.42800
C  19.95400 -5.30800 25.22500
O  19.67300 -5.28200 24.00000
C  20.66800 -6.50800 25.69900
N  16.97800 -0.51200 25.22100
C  17.46600 -1.46200 24.30700
C  17.29700 -1.00800 22.89200
C  16.27400 0.13100 23.05000
C  16.26300 0.39600 24.51100
C  18.60400 -0.46200 22.23800
C  14.87100 -0.23900 22.43900
C  13.68400 -0.58300 23.42900
N  15.87100 0.91200 27.44000
C  15.32800 1.77100 26.42800
C  14.58100 2.86800 27.01400
C  14.80900 2.67900 28.43700
C  15.61400 1.50100 28.61900
C  13.87000 3.94300 26.19700
C  14.59300 3.17400 29.72900
O  13.90000 4.18000 30.09200
C  15.38300 2.29100 30.74500
C  16.42200 3.13600 31.38100
O  17.62600 3.09200 31.28200
O  15.79100 3.80400 32.35000
C  16.62000 4.61000 33.29300
H  19.61500 -3.15200 30.15900
H  18.74500 -3.06900 23.79900
H  15.13300 2.35100 24.46500
H  17.85400 0.75500 32.28700
H  18.04100 -2.14600 32.08300
H  19.82800 0.03300 32.60300
H  20.52600 -0.65500 31.12200
H  20.32500 -1.62800 32.66300
H  15.90000 -1.47700 32.75000
H  15.32400 0.11600 32.29100
H  15.98900 -0.79200 34.95100
H  15.41900 0.68800 34.45500
H  20.20800 -6.23500 28.24500
H  20.46200 -4.87200 29.46800
H  21.50600 -4.90800 28.17300
H  21.58100 -6.15400 26.17800
H  21.01100 -7.18700 24.91700
H  20.15900 -7.25000 26.31400
H  16.84000 -1.77400 22.26600
H  16.66700 1.03800 22.59200
H  18.34000 0.28800 21.49200
H  19.05500 -1.32200 21.74400
H  19.37200 -0.07700 22.90900
H  14.96500 -0.87400 21.55700
H  14.42600 0.69700 22.10100
H  14.06600 -1.17900 24.25800
H  12.98200 -1.26000 22.94300
H  13.15900 0.33400 23.69600
H  13.74200 3.60500 25.16900
H  14.42800 4.87800 26.24000
H  12.94900 4.23600 26.70000
H  14.65600 1.93800 31.47600
H  15.84400 5.30900 33.60400
H  17.41500 5.12500 32.75500
H  17.00100 4.04100 34.14200
Mg 48.45800 15.56800 28.74900
C  46.35000 15.30800 31.70300
C  50.38300 17.63300 30.72100
C  49.94900 16.48200 25.90000
C  45.89200 14.05900 26.97600
N  48.32600 16.39100 31.05000
C  47.51400 15.99400 32.05200
C  48.08300 16.48400 33.48100
C  49.35200 17.28000 33.07700
C  49.34300 17.16000 31.53400
C  49.51100 18.76900 33.48400
C  48.22700 15.31100 34.56100
C  49.01500 15.65400 35.74800
H  48.61400 16.80700 36.77200
N  50.03600 16.74600 28.36400
C  50.71700 17.53400 29.31500
C  51.79300 18.22900 28.59300
C  51.67500 17.95300 27.22500
C  50.57200 16.99800 27.08600
C  52.82800 19.07800 29.30900
C  52.50200 18.41700 26.03100
O  52.33900 17.99700 24.88400
C  53.69500 19.38800 26.30600
N  48.09000 15.13600 26.71800
C  48.77300 15.72300 25.66400
C  48.12200 15.44700 24.28500
C  47.05600 14.33300 24.76600
C  46.95500 14.53300 26.27400
C  47.60700 16.72100 23.68700
C  47.54300 12.90400 24.35000
C  48.04100 11.91800 25.40400
N  46.52700 14.89500 29.15800
C  45.67100 14.10600 28.39100
C  44.50900 13.63000 29.13600
C  44.82400 14.03700 30.41700
C  45.98800 14.83400 30.40500
C  43.38300 12.84300 28.60300
C  44.29200 13.93100 31.75800
O  43.36000 13.34300 32.28400
C  45.18300 14.82700 32.60000
C  44.31100 15.83100 33.35800
O  43.44300 16.46400 32.79900
O  44.53600 15.77800 34.69500
C  43.58100 16.60000 35.42500
H  50.98600 18.29200 31.34900
H  50.34500 16.91200 24.97700
H  45.13800 13.54100 26.38000
H  47.31000 17.12400 33.90800
H  50.27000 16.85500 33.48200
H  48.86100 18.88800 34.35100
H  49.28400 19.50400 32.71200
H  50.57000 18.87800 33.71500
H  48.58400 14.39100 34.09900
H  47.22600 15.09500 34.93500
H  50.06000 15.77300 35.46000
H  48.95500 14.83400 36.46400
H  52.81200 20.14300 29.07700
H  53.77800 18.59300 29.08400
H  52.73700 18.87400 30.37600
H  53.46900 20.35300 26.76000
H  54.16800 19.42500 25.32500
H  54.28400 18.69900 26.91000
H  48.95900 15.09300 23.68200
H  46.10700 14.58200 24.29300
H  46.67000 17.14000 24.05300
H  47.45400 16.34100 22.67600
H  48.31500 17.55000 23.67700
H  48.35300 12.79000 23.62900
H  46.70700 12.25800 24.08200
H  48.70900 11.28700 24.81800
H  47.30200 11.24700 25.84200
H  48.44300 12.35800 26.31600
H  42.40300 13.25300 28.84700
H  43.64600 11.84600 28.95800
H  43.43000 12.88400 27.51500
H  45.49300 14.22700 33.45500
H  43.83500 16.35000 36.45500
H  42.56000 16.24000 35.29600
H  43.63700 17.67100 35.22700

