158

Mg -11.25300 39.27400 42.16200
C  -9.21800 36.39100 41.40800
C  -8.90200 41.07200 40.44200
C  -13.45900 41.79000 41.83500
C  -13.86900 37.00300 42.80500
N  -9.33200 38.74000 41.06300
C  -8.71700 37.55200 40.87700
C  -7.40600 37.65300 40.05400
C  -7.15700 39.23200 40.04600
C  -8.53700 39.76800 40.57100
C  -5.90400 39.72300 40.90700
C  -7.45300 36.97600 38.67700
C  -6.36100 35.92900 38.32600
H  -5.65000 36.08200 36.98100
N  -11.09200 41.28200 41.52500
C  -10.04000 41.76700 40.84300
C  -10.30100 43.16100 40.56900
C  -11.63000 43.42800 41.01600
C  -12.12200 42.14100 41.49200
C  -9.31200 44.07100 39.91800
C  -12.36000 44.78800 40.93300
O  -11.76800 45.71100 40.44900
C  -13.68400 45.08700 41.51400
N  -13.35600 39.29600 42.10800
C  -14.03400 40.50300 42.10300
C  -15.55100 40.37400 42.40900
C  -15.66800 38.78700 42.56600
C  -14.19800 38.32400 42.46500
C  -16.12300 41.22400 43.53700
C  -16.73100 38.20100 41.56000
C  -17.70300 37.20600 42.24700
N  -11.47500 37.13400 42.29600
C  -12.64000 36.39400 42.58800
C  -12.29800 35.06200 42.74800
C  -10.92200 34.99600 42.29700
C  -10.53500 36.26800 41.96500
C  -13.09900 34.03800 43.28800
C  -9.69800 34.18500 42.17200
O  -9.49400 32.99300 42.35300
C  -8.56000 35.04000 41.47900
C  -7.31200 35.02500 42.30300
O  -6.49800 34.12900 42.25300
O  -7.21100 36.07800 43.14700
C  -6.13200 36.05300 44.18600
H  -8.18000 41.62700 39.83900
H  -14.25600 42.53500 41.86000
H  -14.72000 36.32600 42.90500
H  -6.62000 37.13900 40.60700
H  -7.02700 39.50000 38.99700
H  -5.91800 39.43700 41.95900
H  -5.86200 40.81200 40.88300
H  -4.97800 39.34200 40.47500
H  -7.18300 37.75900 37.96800
H  -8.48400 36.68500 38.47300
H  -6.69700 34.90600 38.50000
H  -5.61900 36.09800 39.10600
H  -8.62700 43.42400 39.37000
H  -8.85800 44.73400 40.65500
H  -9.79700 44.68200 39.15800
H  -13.60800 44.92500 42.58900
H  -14.39900 44.44300 41.00100
H  -13.89900 46.15300 41.43800
H  -16.09500 40.77900 41.55600
H  -15.85800 38.72100 43.63700
H  -15.34500 41.51000 44.24400
H  -16.85700 40.62500 44.07600
H  -16.61900 42.08300 43.08500
H  -16.29300 37.59800 40.76500
H  -17.33100 38.98800 41.10400
H  -18.67100 37.26900 41.74900
H  -17.80500 37.37500 43.31900
H  -17.33500 36.18100 42.20400
H  -12.48000 33.19100 43.58200
H  -13.86800 33.80300 42.55200
H  -13.56900 34.43000 44.19000
H  -8.34800 34.60500 40.50200
H  -6.49800 35.70100 45.15000
H  -5.85000 37.09700 44.32200
H  -5.20600 35.56700 43.87700
Mg -2.30900 34.95800 27.12000
C  -4.01800 33.27200 29.76400
C  -0.77600 36.88500 29.49500
C  -0.70000 36.65100 24.64700
C  -4.18700 33.20600 24.85300
N  -2.40000 35.09700 29.48800
C  -3.13600 34.22700 30.32300
C  -2.86900 34.54000 31.80900
C  -2.03100 35.93000 31.68600
C  -1.67500 35.97400 30.15700
C  -2.73600 37.23600 32.06400
C  -1.99400 33.37200 32.48400
C  -2.68300 32.79000 33.78900
H  -1.79900 32.66800 35.07700
N  -0.84300 36.47800 27.06300
C  -0.41600 37.18200 28.13600
C  0.54800 38.15400 27.68900
C  0.66000 38.06700 26.31900
C  -0.26400 37.00100 25.96800
C  1.23000 39.10500 28.65100
C  1.56500 38.80200 25.33000
O  1.73800 38.36200 24.22500
C  2.40400 39.99000 25.82400
N  -2.48100 35.00100 25.02700
C  -1.64600 35.73400 24.20100
C  -1.92900 35.49300 22.75900
C  -2.99100 34.34100 22.77900
C  -3.34000 34.15200 24.28600
C  -2.44100 36.76600 21.95000
C  -2.63200 32.98500 22.10300
C  -1.44300 32.22200 22.74500
N  -3.84400 33.63000 27.23100
C  -4.51200 32.94700 26.18100
C  -5.29500 31.88600 26.67300
C  -5.04500 32.02500 28.07300
C  -4.24100 33.08300 28.36600
C  -6.16800 30.87800 25.98900
C  -5.45700 31.35600 29.29600
O  -6.27200 30.45900 29.43600
C  -4.88000 32.17600 30.45600
C  -5.97200 32.49700 31.42700
O  -6.84100 33.28900 31.14700
O  -5.96400 31.67400 32.52500
C  -7.02300 31.71200 33.50200
H  -0.13600 37.40100 30.21300
H  -0.23900 37.19600 23.82100
H  -4.67600 32.52600 24.15400
H  -3.84900 34.73300 32.24500
H  -1.14200 35.85300 32.31200
H  -3.16700 37.75500 31.20700
H  -2.07100 37.90300 32.61300
H  -3.54200 36.99900 32.75900
H  -1.02800 33.68700 32.87900
H  -1.90600 32.56000 31.76200
H  -2.97000 31.76400 33.56000
H  -3.61300 33.34200 33.92600
H  0.83000 40.07500 28.35600
H  2.31500 39.06800 28.54700
H  0.95200 38.90800 29.68600
H  1.80000 40.66200 26.43300
H  2.86500 40.49200 24.97300
H  3.23300 39.52800 26.36000
H  -1.09100 35.12400 22.16800
H  -3.86100 34.74400 22.26100
H  -3.45500 36.58500 21.59400
H  -1.71000 37.03200 21.18700
H  -2.35200 37.63700 22.59900
H  -2.41900 33.22800 21.06200
H  -3.56100 32.41600 22.12500
H  -0.75800 32.00300 21.92700
H  -1.90800 31.28400 23.05100
H  -0.92400 32.65900 23.59900
H  -7.08100 30.60900 26.52000
H  -5.63800 30.02800 25.55700
H  -6.55200 31.45200 25.14700
H  -4.08000 31.60000 30.92200
H  -6.75500 32.42700 34.28000
H  -7.26500 30.75700 33.96800
H  -7.89400 32.18700 33.05000

