158

Mg 6.46200 54.06300 41.50100
C  5.94400 50.53600 41.16400
C  9.71500 53.43800 40.40300
C  6.93300 57.42100 41.12700
C  3.24100 54.45800 42.37600
N  7.66400 52.15600 40.84000
C  7.24500 50.86000 40.70700
C  8.35500 49.99200 40.21700
C  9.58700 50.84300 40.53100
C  8.98300 52.28100 40.57300
C  10.39300 50.66800 41.83000
C  8.34600 49.56000 38.73600
C  7.81500 50.56100 37.73300
H  6.81600 50.10900 36.63000
N  8.08500 55.25400 40.80400
C  9.31300 54.78000 40.45100
C  10.16900 55.94800 40.27600
C  9.45300 57.15100 40.53000
C  8.05700 56.64600 40.74000
C  11.73800 55.88100 40.06100
C  9.92300 58.54400 40.41800
O  11.14300 58.68300 40.21500
C  9.01600 59.66900 40.50000
N  5.26700 55.71900 41.62000
C  5.65800 56.97200 41.54900
C  4.59500 57.95800 41.99800
C  3.41000 56.98000 42.26400
C  3.99800 55.60000 42.10900
C  5.07800 58.91100 43.14300
C  2.05500 57.18600 41.45500
C  2.05800 56.45900 40.04500
N  4.87400 52.75900 41.71500
C  3.57100 53.09000 42.10600
C  2.78100 51.93900 42.31900
C  3.68400 50.86200 41.94000
C  4.93100 51.43700 41.58800
C  1.45800 51.76900 42.92800
C  3.79800 49.40900 41.83600
O  3.00800 48.55600 42.12400
C  5.29000 49.19100 41.43200
C  5.37200 48.40400 40.15900
O  5.12500 48.84300 39.03600
O  5.72800 47.15300 40.51900
C  5.61900 46.15500 39.39400
H  10.79400 53.35300 40.26000
H  6.99600 58.51100 41.08800
H  2.22200 54.67500 42.70400
H  8.33800 49.03400 40.73600
H  10.35300 50.78400 39.75800
H  9.87700 50.00100 42.52000
H  10.53000 51.63800 42.30800
H  11.39000 50.25000 41.68700
H  7.88200 48.57600 38.80300
H  9.41500 49.47300 38.53900
H  8.71100 50.86100 37.18900
H  7.44000 51.46700 38.20900
H  12.00500 56.41000 39.14700
H  12.17000 54.89700 39.87600
H  12.14600 56.21100 41.01600
H  9.49200 60.59200 40.16800
H  8.73300 59.87700 41.53200
H  8.16600 59.46500 39.84900
H  4.37500 58.64000 41.17600
H  3.23800 57.07100 43.33600
H  5.99700 58.53600 43.59300
H  4.19800 59.02000 43.77700
H  5.36400 59.88900 42.75700
H  1.94900 58.25500 41.27000
H  1.12100 56.97900 41.97800
H  2.29600 57.09300 39.19000
H  1.06100 56.08600 39.81400
H  2.66100 55.55200 39.99300
H  1.51800 51.44100 43.96500
H  0.80500 51.04100 42.44700
H  0.84300 52.66600 42.85000
H  5.90100 48.65600 42.15900
H  5.86300 45.16400 39.77800
H  6.29700 46.38200 38.57100
H  4.59200 46.11300 39.03200
Mg -5.84500 25.40300 26.31500
C  -4.61700 26.91200 29.10700
C  -7.75100 23.26000 28.37400
C  -6.54600 23.47100 23.71700
C  -3.82300 27.29400 24.33600
N  -6.11200 24.98500 28.51300
C  -5.56100 25.89400 29.45000
C  -6.07100 25.60300 30.85400
C  -6.81100 24.21000 30.64800
C  -6.94000 24.11300 29.12100
C  -6.19100 23.00200 31.30200
C  -6.98100 26.72400 31.35700
C  -7.06800 26.97300 32.85400
H  -6.47100 25.92000 33.79800
N  -7.18400 23.74300 26.00100
C  -7.89200 23.07700 27.00000
C  -8.83200 22.11800 26.35800
C  -8.49500 22.18100 24.92400
C  -7.32400 23.17700 24.76500
C  -9.84100 21.30000 27.07300
C  -9.00400 21.34500 23.82800
O  -8.78200 21.46400 22.65200
C  -9.97300 20.21600 24.20200
N  -5.31600 25.38100 24.30600
C  -5.62600 24.45600 23.42800
C  -5.15100 24.79100 22.03500
C  -4.53600 26.19500 22.20900
C  -4.52600 26.34100 23.68700
C  -4.28600 23.66200 21.42400
C  -5.35900 27.36000 21.43300
C  -6.34500 28.22900 22.24800
N  -4.52700 26.84200 26.59800
C  -3.81700 27.55900 25.69300
C  -2.98700 28.56200 26.40000
C  -3.28400 28.38100 27.76100
C  -4.21100 27.32100 27.78400
C  -2.20900 29.74200 25.77000
C  -3.10700 28.86400 29.14500
O  -2.40000 29.78200 29.60000
C  -3.94900 27.90500 29.98800
C  -3.03400 27.26300 31.00900
O  -2.39500 26.30500 30.67500
O  -3.12600 27.95500 32.21000
C  -2.22500 27.39200 33.18200
H  -8.29500 22.54100 28.98900
H  -7.04300 23.14300 22.80100
H  -3.10000 27.87100 23.75500
H  -5.20300 25.48600 31.50300
H  -7.81500 24.18300 31.07100
H  -5.46800 23.26900 32.07300
H  -5.74200 22.38300 30.52600
H  -6.95300 22.44000 31.84100
H  -7.98400 26.48800 31.00000
H  -6.70300 27.63900 30.83500
H  -8.13600 26.94800 33.06600
H  -6.58800 27.92100 33.09900
H  -10.84300 21.60500 26.77100
H  -9.94900 21.44100 28.14800
H  -9.74800 20.24800 26.80200
H  -9.40800 19.41500 24.68000
H  -10.34500 19.85200 23.24400
H  -10.77500 20.62400 24.81700
H  -6.00700 24.88000 21.36600
H  -3.51900 26.23900 21.81800
H  -3.34500 23.98200 20.97700
H  -4.80700 23.11400 20.64000
H  -4.01200 22.96800 22.21900
H  -5.91700 26.90400 20.61400
H  -4.61200 27.94300 20.89400
H  -6.20800 28.08500 23.32000
H  -7.38000 27.99400 22.00100
H  -6.30100 29.31600 22.18100
H  -2.48700 29.99900 24.74800
H  -1.14800 29.49200 25.79700
H  -2.41300 30.56300 26.45700
H  -4.61700 28.53400 30.57700
H  -1.29900 27.03000 32.73400
H  -2.80000 26.63100 33.70900
H  -2.16000 28.26000 33.83800

