158

Mg 1.23800 8.25300 26.30200
C  1.46800 10.21000 29.06000
C  0.88700 5.43300 28.16700
C  1.09900 6.47100 23.39600
C  1.99900 11.09200 24.26900
N  1.29400 7.80300 28.50600
C  1.18400 8.85400 29.39900
C  1.05200 8.24400 30.84100
C  1.12500 6.66200 30.53400
C  1.12000 6.60000 29.02600
C  2.29000 6.00600 31.14200
C  -0.25700 8.59500 31.56900
C  -0.15800 8.44500 33.14000
H  1.01700 7.69600 33.83600
N  1.09900 6.21300 25.87700
C  0.95600 5.19300 26.76500
C  0.73800 3.94800 26.08900
C  0.81400 4.19500 24.74800
C  1.04900 5.66500 24.58100
C  0.62100 2.63300 26.86000
C  0.74800 3.19200 23.55000
O  0.96700 3.56900 22.41900
C  0.36400 1.77800 23.78600
N  1.67600 8.71200 24.12900
C  1.39500 7.77700 23.18000
C  1.34300 8.36100 21.78700
C  1.51200 9.91900 22.00700
C  1.81700 9.95400 23.55200
C  2.52800 7.69800 20.88400
C  0.39900 10.82900 21.49100
C  -0.79300 11.07900 22.38000
N  1.65600 10.25600 26.54300
C  1.93900 11.28000 25.68700
C  2.10000 12.51800 26.41400
C  2.07200 12.15300 27.77600
C  1.71300 10.77500 27.77900
C  2.34200 13.91100 25.94300
C  2.08700 12.57200 29.09800
O  2.40500 13.67800 29.57100
C  1.59300 11.39300 29.97100
C  2.66800 11.17100 31.02900
O  3.68900 10.58900 30.97200
O  2.13100 11.64600 32.26100
C  2.96000 11.41700 33.46500
H  0.61500 4.57200 28.78000
H  0.87500 6.04500 22.41600
H  2.07600 12.02700 23.70900
H  1.86400 8.66200 31.43700
H  0.23300 6.11600 30.84100
H  1.89400 5.36500 31.93000
H  2.99900 6.76300 31.47700
H  2.83900 5.36800 30.44900
H  -1.10300 7.97800 31.26400
H  -0.38800 9.65400 31.34400
H  -1.08700 8.01300 33.51200
H  -0.09500 9.48500 33.45900
H  0.91200 2.85400 27.88700
H  1.30200 1.88400 26.45600
H  -0.41600 2.30400 26.80000
H  0.27500 1.27000 22.82600
H  -0.62000 1.66200 24.24000
H  1.13100 1.25700 24.35900
H  0.35400 8.12300 21.39300
H  2.40500 10.35200 21.55600
H  2.07100 6.97500 20.20800
H  3.27000 7.21000 21.51700
H  3.08700 8.41500 20.28300
H  -0.15500 10.39000 20.66100
H  0.66300 11.84700 21.20600
H  -0.72700 10.35000 23.18800
H  -1.74900 10.85600 21.90700
H  -0.81200 12.07400 22.82500
H  1.44600 14.34100 25.49600
H  3.21400 14.03300 25.30100
H  2.48200 14.48500 26.85900
H  0.68500 11.59900 30.53800
H  2.26200 11.12200 34.24900
H  3.55200 12.32100 33.60400
H  3.72600 10.64600 33.38400
Mg 30.30600 58.21800 40.12900
C  27.69200 55.98800 39.18800
C  32.50000 55.84200 39.18700
C  32.67000 60.52700 40.74400
C  27.83200 60.82700 40.36100
N  29.98800 56.08200 39.31400
C  28.90400 55.35200 39.07600
C  29.27100 53.95200 38.55100
C  30.84900 54.01400 38.47600
C  31.16100 55.40800 39.03500
C  31.53600 52.80800 39.09500
C  28.72800 53.60800 37.15500
C  29.00100 54.63200 36.08100
H  28.03000 54.82300 34.92900
N  32.35900 58.13500 40.10900
C  33.00200 57.04700 39.70500
C  34.44800 57.28000 39.85300
C  34.58600 58.60800 40.29000
C  33.21600 59.17200 40.36700
C  35.45900 56.15400 39.53800
C  35.92900 59.31800 40.53000
O  36.98300 58.66000 40.51800
C  35.99100 60.72800 40.81900
N  30.20000 60.36800 40.55100
C  31.36300 61.01400 40.84400
C  31.08800 62.54500 41.00100
C  29.54600 62.54600 41.28700
C  29.13900 61.18100 40.71200
C  31.95700 63.44900 41.94200
C  28.72600 63.71400 40.72800
C  27.94000 64.52800 41.82800
N  28.24000 58.39400 39.92200
C  27.38000 59.49700 40.10100
C  25.99600 59.11600 39.88200
C  26.10900 57.73000 39.53500
C  27.47700 57.36100 39.57700
C  24.79600 60.00000 39.94200
C  25.28000 56.58900 39.16800
O  24.07300 56.46800 39.12900
C  26.29500 55.41700 38.88100
C  25.96700 54.26500 39.78300
O  26.36200 54.16400 40.89700
O  25.33900 53.26000 39.05100
C  25.05300 51.96700 39.63400
H  33.12700 55.06500 38.74400
H  33.50000 61.21800 40.90800
H  27.07900 61.58300 40.59400
H  29.02700 53.27300 39.36800
H  31.17600 54.11300 37.44100
H  32.41400 53.12400 39.65800
H  31.83800 52.06400 38.35800
H  30.87800 52.37700 39.84900
H  27.67600 53.32800 37.09800
H  29.50100 52.89400 36.87000
H  29.91800 54.46400 35.51600
H  29.10700 55.65900 36.43300
H  36.48100 56.45600 39.76400
H  35.58600 55.82500 38.50700
H  35.23900 55.30600 40.18800
H  35.67200 60.98700 41.82800
H  35.41700 61.30100 40.09100
H  37.02500 61.06900 40.75800
H  31.20700 62.99000 40.01300
H  29.41400 62.41800 42.36200
H  32.84600 62.92500 42.29300
H  31.29600 63.48900 42.80800
H  32.14100 64.42800 41.50000
H  27.97400 63.48200 39.97400
H  29.38200 64.40600 40.19900
H  28.14100 65.56000 41.54100
H  28.34000 64.30500 42.81700
H  26.87500 64.38700 41.64700
H  24.55200 60.24800 40.97500
H  23.93200 59.53600 39.46600
H  25.00700 60.95600 39.46200
H  26.20000 54.98400 37.88500
H  25.03100 51.80300 40.71200
H  25.73900 51.19400 39.28800
H  24.16900 51.69300 39.05800

