158

Mg 25.20400 0.94700 29.79900
C  27.15900 0.70400 32.63300
C  22.46200 1.09900 31.96000
C  23.19500 0.62300 27.15800
C  28.07000 0.35200 27.77100
N  24.89800 1.03600 31.99100
C  25.88100 1.03400 32.98900
C  25.33100 1.24100 34.38800
C  23.84400 1.29800 34.15000
C  23.70800 1.09200 32.58000
C  22.83400 0.37600 34.96900
C  26.06300 2.27800 35.26200
C  26.56100 1.73400 36.63200
H  26.52300 2.62200 37.92000
N  23.08900 0.77200 29.56700
C  22.17500 0.96800 30.59900
C  20.85000 0.96700 29.95500
C  21.02200 0.74100 28.54300
C  22.49900 0.65600 28.33700
C  19.58200 1.13700 30.77900
C  19.94000 0.56500 27.48900
O  20.18100 0.26200 26.31300
C  18.50400 0.95900 27.81000
N  25.71200 0.75400 27.68900
C  24.62600 0.65900 26.87800
C  25.13100 0.44500 25.41600
C  26.68700 0.27800 25.56700
C  26.87800 0.60300 27.05500
C  24.40700 -0.71700 24.68700
C  27.63900 1.29300 24.73000
C  28.21500 0.83600 23.40900
N  27.15500 0.52400 30.11900
C  28.21600 0.34800 29.21300
C  29.39800 0.09900 29.98800
C  29.02700 0.22500 31.32600
C  27.65400 0.50900 31.33900
C  30.76000 -0.22100 29.45400
C  29.57700 0.25600 32.58600
O  30.72700 0.01300 32.95000
C  28.30300 0.39400 33.56400
C  28.23600 -0.94300 34.31200
O  27.77900 -1.99100 33.83200
O  28.59800 -0.79600 35.61400
C  28.49000 -1.85600 36.59100
H  21.65200 1.22100 32.68200
H  22.50800 0.50200 26.31800
H  28.91100 0.02800 27.15500
H  25.33000 0.30300 34.94400
H  23.43500 2.26000 34.46000
H  22.10200 1.00500 35.47600
H  23.32700 -0.25500 35.70900
H  22.40900 -0.40100 34.33300
H  25.43000 3.14800 35.43400
H  26.97800 2.53300 34.72700
H  27.59800 1.50200 36.38800
H  26.02600 0.80100 36.81100
H  18.97700 0.24700 30.60500
H  19.04900 2.07400 30.62000
H  19.63100 1.10800 31.86700
H  18.00900 0.35800 28.57300
H  17.93600 0.84200 26.88800
H  18.56200 2.00900 28.09800
H  24.88000 1.37500 24.90500
H  26.98600 -0.75900 25.41600
H  23.68500 -1.13800 25.38700
H  25.09300 -1.54200 24.49300
H  23.85200 -0.36300 23.81800
H  28.48100 1.65600 25.31900
H  27.15100 2.26400 24.64100
H  27.79100 -0.11100 23.07600
H  29.25600 0.51300 23.40000
H  28.07200 1.55500 22.60300
H  31.13000 -0.90600 30.21700
H  31.43300 0.63600 29.42800
H  30.75400 -0.80000 28.53000
H  28.44900 1.16200 34.32300
H  28.66000 -2.81900 36.10800
H  27.44800 -1.86500 36.91200
H  29.18900 -1.74700 37.42000
Mg 9.72600 47.47100 26.37700
C  7.97700 47.57800 29.34600
C  12.42500 48.51200 28.06200
C  11.38900 47.50900 23.46900
C  6.72500 46.82300 24.55700
N  10.08300 48.18800 28.43200
C  9.23300 48.13600 29.51500
C  10.01100 48.46200 30.87500
C  11.16200 49.34200 30.21200
C  11.25600 48.65400 28.78000
C  10.86200 50.98800 30.18400
C  10.47500 47.29200 31.73300
C  10.03100 47.38600 33.24400
H  10.02700 46.21200 34.19700
N  11.64100 47.76100 25.90600
C  12.66000 48.00500 26.77800
C  13.90100 47.93200 26.06700
C  13.64500 47.63600 24.69800
C  12.14200 47.64800 24.60900
C  15.22700 48.02100 26.70200
C  14.58700 47.49300 23.53000
O  14.26400 47.49600 22.35900
C  16.02100 47.56800 23.74800
N  9.13500 47.14500 24.29600
C  10.00400 47.45800 23.30500
C  9.32700 47.29600 21.86200
C  7.86400 46.80900 22.30100
C  7.85000 46.99400 23.81800
C  9.29000 48.55900 21.01400
C  7.43200 45.40500 21.85400
C  8.31600 44.11900 22.16400
N  7.68400 47.38700 26.76700
C  6.60200 47.06600 25.97300
C  5.46200 46.94200 26.77800
C  6.00200 47.00200 28.11800
C  7.33900 47.34400 28.07700
C  4.10700 46.55200 26.36100
C  5.62400 46.88400 29.54000
O  4.56200 46.63500 30.05100
C  6.94700 47.17400 30.34800
C  7.29700 45.90700 31.01100
O  8.03600 45.02900 30.54500
O  6.65300 45.85600 32.17900
C  6.98400 44.66400 33.03600
H  13.28100 48.86400 28.64300
H  11.94100 47.37600 22.53600
H  5.76500 46.64300 24.06800
H  9.29500 49.07000 31.42800
H  12.09000 49.22600 30.77200
H  10.04300 51.21500 30.86700
H  10.72400 51.25800 29.13700
H  11.77100 51.46500 30.54900
H  11.56200 47.21900 31.77100
H  10.13100 46.35200 31.30100
H  9.03400 47.82400 33.21700
H  10.73800 48.07100 33.71100
H  15.21100 48.10900 27.78900
H  15.73000 48.91900 26.34300
H  15.82100 47.13700 26.47100
H  16.17100 48.62400 23.97400
H  16.57400 47.39300 22.82500
H  16.18000 46.79200 24.49700
H  9.77500 46.46600 21.31500
H  7.07700 47.50000 21.99900
H  10.05200 48.41400 20.24800
H  9.50500 49.46200 21.58600
H  8.31800 48.62100 20.52500
H  7.33800 45.42200 20.76800
H  6.38600 45.22800 22.10600
H  9.20000 44.40600 22.73500
H  8.57000 43.61000 21.23400
H  7.85000 43.41100 22.85000
H  3.52900 46.51100 27.28400
H  4.12700 45.66800 25.72400
H  3.72900 47.36100 25.73700
H  6.63000 47.85100 31.14200
H  7.87800 44.98600 33.57100
H  7.14600 43.69100 32.57200
H  6.19400 44.54200 33.77700

