158

Mg 35.03800 2.86900 29.11700
C  33.08400 3.93700 31.82700
C  37.86400 3.20100 31.09100
C  36.91400 1.90400 26.52600
C  32.19500 2.84100 27.18700
N  35.41800 3.28200 31.25700
C  34.45800 3.69400 32.17700
C  35.06800 3.63900 33.53500
C  36.57700 3.77300 33.26800
C  36.66000 3.43600 31.74800
C  37.27500 5.16700 33.65900
C  34.55500 2.52600 34.47900
C  34.35100 2.92400 35.93800
H  35.22700 3.98100 36.65900
N  37.14400 2.53500 28.84500
C  38.10500 2.80700 29.79200
C  39.39700 2.59100 29.15800
C  39.18500 2.13400 27.78300
C  37.68900 2.16900 27.64000
C  40.67100 2.97000 29.90500
C  40.11100 1.65000 26.68400
O  39.70200 1.33400 25.58800
C  41.53400 1.42300 26.93200
N  34.59200 2.40900 27.14800
C  35.52500 1.98500 26.29300
C  34.89500 1.49600 24.95400
C  33.37500 1.82200 25.18300
C  33.36500 2.49100 26.59100
C  35.61800 1.90400 23.67100
C  32.54400 0.50800 24.87000
C  32.37600 -0.56100 25.96000
N  33.07200 3.32900 29.32700
C  32.05100 3.27200 28.48000
C  30.85800 3.75800 29.01600
C  31.24100 4.02300 30.37400
C  32.57800 3.75100 30.50400
C  29.52600 3.68500 28.40300
C  30.69600 4.54900 31.66900
O  29.64000 5.02700 31.95600
C  31.87300 4.23300 32.69200
C  32.04700 5.40600 33.52900
O  32.38700 6.54500 33.11400
O  31.67800 5.13800 34.85700
C  31.50900 6.30600 35.75000
H  38.76300 3.27200 31.70700
H  37.47100 1.41600 25.72400
H  31.30600 2.90400 26.55500
H  34.78500 4.56300 34.03900
H  37.04100 2.92900 33.78000
H  37.86200 4.98000 34.55900
H  36.48300 5.83100 34.00600
H  37.84900 5.52200 32.80300
H  35.30100 1.73200 34.45000
H  33.60600 2.15000 34.09500
H  34.35400 2.03900 36.57500
H  33.33400 3.31600 35.95800
H  41.00500 2.18100 30.58000
H  40.65600 3.89100 30.48700
H  41.44400 2.97600 29.13600
H  42.08100 2.36500 26.90300
H  41.89600 0.76600 26.14100
H  41.54700 0.87800 27.87600
H  35.03400 0.43800 25.17900
H  33.14700 2.53900 24.39400
H  36.18000 2.82100 23.84300
H  34.78900 1.97800 22.96800
H  36.25300 1.16300 23.18500
H  32.97600 -0.00600 24.01200
H  31.53100 0.82300 24.62000
H  32.92000 -1.48500 25.76500
H  31.30600 -0.71200 26.10900
H  32.83900 -0.26600 26.90100
H  28.81500 4.21600 29.03600
H  29.17400 2.66500 28.25000
H  29.49000 4.22900 27.46000
H  31.58000 3.45600 33.39900
H  30.48700 6.64600 35.92100
H  31.99700 7.24900 35.50100
H  31.89200 6.02000 36.72900
Mg 48.23100 35.77500 28.48200
C  46.25900 33.96400 30.76000
C  48.27900 38.38100 30.71700
C  49.46100 37.63600 26.00800
C  47.66300 33.15100 26.19900
N  47.55600 36.03300 30.52600
C  46.80000 35.15700 31.28300
C  46.78900 35.62000 32.68700
C  46.88400 37.20900 32.53600
C  47.56400 37.24600 31.16900
C  45.52500 37.99500 32.42500
C  47.95600 35.02500 33.49500
C  47.80200 34.90700 35.00400
H  46.85600 35.95300 35.57900
N  48.92600 37.70000 28.38300
C  48.90200 38.62900 29.41400
C  49.63200 39.81100 28.97300
C  50.04900 39.58100 27.60500
C  49.45700 38.24300 27.25500
C  49.87400 40.91100 29.98700
C  50.91200 40.47400 26.65800
O  51.29500 40.13900 25.56000
C  51.26600 41.83900 27.09700
N  48.43100 35.43400 26.37500
C  48.98300 36.42000 25.59800
C  49.07000 35.96500 24.15400
C  48.82000 34.42000 24.22800
C  48.34300 34.26300 25.71800
C  48.25600 36.69200 23.14500
C  49.86000 33.39500 23.77000
C  50.76500 33.76600 22.54700
N  47.19000 33.95500 28.42500
C  47.12200 32.94700 27.45200
C  46.42600 31.77800 27.91900
C  46.03800 32.10400 29.25200
C  46.54500 33.47400 29.49900
C  46.17200 30.50100 27.07700
C  45.39900 31.60000 30.44200
O  44.91500 30.50800 30.79200
C  45.35200 32.89500 31.44800
C  45.83600 32.47100 32.85000
O  46.82400 31.79500 32.98400
O  44.92900 32.86700 33.75900
C  45.07500 32.17300 35.01500
H  48.04300 39.12400 31.48200
H  49.82300 38.26600 25.19300
H  47.63200 32.42600 25.38300
H  45.82300 35.31600 33.09100
H  47.51800 37.49300 33.37600
H  44.71400 37.38900 32.02300
H  45.75400 38.78000 31.70500
H  45.20100 38.27600 33.42800
H  48.86400 35.59800 33.30800
H  48.14500 34.03200 33.08900
H  48.78800 35.10500 35.42400
H  47.47800 33.92000 35.33300
H  49.74100 40.66200 31.03900
H  49.53300 41.91000 29.71500
H  50.96300 40.93500 30.02800
H  51.08100 42.48800 26.24100
H  52.31300 41.95700 27.37400
H  50.57200 42.08100 27.90200
H  50.09100 36.21900 23.86900
H  47.89000 34.08300 23.77000
H  47.45200 35.99800 22.89700
H  48.89000 36.89500 22.28200
H  47.83400 37.64400 23.46700
H  49.40800 32.42300 23.57300
H  50.58000 33.22900 24.57100
H  51.75100 33.88800 22.99500
H  50.42100 34.73900 22.19800
H  50.81300 32.95800 21.81700
H  47.07200 30.11200 26.60000
H  45.40300 30.51700 26.30400
H  45.80900 29.73700 27.76600
H  44.35400 33.32000 31.55900
H  44.77000 32.90900 35.76000
H  46.08300 31.82800 35.24600
H  44.35600 31.35400 35.00700

