158

Mg 30.84900 57.88300 40.16100
C  28.14300 55.91700 38.91100
C  32.88700 55.14000 39.25800
C  33.59400 59.95900 40.23500
C  28.69000 60.63000 40.35100
N  30.55700 55.78500 39.07800
C  29.33200 55.17600 38.78700
C  29.59700 53.76500 38.22300
C  31.04200 53.44800 38.75100
C  31.57300 54.84400 39.13400
C  30.98600 52.51200 39.95600
C  29.38100 53.92500 36.72500
C  28.17500 53.08400 36.20600
H  27.31100 53.77800 35.13700
N  32.97000 57.56300 40.07200
C  33.54400 56.35900 39.57100
C  34.96400 56.51000 39.74600
C  35.22200 57.85000 40.03900
C  33.85800 58.50700 40.15000
C  35.88100 55.34400 39.70100
C  36.59500 58.50800 40.20600
O  37.59500 57.84500 40.17700
C  36.79400 59.99400 40.49200
N  31.13000 60.02200 40.38100
C  32.32500 60.59800 40.39300
C  32.14300 62.15700 40.64200
C  30.52800 62.24000 40.90000
C  30.08000 60.90400 40.51800
C  33.04700 62.58400 41.92200
C  30.03400 63.45200 40.00500
C  29.24200 64.46800 40.81400
N  28.82000 58.26800 39.79800
C  28.09300 59.41600 39.96900
C  26.70200 59.13400 39.78200
C  26.62200 57.80500 39.40100
C  27.99100 57.33000 39.33500
C  25.57700 60.11300 39.94100
C  25.76900 56.72300 39.09500
O  24.53600 56.69200 38.91600
C  26.69300 55.40200 38.75900
C  26.32000 54.26800 39.64100
O  26.94200 53.91700 40.62200
O  25.27800 53.58800 39.11600
C  24.71700 52.38100 39.74600
H  33.50300 54.25100 39.10700
H  34.39100 60.70600 40.20900
H  28.08000 61.50600 40.57900
H  28.87600 53.20300 38.81700
H  31.67000 53.09300 37.93500
H  31.60900 51.65300 39.70700
H  30.02900 52.00200 40.07300
H  31.40900 52.91800 40.87500
H  30.19100 53.52200 36.11700
H  29.26300 54.96300 36.41600
H  27.47100 52.89200 37.01600
H  28.49600 52.13400 35.78000
H  36.95500 55.39300 39.88200
H  35.86000 55.00300 38.66600
H  35.47900 54.49000 40.24500
H  37.85300 60.25100 40.46900
H  36.31400 60.17600 41.45400
H  36.29500 60.58800 39.72600
H  32.56700 62.69100 39.79100
H  30.26300 62.32700 41.95400
H  33.35600 61.67300 42.43300
H  32.39500 62.97100 42.70500
H  33.91700 63.22000 41.75500
H  29.59500 62.98800 39.12100
H  30.92100 63.97400 39.64600
H  29.71300 65.43400 40.99800
H  29.01700 64.10000 41.81500
H  28.35000 64.75600 40.25700
H  25.91000 61.05700 39.51000
H  25.31600 60.21600 40.99500
H  24.67200 59.77100 39.43800
H  26.52000 55.00700 37.75800
H  25.04300 52.31600 40.78500
H  25.11900 51.48900 39.26600
H  23.62800 52.39300 39.75500
Mg 0.39700 42.51800 24.96700
C  1.31500 42.61200 28.37700
C  -2.68000 41.22300 26.02800
C  -0.26100 42.07200 21.81600
C  3.76200 43.21300 24.15700
N  -0.49200 41.87400 27.02100
C  -0.00100 42.27400 28.20800
C  -0.98600 41.99900 29.36100
C  -2.19900 41.17500 28.68300
C  -1.79500 41.44500 27.14700
C  -2.45000 39.65600 28.87700
C  -1.41300 43.47900 29.83100
C  -1.56600 43.55400 31.34700
H  -2.04400 42.39600 32.16800
N  -1.21100 41.85700 24.06700
C  -2.41100 41.40100 24.60100
C  -3.36500 41.19000 23.55800
C  -2.70000 41.42300 22.36100
C  -1.37100 41.86200 22.71100
C  -4.77500 40.51300 23.84600
C  -3.32900 41.31900 20.99500
O  -2.63800 41.53300 19.96800
C  -4.76200 40.83900 20.75700
N  1.58800 42.60200 23.19000
C  1.10900 42.33100 21.99400
C  2.14600 42.48900 20.86600
C  3.31100 43.28400 21.61600
C  2.87400 43.10100 23.12200
C  2.52600 41.13000 20.20800
C  3.46300 44.77600 21.17000
C  4.07300 45.17900 19.87700
N  2.18300 42.88200 25.99400
C  3.48000 43.09700 25.54000
C  4.38500 43.22600 26.66800
C  3.56500 43.12600 27.83300
C  2.23400 42.88900 27.33500
C  5.90600 43.50600 26.63500
C  3.55600 43.12000 29.26400
O  4.46800 43.14200 30.04400
C  2.09500 42.90500 29.67900
C  1.93600 41.73800 30.66000
O  2.49100 40.67300 30.49500
O  1.23400 42.05000 31.83900
C  1.18600 40.90300 32.77700
H  -3.72100 41.00300 26.27700
H  -0.41800 41.87200 20.75400
H  4.78400 43.42400 23.83800
H  -0.60600 41.42400 30.20600
H  -3.19700 41.60200 28.78000
H  -1.73600 39.35400 29.64400
H  -2.28000 39.14900 27.92800
H  -3.45000 39.45100 29.25800
H  -2.34100 43.81800 29.37100
H  -0.68300 44.21400 29.49300
H  -2.25300 44.39600 31.42500
H  -0.66300 44.00700 31.75600
H  -4.95800 39.99600 24.78700
H  -4.77700 39.69400 23.12700
H  -5.56300 41.23900 23.64400
H  -4.87400 39.78400 21.00700
H  -5.00000 40.90600 19.69500
H  -5.49100 41.42700 21.31400
H  1.59600 43.10100 20.15100
H  4.17800 42.73400 21.25100
H  2.03400 41.04300 19.23900
H  2.10300 40.31900 20.80100
H  3.59800 40.94600 20.14600
H  3.96400 45.22700 22.02600
H  2.49300 45.25700 21.29700
H  4.80900 45.97200 20.01000
H  3.23300 45.51100 19.26700
H  4.52800 44.35700 19.32600
H  6.27600 42.87700 27.44500
H  6.13800 44.52900 26.93300
H  6.39800 43.19400 25.71400
H  1.79200 43.78000 30.25500
H  0.48800 40.14600 32.42000
H  0.97500 41.26300 33.78400
H  2.12700 40.42600 33.05000

