158

Mg 35.61800 2.22100 29.59500
C  33.29300 3.17700 32.24200
C  38.02300 2.46400 31.85300
C  37.69400 1.51800 27.05100
C  33.09500 2.83300 27.32500
N  35.52600 2.57400 31.86400
C  34.60000 3.04500 32.67900
C  35.16800 2.99800 34.13400
C  36.70300 3.07000 33.97000
C  36.77400 2.66700 32.44600
C  37.28100 4.51900 34.20000
C  34.65700 1.85900 34.99100
C  34.89500 1.98900 36.54800
H  35.26800 3.35200 37.16200
N  37.66600 1.91100 29.47700
C  38.48300 2.12800 30.54300
C  39.77200 1.80900 30.07400
C  39.69900 1.40800 28.72900
C  38.32600 1.56300 28.36200
C  40.99100 1.97200 30.98800
C  40.69600 0.86700 27.63100
O  40.34900 0.53800 26.45300
C  42.12400 0.72400 27.94900
N  35.47700 2.29000 27.49600
C  36.39400 1.75300 26.68400
C  35.99900 1.72000 25.16900
C  34.51800 2.06500 25.30700
C  34.34100 2.37700 26.81100
C  36.73100 2.66900 24.17700
C  33.60500 0.82300 24.87500
C  32.10600 0.87800 24.77600
N  33.61300 2.87400 29.71600
C  32.67600 3.07600 28.66400
C  31.40600 3.47100 29.21100
C  31.61500 3.45200 30.64800
C  32.97300 3.13600 30.90300
C  30.17900 3.93100 28.46400
C  31.02600 3.79800 31.92700
O  29.90800 4.29200 32.03600
C  32.03400 3.52300 33.02300
C  32.05300 4.74300 33.86800
O  32.77000 5.70700 33.65400
O  31.19600 4.69200 34.89700
C  30.99300 5.81600 35.82000
H  38.89600 2.58800 32.49800
H  38.24500 1.15900 26.17900
H  32.35600 3.02000 26.54300
H  34.79700 3.92200 34.57700
H  37.34300 2.36100 34.49400
H  36.56700 5.05500 34.82600
H  37.40800 5.17700 33.34100
H  38.24500 4.56500 34.70700
H  34.97100 0.89800 34.58400
H  33.57900 1.84300 34.82800
H  35.72200 1.33300 36.82000
H  34.11600 1.68100 37.24600
H  41.86600 1.52100 30.51900
H  40.77400 1.26200 31.78600
H  41.15200 3.00500 31.29500
H  42.59800 1.69600 27.80800
H  42.50400 0.11000 27.13200
H  42.18000 0.12300 28.85600
H  36.08700 0.71400 24.76100
H  34.13700 2.87700 24.68700
H  37.64000 3.01200 24.67000
H  36.31300 3.58100 23.74900
H  36.97900 2.04100 23.32200
H  33.83400 0.07300 25.63200
H  34.04800 0.39100 23.97800
H  31.81300 0.21500 25.59000
H  31.90800 0.42200 23.80600
H  31.62400 1.85400 24.71700
H  30.29100 3.95600 27.38000
H  29.82200 4.90800 28.79000
H  29.33100 3.24700 28.48100
H  31.78700 2.63200 33.59900
H  31.02400 5.31600 36.78800
H  29.99500 6.20000 35.61100
H  31.77500 6.57200 35.75400
Mg 47.53300 16.05900 28.76600
C  45.40400 15.89900 31.58700
C  49.60900 18.13800 30.61600
C  48.94600 16.94200 25.85700
C  45.04400 14.48500 27.00100
N  47.47500 17.05100 30.85900
C  46.57200 16.60400 31.91200
C  47.09800 17.14600 33.25400
C  48.44100 17.96900 32.82800
C  48.55100 17.65600 31.38200
C  48.31700 19.49100 33.16200
C  47.44600 16.14900 34.34300
C  46.87700 16.27100 35.83000
H  46.78600 17.74300 36.41600
N  49.11700 17.23700 28.31900
C  49.86400 17.98700 29.21700
C  51.02900 18.53800 28.51700
C  50.85600 18.21300 27.14400
C  49.58300 17.39900 27.01700
C  51.98800 19.40200 29.17300
C  51.67000 18.54900 25.95900
O  51.38100 18.43100 24.79800
C  53.01800 19.29500 26.12400
N  47.15800 15.67400 26.73300
C  47.81700 16.16600 25.71000
C  47.36700 15.71600 24.39700
C  46.14600 14.90300 24.73800
C  46.07500 15.00200 26.20800
C  47.11000 16.99900 23.34600
C  46.04100 13.47100 24.12300
C  45.15300 13.24800 22.96100
N  45.64200 15.31800 29.18300
C  44.79600 14.61400 28.35600
C  43.61100 14.24100 29.04200
C  43.81100 14.60100 30.37900
C  45.04400 15.32900 30.36800
C  42.38500 13.52900 28.41100
C  43.28300 14.59000 31.69500
O  42.28900 14.03100 32.12400
C  44.28500 15.48900 32.52000
C  43.51300 16.56400 33.20100
O  42.72600 17.34700 32.72500
O  43.82000 16.51200 34.57100
C  43.04100 17.46900 35.40800
H  50.19200 18.81700 31.24300
H  49.49300 17.09900 24.92400
H  44.19600 13.97600 26.53700
H  46.35100 17.88600 33.54200
H  49.29400 17.63700 33.41900
H  47.48700 19.70800 33.83400
H  48.07000 20.14200 32.32400
H  49.28100 19.82800 33.54200
H  48.51700 15.94900 34.36300
H  46.99800 15.19500 34.06500
H  47.48200 15.65300 36.49300
H  45.88600 15.84400 35.98300
H  52.96100 18.91100 29.19200
H  51.63000 19.90900 30.06800
H  52.02900 20.20600 28.43800
H  53.62100 19.20200 25.22000
H  53.49000 18.87100 27.01000
H  52.98500 20.36600 26.32200
H  48.12300 15.05500 23.97300
H  45.25800 15.42400 24.38200
H  46.07100 17.16500 23.06000
H  47.75200 16.81700 22.48400
H  47.51900 17.87700 23.84500
H  45.81200 12.75200 24.90900
H  47.06200 13.24600 23.81700
H  44.79200 14.19600 22.56100
H  44.25800 12.72300 23.29300
H  45.55500 12.58400 22.19500
H  42.44100 12.45900 28.60900
H  42.28900 13.75000 27.34800
H  41.56300 14.01400 28.93700
H  44.74500 14.86700 33.28700
H  41.98500 17.20000 35.40400
H  43.17300 18.51300 35.12400
H  43.29400 17.23100 36.44100

