158

Mg 9.74200 48.57400 26.26900
C  7.50700 48.43200 29.04900
C  12.24100 49.43200 28.41700
C  11.72700 48.56000 23.64300
C  6.92600 47.76700 24.21800
N  9.75100 49.13300 28.45600
C  8.81200 48.81600 29.37500
C  9.38600 48.94400 30.79300
C  10.72100 49.73100 30.55900
C  10.92200 49.44300 29.01700
C  10.60800 51.26700 30.82700
C  9.47700 47.53800 31.59800
C  10.63700 47.29300 32.59400
H  10.35000 46.36500 33.76700
N  11.74100 49.02200 26.06200
C  12.60500 49.33200 27.02900
C  13.86400 49.29200 26.53800
C  13.80500 48.99200 25.11900
C  12.43900 48.90600 24.85000
C  15.14700 49.61000 27.29800
C  14.94900 48.81500 23.94300
O  14.71500 48.58300 22.78200
C  16.30400 48.58400 24.54000
N  9.29500 48.40600 24.18500
C  10.36000 48.33300 23.28800
C  9.83100 48.04400 21.89600
C  8.37500 47.66000 22.15300
C  8.13300 48.04700 23.56900
C  10.14900 49.22200 20.89900
C  8.16800 46.15400 21.96500
C  6.93400 45.78900 21.04600
N  7.58000 48.24900 26.49400
C  6.59100 47.89900 25.59000
C  5.37600 47.60000 26.29000
C  5.63200 47.75300 27.63800
C  7.02100 48.20700 27.68300
C  4.05500 47.16000 25.64700
C  5.11100 47.81700 28.97900
O  3.95900 47.65100 29.37200
C  6.27400 48.09400 29.92600
C  6.42900 46.81100 30.74100
O  6.85800 45.74100 30.24700
O  5.91000 46.94500 31.98100
C  6.08400 45.87500 32.92900
H  13.05900 49.65000 29.10700
H  12.28300 48.45000 22.71000
H  6.06300 47.48500 23.61000
H  8.56500 49.52100 31.21900
H  11.64400 49.33500 30.98300
H  11.05400 51.86000 30.02800
H  11.12500 51.57200 31.73700
H  9.58200 51.46300 31.13600
H  9.20100 46.75700 30.88900
H  8.63400 47.68200 32.27300
H  10.94300 48.22800 33.06300
H  11.53900 46.99700 32.05800
H  15.04200 49.97600 28.32000
H  15.75000 50.35000 26.77200
H  15.68700 48.66600 27.36900
H  16.64700 49.54200 24.93200
H  17.04200 48.36600 23.76800
H  16.27800 47.78200 25.27700
H  10.41500 47.21300 21.50000
H  7.61600 48.12200 21.52100
H  10.68400 48.81800 20.03900
H  10.70100 49.94400 21.50000
H  9.26600 49.63500 20.41000
H  8.01400 45.59000 22.88500
H  9.08200 45.73000 21.54800
H  7.18900 45.65300 19.99500
H  6.10300 46.49200 21.10600
H  6.53900 44.81800 21.34400
H  4.27300 46.55000 24.77000
H  3.47700 48.03100 25.33900
H  3.39000 46.60000 26.30500
H  6.07300 48.99800 30.50100
H  5.05800 45.57900 33.14600
H  6.60500 46.24200 33.81300
H  6.55200 44.96300 32.55900
Mg -11.68800 15.98100 42.00600
C  -8.46800 14.89800 41.09900
C  -10.93600 19.02100 40.47900
C  -14.93900 16.50000 41.64900
C  -12.40900 12.69200 42.99500
N  -9.89200 16.81400 40.71200
C  -8.69300 16.21500 40.53600
C  -7.71200 17.11900 39.73600
C  -8.41100 18.50600 39.93600
C  -9.84900 18.13600 40.38400
C  -7.67200 19.45800 40.98000
C  -7.63100 16.65900 38.20700
C  -6.26000 16.59200 37.59900
H  -6.01800 17.17900 36.22700
N  -12.81900 17.62500 41.22100
C  -12.32900 18.79200 40.72000
C  -13.44000 19.64500 40.49900
C  -14.62100 18.96200 40.86800
C  -14.18000 17.57300 41.28600
C  -13.27500 21.01000 39.99200
C  -16.07200 19.53900 40.76100
O  -16.33700 20.64100 40.21000
C  -17.31700 18.80700 41.30100
N  -13.48100 14.65000 42.08500
C  -14.68600 15.19900 42.09700
C  -15.77400 14.19500 42.48300
C  -14.89200 13.01000 42.86600
C  -13.49300 13.56300 42.74500
C  -16.67500 14.66400 43.63600
C  -15.21800 11.78400 41.90800
C  -15.49200 10.46700 42.63600
N  -10.66700 14.21300 42.34300
C  -11.06700 12.98600 42.67800
C  -9.92800 12.07300 42.67300
C  -8.87800 12.85900 42.20600
C  -9.39400 14.09400 41.84900
C  -9.98500 10.66700 43.19600
C  -7.45800 12.79700 41.91900
O  -6.62000 11.93800 42.16000
C  -7.16300 14.08100 41.02200
C  -6.05800 14.83400 41.63800
O  -6.07400 15.21700 42.78600
O  -5.12600 15.07300 40.69500
C  -4.01800 15.86700 41.19800
H  -10.81300 20.03900 40.10500
H  -16.01500 16.67100 41.73400
H  -12.64100 11.65700 43.25800
H  -6.74200 17.23400 40.21900
H  -8.59000 19.12000 39.05400
H  -8.39000 20.10800 41.48000
H  -6.99200 20.01900 40.33900
H  -7.14000 18.84500 41.70700
H  -8.20400 17.37600 37.62000
H  -8.00400 15.64200 38.07900
H  -5.95300 15.54700 37.54700
H  -5.54300 17.13800 38.21200
H  -12.26600 21.42100 39.95000
H  -13.89100 21.63900 40.63500
H  -13.79700 21.02600 39.03600
H  -18.18800 19.46200 41.30000
H  -17.11300 18.46700 42.31700
H  -17.43700 17.98600 40.59400
H  -16.38900 13.90300 41.63300
H  -15.05000 12.86400 43.93500
H  -16.44100 14.47500 44.68400
H  -17.68000 14.28100 43.45400
H  -16.73800 15.74700 43.52900
H  -14.32700 11.56800 41.31800
H  -16.09800 11.95700 41.28900
H  -14.86900 9.63900 42.29800
H  -16.55300 10.22800 42.70800
H  -15.17600 10.51300 43.67900
H  -10.77900 10.09200 42.71900
H  -10.32400 10.68600 44.23100
H  -9.00300 10.21600 43.04800
H  -6.90700 13.62000 40.06700
H  -3.21900 15.17300 41.46100
H  -4.29800 16.61300 41.94200
H  -3.81800 16.50300 40.33500

