158

Mg 30.79500 57.97300 38.42900
C  28.07100 55.97100 37.40100
C  32.68500 55.19700 38.17000
C  33.28400 59.94200 39.38300
C  28.72800 60.73700 38.25000
N  30.41300 55.84900 37.65200
C  29.23000 55.29000 37.35500
C  29.41700 53.78700 37.00000
C  30.92400 53.59500 37.24300
C  31.36600 54.93700 37.78800
C  31.39800 52.43000 38.19500
C  29.00600 53.39000 35.55400
C  29.48500 54.43700 34.46500
H  28.36600 54.79600 33.46000
N  32.75700 57.59500 38.79400
C  33.39300 56.39300 38.62100
C  34.73600 56.52800 38.98600
C  34.99900 57.88200 39.27500
C  33.68100 58.57900 39.16800
C  35.75100 55.39500 38.88600
C  36.33900 58.42800 39.51600
O  37.35400 57.76700 39.25100
C  36.61600 59.81500 40.20000
N  30.95700 60.05900 38.87800
C  32.08900 60.66800 39.31100
C  31.98900 62.24800 39.33700
C  30.55100 62.44900 39.02300
C  30.03600 61.03200 38.60100
C  32.67000 63.00800 40.50300
C  30.15300 63.69300 38.19500
C  29.06300 64.66800 38.71900
N  28.79800 58.32700 38.00500
C  28.08000 59.54100 37.98200
C  26.67700 59.25600 37.64400
C  26.58500 57.86500 37.51800
C  27.90900 57.34700 37.71300
C  25.54400 60.30000 37.55300
C  25.70500 56.80000 37.28100
O  24.47800 56.90700 37.26000
C  26.53200 55.58800 37.18600
C  25.99800 54.48200 38.12400
O  26.51000 54.15100 39.14000
O  24.91400 53.91700 37.46000
C  24.36800 52.73500 38.05700
H  33.24900 54.26200 38.19000
H  34.08000 60.62300 39.69200
H  28.00700 61.55100 38.34000
H  28.68900 53.22000 37.57800
H  31.33600 53.44200 36.24600
H  32.15200 51.78100 37.75000
H  30.57200 51.76200 38.44000
H  31.72900 52.79600 39.16700
H  27.93400 53.20000 35.60100
H  29.41600 52.39400 35.38900
H  30.26800 53.85200 33.98100
H  29.99100 55.31200 34.87400
H  36.38200 55.36200 39.77500
H  36.45700 55.73200 38.12700
H  35.35200 54.41600 38.62200
H  37.53100 59.80000 40.79300
H  35.84100 60.09200 40.91400
H  36.71500 60.49400 39.35300
H  32.53700 62.59300 38.46100
H  30.02800 62.61000 39.96600
H  33.21100 62.27700 41.10400
H  31.84300 63.37800 41.10900
H  33.38400 63.79400 40.26100
H  29.84400 63.33900 37.21100
H  31.05500 64.29700 38.09800
H  29.56800 65.29000 39.45700
H  28.17000 64.13300 39.04300
H  28.59600 65.22700 37.90800
H  24.65900 59.81100 37.14600
H  25.81500 61.02300 36.78400
H  25.40000 60.83800 38.49100
H  26.48100 55.14600 36.19100
H  25.17200 52.16700 38.52500
H  23.88800 52.19600 37.24000
H  23.62100 52.93600 38.82500
Mg 16.72300 51.70800 25.18300
C  18.73200 50.61400 27.89000
C  14.44200 52.65300 27.53200
C  14.98500 52.84800 22.66400
C  19.14200 50.42200 23.00300
N  16.65100 51.85200 27.43300
C  17.52400 51.21700 28.33400
C  17.14800 51.48800 29.83500
C  15.63800 51.90400 29.72500
C  15.58500 52.17800 28.14900
C  14.60800 50.90500 30.31900
C  18.01200 52.65800 30.37600
C  18.51100 52.64500 31.88000
H  17.52200 52.09400 32.94000
N  14.97200 52.64900 25.05300
C  14.17400 52.98100 26.11200
C  13.00900 53.60100 25.59700
C  13.10700 53.71400 24.23200
C  14.37700 53.05000 23.86100
C  11.86700 54.24200 26.54300
C  12.23500 54.38200 23.25700
O  12.46800 54.60800 22.08400
C  10.82000 54.84100 23.72400
N  17.02900 51.72500 23.08200
C  16.14900 52.20600 22.21000
C  16.53200 51.99100 20.71600
C  17.93900 51.37100 20.89200
C  18.03800 51.15700 22.38800
C  15.68800 51.13900 19.82500
C  19.11200 52.21000 20.32100
C  20.24700 51.33600 19.63800
N  18.58800 50.70900 25.35300
C  19.42000 50.16900 24.39700
C  20.46900 49.47100 24.99900
C  20.28900 49.63800 26.38400
C  19.08600 50.37600 26.54200
C  21.69200 48.75700 24.36000
C  20.76100 49.32300 27.67800
O  21.80900 48.85900 28.00600
C  19.84700 49.97200 28.76700
C  19.48900 49.05800 29.79700
O  18.65400 48.16000 29.67700
O  20.14400 49.29400 30.96100
C  19.65100 48.56300 32.14700
H  13.70700 52.96900 28.27600
H  14.36300 53.16900 21.82600
H  19.80400 49.92700 22.29000
H  17.28500 50.59200 30.44000
H  15.36400 52.84100 30.20900
H  13.85600 50.60000 29.59100
H  14.08700 51.35100 31.16600
H  15.06300 49.97900 30.67000
H  17.47200 53.60500 30.38500
H  18.93900 52.76700 29.81300
H  18.62600 53.70300 32.11700
H  19.41100 52.03100 31.89400
H  12.14500 54.40700 27.58400
H  10.98400 53.60800 26.47000
H  11.71900 55.24400 26.14100
H  10.33600 54.18900 24.45100
H  10.24400 54.95800 22.80600
H  10.84000 55.87600 24.06600
H  16.64700 52.94600 20.20400
H  17.99000 50.36400 20.48000
H  16.18600 50.54200 19.06100
H  14.95300 51.74700 19.29800
H  15.04000 50.48200 20.40400
H  19.51400 52.76100 21.17100
H  18.74700 53.00400 19.67000
H  20.34800 51.48600 18.56300
H  20.04500 50.27100 19.75600
H  21.24600 51.46700 20.05500
H  21.44900 48.39400 23.36100
H  21.97200 47.88700 24.95500
H  22.53000 49.44400 24.47500
H  20.54000 50.69200 29.20300
H  19.39100 47.59000 31.72900
H  18.79200 48.97200 32.67900
H  20.37000 48.53500 32.96500

