158

Mg 25.98400 50.10000 26.57600
C  23.96400 51.43000 29.06800
C  28.08300 48.79900 29.13500
C  28.17300 49.01500 24.26400
C  24.03400 51.66800 24.18600
N  26.01700 50.13500 28.86800
C  25.02600 50.71200 29.67300
C  25.35200 50.44200 31.14300
C  26.80100 49.81400 31.12600
C  26.98800 49.54900 29.62300
C  27.94500 50.43400 31.91600
C  24.22200 49.42200 31.68000
C  24.27800 49.16300 33.20300
H  25.06500 50.18600 34.09200
N  27.83600 49.12700 26.66400
C  28.48900 48.68100 27.76700
C  29.69900 48.03400 27.45600
C  29.73600 48.02400 26.06600
C  28.61600 48.75600 25.59200
C  30.62100 47.29300 28.39800
C  30.76100 47.38600 25.10100
O  30.72400 47.44900 23.88600
C  31.84400 46.55500 25.67600
N  26.13100 50.29500 24.50800
C  27.08300 49.76400 23.79000
C  26.74400 49.92200 22.30200
C  25.40600 50.60100 22.27400
C  25.15400 50.89000 23.73200
C  27.84100 50.76700 21.48800
C  24.23900 49.74700 21.68400
C  22.95800 50.59900 21.23000
N  24.29100 51.23200 26.55800
C  23.55500 51.76600 25.46200
C  22.45100 52.55600 26.02000
C  22.53000 52.43500 27.38000
C  23.70200 51.64300 27.65200
C  21.44500 53.32700 25.20800
C  22.01600 52.82200 28.65700
O  21.02600 53.50500 28.92100
C  22.86300 52.17700 29.72400
C  23.28100 53.21800 30.66600
O  24.02600 54.08600 30.47700
O  22.65300 52.92400 31.83500
C  22.94100 53.90000 32.89700
H  28.75200 48.42300 29.91200
H  28.83700 48.61000 23.49800
H  23.56000 52.31700 23.44600
H  25.21300 51.43800 31.56300
H  26.65200 48.79300 31.47800
H  27.63600 51.39100 32.33700
H  28.78000 50.55000 31.22500
H  28.25500 49.88100 32.80200
H  24.43400 48.51700 31.11200
H  23.20000 49.76300 31.51300
H  24.49100 48.10300 33.34000
H  23.30800 49.28200 33.68600
H  30.73200 46.22300 28.22600
H  30.39900 47.22600 29.46300
H  31.65300 47.59200 28.21300
H  32.49200 47.25200 26.20700
H  32.38300 46.15500 24.81700
H  31.40200 45.74600 26.25800
H  26.68900 48.91000 21.90100
H  25.41800 51.59100 21.81600
H  28.74900 50.94100 22.06500
H  27.42600 51.74300 21.23900
H  28.12400 50.20900 20.59500
H  23.72200 49.28900 22.52700
H  24.48800 48.96700 20.96400
H  22.11900 50.62700 21.92600
H  22.62800 50.02500 20.36400
H  23.39400 51.56700 20.98400
H  21.36700 52.82600 24.24300
H  21.70900 54.38400 25.16500
H  20.51600 53.17300 25.75600
H  22.27100 51.46400 30.29800
H  23.14400 54.93100 32.60700
H  23.85300 53.56500 33.39000
H  22.08800 53.90300 33.57600
Mg 16.80000 52.12600 26.04000
C  18.58400 50.75100 28.59500
C  14.26500 52.88600 28.22700
C  14.93700 53.44700 23.42500
C  19.05900 50.89600 23.73100
N  16.55100 51.91100 28.12500
C  17.47700 51.47400 28.98000
C  17.03200 51.83300 30.43000
C  15.48400 52.14800 30.29400
C  15.39900 52.31700 28.77500
C  14.42700 51.15300 30.89400
C  17.89800 52.94900 31.03900
C  18.44300 52.68200 32.49300
H  17.39700 52.06800 33.45000
N  14.97900 53.20500 25.82400
C  14.05500 53.34500 26.85900
C  12.93200 53.96100 26.39200
C  13.03800 54.11400 24.96700
C  14.34300 53.58400 24.67100
C  11.70300 54.20300 27.29800
C  11.98900 54.56200 23.96200
O  12.15800 54.55800 22.76200
C  10.67000 55.05500 24.44600
N  16.91200 52.11100 23.86700
C  16.04300 52.75000 23.05100
C  16.59300 52.84600 21.58900
C  17.91900 52.04900 21.74000
C  18.00200 51.70700 23.20000
C  15.58800 52.53400 20.42000
C  19.19200 52.83400 21.27400
C  19.86700 52.14300 20.03300
N  18.46900 51.07600 26.11200
C  19.30000 50.58800 25.15000
C  20.39300 49.85100 25.69300
C  20.18800 49.89900 27.06700
C  18.95700 50.59500 27.27100
C  21.50400 49.17600 24.89300
C  20.65700 49.46200 28.37300
O  21.44900 48.58300 28.64700
C  19.67900 50.12700 29.41800
C  19.17400 49.12000 30.35100
O  18.74600 48.01600 30.04800
O  19.44700 49.51100 31.64200
C  19.25300 48.47900 32.66500
H  13.38100 52.97000 28.86300
H  14.45000 53.91900 22.57000
H  19.78900 50.60500 22.97200
H  17.16600 50.93500 31.03400
H  15.38800 53.19500 30.58300
H  13.81500 50.66800 30.13300
H  13.69000 51.73700 31.44600
H  14.78300 50.38900 31.58500
H  17.53600 53.93400 30.74400
H  18.75300 52.94100 30.36300
H  18.91400 53.58300 32.88500
H  19.24000 51.95500 32.33700
H  10.95900 53.41300 27.19100
H  11.18000 55.13200 27.07000
H  11.94300 54.28100 28.35900
H  10.26000 55.28100 23.46100
H  10.72600 55.97600 25.02600
H  10.16600 54.19700 24.89100
H  16.74800 53.92400 21.53400
H  17.73100 51.09900 21.24100
H  16.05300 51.86600 19.69500
H  15.37600 53.38100 19.76900
H  14.65800 52.08500 20.76900
H  19.86400 52.98700 22.11800
H  18.80700 53.80800 20.97000
H  19.24800 52.40700 19.17600
H  20.04500 51.07700 20.17500
H  20.77700 52.62200 19.67000
H  21.89900 49.91400 24.19500
H  21.17200 48.25900 24.40400
H  22.33400 48.88300 25.53500
H  20.21100 50.88900 29.98700
H  18.20500 48.25600 32.46300
H  19.29900 48.76700 33.71500
H  19.83900 47.58700 32.44500

