158

Mg 24.67000 -6.21100 45.80400
C  27.05500 -3.99200 44.41800
C  22.32800 -5.06500 43.46300
C  22.83100 -8.81800 46.49700
C  27.38500 -7.79800 47.51800
N  24.66400 -4.50900 44.25300
C  25.75100 -3.82100 43.83900
C  25.38500 -2.84300 42.68800
C  23.80700 -3.00800 42.53400
C  23.54800 -4.27600 43.46500
C  23.09000 -1.68000 42.96600
C  26.18500 -2.93200 41.33200
C  26.79000 -1.70700 40.68300
H  26.22500 -1.42800 39.27900
N  22.88600 -6.75300 45.14100
C  22.03600 -6.13600 44.24400
C  20.86000 -6.86900 44.21300
C  20.91200 -7.85000 45.20300
C  22.25100 -7.86100 45.68700
C  19.63200 -6.40300 43.32100
C  19.79000 -8.81400 45.54900
O  18.79500 -8.74800 44.87600
C  19.72500 -9.73900 46.73500
N  25.05800 -8.04000 46.89500
C  24.09900 -8.96600 46.99400
C  24.56200 -10.29100 47.68800
C  26.01000 -9.81700 48.10000
C  26.17600 -8.50000 47.44800
C  23.69200 -10.86300 48.87300
C  27.01000 -10.89500 47.56500
C  27.28100 -12.08400 48.55300
N  26.73800 -5.88300 46.07800
C  27.68800 -6.55700 46.86600
C  29.01500 -5.96400 46.72800
C  28.75900 -4.96400 45.77800
C  27.37400 -4.88700 45.44900
C  30.24300 -6.42300 47.51400
C  29.38800 -3.87100 45.13800
O  30.52000 -3.42200 45.18500
C  28.34100 -3.23200 44.09800
C  28.34700 -1.81100 44.37700
O  28.02700 -1.26900 45.48800
O  28.67700 -1.04800 43.26600
C  28.32600 0.36500 43.42200
H  21.74100 -4.56000 42.69400
H  22.11900 -9.60700 46.74800
H  28.24200 -8.16600 48.08600
H  25.61300 -1.81500 42.96700
H  23.63400 -3.25800 41.48800
H  23.21300 -1.50600 44.03500
H  22.03300 -1.71700 42.70400
H  23.51400 -0.80600 42.47100
H  25.57300 -3.38100 40.54900
H  26.88800 -3.73800 41.54000
H  27.86500 -1.83200 40.55600
H  26.49700 -0.81900 41.24200
H  19.09900 -7.11400 42.69100
H  20.01900 -5.72700 42.55900
H  18.97000 -5.89700 44.02400
H  18.74400 -10.17200 46.92900
H  20.10800 -9.23600 47.62300
H  20.33300 -10.55700 46.34900
H  24.58000 -11.17100 47.04500
H  26.04300 -9.61600 49.17100
H  23.50500 -11.92300 48.70100
H  22.67200 -10.47800 48.87500
H  24.04900 -10.75400 49.89700
H  28.01300 -10.52300 47.35900
H  26.59300 -11.38200 46.68400
H  28.34200 -12.28500 48.70500
H  26.75300 -12.94100 48.13400
H  26.86600 -11.80300 49.52100
H  30.43600 -7.47500 47.30600
H  29.95000 -6.30500 48.55800
H  31.03700 -5.77500 47.14200
H  28.68600 -3.36700 43.07300
H  29.06000 0.76500 44.12100
H  27.27900 0.47000 43.70500
H  28.32500 0.73200 42.39500
Mg 46.83000 25.33000 28.13600
C  47.69100 27.61300 30.73700
C  46.48300 22.88900 30.65100
C  46.52000 23.09100 25.76200
C  47.78000 27.83300 25.85700
N  46.97900 25.26600 30.38400
C  47.18000 26.35600 31.22400
C  47.16500 25.99300 32.69800
C  46.81300 24.45600 32.68300
C  46.73200 24.16900 31.15500
C  47.92700 23.63300 33.34700
C  46.16500 26.85300 33.46300
C  45.78100 26.34600 34.86900
H  46.11500 27.17000 36.04100
N  46.48100 23.28400 28.18200
C  46.44300 22.44400 29.30000
C  46.35400 21.07300 28.79800
C  46.18500 21.17200 27.44400
C  46.39000 22.58500 27.04900
C  46.48400 19.81500 29.69000
C  45.84300 20.08000 26.43900
O  45.88700 20.23900 25.22100
C  45.49300 18.67000 26.91300
N  47.22700 25.42700 26.00700
C  46.89800 24.38000 25.25600
C  46.81900 24.78600 23.77300
C  47.25300 26.30800 23.81200
C  47.40600 26.56300 25.30400
C  47.68600 23.82200 22.92500
C  46.36000 27.38200 23.10200
C  46.99600 28.04300 21.92200
N  47.52400 27.32900 28.22300
C  47.87400 28.15800 27.18500
C  48.41600 29.41600 27.71100
C  48.33600 29.23800 29.09000
C  47.78600 27.96900 29.36800
C  49.10000 30.50700 27.06800
C  48.60500 29.87900 30.29400
O  49.15600 30.98100 30.56100
C  48.22900 28.84300 31.51700
C  49.34300 28.75200 32.44700
O  50.40700 28.23800 32.22800
O  48.90400 29.31500 33.58600
C  49.75000 29.31000 34.76100
H  46.35100 22.08600 31.38000
H  46.24800 22.49000 24.89200
H  47.85100 28.64900 25.13400
H  48.10900 26.17100 33.21300
H  45.83400 24.25600 33.11900
H  48.13500 22.76100 32.72700
H  47.65600 23.30600 34.35100
H  48.79400 24.28700 33.44600
H  45.31000 27.13600 32.84900
H  46.66100 27.82000 33.54700
H  46.13400 25.32100 34.97800
H  44.71200 26.13700 34.89000
H  47.23700 19.24100 29.15000
H  45.52800 19.29600 29.76500
H  46.94100 20.06100 30.64900
H  46.43100 18.18400 27.18000
H  45.02400 18.19100 26.05300
H  44.76400 18.64900 27.72300
H  45.77700 24.58900 23.52100
H  48.25900 26.46900 23.42400
H  47.03600 22.95300 22.82600
H  48.56500 23.44600 23.44900
H  47.93000 24.23200 21.94500
H  46.07300 28.14200 23.82900
H  45.55500 26.80700 22.64300
H  46.38400 27.75300 21.06800
H  48.00700 27.67300 21.75000
H  46.96600 29.12700 22.02800
H  48.97400 30.39200 25.99100
H  50.16200 30.52000 27.31200
H  48.64400 31.45500 27.35400
H  47.40000 29.40500 31.94600
H  49.12200 28.96200 35.58100
H  50.00800 30.33800 35.01500
H  50.71100 28.83100 34.57400

