158

Mg 23.45500 -7.18700 47.33500
C  25.64400 -4.73000 45.78900
C  21.07100 -5.80100 45.43500
C  21.56300 -9.65300 48.40300
C  26.28800 -8.64400 48.62600
N  23.37800 -5.45100 45.79300
C  24.35100 -4.61900 45.38600
C  23.88000 -3.58300 44.35900
C  22.30600 -3.74300 44.41400
C  22.18700 -5.00700 45.28200
C  21.54800 -2.47900 45.05200
C  24.43000 -3.64100 42.98200
C  25.35100 -2.46600 42.47800
H  24.99900 -1.82600 41.11800
N  21.53000 -7.70000 46.83800
C  20.73400 -7.01700 46.06600
C  19.38800 -7.63800 46.15200
C  19.47700 -8.82300 46.96000
C  20.86000 -8.77500 47.47100
C  18.20600 -7.16400 45.41700
C  18.40000 -9.80600 47.28200
O  17.25200 -9.60100 46.91700
C  18.65000 -11.01200 48.08000
N  23.89600 -8.92800 48.30000
C  22.92600 -9.76800 48.82600
C  23.52300 -10.95100 49.49600
C  25.01300 -10.52400 49.69000
C  25.09400 -9.31200 48.77500
C  22.76800 -11.37600 50.77000
C  26.06900 -11.65400 49.24300
C  27.08100 -12.09100 50.28300
N  25.57700 -6.71700 47.41200
C  26.60600 -7.45300 47.96800
C  27.86000 -6.69400 47.87200
C  27.55000 -5.59900 47.02000
C  26.17400 -5.70100 46.73900
C  29.15800 -7.06200 48.37400
C  28.09100 -4.46100 46.38500
O  29.19900 -3.93000 46.35800
C  26.91500 -3.85400 45.50200
C  26.82200 -2.41100 45.99300
O  26.29200 -2.08900 47.06300
O  27.44700 -1.59700 45.07600
C  27.73900 -0.32800 45.81100
H  20.21400 -5.28300 45.00000
H  20.84600 -10.39400 48.76200
H  27.24300 -8.95500 49.05400
H  23.99200 -2.64400 44.90100
H  21.81100 -3.86400 43.45100
H  21.55300 -2.60800 46.13500
H  20.55800 -2.34600 44.61500
H  22.16500 -1.67000 44.66300
H  23.67600 -3.62200 42.19500
H  24.97100 -4.57000 42.80000
H  26.41700 -2.68800 42.52900
H  25.25900 -1.67500 43.22200
H  17.73800 -6.30300 45.89300
H  17.40800 -7.84500 45.12000
H  18.48400 -6.62900 44.50900
H  17.69000 -11.52200 48.16200
H  18.76900 -10.84600 49.15000
H  19.32700 -11.70100 47.57600
H  23.46900 -11.74700 48.75400
H  25.26000 -10.25100 50.71600
H  21.92100 -10.77900 51.10700
H  23.52300 -11.45400 51.55200
H  22.40500 -12.39100 50.60600
H  26.62100 -11.50200 48.31500
H  25.46900 -12.54400 49.05500
H  28.03400 -11.73700 49.89000
H  27.10900 -13.17600 50.38300
H  26.92200 -11.57700 51.23100
H  28.97700 -7.65600 49.26900
H  29.81200 -6.25800 48.71300
H  29.67500 -7.67500 47.63500
H  27.27100 -3.88700 44.47300
H  26.79600 0.17300 46.02700
H  28.22900 0.45600 45.23300
H  28.31200 -0.51100 46.72000
Mg -6.20600 25.71000 26.15100
C  -4.35200 27.09400 28.63800
C  -7.56800 23.41300 28.35400
C  -7.66000 24.11300 23.52500
C  -4.24000 27.52100 23.78800
N  -5.87900 25.25100 28.23900
C  -5.22700 26.07400 29.09800
C  -5.65400 25.84500 30.59500
C  -6.25400 24.44000 30.40500
C  -6.62200 24.36300 28.92100
C  -5.48900 23.17500 30.87400
C  -6.63100 26.99600 31.30200
C  -7.63000 26.59300 32.42200
H  -7.13900 25.56200 33.47200
N  -7.67600 24.15400 26.02200
C  -8.07500 23.31000 27.05100
C  -9.10200 22.40800 26.54900
C  -9.22700 22.68700 25.15400
C  -8.14400 23.66400 24.83500
C  -9.81700 21.39800 27.52300
C  -10.21300 22.07300 24.14200
O  -10.16400 22.45800 22.97400
C  -11.28800 20.98700 24.55200
N  -5.89500 25.71600 23.93200
C  -6.61500 24.94800 23.09800
C  -6.14000 25.14100 21.66100
C  -5.01700 26.29900 21.73300
C  -5.02600 26.51100 23.22500
C  -5.65400 23.88000 20.91400
C  -5.46000 27.62300 20.98500
C  -4.34500 28.24200 20.15700
N  -4.64700 27.05100 26.19100
C  -4.04900 27.77300 25.12600
C  -3.12300 28.75700 25.74200
C  -3.31900 28.53300 27.10900
C  -4.13300 27.42900 27.31600
C  -2.22000 29.78200 25.13400
C  -3.08800 29.11500 28.44200
O  -2.47300 30.11000 28.79700
C  -3.74800 28.23500 29.50800
C  -2.75400 27.77600 30.50200
O  -1.71900 27.09600 30.35500
O  -3.20700 28.15100 31.67100
C  -2.44500 27.60400 32.84800
H  -8.01000 22.79100 29.13500
H  -8.22500 23.78200 22.65100
H  -3.59000 28.01600 23.06400
H  -4.84300 25.85700 31.32300
H  -7.19300 24.37800 30.95500
H  -5.93500 22.75000 31.77300
H  -4.51700 23.57000 31.17100
H  -5.47100 22.48100 30.03300
H  -7.19900 27.31500 30.42800
H  -6.05400 27.75600 31.82900
H  -8.39100 26.03600 31.87500
H  -8.11400 27.47200 32.84900
H  -10.83800 21.63200 27.82600
H  -9.25300 21.20400 28.43500
H  -9.91600 20.41800 27.05700
H  -10.95000 19.98700 24.82400
H  -11.89100 20.82600 23.65900
H  -11.88300 21.51500 25.29700
H  -6.99100 25.48000 21.07000
H  -4.05400 25.90400 21.40900
H  -4.73500 24.07600 20.36300
H  -6.36700 23.50100 20.18200
H  -5.39500 23.05100 21.57300
H  -5.58600 28.45800 21.67300
H  -6.39200 27.46100 20.44200
H  -4.74800 28.28600 19.14500
H  -3.41500 27.67600 20.20400
H  -4.05600 29.21600 20.55300
H  -1.20900 29.37800 25.18500
H  -2.33700 30.69300 25.72100
H  -2.48400 29.86000 24.07900
H  -4.51800 28.85000 29.97500
H  -2.17900 26.55000 32.76000
H  -3.22100 27.56600 33.61300
H  -1.74000 28.29900 33.30200

