158

Mg 1.03900 8.23500 26.77300
C  1.84600 10.26800 29.48300
C  0.81400 5.54500 29.05900
C  0.69600 6.12200 24.06200
C  1.77600 10.86200 24.71100
N  1.47000 7.84700 28.91100
C  1.62300 8.90200 29.79200
C  1.38400 8.39800 31.31600
C  1.60100 6.86500 31.18100
C  1.28700 6.68600 29.63100
C  2.98300 6.34900 31.75700
C  0.01600 8.78300 31.80300
C  -0.23400 8.86300 33.31600
H  0.80400 8.42300 34.38300
N  0.75600 6.13000 26.64900
C  0.69400 5.18200 27.71100
C  0.40400 3.85300 27.15300
C  0.27600 3.99100 25.70600
C  0.66600 5.46700 25.38900
C  0.40600 2.55800 27.91700
C  0.00600 2.89800 24.62100
O  0.02700 3.24700 23.48700
C  -0.41000 1.48000 24.94100
N  1.29700 8.41900 24.71000
C  0.96900 7.43900 23.82300
C  1.05200 8.03100 22.38700
C  1.03200 9.56600 22.60800
C  1.45700 9.61100 24.13400
C  2.28100 7.56100 21.56100
C  -0.41500 10.19800 22.53600
C  -0.81600 10.86200 21.16300
N  1.59700 10.20400 26.99200
C  1.86600 11.16100 26.08200
C  2.20400 12.37500 26.72300
C  2.18700 12.07400 28.04900
C  1.84400 10.76000 28.16000
C  2.67300 13.66600 26.10700
C  2.40600 12.63700 29.42300
O  2.82700 13.75300 29.74200
C  2.09600 11.40700 30.46200
C  3.23100 11.15300 31.28300
O  4.22400 10.47800 30.98800
O  2.98900 11.76700 32.47600
C  3.95100 11.48600 33.51700
H  0.70500 4.69500 29.73600
H  0.36500 5.52500 23.20900
H  1.83100 11.73400 24.05700
H  2.18500 8.73600 31.97300
H  0.86500 6.37200 31.81600
H  2.79200 5.56600 32.49000
H  3.62000 7.14400 32.14400
H  3.52700 5.82300 30.97200
H  -0.73100 8.05900 31.47700
H  -0.27300 9.71800 31.32200
H  -1.09700 8.28100 33.64100
H  -0.48200 9.91200 33.48100
H  0.69100 2.70800 28.95800
H  1.18100 1.98200 27.41200
H  -0.50500 1.96400 27.84200
H  -0.68100 0.89500 24.06200
H  -1.27300 1.49200 25.60700
H  0.45500 1.10000 25.48400
H  0.14600 7.88000 21.79900
H  1.73100 10.12100 21.98200
H  2.48400 8.31800 20.80300
H  1.97300 6.56700 21.23700
H  3.08600 7.37200 22.27100
H  -0.60500 11.03000 23.21500
H  -1.15900 9.44500 22.79400
H  -1.76100 10.51300 20.74700
H  -0.01900 10.96500 20.42700
H  -0.96900 11.87200 21.54300
H  2.76300 14.45300 26.85600
H  1.90100 13.95500 25.39300
H  3.59900 13.48400 25.56200
H  1.19600 11.58300 31.05200
H  3.76300 10.46400 33.84500
H  4.03200 12.18400 34.35000
H  4.95500 11.67400 33.13600
Mg 48.50600 34.25500 26.25400
C  46.31300 33.22900 28.75200
C  49.21700 37.05200 28.22600
C  50.29900 35.59800 23.56700
C  47.27200 31.81600 24.08800
N  47.77100 35.09500 28.23700
C  47.03400 34.39200 29.11700
C  47.20300 35.01700 30.54300
C  47.63200 36.46400 30.20300
C  48.21200 36.23700 28.82000
C  46.52100 37.54600 30.31200
C  48.23700 34.26000 31.34300
C  47.74500 33.93600 32.78700
H  47.04800 35.05700 33.51500
N  49.75800 35.96500 26.05800
C  49.96800 36.94000 26.98900
C  51.02100 37.80200 26.52700
C  51.33200 37.47100 25.15000
C  50.47000 36.22500 24.87700
C  51.55100 38.94400 27.29000
C  52.24000 38.15700 24.06200
O  52.62500 37.64600 23.05800
C  52.70600 39.55100 24.36000
N  48.63100 33.89900 24.11500
C  49.50600 34.49500 23.23100
C  49.57900 33.78400 21.87200
C  48.80000 32.48600 22.20500
C  48.17300 32.75400 23.54700
C  48.94000 34.66900 20.68700
C  49.66900 31.23900 22.24000
C  49.00500 29.95100 21.61100
N  47.10200 32.79900 26.33300
C  46.67500 31.82100 25.35100
C  45.67900 30.88100 25.93700
C  45.56700 31.39800 27.28400
C  46.37900 32.56100 27.45700
C  45.00900 29.79200 25.22800
C  44.88200 31.20000 28.47400
O  44.05200 30.35000 28.76600
C  45.29300 32.37200 29.50900
C  45.62500 31.77300 30.81600
O  46.64100 31.08200 30.97200
O  44.67600 32.05100 31.76100
C  45.00500 31.58100 33.10000
H  49.45100 37.86000 28.92400
H  50.87300 36.12400 22.80100
H  47.11100 31.00200 23.37800
H  46.18700 34.94300 30.92900
H  48.36600 36.77100 30.94800
H  46.79200 38.13100 31.19100
H  45.49400 37.21600 30.46800
H  46.59900 38.25600 29.48800
H  49.21600 34.73900 31.34800
H  48.50800 33.37100 30.77300
H  48.61600 33.54900 33.31600
H  47.05100 33.10100 32.68600
H  51.41400 38.80200 28.36200
H  51.04700 39.86500 26.99600
H  52.62000 39.04100 27.10400
H  53.36400 39.91200 23.57000
H  53.34000 39.63700 25.24200
H  51.86300 40.24100 24.39400
H  50.59700 33.48900 21.61700
H  47.92400 32.29600 21.58400
H  48.08800 34.19200 20.20200
H  49.66600 34.95400 19.92600
H  48.56900 35.62000 21.07000
H  50.02500 30.94900 23.22900
H  50.47700 31.39300 21.52500
H  49.70600 29.27500 21.12200
H  48.19200 30.17900 20.92100
H  48.60400 29.42100 22.47500
H  44.35900 30.26300 24.49100
H  44.39200 29.11600 25.82000
H  45.76700 29.22500 24.68800
H  44.31000 32.82600 29.64200
H  44.62600 32.20200 33.91200
H  46.04700 31.30300 33.25900
H  44.48700 30.62300 33.14600

