158

Mg 44.72400 3.75300 47.97600
C  42.44800 6.53600 47.81900
C  41.86400 1.79100 47.35800
C  46.76300 1.10200 47.21300
C  47.35700 5.90900 47.50400
N  42.35900 4.16300 47.57100
C  41.69300 5.33300 47.72100
C  40.19300 5.17600 47.57600
C  40.02100 3.63500 47.63600
C  41.50600 3.16600 47.46800
C  39.33700 3.13600 48.86500
C  39.56200 5.94300 46.34300
C  39.58600 5.17800 45.00000
H  39.82800 6.07900 43.80500
N  44.38000 1.69100 47.44900
C  43.12600 1.06300 47.29100
C  43.31800 -0.27800 47.00300
C  44.75500 -0.57800 47.05700
C  45.37100 0.77900 47.24900
C  42.23200 -1.27300 47.08700
C  45.38500 -1.90500 46.86200
O  44.73400 -2.94700 46.64800
C  46.90400 -2.12000 46.86100
N  46.76700 3.55400 47.36500
C  47.37500 2.32200 47.26100
C  48.82800 2.50200 46.69400
C  49.05400 4.00300 47.21300
C  47.62700 4.52400 47.34700
C  49.98400 1.62800 47.26000
C  50.06600 4.76000 46.23100
C  51.50800 4.99700 46.69600
N  44.96700 5.80800 47.90900
C  46.09900 6.52600 47.70800
C  45.78500 8.00600 47.82300
C  44.36900 8.02600 47.79100
C  43.87900 6.64000 47.88100
C  46.70100 9.17300 47.88000
C  43.22400 8.87500 47.79500
O  43.17600 10.08800 47.89800
C  41.97500 7.94000 47.68800
C  41.01600 8.40000 48.75800
O  41.16900 8.24100 49.94300
O  39.86300 8.71900 48.15100
C  38.62600 8.85000 48.87400
H  41.02900 1.09600 47.24400
H  47.45400 0.30100 46.94200
H  48.21500 6.57800 47.41200
H  39.92900 5.54500 48.56700
H  39.59400 3.19900 46.73300
H  38.92500 2.17000 48.57400
H  38.47900 3.73300 49.17500
H  40.01600 2.91500 49.68900
H  40.22800 6.76400 46.07600
H  38.67200 6.52400 46.58800
H  38.59100 4.73600 44.95100
H  40.43000 4.49000 45.04800
H  41.27800 -0.81500 47.35000
H  42.50800 -2.03900 47.81200
H  42.12500 -1.89000 46.19600
H  47.32400 -1.50200 47.65400
H  47.35300 -1.70900 45.95600
H  47.12600 -3.16800 47.05900
H  48.80200 2.28800 45.62600
H  49.51800 3.91500 48.19500
H  50.79400 2.22700 47.67700
H  50.35700 0.87700 46.56400
H  49.79900 0.98200 48.11800
H  49.74500 5.70900 45.80300
H  50.17400 4.16900 45.32200
H  52.11200 4.59600 45.88300
H  51.81400 4.56600 47.64900
H  51.78300 6.05100 46.65200
H  47.65100 8.96900 47.38700
H  46.79600 9.48600 48.92000
H  46.10200 9.97300 47.44500
H  41.58900 8.20600 46.70300
H  37.76100 8.65100 48.24300
H  38.49500 9.88100 49.20400
H  38.52200 8.12200 49.67800
Mg 40.68700 10.01900 30.24900
C  42.58100 11.39200 32.98500
C  38.68300 8.50600 32.50000
C  39.09400 8.74900 27.65800
C  43.33700 11.03400 28.13700
N  40.56600 10.07400 32.49900
C  41.40000 10.64900 33.39300
C  40.96300 10.37900 34.83900
C  39.76200 9.38500 34.65200
C  39.73600 9.25200 33.13100
C  39.84900 8.03900 35.43200
C  40.62400 11.62100 35.74000
C  41.62200 11.88000 36.88500
H  41.15300 12.34800 38.26400
N  39.13800 8.70200 30.03700
C  38.40600 8.25300 31.10100
C  37.25700 7.51700 30.54500
C  37.36900 7.56400 29.12800
C  38.56700 8.42600 28.88700
C  36.28500 6.68100 31.35700
C  36.39300 7.06900 28.02100
O  36.65400 7.17900 26.78800
C  35.04800 6.29600 28.41200
N  41.21800 9.83300 28.14400
C  40.36100 9.25500 27.31500
C  40.81400 9.33700 25.83300
C  42.26600 9.99700 25.98400
C  42.24900 10.38000 27.49500
C  40.76700 7.95800 25.11200
C  42.46400 11.29700 25.17100
C  43.90100 11.40200 24.62800
N  42.44000 11.22400 30.40500
C  43.43500 11.46700 29.47700
C  44.55800 12.15900 30.15200
C  44.19300 12.23500 31.52200
C  42.94700 11.52900 31.61000
C  45.82800 12.72600 29.57400
C  44.69100 12.66400 32.79900
O  45.73800 13.27700 32.99700
C  43.57800 12.16800 33.81300
C  44.36700 11.25000 34.73300
O  44.68400 10.09400 34.47300
O  44.66700 11.94100 35.94700
C  45.37600 11.15900 36.95300
H  38.04100 7.97900 33.20900
H  38.53000 8.48800 26.76000
H  44.17500 11.27900 27.48100
H  41.79100 9.83700 35.29500
H  38.88500 9.92700 35.00800
H  40.76100 7.94900 36.02200
H  39.62500 7.10700 34.91200
H  39.05300 8.24900 36.14600
H  39.66400 11.45300 36.22900
H  40.71400 12.44800 35.03500
H  42.35800 12.58900 36.50700
H  42.17100 10.94800 37.02300
H  36.46500 6.67300 32.43200
H  36.26400 5.70300 30.87600
H  35.28000 7.07800 31.21800
H  34.57200 6.76600 29.27300
H  35.36600 5.28700 28.67400
H  34.42600 6.11700 27.53400
H  40.05000 9.94200 25.34400
H  43.09300 9.28800 25.97100
H  39.90900 7.86700 24.44600
H  40.49200 7.20100 25.84700
H  41.73600 7.66900 24.70400
H  42.50100 12.19400 25.78900
H  41.81200 11.43700 24.30900
H  44.57000 10.54500 24.54300
H  44.44500 12.07700 25.28800
H  44.00300 11.91700 23.67300
H  46.02700 12.49400 28.52800
H  46.67600 12.45900 30.20400
H  45.78100 13.81500 29.57100
H  43.09800 13.03200 34.27200
H  46.03000 10.41600 36.49600
H  44.72900 10.68700 37.69200
H  46.01200 11.90000 37.43700

