158

Mg 44.19500 3.23600 47.64600
C  42.06700 5.83000 46.71500
C  41.58200 1.07000 47.44800
C  46.35000 0.58500 47.86200
C  46.90900 5.43700 47.44000
N  42.01400 3.49000 47.19300
C  41.38300 4.61900 46.77000
C  39.94000 4.30500 46.52700
C  39.79100 2.87000 47.21200
C  41.25400 2.41300 47.23100
C  39.14200 2.78500 48.65700
C  39.65800 4.30900 44.93600
C  38.45300 5.12700 44.47000
H  38.64900 6.22300 43.41500
N  43.90200 1.07300 47.73600
C  42.80800 0.45700 47.58200
C  42.98700 -0.99500 47.68400
C  44.39200 -1.17100 47.73100
C  44.97900 0.23400 47.80100
C  41.87400 -2.01000 47.52800
C  45.10500 -2.56300 47.68100
O  44.49000 -3.59800 47.73300
C  46.53100 -2.65300 47.57500
N  46.32400 3.06800 47.61300
C  46.98200 1.90400 47.85700
C  48.51500 2.02900 48.11300
C  48.64800 3.58700 47.99100
C  47.23300 4.09800 47.65500
C  48.88100 1.34700 49.52000
C  49.68000 4.05500 46.92600
C  50.73400 5.08900 47.21900
N  44.46900 5.15600 47.27000
C  45.64200 5.85000 47.12500
C  45.32900 7.23700 46.81600
C  43.94100 7.33300 46.79600
C  43.42100 6.06500 47.00600
C  46.39800 8.32400 46.76100
C  42.81000 8.20600 46.59400
O  42.74400 9.43100 46.51300
C  41.50100 7.20500 46.49700
C  40.66700 7.61900 47.65800
O  40.42300 6.82700 48.54300
O  40.11400 8.84500 47.55900
C  38.93500 8.95700 48.40400
H  40.77100 0.34200 47.38200
H  47.01500 -0.27200 47.98600
H  47.75700 6.12500 47.46700
H  39.26900 4.98700 47.05000
H  39.26700 2.20300 46.52700
H  39.06100 3.76200 49.13500
H  39.72500 2.15900 49.33200
H  38.16500 2.33200 48.48900
H  39.27700 3.31000 44.72400
H  40.52400 4.47800 44.29500
H  37.96500 5.65200 45.29200
H  37.65200 4.54600 44.01200
H  42.17000 -2.96700 47.09800
H  41.23200 -1.57800 46.76100
H  41.35100 -2.17500 48.47000
H  46.84600 -2.06400 46.71400
H  46.72800 -3.70000 47.34400
H  46.91700 -2.32000 48.53800
H  49.08100 1.54200 47.31900
H  48.92000 4.06600 48.93200
H  49.32600 2.14900 50.11000
H  49.47700 0.43700 49.44300
H  47.97300 1.10100 50.07000
H  49.20900 4.32700 45.98100
H  50.21300 3.14100 46.66600
H  51.73900 4.66600 47.21500
H  50.61900 5.61200 48.16800
H  50.78600 5.78600 46.38200
H  46.97100 8.24800 47.68500
H  45.97800 9.31600 46.93100
H  46.97100 8.22500 45.83900
H  40.99800 7.04300 45.54400
H  38.10500 8.38900 47.98500
H  38.57800 9.98700 48.42700
H  39.17000 8.78400 49.45400
Mg 35.72900 0.73300 29.29600
C  33.31600 2.23700 31.49400
C  37.97500 0.87800 31.87200
C  38.14800 -0.06100 27.18300
C  33.55900 1.17800 26.59700
N  35.66800 1.64700 31.39400
C  34.56700 1.98300 32.13000
C  34.92600 2.32100 33.57000
C  36.53500 2.18500 33.56300
C  36.77100 1.58000 32.15400
C  37.40000 3.56100 33.82800
C  34.20500 1.37700 34.56300
C  33.90300 2.04900 35.90000
H  34.81400 3.17200 36.38700
N  37.77100 0.31500 29.51900
C  38.50600 0.28800 30.67500
C  39.82200 -0.21000 30.45200
C  39.78700 -0.58900 29.05800
C  38.51900 -0.11900 28.53500
C  40.84200 -0.31200 31.50400
C  40.86700 -1.27300 28.29500
O  40.76600 -1.60600 27.12000
C  42.04900 -1.65800 29.06000
N  35.77500 0.42000 27.17600
C  36.94500 0.19900 26.57300
C  36.77300 0.27800 25.00900
C  35.24800 0.70800 24.86600
C  34.79000 0.69400 26.27800
C  37.63500 1.14300 24.08100
C  34.31500 -0.15700 23.94200
C  33.32400 0.54800 22.97700
N  33.75400 1.42700 29.10100
C  33.03100 1.54200 27.92600
C  31.69400 2.14500 28.31600
C  31.77500 2.45500 29.70600
C  33.02000 2.04800 30.12300
C  30.50400 2.27900 27.34000
C  31.10200 3.10300 30.84400
O  29.93600 3.56700 30.91800
C  32.09500 2.94200 32.05100
C  32.30400 4.23100 32.77000
O  32.73500 5.24200 32.30500
O  31.80800 4.10200 34.05700
C  31.75900 5.34000 34.86000
H  38.73900 0.82100 32.65000
H  38.85000 -0.30800 26.38300
H  33.05200 1.51500 25.69000
H  34.60100 3.33600 33.79900
H  36.99600 1.47400 34.24900
H  38.35100 3.23600 34.25000
H  36.83000 4.18600 34.51600
H  37.61600 4.04500 32.87600
H  34.93100 0.57400 34.69100
H  33.32200 0.93300 34.10200
H  33.92200 1.31000 36.70100
H  32.89600 2.42000 36.09100
H  41.22000 -1.31800 31.68700
H  40.48200 -0.18400 32.52500
H  41.64900 0.38600 31.27800
H  42.65300 -2.31200 28.43100
H  41.88400 -2.24700 29.96200
H  42.70200 -0.82100 29.30300
H  36.88400 -0.73600 24.62600
H  35.16400 1.74300 24.53300
H  37.19600 2.12300 23.89400
H  37.66200 0.58600 23.14500
H  38.62500 1.22300 24.53000
H  33.80500 -0.89000 24.56600
H  34.93500 -0.75900 23.27700
H  33.41900 1.63300 23.03000
H  32.28600 0.25200 23.12500
H  33.61400 0.31900 21.95100
H  29.70100 2.75200 27.90700
H  30.23700 1.31900 26.90100
H  30.92000 2.87000 26.52400
H  31.64700 2.30500 32.81400
H  30.75200 5.75600 34.82200
H  32.57200 5.99700 34.54900
H  31.98700 4.99500 35.86800

