158

Mg 53.66400 23.83400 44.41900
C  50.87600 25.86000 43.86400
C  51.54000 21.11300 44.52200
C  56.28500 21.78300 44.00400
C  55.72000 26.59000 43.71600
N  51.52100 23.55900 44.07900
C  50.53800 24.45900 43.94400
C  49.16500 23.85600 43.92200
C  49.36900 22.43600 44.29900
C  50.90600 22.37100 44.35200
C  48.71000 22.01400 45.68700
C  48.47800 23.98500 42.57500
C  49.32200 23.71200 41.35100
H  49.13400 24.61200 40.12900
N  53.85000 21.71500 44.24800
C  52.87800 20.80100 44.43100
C  53.43400 19.46400 44.44600
C  54.81400 19.67900 44.35800
C  55.04700 21.12500 44.18800
C  52.71300 18.19000 44.81700
C  55.86000 18.52400 44.54700
O  55.44800 17.37100 44.65100
C  57.34300 18.77900 44.59100
N  55.71100 24.22900 43.72100
C  56.61200 23.17100 43.82600
C  57.98900 23.71400 43.55400
C  57.83800 25.25300 43.43700
C  56.32800 25.35500 43.58800
C  59.12500 23.29200 44.55800
C  58.45500 25.96100 42.14100
C  59.40700 27.18600 42.24000
N  53.40900 25.88400 44.05200
C  54.31900 26.85800 43.79300
C  53.62700 28.15500 43.89100
C  52.30100 27.79000 43.95700
C  52.20500 26.39000 43.95000
C  54.28700 29.54100 43.84800
C  50.98700 28.31100 43.92900
O  50.57200 29.49500 44.00600
C  49.99500 27.13600 43.87100
C  49.25000 27.41800 42.67400
O  49.79500 27.51900 41.58600
O  47.90500 27.64500 42.91900
C  47.13200 28.24700 41.83400
H  50.85200 20.30200 44.77000
H  57.24000 21.26800 43.87300
H  56.37000 27.44700 43.52500
H  48.53200 24.39000 44.63000
H  49.02800 21.72700 43.54400
H  48.52700 22.88300 46.31800
H  49.39600 21.43500 46.30500
H  47.70700 21.61500 45.53800
H  48.14100 25.02100 42.53500
H  47.57900 23.36900 42.54600
H  49.07800 22.69100 41.06000
H  50.38700 23.65700 41.57600
H  53.05400 17.51100 44.03600
H  51.65200 18.42200 44.73200
H  52.95200 17.83100 45.81800
H  57.78600 17.91300 45.08200
H  57.56700 19.66700 45.18300
H  57.76700 18.81500 43.58700
H  58.15200 23.26600 42.57400
H  58.38400 25.63500 44.30000
H  59.42900 24.04300 45.28700
H  60.03600 22.89200 44.11200
H  58.67800 22.45800 45.09800
H  57.65500 26.39900 41.54500
H  58.96400 25.37100 41.37800
H  60.38600 26.82600 41.92400
H  59.59500 27.44100 43.28300
H  59.09400 28.05000 41.65300
H  53.94200 30.12800 42.99700
H  55.37200 29.57400 43.74300
H  53.96300 30.01000 44.77700
H  49.31700 27.10300 44.72400
H  46.98800 27.49800 41.05600
H  47.76600 28.97700 41.33000
H  46.15100 28.63900 42.10000
Mg 34.72400 48.69000 25.54400
C  34.98100 46.98500 28.56100
C  33.04300 51.22400 27.25400
C  34.17700 50.16600 22.70600
C  36.09900 45.84900 23.91800
N  33.99500 48.95600 27.64400
C  34.32200 48.20800 28.69600
C  33.89100 48.87900 30.00600
C  33.00000 50.02300 29.51400
C  33.35400 50.07500 28.05900
C  31.46100 49.86700 29.81500
C  35.10200 49.35900 30.92400
C  34.98300 48.97500 32.39600
H  33.65600 49.12600 33.01700
N  33.70400 50.37800 25.03100
C  33.19100 51.36400 25.88000
C  32.62400 52.48000 25.14500
C  32.92600 52.14300 23.83700
C  33.67100 50.86900 23.78700
C  31.97900 53.77200 25.64300
C  32.63300 52.91500 22.61200
O  33.16300 52.76400 21.47200
C  31.75100 54.19100 22.65100
N  35.26900 48.13800 23.63000
C  34.92800 48.96000 22.61900
C  35.34400 48.37700 21.24800
C  36.14700 47.04900 21.69900
C  35.79900 47.02000 23.18900
C  34.16400 48.10000 20.31300
C  37.70600 46.93900 21.49200
C  38.45500 47.89300 20.56100
N  35.44700 46.73200 26.08200
C  35.95700 45.73900 25.37400
C  36.38400 44.69300 26.23700
C  36.04200 45.10800 27.54100
C  35.38300 46.36000 27.33700
C  36.96000 43.32800 25.80800
C  36.10600 44.80700 28.90800
O  36.46900 43.74000 29.47800
C  35.49100 46.02200 29.68100
C  34.44000 45.58400 30.67200
O  33.24100 45.60800 30.49300
O  35.02900 45.05500 31.81600
C  34.20400 44.64400 32.98400
H  32.60500 52.03600 27.83800
H  34.14400 50.64000 21.72300
H  36.44900 44.96000 23.39000
H  33.29600 48.24000 30.65900
H  33.28300 50.98100 29.95000
H  31.17200 50.82800 30.23900
H  31.24500 49.17500 30.63000
H  30.90800 49.46500 28.96600
H  35.21700 50.42800 30.74300
H  36.02100 48.99000 30.47000
H  35.77900 49.53400 32.88600
H  35.13600 47.89900 32.47900
H  30.93000 53.83500 25.35200
H  32.52800 54.63200 25.26000
H  32.05100 53.80100 26.73100
H  32.20000 55.08200 23.09000
H  30.77700 53.98800 23.09500
H  31.60200 54.47700 21.61000
H  35.95100 49.10600 20.71000
H  35.64400 46.22100 21.20000
H  33.36300 47.64600 20.89600
H  34.43900 47.43500 19.49500
H  33.70400 49.01600 19.94100
H  38.01100 45.95800 21.12900
H  38.13300 47.05700 22.48800
H  37.79500 48.26100 19.77600
H  39.27700 47.34500 20.09900
H  38.87600 48.79200 21.01000
H  36.31500 42.60200 25.31300
H  37.53100 42.89400 26.62900
H  37.73400 43.52000 25.06600
H  36.41700 46.32600 30.16800
H  33.65500 43.73000 32.75800
H  33.70100 45.55200 33.31600
H  34.89000 44.32700 33.77000

