158

Mg -2.12200 17.30700 25.83800
C  -1.92500 15.12100 28.67500
C  -2.61500 19.90800 27.94300
C  -2.18800 19.17200 23.21500
C  -1.85000 14.41900 23.85600
N  -2.25300 17.44300 28.04900
C  -2.19100 16.47500 29.03800
C  -2.53100 17.08500 30.45500
C  -2.95300 18.56500 30.07200
C  -2.55300 18.65200 28.59200
C  -4.49800 18.80200 30.26400
C  -1.29300 17.04000 31.40100
C  -1.73900 16.46700 32.80000
H  -0.61100 16.68000 33.85100
N  -2.40200 19.25100 25.62900
C  -2.55400 20.18500 26.56400
C  -2.48800 21.54500 25.94400
C  -2.30200 21.36600 24.50600
C  -2.31700 19.87300 24.38200
C  -2.84900 22.82100 26.60900
C  -2.05900 22.43200 23.42400
O  -2.02700 22.16400 22.25000
C  -1.69600 23.89400 23.68800
N  -2.14700 16.82300 23.84700
C  -2.22400 17.84300 22.94900
C  -2.27000 17.21100 21.52200
C  -1.99400 15.73000 21.74700
C  -2.04300 15.66400 23.24300
C  -3.63000 17.57300 20.87300
C  -0.56100 15.37200 21.08700
C  0.81100 15.62200 21.74900
N  -1.92800 15.22900 26.11000
C  -1.83300 14.10200 25.22400
C  -1.75400 12.87300 25.92400
C  -1.75400 13.29400 27.23700
C  -1.84900 14.68100 27.34400
C  -1.98800 11.42500 25.38000
C  -1.80600 12.63200 28.59000
O  -1.67700 11.47300 28.89100
C  -1.99900 13.86000 29.59600
C  -0.88000 13.65700 30.59500
O  0.26700 14.13700 30.53200
O  -1.36100 12.85700 31.56700
C  -0.45400 12.73200 32.68500
H  -2.73500 20.79500 28.56900
H  -2.33800 19.81200 22.34300
H  -1.85200 13.51900 23.23800
H  -3.26700 16.47100 30.97400
H  -2.55700 19.34200 30.72600
H  -4.76300 19.50100 29.47000
H  -4.59500 19.20200 31.27300
H  -5.10600 17.91600 30.07900
H  -0.79500 18.00500 31.49200
H  -0.43900 16.43400 31.10100
H  -1.98100 15.40400 32.80400
H  -2.57400 17.07400 33.14900
H  -2.92700 22.69100 27.68800
H  -3.79700 23.18200 26.21000
H  -2.03500 23.52600 26.44200
H  -1.04000 23.66400 24.52700
H  -2.54700 24.51500 23.96600
H  -1.11100 24.36500 22.89800
H  -1.49500 17.70900 20.94000
H  -2.66400 14.94200 21.40400
H  -3.42400 17.99700 19.89000
H  -4.24700 18.28600 21.41900
H  -4.21700 16.69800 20.59200
H  -0.45600 15.97000 20.18200
H  -0.64500 14.30600 20.88000
H  1.12700 14.93500 22.53300
H  0.83500 16.60100 22.22800
H  1.51300 15.61300 20.91400
H  -1.94500 11.50000 24.29300
H  -3.00100 11.14400 25.66800
H  -1.18100 10.81100 25.77900
H  -2.93800 13.83300 30.15000
H  -0.41900 13.63900 33.28800
H  0.54400 12.49800 32.31400
H  -0.80700 11.92300 33.32500
Mg 47.33700 44.88000 44.10600
C  43.93400 44.33300 43.66900
C  47.92900 41.58900 43.05000
C  50.66600 45.72400 43.50000
C  46.63300 48.25900 44.66000
N  46.11100 43.20900 43.37400
C  44.72000 43.21800 43.48000
C  44.17500 41.96300 42.79200
C  45.38200 40.96300 43.13000
C  46.58700 41.93500 43.18400
C  45.22200 40.18400 44.47400
C  43.97600 42.06200 41.24800
C  42.52300 41.92700 40.78200
H  42.29600 41.32300 39.37300
N  49.09000 43.78300 43.49700
C  49.07400 42.45400 43.08200
C  50.40400 42.10500 42.79600
C  51.19100 43.24800 42.95100
C  50.32000 44.32500 43.31600
C  50.72000 40.70400 42.37600
C  52.66100 43.29000 42.68500
O  53.27300 42.27900 42.48900
C  53.47200 44.53400 42.93100
N  48.51200 46.72200 44.05900
C  49.83600 46.80400 43.84100
C  50.36000 48.25900 44.05000
C  49.01700 49.07400 44.41100
C  47.98200 47.93800 44.45000
C  51.57000 48.43800 45.08300
C  48.72900 50.16200 43.29500
C  47.91200 51.33200 43.66500
N  45.62200 46.05500 44.34100
C  45.52700 47.40300 44.53700
C  44.17200 47.75400 44.61600
C  43.44600 46.61400 44.25100
C  44.41200 45.59600 44.07800
C  43.54400 49.05200 44.74600
C  42.24600 46.02200 43.89700
O  41.09600 46.60800 43.76100
C  42.36100 44.50800 43.67100
C  41.64400 43.83500 44.85000
O  40.48000 43.44600 44.87500
O  42.44900 43.73900 45.96500
C  41.83100 43.05300 47.13300
H  48.02500 40.53200 42.79300
H  51.65200 46.05500 43.16500
H  46.25600 49.28100 44.74100
H  43.28600 41.61100 43.31500
H  45.66900 40.26800 42.34100
H  44.17400 39.98600 44.70000
H  45.66200 40.79000 45.26600
H  45.67100 39.19100 44.49500
H  44.61400 41.32600 40.76000
H  44.24200 43.09400 41.02000
H  42.04900 42.90800 40.76100
H  42.03800 41.27300 41.50700
H  50.57300 40.73700 41.29600
H  50.13700 39.94600 42.89900
H  51.74400 40.57300 42.72700
H  54.54300 44.33200 42.91300
H  53.21100 44.81100 43.95300
H  53.23700 45.37600 42.28100
H  50.88900 48.53700 43.13900
H  49.08100 49.40200 45.44800
H  51.39100 49.25100 45.78600
H  52.53000 48.53200 44.57600
H  51.72100 47.54700 45.69200
H  48.11400 49.79900 42.47200
H  49.60200 50.52300 42.75200
H  48.62700 52.15400 43.64300
H  47.62100 51.39300 44.71300
H  47.01200 51.57400 43.09900
H  42.58800 48.92700 44.23700
H  44.19000 49.83100 44.34200
H  43.38500 49.20500 45.81300
H  41.93600 44.17700 42.72400
H  41.75500 41.97200 47.01900
H  40.98200 43.66600 47.43600
H  42.55000 43.12600 47.95000

