158

Mg 17.23100 52.99700 26.39000
C  19.29800 51.48700 28.90800
C  14.77500 53.38500 28.72500
C  15.07500 53.36100 23.86300
C  19.59300 51.71700 24.02400
N  17.07400 52.37700 28.53300
C  18.08700 51.98200 29.41500
C  17.65700 52.00100 30.88200
C  16.10300 52.42200 30.71600
C  15.95500 52.80100 29.26500
C  14.99700 51.42200 31.24100
C  18.57900 52.99600 31.62400
C  18.73400 52.74800 33.13900
H  17.59100 52.06300 33.91500
N  15.27600 53.58400 26.32700
C  14.43700 53.68100 27.41700
C  13.20700 54.23900 26.94300
C  13.19500 54.07800 25.52800
C  14.49700 53.58400 25.13700
C  12.15300 54.77700 27.89200
C  12.11800 54.43300 24.54600
O  12.24800 54.16400 23.33000
C  10.86100 55.00700 24.98200
N  17.40800 52.80100 24.23500
C  16.41300 53.11600 23.44400
C  16.94200 53.18600 21.98100
C  18.34100 52.64900 22.06300
C  18.50700 52.39600 23.52800
C  16.09500 52.54600 20.84300
C  19.47600 53.50000 21.40100
C  19.93100 54.75000 22.24500
N  18.97500 51.82700 26.34900
C  19.82400 51.43600 25.34200
C  20.94800 50.65500 25.85200
C  20.77100 50.65100 27.25500
C  19.59300 51.39200 27.52100
C  22.11800 50.10100 25.14700
C  21.39800 50.26600 28.49200
O  22.38800 49.59100 28.68700
C  20.43700 50.78100 29.64900
C  19.85100 49.60700 30.40200
O  18.92200 48.88000 30.06500
O  20.50600 49.52800 31.61600
C  19.82500 48.75000 32.69400
H  14.08000 53.57400 29.54600
H  14.32600 53.37800 23.06900
H  20.24500 51.32700 23.23900
H  17.75900 51.01300 31.33100
H  16.04200 53.27100 31.39800
H  14.17500 51.92300 31.75300
H  15.48300 50.61700 31.79300
H  14.62600 50.94000 30.33700
H  18.13700 53.98300 31.48500
H  19.57300 53.05400 31.18000
H  18.94300 53.73900 33.54300
H  19.66400 52.18800 33.24100
H  12.05300 55.86000 27.82600
H  12.54400 54.57300 28.88900
H  11.16900 54.30800 27.87500
H  10.34400 54.22900 25.54200
H  10.34700 55.23400 24.04800
H  11.04400 55.76800 25.74100
H  17.06700 54.25700 21.82100
H  18.45800 51.69900 21.54100
H  15.36100 51.86100 21.26600
H  16.68800 51.85800 20.24100
H  15.60100 53.16000 20.09000
H  19.14200 53.69400 20.38200
H  20.37500 52.88400 21.41000
H  20.77800 54.51200 22.88900
H  19.13900 55.07600 22.91900
H  20.20500 55.55000 21.55700
H  22.30900 50.77500 24.31200
H  21.79700 49.19000 24.64200
H  22.84100 49.94300 25.94700
H  20.97200 51.45400 30.31900
H  19.83700 49.36600 33.59300
H  20.47000 47.87200 32.73900
H  18.85700 48.26400 32.56700
Mg -1.05400 33.96900 26.91500
C  -2.99500 32.48700 29.52900
C  0.39900 36.01300 29.22500
C  0.40900 35.76300 24.29300
C  -2.94400 32.24000 24.59000
N  -1.33900 34.33600 29.16700
C  -2.09100 33.57200 30.01000
C  -2.00700 34.03900 31.44200
C  -1.03000 35.25100 31.34600
C  -0.62200 35.25200 29.82400
C  -1.65700 36.65400 31.80600
C  -1.52500 32.91700 32.42900
C  -2.49000 32.51300 33.64800
H  -1.84400 32.25100 35.02500
N  0.34700 35.49100 26.80000
C  0.84400 36.14600 27.90600
C  1.88200 37.13400 27.42200
C  1.75900 37.13600 26.02800
C  0.84900 36.08700 25.60200
C  2.80200 37.86200 28.30400
C  2.43700 38.14400 24.99800
O  2.20900 38.16100 23.82300
C  3.52900 39.01000 25.52500
N  -1.23400 34.04800 24.85400
C  -0.57700 34.84800 23.96100
C  -0.97300 34.57200 22.43500
C  -1.73100 33.20700 22.56500
C  -1.99400 33.17100 24.08600
C  -1.61400 35.81000 21.76200
C  -0.95400 32.02700 22.02400
C  0.27400 31.61600 22.87000
N  -2.59300 32.59500 26.99300
C  -3.23600 31.97700 25.96000
C  -4.13900 30.96400 26.44100
C  -4.13500 31.22100 27.88000
C  -3.11400 32.12600 28.11400
C  -5.10900 30.14800 25.68700
C  -4.78000 30.78900 29.09500
O  -5.68100 29.97900 29.22700
C  -4.02600 31.58700 30.30000
C  -5.03900 32.41900 30.94000
O  -5.66700 33.34200 30.42100
O  -5.35100 31.95200 32.09500
C  -6.38100 32.65200 32.93800
H  0.90500 36.58500 30.00500
H  0.82300 36.37800 23.49100
H  -3.45300 31.68900 23.79700
H  -2.97700 34.37100 31.81100
H  -0.21700 35.02000 32.03400
H  -2.73800 36.55200 31.90800
H  -1.33900 37.46700 31.15400
H  -1.28700 36.93600 32.79200
H  -0.59300 33.14000 32.94800
H  -1.36900 32.04900 31.78800
H  -2.95500 31.56600 33.37300
H  -3.31500 33.22600 33.66500
H  2.56700 38.92500 28.35500
H  3.82500 37.65500 27.98800
H  2.76400 37.41900 29.29900
H  3.15300 39.70500 26.27600
H  4.06300 39.43900 24.67700
H  4.22000 38.35300 26.05500
H  -0.02400 34.42100 21.91900
H  -2.65900 33.30900 22.00200
H  -0.78200 36.09200 21.11800
H  -1.77200 36.65600 22.43100
H  -2.53200 35.51400 21.25400
H  -0.63200 32.10900 20.98600
H  -1.64100 31.18100 22.03300
H  0.29700 32.40100 23.62600
H  1.17000 31.69600 22.25500
H  0.13400 30.67800 23.40700
H  -5.17700 30.39400 24.62800
H  -6.09700 30.30500 26.12100
H  -4.87900 29.12700 25.99400
H  -3.63200 30.81000 30.95500
H  -7.22200 33.13700 32.44400
H  -5.81400 33.38100 33.51600
H  -6.67000 31.77200 33.51300

