158

Mg -2.20900 18.09300 26.90200
C  -2.47200 16.02100 29.68200
C  -2.90300 20.90300 28.91800
C  -1.84200 19.97600 24.28000
C  -1.68700 15.15100 24.91600
N  -2.55400 18.39400 29.06900
C  -2.61100 17.35000 29.99700
C  -2.88200 17.91800 31.44400
C  -3.08900 19.49100 31.13400
C  -2.83500 19.62900 29.58400
C  -4.56000 20.03600 31.58900
C  -1.79200 17.82100 32.52100
C  -2.07400 17.08000 33.83000
H  -1.10200 17.29700 34.97300
N  -2.36800 20.15700 26.57400
C  -2.64200 21.16300 27.52600
C  -2.59900 22.42600 26.90500
C  -2.30100 22.16100 25.56000
C  -2.19400 20.73300 25.42700
C  -2.71600 23.80000 27.53900
C  -2.13700 23.11700 24.38600
O  -2.14700 22.81100 23.22300
C  -2.10200 24.64100 24.68800
N  -1.63800 17.57500 24.93900
C  -1.64600 18.62800 24.06700
C  -1.40300 17.97500 22.61700
C  -0.86500 16.53600 22.90400
C  -1.42500 16.39800 24.32800
C  -2.68200 18.05100 21.66800
C  0.65400 16.29000 22.71900
C  1.73800 16.79300 23.73900
N  -2.28900 15.97900 27.18100
C  -2.04700 14.92600 26.25600
C  -2.23800 13.63700 26.94200
C  -2.45700 14.01500 28.27900
C  -2.41000 15.47000 28.36700
C  -2.27200 12.24100 26.32800
C  -2.79900 13.52400 29.58000
O  -2.98000 12.38300 29.98100
C  -2.77300 14.77800 30.57200
C  -1.68100 14.46400 31.59300
O  -0.50300 14.74300 31.55700
O  -2.24000 13.73900 32.60600
C  -1.40700 13.19200 33.75200
H  -2.96600 21.79400 29.54600
H  -1.85200 20.47800 23.31000
H  -1.53600 14.23800 24.33600
H  -3.81200 17.40600 31.69100
H  -2.32200 20.15500 31.53300
H  -4.50300 20.75900 32.40300
H  -5.05800 19.12500 31.92000
H  -5.11200 20.48100 30.76100
H  -1.42700 18.80000 32.83100
H  -1.02100 17.19700 32.06900
H  -2.15900 15.99700 33.74000
H  -3.08800 17.39900 34.07400
H  -3.49100 24.38500 27.04500
H  -1.75900 24.32000 27.48300
H  -2.84100 23.68600 28.61600
H  -3.08100 24.96900 25.03800
H  -1.90200 25.10000 23.72100
H  -1.23000 24.89100 25.29300
H  -0.53800 18.50500 22.21900
H  -1.24200 15.81000 22.18400
H  -3.60300 18.12000 22.24600
H  -2.63300 17.17500 21.02100
H  -2.53900 18.91800 21.02300
H  1.04800 16.90600 21.91000
H  1.00100 15.31200 22.38500
H  2.14700 15.85800 24.12100
H  1.30200 17.31600 24.59000
H  2.55000 17.32700 23.24500
H  -1.84000 11.53400 27.03700
H  -1.63000 12.11000 25.45600
H  -3.27600 11.85300 26.15700
H  -3.73600 14.73700 31.08100
H  -0.41800 12.88100 33.41600
H  -1.82800 12.26200 34.13400
H  -1.26300 13.95100 34.52000
Mg 48.03700 16.01500 28.51200
C  46.02700 15.64400 31.33900
C  50.16800 17.89700 30.37100
C  49.85100 16.47800 25.70500
C  45.54400 14.41700 26.62200
N  48.12200 16.65300 30.65800
C  47.24300 16.27700 31.64300
C  47.69100 16.75800 32.98000
C  48.90500 17.71100 32.61500
C  49.03500 17.48700 31.10600
C  48.65700 19.22100 32.92300
C  48.07700 15.62000 33.92000
C  48.00800 15.96800 35.43300
H  47.80300 17.42100 35.90900
N  49.81800 16.93100 28.13100
C  50.58900 17.62100 29.02400
C  51.87700 17.93700 28.38000
C  51.75100 17.67900 26.98900
C  50.40900 17.02300 26.89200
C  53.03400 18.57400 29.15200
C  52.71900 18.03200 25.90600
O  52.43800 17.84700 24.76100
C  54.00100 18.76700 26.15800
N  47.67800 15.67100 26.39900
C  48.60900 15.90500 25.44100
C  48.12800 15.33400 24.05300
C  46.90400 14.46900 24.43000
C  46.71100 14.86100 25.94700
C  47.82900 16.52000 23.12000
C  47.06700 12.83400 24.22800
C  47.40700 12.06100 25.48700
N  46.12000 15.31700 28.84800
C  45.19100 14.66300 27.99000
C  43.95900 14.34900 28.72500
C  44.25100 14.72300 30.03900
C  45.60300 15.20700 30.06600
C  42.68200 13.72700 28.22600
C  43.72100 14.87400 31.38200
O  42.64300 14.50100 31.89700
C  44.83100 15.41200 32.28600
C  44.35400 16.74700 32.88000
O  44.33500 17.83500 32.33700
O  43.92400 16.53300 34.15300
C  42.92200 17.48800 34.79600
H  50.83300 18.42700 31.05600
H  50.48200 16.47900 24.81400
H  44.89500 14.00200 25.84900
H  46.78500 17.30600 33.23800
H  49.83500 17.45100 33.12000
H  48.23600 19.77100 32.08100
H  49.60000 19.64700 33.26500
H  47.87300 19.41000 33.65700
H  49.09700 15.32800 33.67300
H  47.46500 14.75900 33.65200
H  48.96100 15.62500 35.83500
H  47.17500 15.33600 35.74200
H  53.96000 18.06100 28.89600
H  52.88200 18.63700 30.22900
H  53.16300 19.60900 28.83500
H  54.74500 18.34200 26.83100
H  53.55100 19.69000 26.52600
H  54.37900 19.03000 25.17000
H  48.93500 14.64900 23.78900
H  46.00200 14.68200 23.85700
H  48.18800 17.45500 23.55100
H  46.77700 16.58800 22.84300
H  48.44900 16.37800 22.23500
H  47.83400 12.42400 23.57100
H  46.10800 12.57300 23.78300
H  47.67200 12.70600 26.32500
H  48.24600 11.37100 25.40300
H  46.55700 11.45800 25.80800
H  42.70300 13.51200 27.15800
H  41.82900 14.32300 28.55000
H  42.55600 12.82200 28.82100
H  45.01700 14.79700 33.16700
H  41.87500 17.31800 34.54200
H  43.09000 18.51200 34.46200
H  43.06100 17.40200 35.87300

