158

Mg -2.27400 18.09200 27.72500
C  -2.62500 15.66000 30.20700
C  -3.05100 20.53800 29.92900
C  -2.37200 20.22500 25.11800
C  -1.92100 15.34400 25.30500
N  -2.74100 18.12600 29.82200
C  -2.86200 17.01300 30.65600
C  -3.18200 17.38200 32.11600
C  -3.41400 18.95200 31.92100
C  -3.06700 19.22100 30.47600
C  -4.87600 19.51600 32.34900
C  -2.10200 16.88600 33.12800
C  -1.51100 17.89500 34.08200
H  -1.07400 17.23200 35.43500
N  -2.55400 20.07600 27.54300
C  -2.77800 20.92400 28.66900
C  -2.78700 22.32600 28.12900
C  -2.55900 22.21000 26.65700
C  -2.45600 20.80600 26.36300
C  -3.06500 23.57000 29.03100
C  -2.53900 23.34300 25.68000
O  -2.56600 23.14300 24.45400
C  -2.51200 24.69200 26.22200
N  -2.15500 17.80700 25.52400
C  -2.11200 18.85800 24.72100
C  -1.86200 18.55500 23.28600
C  -1.54500 17.04600 23.39700
C  -1.91000 16.66700 24.81500
C  -2.97900 18.91800 22.30700
C  -0.08200 16.69600 23.07700
C  1.03400 17.35500 23.85100
N  -2.21400 15.89100 27.70600
C  -2.16000 15.00900 26.67600
C  -2.20100 13.68100 27.27600
C  -2.34900 13.83400 28.65500
C  -2.34900 15.23000 28.87600
C  -2.38100 12.41600 26.61500
C  -2.60200 13.12300 29.87500
O  -2.69500 11.89500 30.04700
C  -2.74500 14.37400 30.97600
C  -1.84500 14.05400 32.03700
O  -0.68400 14.36200 32.09100
O  -2.46600 13.31500 33.03500
C  -1.77100 12.88600 34.27000
H  -3.20000 21.31900 30.67700
H  -2.42000 20.91700 24.27500
H  -1.90300 14.52500 24.58300
H  -4.07200 16.83800 32.43300
H  -2.68300 19.50400 32.51100
H  -5.27200 18.86900 33.13100
H  -5.61900 19.56700 31.55300
H  -4.91700 20.53500 32.73200
H  -1.18100 16.54900 32.65200
H  -2.56100 16.00000 33.56600
H  -2.24400 18.56200 34.53600
H  -0.70400 18.46900 33.62600
H  -2.25500 24.30000 29.04900
H  -3.19100 23.35100 30.09100
H  -4.01000 23.95700 28.65000
H  -1.63400 24.89100 26.83700
H  -3.45800 24.94700 26.70000
H  -2.47100 25.41800 25.41000
H  -0.96000 19.15400 23.16100
H  -2.19000 16.36800 22.83800
H  -2.72800 19.67700 21.56600
H  -3.95000 19.15700 22.74100
H  -3.11700 18.01900 21.70600
H  0.00300 17.11700 22.07500
H  -0.07300 15.60600 23.05300
H  0.57500 18.01500 24.58700
H  1.78100 17.83700 23.21900
H  1.43900 16.60500 24.53100
H  -3.43800 12.22600 26.42600
H  -2.04700 11.57000 27.21700
H  -1.81800 12.36900 25.68300
H  -3.77000 14.30200 31.33900
H  -0.91700 12.27100 33.98700
H  -2.48500 12.25000 34.79200
H  -1.43100 13.72200 34.88200
Mg -12.68900 15.80400 42.47400
C  -9.66100 14.08800 42.15400
C  -11.08300 18.47000 41.05000
C  -15.81100 17.15100 41.64500
C  -14.25500 12.92100 43.39600
N  -10.54400 16.20700 41.76000
C  -9.50600 15.33000 41.62500
C  -8.23300 16.06100 41.07300
C  -8.65700 17.56300 41.12000
C  -10.18100 17.44300 41.30900
C  -7.96500 18.50800 42.14400
C  -7.78000 15.47200 39.69700
C  -6.39400 15.50300 39.32000
H  -6.14100 16.32100 38.11300
N  -13.34000 17.68800 41.47400
C  -12.45800 18.65600 41.02900
C  -13.26400 19.76100 40.61800
C  -14.66700 19.48900 40.97000
C  -14.66800 18.05900 41.35800
C  -12.65000 21.04900 40.03100
C  -15.84600 20.36700 40.82100
O  -15.72100 21.54000 40.35600
C  -17.20800 20.09900 41.26300
N  -14.72500 15.10600 42.34000
C  -15.85100 15.83000 42.16700
C  -17.16800 15.08500 42.44300
C  -16.56600 13.81600 43.21700
C  -15.09000 13.95800 42.94100
C  -18.34600 15.88900 43.11200
C  -17.17600 12.38100 42.63200
C  -17.94700 11.50100 43.68800
N  -12.05700 13.85800 42.87600
C  -12.81900 12.81600 43.32600
C  -11.98400 11.76600 43.64600
C  -10.69200 12.20200 43.20400
C  -10.79100 13.51700 42.74300
C  -12.28000 10.42600 44.24600
C  -9.28800 11.77900 43.05600
O  -8.62800 10.80300 43.45100
C  -8.58600 12.97400 42.31900
C  -7.38600 13.38900 43.01400
O  -7.35900 14.11500 44.05300
O  -6.31300 12.96900 42.30900
C  -4.99900 13.69500 42.68600
H  -10.44300 19.29300 40.72500
H  -16.79100 17.54800 41.37000
H  -14.73900 12.19600 44.05200
H  -7.49200 15.90000 41.85600
H  -8.43100 18.08900 40.19300
H  -7.81300 17.94900 43.06700
H  -8.65500 19.32600 42.35100
H  -7.01200 18.95000 41.85200
H  -8.37500 16.06500 39.00300
H  -8.16100 14.45100 39.73100
H  -5.98800 14.49600 39.22200
H  -5.73400 15.92300 40.07900
H  -12.56200 21.85800 40.75600
H  -13.21400 21.41700 39.17400
H  -11.62800 20.77000 39.77300
H  -17.75600 19.53000 40.51200
H  -17.69100 21.06000 41.44000
H  -17.14000 19.52300 42.18600
H  -17.51300 14.72500 41.47400
H  -16.87700 13.91800 44.25600
H  -18.11800 16.95200 43.02800
H  -18.53200 15.68500 44.16700
H  -19.32300 15.71000 42.66300
H  -16.38000 11.80200 42.16300
H  -17.79700 12.43700 41.73800
H  -17.44500 10.54300 43.82300
H  -18.98300 11.42800 43.35500
H  -17.96800 11.99900 44.65700
H  -13.03200 10.50300 45.03100
H  -11.40500 10.00600 44.74200
H  -12.49500 9.59200 43.57800
H  -8.35400 12.65000 41.30400
H  -4.30300 13.35800 41.91700
H  -4.63700 13.56400 43.70500
H  -5.14800 14.77300 42.62600

