158

Mg 47.76400 25.39600 28.45300
C  48.96300 27.42000 31.17500
C  46.54300 23.18500 30.94100
C  46.88500 23.20300 26.10700
C  49.62300 27.27700 26.36800
N  47.71200 25.38900 30.81600
C  48.24400 26.34600 31.67200
C  47.94300 25.98900 33.12600
C  47.14400 24.66900 33.02800
C  47.09900 24.39600 31.51000
C  47.65400 23.50300 33.90100
C  47.34700 27.24100 33.88900
C  47.82900 27.46600 35.41200
H  46.74800 27.58200 36.48200
N  46.74600 23.47900 28.53700
C  46.39100 22.75200 29.62600
C  45.52700 21.57700 29.16300
C  45.53200 21.58900 27.73100
C  46.39100 22.82300 27.41400
C  44.80600 20.60100 30.08800
C  44.89100 20.72700 26.70400
O  45.09600 20.86800 25.53200
C  44.02700 19.48900 27.02700
N  48.12800 25.28700 26.45100
C  47.58600 24.30900 25.65900
C  48.15400 24.43500 24.24600
C  49.06600 25.64800 24.40000
C  48.85000 26.21700 25.79200
C  48.91800 23.15700 23.91600
C  48.89100 26.69200 23.25400
C  48.79200 26.09000 21.84800
N  48.91900 27.07800 28.62700
C  49.69100 27.69900 27.69800
C  50.38100 28.81000 28.33100
C  50.16100 28.69400 29.65400
C  49.18400 27.70900 29.81800
C  51.47600 29.70200 27.60000
C  50.55000 29.23500 30.93100
O  51.40900 30.04500 31.25700
C  49.67000 28.49500 32.01100
C  50.55500 27.86900 33.09900
O  51.06600 26.71200 33.12000
O  50.85900 28.84800 33.98300
C  51.90900 28.54700 34.96200
H  46.23000 22.45400 31.68900
H  46.56900 22.53400 25.30400
H  50.22500 27.83800 25.65000
H  48.91900 25.77100 33.55900
H  46.12300 24.93600 33.30300
H  46.78600 23.16400 34.46600
H  48.48300 23.77000 34.55500
H  47.88300 22.55100 33.42200
H  46.28000 27.01700 33.91000
H  47.31700 28.19600 33.36500
H  48.34700 28.40600 35.60400
H  48.53400 26.65000 35.57000
H  44.82200 20.89200 31.13800
H  45.31700 19.65300 29.92000
H  43.79900 20.41500 29.71600
H  43.17000 19.95100 27.51700
H  44.49700 18.84500 27.77000
H  43.71100 18.91100 26.15900
H  47.33500 24.60900 23.54800
H  50.08300 25.26000 24.46800
H  49.15000 22.72900 24.89100
H  49.78400 23.47400 23.33500
H  48.36500 22.45600 23.29100
H  49.70300 27.39500 23.43800
H  47.97400 27.24100 23.46600
H  49.67100 26.39100 21.27700
H  47.94500 26.54800 21.33800
H  48.76200 25.00300 21.91700
H  52.21200 28.99800 27.21300
H  51.86300 30.44300 28.29900
H  50.97100 30.26200 26.81300
H  48.98500 29.23900 32.41700
H  52.83100 28.25500 34.45900
H  51.63500 27.93900 35.82400
H  52.27400 29.43100 35.48500
Mg 7.04900 53.43700 41.91900
C  6.22700 50.00300 41.18500
C  10.28300 52.79900 40.68900
C  7.73700 56.69500 41.87600
C  3.60700 54.01800 42.32300
N  8.11100 51.61800 40.85000
C  7.57300 50.34500 40.91100
C  8.71300 49.34300 40.35700
C  10.01700 50.17200 40.46800
C  9.45100 51.62500 40.71600
C  11.00900 49.67100 41.56100
C  8.31600 48.78400 38.94100
C  7.42400 49.66000 38.05900
H  7.15900 49.14900 36.71200
N  8.80900 54.60100 41.38200
C  10.02000 54.18200 40.96300
C  10.96000 55.24000 40.92000
C  10.13600 56.36600 41.17900
C  8.79200 55.93400 41.49300
C  12.44400 55.01200 40.44400
C  10.63200 57.78300 41.04100
O  11.81500 58.02400 40.78900
C  9.73500 59.00100 41.08400
N  5.81200 55.11300 41.96900
C  6.40600 56.40200 42.13800
C  5.29900 57.37900 42.43800
C  4.04500 56.52600 42.62400
C  4.47900 55.13700 42.26700
C  5.52300 58.49200 43.50300
C  2.80800 57.05700 41.77600
C  1.40700 56.94400 42.41900
N  5.33200 52.30000 41.90100
C  3.97500 52.68200 42.09000
C  3.11900 51.51600 42.05800
C  4.05200 50.41500 41.84500
C  5.31100 50.99900 41.59300
C  1.62300 51.48000 42.33400
C  4.12500 49.01000 41.82700
O  3.26600 48.20700 42.13800
C  5.56700 48.61500 41.33300
C  5.39400 47.68400 40.11800
O  4.93000 47.99800 39.03100
O  5.59400 46.42300 40.54700
C  5.18900 45.31100 39.62300
H  11.33800 52.56400 40.53300
H  7.72100 57.78500 41.82200
H  2.52500 54.15000 42.39000
H  8.66200 48.53700 41.08900
H  10.56400 50.15300 39.52500
H  11.96900 49.30900 41.19500
H  10.57300 48.81100 42.07000
H  11.26700 50.41500 42.31500
H  7.76100 47.86300 39.12000
H  9.17800 48.42800 38.37700
H  7.98200 50.59400 37.99300
H  6.48400 49.93800 38.53800
H  12.41500 54.41700 39.53000
H  12.90900 54.39800 41.21500
H  13.10400 55.87600 40.36900
H  10.36800 59.88700 41.03700
H  9.40500 59.03000 42.12300
H  9.00700 58.99300 40.27300
H  5.24400 57.85200 41.45800
H  3.86900 56.44500 43.69600
H  5.55300 59.50300 43.09700
H  6.43900 58.36600 44.08000
H  4.67500 58.51600 44.18800
H  2.80400 56.66200 40.76100
H  3.02400 58.08400 41.48100
H  0.73100 56.44100 41.72700
H  1.01400 57.94300 42.61000
H  1.43900 56.40300 43.36500
H  1.48400 51.93400 43.31500
H  1.21800 50.46800 42.33500
H  1.14400 52.25700 41.73800
H  5.99200 48.03300 42.15100
H  5.68400 44.35600 39.79900
H  5.43700 45.64300 38.61500
H  4.11100 45.15000 39.66600

