158

Mg 46.93800 24.88600 28.19100
C  47.53900 27.16000 30.80900
C  46.75300 22.39500 30.42200
C  45.99700 23.03000 25.66200
C  47.49000 27.65700 25.83000
N  46.83400 24.83400 30.32200
C  47.11900 25.83100 31.23700
C  47.05200 25.34200 32.67300
C  46.75200 23.80100 32.51700
C  46.82100 23.63600 30.99800
C  47.78100 22.93900 33.32700
C  46.03700 26.19600 33.46300
C  46.59800 27.15100 34.49500
H  46.14300 27.05500 35.96100
N  46.39500 23.01900 28.04100
C  46.53000 22.08700 29.05000
C  46.20500 20.78500 28.54200
C  45.78500 20.94300 27.19600
C  45.98200 22.37000 26.94600
C  46.24800 19.49000 29.34600
C  45.11500 19.98000 26.20400
O  44.84400 20.28000 25.05600
C  44.71000 18.57500 26.61000
N  47.08500 25.20300 25.92500
C  46.57700 24.23100 25.11800
C  46.40600 24.72900 23.68100
C  46.80800 26.22600 23.71900
C  47.18300 26.45100 25.24100
C  47.26000 23.79200 22.71200
C  45.62500 27.09100 23.29400
C  45.80000 27.88900 21.96500
N  47.48700 26.93500 28.23300
C  47.72300 27.88700 27.21100
C  48.13400 29.11500 27.85100
C  48.11800 28.90900 29.21100
C  47.66900 27.53000 29.42500
C  48.36000 30.45600 27.12500
C  48.34400 29.48500 30.52100
O  48.79600 30.60200 30.80000
C  47.95600 28.38300 31.59200
C  49.05800 28.22800 32.55300
O  50.00100 27.51000 32.39300
O  48.93400 29.22400 33.52500
C  49.96500 29.26300 34.54200
H  46.89900 21.48800 31.01300
H  45.63500 22.44800 24.81100
H  47.52800 28.61300 25.30400
H  48.06700 25.48700 33.04300
H  45.77200 23.49100 32.87900
H  48.49300 22.47600 32.64400
H  47.14000 22.18900 33.79100
H  48.43500 23.48000 34.01100
H  45.36800 25.49400 33.96000
H  45.52200 26.71300 32.65300
H  46.36600 28.13300 34.08200
H  47.65900 27.03900 34.71800
H  46.20900 18.65500 28.64700
H  45.36700 19.31300 29.96300
H  47.08200 19.55200 30.04600
H  44.40200 18.56800 27.65500
H  45.60800 17.96500 26.50700
H  43.98900 18.11000 25.93700
H  45.35400 24.66100 23.40300
H  47.68300 26.49100 23.12500
H  48.20700 24.33000 22.66700
H  46.92700 23.85500 21.67600
H  47.35100 22.77000 23.07900
H  45.37000 27.88500 23.99500
H  44.71400 26.50400 23.17400
H  45.47400 27.24900 21.14500
H  46.86500 28.11900 21.92700
H  45.31400 28.86200 22.03300
H  49.04700 30.94700 27.81500
H  47.52500 31.14300 26.99200
H  48.74000 30.30800 26.11500
H  47.11100 28.80300 32.13700
H  50.95500 28.94900 34.21200
H  49.71300 28.60800 35.37700
H  49.92100 30.33400 34.73900
Mg 16.86300 53.48700 27.00900
C  18.77500 51.65000 29.23900
C  14.46600 53.95200 29.47100
C  14.64700 54.46300 24.70000
C  19.13700 52.68900 24.50000
N  16.59100 52.76300 29.02400
C  17.54700 52.13100 29.78300
C  17.27600 52.25200 31.30800
C  15.82100 52.60000 31.28300
C  15.58900 53.16800 29.85100
C  14.79100 51.51600 31.62100
C  18.08100 53.47200 31.91400
C  17.99100 53.85500 33.36900
H  17.07100 52.97900 34.31300
N  14.85100 54.30500 27.15300
C  14.05700 54.45900 28.20800
C  12.73700 55.02100 27.78700
C  12.84000 55.21300 26.35900
C  14.16300 54.59300 25.99300
C  11.66600 55.30500 28.70100
C  11.82900 55.82900 25.43900
O  11.94800 55.87200 24.19800
C  10.47200 56.23000 25.99500
N  16.83300 53.33700 24.91700
C  15.85100 53.96200 24.22100
C  16.16700 53.98700 22.72000
C  17.67500 53.57000 22.66100
C  17.96600 53.26700 24.13100
C  15.13700 53.09700 21.93500
C  18.65400 54.44800 21.84900
C  18.61400 55.93600 22.04700
N  18.65900 52.41100 26.81800
C  19.48900 52.15700 25.72200
C  20.64000 51.38200 26.16500
C  20.46200 51.21700 27.55200
C  19.20100 51.78500 27.87200
C  21.70600 50.79700 25.32900
C  21.01500 50.64400 28.77900
O  21.96800 50.03000 28.96600
C  20.06100 51.11900 29.89800
C  19.84300 49.96500 30.78800
O  19.40500 48.92500 30.35900
O  19.95400 50.32400 32.10600
C  19.74700 49.21100 33.00800
H  13.91700 54.07400 30.40700
H  13.98800 54.72100 23.86800
H  19.85300 52.66100 23.67600
H  17.50900 51.35100 31.87500
H  15.63800 53.34700 32.05500
H  15.42100 50.81200 32.16500
H  14.31600 50.97100 30.80500
H  13.98900 51.82800 32.29000
H  17.92900 54.31300 31.23700
H  19.13300 53.27100 31.71300
H  17.55500 54.85200 33.42500
H  18.94600 53.90600 33.89000
H  10.72500 54.80800 28.46700
H  11.53000 56.38600 28.72800
H  11.83100 54.97600 29.72700
H  10.04600 55.47900 26.66100
H  9.83600 56.32300 25.11500
H  10.42100 57.14900 26.57900
H  16.06300 55.02400 22.40200
H  17.86500 52.57200 22.26600
H  14.77800 53.57600 21.02400
H  14.24400 52.94000 22.53900
H  15.59100 52.15100 21.63900
H  18.57400 54.13300 20.80900
H  19.64500 54.19800 22.22900
H  19.61300 56.35600 21.93000
H  18.21700 56.40800 22.94600
H  18.04100 56.32300 21.20400
H  21.58100 49.71400 25.35000
H  22.66500 50.98500 25.81200
H  21.77000 51.13100 24.29300
H  20.57100 51.80500 30.57400
H  20.20400 49.57400 33.92800
H  20.32400 48.35200 32.66400
H  18.67800 49.04100 33.14000

