158

Mg 17.34600 -0.89600 27.68500
C  15.81000 1.34600 30.16600
C  18.88600 -2.43500 30.26000
C  18.86300 -2.67800 25.47400
C  15.51700 0.97100 25.28800
N  17.37300 -0.51300 29.96000
C  16.69000 0.37700 30.73300
C  16.90700 0.18800 32.27300
C  18.08100 -0.88200 32.23200
C  18.10400 -1.37700 30.77600
C  19.40300 -0.16800 32.62800
C  15.63400 -0.26300 32.95800
C  15.75000 -0.52900 34.51500
H  16.92500 0.11100 35.28200
N  18.79700 -2.34200 27.82400
C  19.31500 -2.91900 28.97300
C  20.16400 -4.05800 28.63300
C  20.08200 -4.13900 27.17300
C  19.20900 -3.04200 26.73200
C  20.96800 -4.74700 29.65500
C  20.73600 -5.11100 26.23200
O  20.69000 -5.18900 24.99400
C  21.41300 -6.28900 26.86600
N  17.15800 -0.86500 25.60800
C  18.02700 -1.64700 24.89800
C  17.88900 -1.29800 23.41000
C  16.73600 -0.20800 23.32500
C  16.42200 -0.03200 24.85400
C  19.24800 -0.91500 22.72000
C  15.47400 -0.58000 22.50800
C  15.17800 0.34000 21.27300
N  16.00200 0.81500 27.67300
C  15.31000 1.38700 26.60100
C  14.45500 2.45200 27.00400
C  14.57800 2.47000 28.43300
C  15.57400 1.46600 28.77300
C  13.50600 3.29100 26.18400
C  14.15400 3.10200 29.73200
O  13.50200 4.08900 30.09200
C  14.92800 2.38600 30.81300
C  15.63600 3.41500 31.59800
O  16.35100 4.24500 31.10700
O  15.43600 3.26600 32.98000
C  16.26800 4.14600 33.81300
H  19.40100 -2.97400 31.05800
H  19.51000 -3.23800 24.79600
H  15.11200 1.65700 24.54000
H  17.30800 1.09000 32.73300
H  17.96200 -1.73500 32.90000
H  19.87600 -0.80400 33.37700
H  19.36400 0.86900 32.96100
H  20.07600 -0.21100 31.77100
H  15.51100 -1.16600 32.35900
H  14.76800 0.38400 32.82000
H  15.91400 -1.60500 34.58200
H  14.79500 -0.36200 35.01400
H  20.75400 -4.31500 30.63300
H  22.02700 -4.52800 29.52100
H  20.83400 -5.82700 29.71200
H  21.54000 -7.00500 26.05300
H  20.67100 -6.70600 27.54700
H  22.27500 -5.87900 27.39200
H  17.57400 -2.18500 22.86100
H  17.21800 0.69600 22.95400
H  19.19900 0.16000 22.54300
H  19.37300 -1.33500 21.72200
H  20.10800 -1.18600 23.33200
H  14.56100 -0.51000 23.09900
H  15.61300 -1.59800 22.14300
H  14.24400 0.88200 21.41900
H  15.13500 -0.19900 20.32600
H  15.90000 1.12000 21.03300
H  12.65100 3.61200 26.77900
H  13.08600 2.66300 25.39800
H  13.96000 4.18800 25.76300
H  14.24200 1.84200 31.46200
H  16.04600 5.17400 33.52600
H  17.31200 3.83900 33.73800
H  15.95800 4.13700 34.85800
Mg 48.47700 15.77100 29.22700
C  46.32300 15.39200 32.14100
C  50.35700 17.89700 30.80300
C  49.93200 16.52600 26.20900
C  45.81400 14.05200 27.38600
N  48.22200 16.61900 31.19900
C  47.43000 16.29900 32.29900
C  48.00500 16.92100 33.57000
C  48.99300 17.98000 33.00200
C  49.19900 17.49800 31.55200
C  48.59300 19.50200 33.14300
C  48.62000 15.78500 34.57800
C  47.79900 15.52800 35.86200
H  47.72400 16.66800 36.83000
N  50.02800 16.90600 28.62800
C  50.74200 17.62100 29.52800
C  51.95900 18.14600 28.91100
C  51.87100 17.71800 27.57900
C  50.55300 17.01200 27.42500
C  53.06500 18.92700 29.70700
C  52.88900 17.95600 26.48200
O  52.72200 17.40600 25.41600
C  54.13200 18.70500 26.61300
N  47.94300 15.39800 27.09600
C  48.76600 15.75200 26.03800
C  48.21400 15.26300 24.70000
C  46.88300 14.50700 25.07800
C  46.92600 14.58300 26.62200
C  47.95400 16.42200 23.63100
C  46.76600 13.03900 24.54200
C  46.18800 12.97300 23.15900
N  46.56900 14.79200 29.67400
C  45.65600 14.11600 28.84800
C  44.55900 13.59000 29.61500
C  44.75000 14.15500 30.93300
C  45.99200 14.79800 30.90300
C  43.31600 12.84200 29.10000
C  44.22000 14.23800 32.24400
O  43.19200 13.76700 32.67400
C  45.17700 15.12700 33.08100
C  44.52300 16.36500 33.57600
O  43.85500 17.16600 32.92300
O  44.39400 16.34200 34.91600
C  43.34800 17.13000 35.52500
H  50.91700 18.63400 31.38300
H  50.49700 16.63800 25.28100
H  44.98300 13.60400 26.83700
H  47.21200 17.51600 34.02300
H  49.89200 17.81600 33.59500
H  47.77400 19.62200 33.85300
H  48.37900 19.91100 32.15500
H  49.51800 19.96300 33.48700
H  49.67200 15.98200 34.78400
H  48.67500 14.90200 33.94200
H  48.17400 14.66000 36.40400
H  46.76600 15.20900 35.72500
H  54.03300 18.63600 29.29900
H  52.99700 18.67400 30.76500
H  52.97300 20.00300 29.56100
H  54.44200 19.11600 25.65200
H  54.90800 17.99600 26.90200
H  54.00800 19.56500 27.27200
H  48.89900 14.53000 24.27600
H  46.03700 15.07700 24.69500
H  48.35800 16.10700 22.66900
H  48.27100 17.40900 23.96800
H  46.88700 16.58200 23.47400
H  46.05200 12.49000 25.15500
H  47.69500 12.48200 24.66000
H  46.99200 12.86000 22.43200
H  45.58100 13.85000 22.93400
H  45.61300 12.05900 23.01000
H  43.61600 12.62500 28.07500
H  42.41700 13.38600 29.39000
H  43.35000 11.93700 29.70800
H  45.52100 14.56100 33.94700
H  42.62100 17.58200 34.85100
H  43.69400 17.93300 36.17600
H  42.89100 16.39400 36.18700

