158

Mg 36.30100 48.98700 25.45400
C  36.38000 47.19900 28.50800
C  35.35800 51.85900 27.20200
C  35.63200 50.45400 22.48900
C  37.35100 46.10200 23.77200
N  35.66300 49.37400 27.57300
C  35.91600 48.53000 28.63900
C  35.80000 49.28400 29.94000
C  35.24400 50.68600 29.47000
C  35.42200 50.67000 27.97500
C  33.79500 51.15400 29.85500
C  37.20100 49.29500 30.72200
C  37.23100 49.04900 32.27300
H  35.86900 48.84800 32.94500
N  35.60100 50.88500 24.93300
C  35.39200 51.96700 25.78900
C  35.13000 53.19900 25.02500
C  35.08800 52.81200 23.64300
C  35.40500 51.25600 23.57900
C  34.83600 54.60400 25.63600
C  34.85000 53.64600 22.41400
O  34.83300 53.12300 21.30600
C  34.48400 55.02900 22.48100
N  36.33500 48.33000 23.45100
C  36.08100 49.17800 22.40600
C  36.42400 48.43400 21.07000
C  36.97200 47.04000 21.45300
C  36.94900 47.18600 23.01100
C  35.16600 48.29600 20.07500
C  38.34200 46.74300 20.89400
C  39.57900 47.34100 21.59100
N  36.75100 46.99800 25.97300
C  37.28900 46.00000 25.17300
C  37.48500 44.84900 26.07600
C  37.23200 45.33200 27.39100
C  36.81400 46.67500 27.27600
C  37.78400 43.44000 25.49200
C  37.12000 44.92300 28.82700
O  37.32000 43.83300 29.27400
C  36.56500 46.11600 29.57900
C  35.24400 45.73400 30.20300
O  34.17100 45.94800 29.63100
O  35.31700 45.14700 31.41300
C  34.02900 44.91300 32.10500
H  35.13300 52.76900 27.76100
H  35.52100 50.97200 21.53400
H  37.58400 45.21600 23.17700
H  35.00600 48.82500 30.53000
H  35.87800 51.49800 29.82500
H  33.98300 51.97100 30.55100
H  33.25600 50.31300 30.29400
H  33.22500 51.66100 29.07700
H  37.74300 50.21700 30.50800
H  37.81500 48.53700 30.23600
H  37.68000 49.91800 32.75500
H  37.89500 48.22400 32.52900
H  33.76000 54.76700 25.68700
H  35.36300 55.39500 25.10200
H  35.25400 54.62300 26.64300
H  34.40800 55.42100 21.46700
H  35.36900 55.47600 22.93200
H  33.59900 55.15300 23.10500
H  37.12000 49.03000 20.48000
H  36.22400 46.28200 21.22000
H  34.29800 48.51200 20.69700
H  35.17100 47.32400 19.58000
H  35.17300 49.10700 19.34700
H  38.30900 47.09700 19.86300
H  38.48700 45.66300 20.87800
H  39.27500 48.00400 22.40100
H  40.12500 47.90400 20.83500
H  40.28000 46.53200 21.79500
H  38.29100 43.45200 24.52800
H  36.85300 42.96000 25.19000
H  38.29400 42.82700 26.23500
H  37.30800 46.38900 30.32900
H  33.15800 45.34100 31.60900
H  34.13200 45.52600 33.00000
H  33.82600 43.88600 32.40700
Mg -6.01900 25.33300 26.46600
C  -4.29000 26.74200 29.15900
C  -7.49100 23.16600 28.54100
C  -7.26200 23.96000 23.77000
C  -4.01200 27.51200 24.28700
N  -5.80100 24.92000 28.60900
C  -5.15400 25.67400 29.54200
C  -5.61800 25.36400 31.03100
C  -6.39400 24.02500 30.77800
C  -6.63700 24.01500 29.20500
C  -5.62200 22.74000 31.26700
C  -6.51500 26.50200 31.62600
C  -6.27100 27.00000 33.10500
H  -5.69900 25.90600 34.04400
N  -7.28600 23.74600 26.19500
C  -7.86300 23.00400 27.16900
C  -8.64600 21.97900 26.66000
C  -8.54400 22.20300 25.21700
C  -7.65000 23.35000 24.97400
C  -9.35700 20.88400 27.40500
C  -9.24800 21.49400 24.10600
O  -9.05900 21.78600 22.95600
C  -10.38800 20.46800 24.36500
N  -5.59800 25.61800 24.29200
C  -6.35200 24.97600 23.42000
C  -6.10000 25.42400 21.96000
C  -5.02400 26.55300 22.10300
C  -4.78700 26.60300 23.62100
C  -5.51600 24.32300 21.02400
C  -5.53800 28.02500 21.64000
C  -4.62600 28.85000 20.73300
N  -4.55900 26.85000 26.66100
C  -3.87500 27.63600 25.66400
C  -2.98700 28.62700 26.40800
C  -3.14400 28.27000 27.77900
C  -4.08000 27.23600 27.84300
C  -1.89900 29.58000 25.79300
C  -2.56100 28.57700 29.08900
O  -1.77000 29.44600 29.46500
C  -3.37800 27.52900 30.11700
C  -2.43600 26.69500 30.79700
O  -1.85400 25.77000 30.22300
O  -2.32300 27.17300 32.10600
C  -1.28200 26.57100 33.00300
H  -8.07900 22.52600 29.20200
H  -7.68800 23.44400 22.90700
H  -3.47000 28.24000 23.68000
H  -4.75800 25.13700 31.66200
H  -7.33500 23.91500 31.31600
H  -6.34300 21.92900 31.37600
H  -4.99900 22.79300 32.16000
H  -4.90100 22.51700 30.48100
H  -7.57700 26.27700 31.53600
H  -6.30600 27.35300 30.97800
H  -7.20900 27.28600 33.58000
H  -5.47800 27.74200 33.20500
H  -9.20100 19.86700 27.04500
H  -10.43000 21.03300 27.28400
H  -9.09800 20.87400 28.46400
H  -10.78700 20.07100 23.43300
H  -11.08000 20.92900 25.06900
H  -9.81100 19.65000 24.79700
H  -7.07000 25.85100 21.70400
H  -4.02900 26.35900 21.70300
H  -6.22700 24.25100 20.20200
H  -5.54700 23.31600 21.44000
H  -4.48700 24.48000 20.69900
H  -5.75700 28.66500 22.49400
H  -6.42100 27.80900 21.03800
H  -3.59500 28.52100 20.60500
H  -4.54700 29.73800 21.36000
H  -5.06600 29.03100 19.75200
H  -2.22800 30.61800 25.74700
H  -1.74600 29.27800 24.75700
H  -0.99600 29.53600 26.40200
H  -3.87000 28.08400 30.91600
H  -0.67600 27.31100 33.52500
H  -0.64700 25.88600 32.43900
H  -1.67300 26.06600 33.88600

