158

Mg 42.12600 41.31800 26.82800
C  41.39900 43.26200 29.79300
C  43.61300 39.08400 28.85500
C  42.85000 39.47200 24.14700
C  40.86100 43.82200 24.89300
N  42.32400 41.09900 29.09400
C  41.93000 41.92600 30.03800
C  42.11300 41.34900 31.41600
C  43.19700 40.17400 31.12000
C  43.07900 40.07700 29.59100
C  44.66600 40.45900 31.60100
C  40.83400 41.02700 32.26700
C  40.47100 41.91900 33.55800
H  40.05800 41.20400 34.83400
N  42.89700 39.46900 26.58200
C  43.57700 38.74800 27.53100
C  44.03900 37.50400 26.89600
C  43.59200 37.49700 25.55900
C  43.14700 38.86400 25.34700
C  44.72800 36.42400 27.75000
C  43.67100 36.35900 24.51000
O  43.28400 36.50800 23.39700
C  44.35300 35.10400 24.81600
N  41.97400 41.75100 24.77700
C  42.26400 40.72900 23.89300
C  41.52300 41.01400 22.53100
C  41.11900 42.51200 22.66400
C  41.31600 42.74500 24.15500
C  42.53600 40.79900 21.38900
C  39.66400 42.79700 22.10400
C  39.36200 44.26100 21.76500
N  41.25500 43.09100 27.17800
C  40.89900 44.06800 26.25800
C  40.29600 45.19800 26.98500
C  40.39300 44.93000 28.35300
C  41.06600 43.63800 28.46500
C  39.78300 46.47500 26.33800
C  40.22100 45.42300 29.69800
O  39.60500 46.42000 29.99800
C  40.86400 44.36200 30.67700
C  42.03200 45.02100 31.36600
O  43.03800 45.36100 30.74500
O  41.72000 45.28300 32.67900
C  42.70100 46.12600 33.37900
H  44.14300 38.33700 29.45000
H  43.03400 38.76400 23.33600
H  40.35400 44.69200 24.46900
H  42.64100 42.13500 31.95600
H  43.01400 39.21900 31.61200
H  45.34800 40.64100 30.77100
H  44.88500 39.49400 32.05900
H  44.76400 41.20200 32.39200
H  40.79700 40.03400 32.71300
H  39.95800 41.07400 31.62000
H  39.58600 42.47100 33.24200
H  41.23400 42.69000 33.66600
H  44.97700 35.51600 27.20000
H  44.36800 36.28000 28.76900
H  45.71300 36.85800 27.92400
H  44.43700 34.67000 23.82000
H  43.93700 34.35400 25.48800
H  45.31900 35.38600 25.23400
H  40.65500 40.35500 22.50400
H  41.83000 43.18000 22.17700
H  43.56900 40.67600 21.71500
H  42.40400 41.55700 20.61700
H  42.25400 39.85800 20.91500
H  38.97300 42.46700 22.88000
H  39.58000 42.12600 21.24900
H  39.43500 44.37400 20.68300
H  40.05600 44.97300 22.21100
H  38.33500 44.58900 21.92500
H  38.87500 46.27000 25.77100
H  40.52200 46.95100 25.69300
H  39.61900 47.18400 27.15000
H  40.13000 43.95900 31.37500
H  43.53400 46.39800 32.73100
H  43.12900 45.66700 34.27000
H  42.20400 46.94400 33.90000
Mg 26.20300 49.32200 26.56000
C  23.91100 50.48900 29.01200
C  28.44700 48.62900 28.92500
C  28.37700 48.39000 24.09700
C  24.17700 50.76100 23.98700
N  26.16700 49.56700 28.71200
C  25.12600 49.92600 29.56800
C  25.52500 49.65600 31.06200
C  27.03500 49.32700 30.90100
C  27.19800 49.12300 29.41400
C  28.01300 50.31200 31.49700
C  24.57900 48.57600 31.81400
C  24.03400 48.89100 33.23200
H  24.96000 49.32000 34.32600
N  28.18200 48.55500 26.46300
C  28.94500 48.27800 27.58300
C  30.12900 47.63600 27.13700
C  30.15400 47.66400 25.75100
C  28.84500 48.22100 25.36100
C  31.09300 47.09500 28.16800
C  31.29600 47.45500 24.76100
O  31.12800 47.45500 23.54300
C  32.54800 46.84900 25.17300
N  26.20200 49.60800 24.28600
C  27.19100 49.02500 23.55800
C  26.83800 49.07600 22.00600
C  25.45200 49.73300 21.98500
C  25.20100 50.01800 23.44700
C  27.90800 49.90800 21.15500
C  24.32000 48.74200 21.41300
C  23.30100 48.07100 22.29800
N  24.43500 50.39200 26.47300
C  23.69400 50.82100 25.38500
C  22.58000 51.58100 25.82600
C  22.59700 51.36800 27.21700
C  23.74500 50.64900 27.57700
C  21.60400 52.25900 25.01400
C  21.81900 51.62800 28.43200
O  20.69300 52.19800 28.53700
C  22.64900 51.04400 29.60600
C  22.94200 52.06000 30.68500
O  23.86700 52.86600 30.55900
O  22.22100 51.86200 31.78000
C  22.51200 52.64600 32.96000
H  29.18600 48.43600 29.70600
H  28.93900 47.95100 23.27000
H  23.47000 51.03900 23.20200
H  25.28100 50.62800 31.49200
H  27.14000 48.37000 31.41100
H  27.38300 51.14700 31.80400
H  28.65500 50.69200 30.70200
H  28.73000 49.89900 32.20700
H  25.14400 47.64500 31.86700
H  23.73000 48.35300 31.16700
H  23.40300 48.09400 33.62700
H  23.37300 49.74700 33.10200
H  31.19200 46.02600 27.98100
H  30.85900 47.14600 29.23100
H  32.12000 47.46000 28.17000
H  33.06800 47.70000 25.61300
H  33.04200 46.41500 24.30500
H  32.38700 46.06000 25.90700
H  26.79400 48.03900 21.67300
H  25.40500 50.60600 21.33400
H  27.54400 50.84900 20.74400
H  28.20900 49.36800 20.25700
H  28.83000 50.07300 21.71200
H  24.75100 48.01100 20.72900
H  23.67100 49.30900 20.74600
H  22.85000 47.16800 21.88800
H  22.54200 48.83100 22.48400
H  23.82400 47.91600 23.24200
H  20.65000 51.77900 25.23400
H  21.74200 52.22800 23.93300
H  21.55900 53.32900 25.21900
H  22.03100 50.30400 30.11400
H  23.01300 51.96400 33.64800
H  21.55600 52.93700 33.39500
H  23.14300 53.53100 32.88000

