158

Mg 35.79200 2.39500 30.64400
C  33.20400 3.17400 33.00600
C  38.00300 2.50900 33.34700
C  38.30900 2.08800 28.46800
C  33.47100 2.98700 28.07900
N  35.57100 2.82900 32.87200
C  34.39200 3.02200 33.61100
C  34.63200 3.12000 35.13600
C  36.16400 3.10200 35.27100
C  36.67900 2.84900 33.76600
C  36.68000 4.48100 35.81300
C  33.92300 2.01200 36.08900
C  33.47900 2.45500 37.50300
H  34.24700 3.50900 38.28400
N  37.83800 2.20900 30.83700
C  38.51200 2.31800 32.02100
C  39.85000 1.85200 31.72700
C  40.03400 1.73000 30.35400
C  38.72400 2.10600 29.82200
C  40.82600 1.46900 32.74700
C  41.25600 1.37800 29.52000
O  41.25600 1.10100 28.33500
C  42.55900 1.39900 30.19700
N  35.87200 2.62200 28.55500
C  36.99500 2.26000 27.88300
C  36.73700 2.25000 26.46200
C  35.16200 2.38000 26.33400
C  34.77700 2.68500 27.75800
C  37.45700 3.34700 25.62100
C  34.61300 0.98800 25.87200
C  34.90000 0.47800 24.42300
N  33.79200 2.90900 30.47900
C  32.97800 3.10700 29.38800
C  31.66000 3.33400 29.78400
C  31.69100 3.29100 31.16400
C  33.00800 3.14700 31.54800
C  30.43600 3.46400 28.87600
C  30.89100 3.52000 32.38900
O  29.68400 3.83100 32.45800
C  31.81200 3.36500 33.66200
C  31.69100 4.62700 34.53200
O  31.86800 5.75900 34.13900
O  31.06100 4.36100 35.74400
C  30.85500 5.51100 36.70900
H  38.70700 2.42700 34.17700
H  38.96700 1.73200 27.67300
H  32.79600 3.11000 27.22900
H  34.27700 4.13000 35.34200
H  36.54400 2.30800 35.91300
H  36.80500 5.12500 34.94200
H  37.57600 4.26000 36.39300
H  35.98400 4.97200 36.49400
H  34.61400 1.18300 36.24200
H  33.00700 1.67200 35.60600
H  33.39500 1.59000 38.16100
H  32.47900 2.86900 37.37400
H  41.10900 0.41800 32.68900
H  40.43000 1.62100 33.75100
H  41.70100 2.10500 32.61200
H  42.65400 0.57600 30.90500
H  42.54800 2.36500 30.70000
H  43.28600 1.40600 29.38400
H  37.12500 1.33200 26.02100
H  34.68200 3.09400 25.66600
H  38.20100 3.90100 26.19400
H  36.79800 4.08400 25.16200
H  37.98000 2.89300 24.78000
H  33.53200 1.00000 26.01000
H  35.03200 0.28200 26.58900
H  33.96200 0.48100 23.86800
H  35.25400 -0.55100 24.48100
H  35.72600 0.98800 23.92700
H  29.60000 2.96400 29.36400
H  30.54600 3.00000 27.89600
H  30.17600 4.50900 28.71100
H  31.54600 2.46700 34.22000
H  30.35000 6.37400 36.27500
H  31.79500 5.81100 37.17100
H  30.13900 5.15900 37.45200
Mg 40.36000 41.20400 26.80300
C  39.72400 43.52000 29.38900
C  41.58500 39.06500 29.15700
C  41.63000 39.21700 24.28000
C  39.74000 43.69700 24.46500
N  40.71700 41.33100 28.95500
C  40.27100 42.32100 29.87200
C  40.48300 41.93800 31.36000
C  41.14300 40.53500 31.19200
C  41.17400 40.29600 29.65700
C  42.50400 40.37200 31.86300
C  39.18400 41.97700 32.16700
C  39.10400 42.74600 33.53200
H  38.69800 42.00400 34.79200
N  41.45100 39.39300 26.69700
C  41.81200 38.63900 27.81700
C  42.39000 37.45800 27.39100
C  42.38900 37.40100 25.97200
C  41.83200 38.71600 25.59000
C  42.96900 36.40800 28.26400
C  42.84600 36.30900 25.02500
O  42.83700 36.39000 23.78100
C  43.40200 34.98400 25.49400
N  40.73700 41.45900 24.67100
C  41.13100 40.47500 23.86300
C  40.88900 40.70300 22.33900
C  40.04900 42.03000 22.42200
C  40.17200 42.44300 23.97600
C  42.06000 40.65800 21.29600
C  38.57100 42.03700 21.96100
C  37.61400 41.27900 22.87600
N  39.84900 43.19000 26.84400
C  39.49800 44.07500 25.80800
C  38.97000 45.25200 26.42300
C  39.02800 45.04600 27.83100
C  39.56600 43.78400 28.00400
C  38.56100 46.43500 25.57100
C  38.81800 45.75300 29.04200
O  38.33800 46.90600 29.22800
C  39.24100 44.75100 30.14000
C  40.38000 45.31000 30.99900
O  41.50100 45.62700 30.63300
O  39.91300 45.47500 32.25300
C  40.85700 45.95100 33.23300
H  41.85800 38.28900 29.87500
H  42.06500 38.65700 23.45000
H  39.41500 44.51900 23.82400
H  41.18200 42.66800 31.76700
H  40.56900 39.71100 31.61600
H  42.60300 41.28800 32.44600
H  43.30600 40.37800 31.12400
H  42.60700 39.51800 32.53200
H  38.97300 40.92300 32.34900
H  38.34300 42.33500 31.57400
H  38.39300 43.57200 33.52900
H  40.09200 43.19100 33.65500
H  42.34500 35.52000 28.16300
H  42.99800 36.76400 29.29400
H  44.02400 36.26500 28.03300
H  44.13200 35.17400 26.28000
H  43.99600 34.63300 24.65000
H  42.62000 34.28000 25.78100
H  40.20900 39.88300 22.10600
H  40.61000 42.87300 22.01900
H  42.91900 40.19100 21.77600
H  42.29600 41.66200 20.94300
H  41.78300 40.10000 20.40100
H  38.58500 41.46800 21.03200
H  38.23200 43.05300 21.75800
H  36.96100 42.03300 23.31700
H  38.21600 40.65000 23.53200
H  37.07000 40.57500 22.24700
H  38.10800 47.19100 26.21400
H  37.91100 46.06600 24.77800
H  39.50100 46.77900 25.13900
H  38.53100 44.35600 30.86700
H  40.37700 46.66100 33.90700
H  41.77700 46.35000 32.80500
H  41.08200 45.08400 33.85500

