158

Mg 40.73200 7.58700 28.75800
C  42.52100 9.07400 31.47300
C  38.47800 6.26300 31.08800
C  39.09900 6.23400 26.14300
C  43.45100 8.45900 26.63500
N  40.60000 7.60200 31.10700
C  41.36000 8.34300 31.88500
C  40.85200 8.26000 33.35300
C  39.57500 7.28700 33.15700
C  39.45600 7.06500 31.67000
C  39.55900 6.01300 34.03700
C  40.43200 9.62300 34.01800
C  40.12300 9.66500 35.55300
H  40.94300 10.64000 36.40500
N  39.02900 6.36700 28.68800
C  38.30400 5.88200 29.75100
C  37.24200 5.17900 29.17900
C  37.27400 5.27900 27.75700
C  38.51000 5.91000 27.46900
C  36.07200 4.61000 30.02300
C  36.21700 4.86000 26.76900
O  36.45300 4.93600 25.59900
C  34.91900 4.18200 27.18100
N  41.25900 7.16700 26.65500
C  40.37300 6.70000 25.76400
C  40.89000 6.79900 24.37200
C  42.29500 7.50900 24.48700
C  42.39700 7.76000 26.05600
C  41.02300 5.31200 23.81400
C  42.28900 8.88400 23.71100
C  41.12800 9.86000 23.95500
N  42.62000 8.53500 28.94400
C  43.57100 8.85400 28.01700
C  44.62300 9.60600 28.58200
C  44.27200 9.71100 29.98900
C  43.03900 9.06800 30.12100
C  45.81000 10.10900 27.83000
C  44.64500 10.25800 31.18900
O  45.58900 10.97900 31.42400
C  43.52600 9.88700 32.25100
C  44.01900 9.36600 33.52200
O  44.15600 8.18400 33.72600
O  44.29700 10.43500 34.36300
C  44.88800 10.02900 35.66900
H  37.71300 5.83900 31.74200
H  38.51600 6.00200 25.24900
H  44.35200 8.69300 26.06300
H  41.66700 7.83000 33.93600
H  38.69400 7.92700 33.19200
H  40.23500 6.25900 34.85600
H  39.90800 5.12600 33.50800
H  38.53000 5.92300 34.38700
H  39.52100 9.96600 33.52600
H  41.33500 10.22600 33.92300
H  39.92500 8.71300 36.04600
H  39.11600 10.07600 35.47500
H  35.74800 3.59000 29.81600
H  35.11800 5.13700 30.01900
H  36.23600 4.59000 31.10000
H  34.15100 4.21100 26.40800
H  34.41700 4.58600 28.06000
H  35.05300 3.14500 27.48900
H  40.21500 7.46200 23.83000
H  43.09000 6.81500 24.21600
H  42.04800 4.94500 23.75800
H  40.49400 5.26400 22.86300
H  40.53100 4.67900 24.55300
H  42.41100 8.53000 22.68800
H  43.22900 9.38600 23.94000
H  40.83000 10.43200 23.07700
H  41.56900 10.62000 24.60000
H  40.27600 9.43900 24.49000
H  46.54600 9.30700 27.77300
H  46.07800 10.99300 28.40800
H  45.50500 10.47100 26.84800
H  43.08400 10.85600 32.48300
H  45.91700 9.67500 35.60800
H  44.32300 9.19300 36.08200
H  44.90000 10.80100 36.43900
Mg 41.04400 41.14500 27.39600
C  40.56500 43.59800 29.79000
C  41.85900 38.89500 29.90800
C  42.08300 39.02500 25.09200
C  40.05800 43.33700 24.94600
N  41.27800 41.32500 29.60000
C  40.91700 42.37800 30.42300
C  40.85700 41.90800 31.91500
C  41.39400 40.40600 31.87500
C  41.52600 40.18100 30.35500
C  42.70200 40.19100 32.71700
C  39.56000 42.21100 32.57400
C  39.21300 41.55100 33.89000
H  38.64100 42.42400 34.98100
N  41.91300 39.23800 27.54200
C  42.05300 38.38900 28.64800
C  42.50700 37.11400 28.22800
C  42.84000 37.22400 26.82200
C  42.31700 38.59000 26.45400
C  42.70300 36.02000 29.25100
C  43.40500 36.17100 25.88300
O  43.61400 36.45900 24.65000
C  43.62600 34.82900 26.39500
N  41.19600 41.25200 25.30400
C  41.52400 40.22000 24.61000
C  41.37900 40.35600 23.08900
C  40.48500 41.62500 23.06900
C  40.54300 42.13400 24.51300
C  42.59200 40.46000 22.08800
C  39.04300 41.50900 22.54000
C  38.19200 40.53400 23.37300
N  40.59400 43.14600 27.36000
C  40.17000 43.92300 26.24300
C  39.88700 45.29200 26.73000
C  40.07500 45.10300 28.08000
C  40.49700 43.83900 28.42600
C  39.55500 46.47600 25.89300
C  40.04900 45.90100 29.35800
O  39.77400 47.09900 29.57400
C  40.20300 44.85100 30.47100
C  41.37200 45.25000 31.21300
O  42.51700 45.13000 30.81100
O  41.08400 45.49300 32.54600
C  42.28400 45.83500 33.34100
H  41.83000 38.19900 30.74900
H  42.35900 38.28800 24.33500
H  39.53400 44.03100 24.28700
H  41.60000 42.59000 32.32900
H  40.71100 39.63400 32.22600
H  42.50600 40.08000 33.78300
H  43.49100 40.90000 32.46300
H  43.19200 39.24100 32.50400
H  38.69400 41.91000 31.98400
H  39.68800 43.28900 32.67300
H  40.10100 41.04400 34.26800
H  38.52900 40.71000 33.77700
H  43.75200 35.73100 29.31200
H  42.29300 35.19000 28.67600
H  42.20100 36.14500 30.21100
H  44.08000 34.27700 25.57200
H  42.74100 34.33600 26.79800
H  44.38800 34.92800 27.16800
H  40.80300 39.46800 22.83100
H  40.88400 42.37600 22.38700
H  43.45900 40.76400 22.67600
H  42.28600 41.04200 21.21800
H  42.78700 39.49300 21.62500
H  39.05200 40.99600 21.57800
H  38.65100 42.52100 22.43900
H  37.62100 39.80200 22.80300
H  37.49300 41.19400 23.88500
H  38.77800 39.97800 24.10500
H  40.46200 46.65700 25.31500
H  39.28700 47.32900 26.51600
H  38.76000 46.26200 25.17900
H  39.31600 44.79900 31.10200
H  43.09500 45.13000 33.16200
H  41.95200 45.67900 34.36800
H  42.67700 46.84700 33.25200

