158

Mg -3.35900 16.96400 26.79100
C  -3.38800 14.96800 29.59000
C  -3.72000 19.83400 28.62500
C  -3.30900 18.73500 23.91000
C  -3.57400 13.94900 24.86300
N  -3.46900 17.26800 28.84300
C  -3.51300 16.34300 29.90200
C  -3.48300 16.99100 31.29600
C  -3.63200 18.49600 30.87100
C  -3.66300 18.56500 29.34700
C  -4.59100 19.37000 31.69700
C  -2.28300 16.59000 32.22600
C  -1.67700 17.45100 33.32700
H  -1.41400 16.87600 34.72000
N  -3.35200 19.02000 26.35900
C  -3.48300 20.05900 27.29600
C  -3.35400 21.37000 26.63400
C  -3.12300 21.05200 25.22200
C  -3.26200 19.57300 25.12100
C  -3.52500 22.75600 27.32300
C  -2.93400 22.02800 24.06500
O  -3.07000 21.61600 22.89200
C  -2.68300 23.43100 24.35700
N  -3.54300 16.35500 24.65000
C  -3.41900 17.36600 23.72600
C  -3.43200 16.78000 22.30400
C  -3.33300 15.21800 22.59700
C  -3.50600 15.10400 24.09500
C  -4.76400 17.30600 21.73300
C  -1.90400 14.84100 21.99400
C  -0.77000 15.33000 22.93000
N  -3.53100 14.93800 27.05200
C  -3.54700 13.83000 26.20800
C  -3.46600 12.52700 26.95800
C  -3.47400 12.97700 28.29200
C  -3.46500 14.39600 28.29000
C  -3.49000 11.14500 26.43400
C  -3.38300 12.56100 29.69100
O  -3.32000 11.45600 30.14000
C  -3.30900 13.75600 30.48400
C  -2.02500 13.60300 31.21400
O  -0.89300 14.05700 30.87500
O  -2.30700 13.11400 32.45200
C  -1.15000 12.96900 33.34500
H  -3.79300 20.67600 29.31700
H  -3.30000 19.22900 22.93600
H  -3.53000 13.06400 24.22300
H  -4.41700 16.71400 31.78500
H  -2.66700 18.94300 31.11100
H  -5.36200 19.90900 31.14600
H  -4.06600 20.21700 32.13700
H  -5.05900 18.84900 32.53300
H  -1.49100 16.44300 31.49100
H  -2.64700 15.68800 32.71800
H  -2.09500 18.45700 33.37200
H  -0.68100 17.69300 32.95900
H  -2.63900 23.36800 27.15100
H  -3.56800 22.56900 28.39600
H  -4.36700 23.31900 26.91800
H  -3.58100 23.86900 24.79000
H  -2.43800 23.95200 23.43100
H  -1.84500 23.57800 25.03800
H  -2.65800 17.20200 21.66300
H  -4.15200 14.66300 22.14000
H  -5.41400 16.49000 21.41600
H  -4.42100 17.83700 20.84400
H  -5.19700 18.07500 22.37200
H  -1.73000 15.37700 21.06100
H  -1.86600 13.77700 21.76000
H  -0.06000 14.51900 23.09300
H  -1.01200 15.60000 23.95800
H  -0.25500 16.17100 22.46700
H  -3.56800 11.08200 25.34800
H  -4.29500 10.55300 26.86900
H  -2.56000 10.59500 26.57900
H  -4.09300 13.67600 31.23600
H  -0.99400 13.81600 34.01300
H  -0.22800 12.73700 32.81200
H  -1.54100 12.15800 33.96000
Mg -11.75200 38.54800 41.97900
C  -10.09000 35.72000 40.74800
C  -9.37000 40.55400 40.67500
C  -13.75100 41.07600 42.60900
C  -14.27800 36.35100 43.29300
N  -9.99800 38.17600 40.72000
C  -9.43500 36.95500 40.42500
C  -8.13400 37.19900 39.59700
C  -7.83500 38.69900 39.88000
C  -9.12500 39.18700 40.47400
C  -6.52400 39.10300 40.71200
C  -8.27200 36.70600 38.08800
C  -7.37600 35.60600 37.56000
H  -6.18600 36.04700 36.65400
N  -11.59300 40.58800 41.64000
C  -10.53800 41.17900 41.10100
C  -10.87900 42.61200 40.90300
C  -12.18100 42.74400 41.29800
C  -12.60500 41.40000 41.78500
C  -9.99400 43.65300 40.32300
C  -12.89800 44.05500 41.23900
O  -12.35900 45.12000 40.94600
C  -14.39900 44.01900 41.61500
N  -13.77500 38.70600 42.84900
C  -14.38700 39.90600 42.92900
C  -15.69500 39.80700 43.78600
C  -15.89400 38.26000 43.92800
C  -14.56900 37.71400 43.33600
C  -15.59500 40.56500 45.09800
C  -17.16000 37.64900 43.28100
C  -17.81400 36.53100 44.24100
N  -12.11600 36.45900 42.05200
C  -13.17800 35.69200 42.65700
C  -12.88500 34.30700 42.55300
C  -11.71800 34.24000 41.82700
C  -11.28900 35.56800 41.49900
C  -13.64200 33.06900 43.03400
C  -10.74200 33.36200 41.21500
O  -10.66400 32.16200 41.36000
C  -9.64800 34.30200 40.43500
C  -8.32500 33.99000 40.95900
O  -7.42700 33.45400 40.29400
O  -8.12600 34.46000 42.20400
C  -6.75300 34.39800 42.71800
H  -8.57500 41.21600 40.32500
H  -14.47500 41.84600 42.88300
H  -15.06400 35.82200 43.83500
H  -7.32100 36.62700 40.04400
H  -7.67200 39.16400 38.90800
H  -5.74400 38.39600 40.42900
H  -6.70100 39.05100 41.78600
H  -6.17600 40.08900 40.40500
H  -8.23400 37.60400 37.47200
H  -9.28700 36.33000 37.95800
H  -7.93700 34.77300 37.13600
H  -6.87900 35.22500 38.45200
H  -9.80900 44.42600 41.06900
H  -10.32700 44.22800 39.45800
H  -9.01500 43.27100 40.03400
H  -14.87600 43.28100 40.97000
H  -14.89900 44.93400 41.29700
H  -14.63200 43.79600 42.65600
H  -16.51600 40.21500 43.19600
H  -15.82900 37.89300 44.95200
H  -14.65200 41.09600 45.22500
H  -15.64600 40.02200 46.04200
H  -16.35800 41.34300 45.12700
H  -17.04500 37.19400 42.29800
H  -17.96300 38.38600 43.28100
H  -17.64100 35.55200 43.79400
H  -18.89100 36.64300 44.36400
H  -17.29100 36.46600 45.19500
H  -14.63600 33.12900 42.59000
H  -13.77100 33.10600 44.11600
H  -13.12100 32.12800 42.85800
H  -9.63900 34.02600 39.38100
H  -6.15200 33.56500 42.35200
H  -6.74100 34.24400 43.79700
H  -6.21900 35.30700 42.44000

