158

Mg 0.87800 8.30800 27.22400
C  1.72500 10.17700 30.06400
C  0.82600 5.49000 29.31400
C  0.69300 6.47700 24.54700
C  1.59100 11.14100 25.31600
N  1.31400 7.94300 29.49000
C  1.33400 8.91900 30.45200
C  1.05500 8.29900 31.86100
C  1.13700 6.75000 31.54700
C  1.13900 6.67100 29.99300
C  2.27500 5.99200 32.23700
C  -0.32000 8.81300 32.48600
C  -0.68000 8.41600 33.91800
H  0.40600 8.17600 35.03200
N  0.72900 6.38000 27.00500
C  0.63000 5.38300 27.98200
C  0.30800 4.06400 27.29600
C  0.39500 4.33700 25.89200
C  0.54300 5.78600 25.74800
C  0.07300 2.66200 27.92300
C  0.37300 3.26600 24.73800
O  0.33600 3.66100 23.58700
C  0.34400 1.87000 25.00200
N  1.20900 8.74400 25.22900
C  0.91100 7.84100 24.26500
C  1.16200 8.35800 22.86000
C  1.15500 9.90000 23.14800
C  1.26000 9.94700 24.66400
C  2.54300 7.98000 22.21400
C  -0.07400 10.76700 22.73200
C  -1.43300 10.10000 22.67200
N  1.44600 10.27000 27.57700
C  1.78600 11.30000 26.68200
C  2.03200 12.52600 27.35200
C  2.14200 12.07700 28.68800
C  1.79900 10.69700 28.77100
C  2.22100 13.87600 26.83400
C  2.45800 12.53900 30.03400
O  2.87800 13.58500 30.46700
C  2.18700 11.32600 30.95500
C  3.34900 11.01400 31.88800
O  4.37300 10.36700 31.62700
O  3.14000 11.68400 33.07200
C  4.08100 11.46400 34.11500
H  0.62800 4.63800 29.96800
H  0.48400 5.86900 23.66400
H  1.70400 12.06300 24.74100
H  1.93000 8.48900 32.48300
H  0.27800 6.27300 32.01800
H  2.71400 6.63600 32.99900
H  2.96400 5.49400 31.55600
H  1.72600 5.18400 32.72000
H  -1.13400 8.57200 31.80200
H  -0.17300 9.89000 32.40400
H  -1.23900 7.48100 33.87400
H  -1.39100 9.12400 34.34200
H  0.82100 1.90100 27.70100
H  -0.80400 2.15900 27.51400
H  -0.08200 2.70300 29.00100
H  1.21700 1.45500 25.50500
H  0.43200 1.44700 24.00100
H  -0.58600 1.40200 25.32400
H  0.36800 8.07000 22.17000
H  2.00300 10.46800 22.76600
H  3.11700 8.80900 21.80000
H  2.28300 7.35300 21.36100
H  3.11500 7.37600 22.91800
H  0.13800 11.12200 21.72400
H  -0.29200 11.56700 23.43900
H  -1.84700 9.85000 21.69500
H  -2.20200 10.71200 23.14400
H  -1.33800 9.19100 23.26700
H  1.27400 14.41600 26.84400
H  2.68600 13.77100 25.85300
H  2.96400 14.39400 27.44000
H  1.32500 11.62000 31.55400
H  4.57100 12.42800 34.25100
H  4.78400 10.63200 34.14100
H  3.59500 11.31200 35.07800
Mg 5.48900 54.48100 41.19400
C  5.33200 51.00600 40.97600
C  8.63900 54.33000 39.87900
C  5.52300 57.84100 41.11600
C  2.13500 54.52900 42.21700
N  6.74100 52.77200 40.19700
C  6.46700 51.46500 40.38700
C  7.77800 50.68500 40.03100
C  8.90800 51.79800 39.99700
C  8.06600 53.06400 40.03500
C  9.92000 51.73700 41.17300
C  7.77600 49.82500 38.68700
C  6.94500 50.51100 37.53200
H  7.71900 50.99200 36.28000
N  6.78900 55.81800 40.42100
C  8.06900 55.60200 39.97400
C  8.85300 56.82900 39.76200
C  7.92100 57.90400 40.06600
C  6.70500 57.20800 40.60600
C  10.30800 56.94300 39.41100
C  8.26600 59.37700 39.95200
O  9.41200 59.73800 39.55300
C  7.30300 60.46300 40.38400
N  3.98200 55.89300 41.57800
C  4.35300 57.25900 41.59300
C  3.11900 58.13400 42.04300
C  1.90600 57.11900 42.05400
C  2.69200 55.77500 41.95100
C  3.30600 58.72000 43.39300
C  0.83400 57.35700 40.85100
C  -0.43900 58.20100 41.21000
N  4.05300 53.12400 41.60900
C  2.75100 53.28200 42.10900
C  2.19200 51.95700 42.37700
C  3.18100 51.07200 41.97900
C  4.26300 51.78600 41.49400
C  0.79700 51.61600 42.90100
C  3.47000 49.57000 41.95500
O  2.91300 48.50800 42.25900
C  4.79800 49.55200 41.13700
C  4.62300 48.78500 39.86000
O  3.85300 49.16600 38.93800
O  5.40600 47.64900 39.88500
C  5.29900 46.84100 38.63800
H  9.72200 54.29500 39.74200
H  5.48300 58.92400 41.24600
H  1.06700 54.52600 42.44700
H  7.82200 50.00800 40.88400
H  9.49300 51.98500 39.09600
H  9.92700 50.67500 41.42000
H  9.55700 52.39400 41.96400
H  10.81400 52.26200 40.83700
H  7.28500 48.91700 39.03700
H  8.81900 49.76700 38.37700
H  6.31900 51.35000 37.83400
H  6.30400 49.73300 37.11900
H  10.42200 56.99200 38.32800
H  10.92000 56.19000 39.90800
H  10.86600 57.80400 39.78000
H  6.44500 60.41900 39.71400
H  7.80600 61.38700 40.09700
H  7.20100 60.47200 41.46900
H  3.09100 58.89500 41.26300
H  1.38400 57.12300 43.01100
H  2.36400 58.80700 43.93400
H  3.74800 59.71200 43.30200
H  3.93700 58.08400 44.01300
H  0.48600 56.37800 40.52100
H  1.28900 57.81600 39.97200
H  -1.28400 57.72800 40.70900
H  -0.28500 59.25300 40.96900
H  -0.74300 58.12100 42.25300
H  0.06900 51.56900 42.09100
H  0.51500 52.39000 43.61400
H  0.71700 50.64400 43.38700
H  5.38100 48.91100 41.79800
H  5.64600 45.81600 38.76100
H  5.83100 47.30600 37.80800
H  4.27200 46.74000 38.28600

