158

Mg 47.10900 25.61800 29.28500
C  48.04600 27.86800 31.91900
C  45.66800 23.53300 31.62700
C  46.78500 23.20200 26.89800
C  48.87000 27.66500 27.15400
N  47.05000 25.69200 31.49500
C  47.29500 26.71300 32.34500
C  46.65600 26.55700 33.74100
C  46.07400 25.13100 33.60400
C  46.18400 24.75800 32.15600
C  46.69600 24.14500 34.60100
C  45.57600 27.67300 34.15800
C  45.17600 27.98500 35.60100
H  45.78100 27.19500 36.75100
N  46.20200 23.68200 29.24200
C  45.60400 23.03700 30.25700
C  44.98300 21.81000 29.76000
C  45.39100 21.60300 28.40800
C  46.15200 22.88400 28.13000
C  44.19800 20.91200 30.62800
C  45.02500 20.51100 27.42900
O  45.52100 20.60800 26.30200
C  44.01100 19.46100 27.75200
N  47.66600 25.47700 27.36900
C  47.44100 24.39400 26.52800
C  48.07600 24.57300 25.14900
C  48.47000 26.06500 25.10700
C  48.41800 26.38100 26.64100
C  49.31800 23.68000 24.93300
C  47.51600 27.04600 24.32700
C  48.27500 27.91500 23.35100
N  48.20800 27.47500 29.43600
C  48.84400 28.20100 28.46400
C  49.38400 29.37800 29.02300
C  49.10100 29.35400 30.40600
C  48.35700 28.15400 30.58100
C  50.10500 30.49600 28.35600
C  49.28700 30.00000 31.67300
O  49.85200 31.07700 31.97700
C  48.58400 29.04800 32.73400
C  49.52300 28.65600 33.74900
O  50.58200 28.10000 33.48600
O  48.97700 29.00900 34.97700
C  49.81000 28.50000 36.06600
H  45.14100 23.05800 32.45700
H  46.65800 22.47800 26.09000
H  49.60800 28.20400 26.55600
H  47.43100 26.39600 34.49000
H  45.01300 25.21300 33.84000
H  47.54800 24.50000 35.18100
H  47.05700 23.25300 34.09000
H  45.92600 23.77800 35.27900
H  44.71800 27.34000 33.57500
H  45.84700 28.65100 33.76300
H  44.11800 27.78600 35.76900
H  45.36500 29.04100 35.79600
H  44.06200 21.23200 31.66100
H  44.65400 19.92200 30.60300
H  43.20500 20.79000 30.19400
H  44.39400 19.15900 28.72700
H  44.12400 18.70500 26.97500
H  43.00900 19.89000 27.75400
H  47.27100 24.35800 24.44700
H  49.53300 26.16900 24.88900
H  49.11400 23.04900 24.06800
H  49.52500 22.97000 25.73300
H  50.23900 24.23300 24.75100
H  47.10100 27.81700 24.97600
H  46.70800 26.44100 23.91300
H  47.66100 28.08400 22.46600
H  49.17900 27.39400 23.03700
H  48.53700 28.90300 23.73000
H  50.69200 30.17100 27.49700
H  50.78500 30.99000 29.05100
H  49.47100 31.28000 27.94400
H  47.75600 29.66900 33.07400
H  50.77300 28.99900 35.95000
H  49.85900 27.41100 36.06100
H  49.22300 28.81400 36.92900
Mg 7.24100 53.39800 41.70400
C  6.55900 49.93800 40.86800
C  10.44000 52.88500 40.27200
C  7.73000 56.61000 41.71000
C  3.86100 53.69500 42.63500
N  8.27300 51.63500 40.45000
C  7.82300 50.34200 40.38500
C  8.88600 49.53600 39.69400
C  10.18800 50.32000 39.90300
C  9.61600 51.71300 40.16200
C  11.11900 49.89000 41.08700
C  8.46000 49.46800 38.14100
C  8.76100 48.13100 37.35800
H  7.78200 47.78200 36.27300
N  8.90800 54.59800 41.15400
C  10.09400 54.20800 40.67700
C  10.98400 55.31700 40.61500
C  10.25700 56.38300 41.18100
C  8.93200 55.88100 41.41000
C  12.38100 55.25000 40.08200
C  10.67700 57.86700 41.43400
O  11.76200 58.23500 40.92000
C  9.93500 58.67700 42.32400
N  5.97300 54.88500 42.02600
C  6.39400 56.20000 41.91500
C  5.24900 57.17300 42.20200
C  4.14100 56.23300 42.78000
C  4.63000 54.83300 42.38300
C  5.52700 58.48700 43.06000
C  2.69800 56.54300 42.38300
C  2.11000 56.14500 41.06900
N  5.59600 52.08800 41.88400
C  4.26600 52.36400 42.27100
C  3.53500 51.07500 42.36900
C  4.46200 50.14500 41.84800
C  5.60400 50.75300 41.54000
C  2.11600 50.78900 42.82600
C  4.60000 48.77400 41.36300
O  3.79600 47.83200 41.39400
C  6.02100 48.54000 40.91700
C  5.99200 47.75600 39.64200
O  5.59100 48.08800 38.54100
O  6.28800 46.46500 40.01000
C  6.18700 45.38100 39.05500
H  11.49300 52.66000 40.08900
H  7.84700 57.69300 41.78500
H  2.84900 53.86100 43.01100
H  8.90300 48.49500 40.01600
H  10.74300 50.39600 38.96900
H  10.97800 50.63700 41.86700
H  12.17300 49.80800 40.82100
H  10.79200 48.94000 41.50900
H  8.92700 50.26600 37.56300
H  7.39200 49.68100 38.17700
H  8.86600 47.41400 38.17200
H  9.66800 48.29400 36.77600
H  12.96600 55.42300 40.98500
H  12.65600 55.98700 39.32700
H  12.71500 54.24100 39.84000
H  9.49100 58.12800 43.15500
H  9.15400 59.21700 41.78800
H  10.56700 59.43700 42.78200
H  4.90700 57.46800 41.21000
H  4.08300 56.21900 43.86800
H  5.30100 59.41800 42.54100
H  6.56300 58.52100 43.39600
H  4.85500 58.51300 43.91900
H  2.80400 57.62500 42.45600
H  2.02400 56.28800 43.20200
H  2.06400 56.90600 40.29000
H  1.07700 55.80300 41.14100
H  2.57500 55.28400 40.59000
H  2.04900 50.81700 43.91400
H  1.88000 49.77600 42.49800
H  1.40900 51.52300 42.43900
H  6.42700 47.89200 41.69400
H  5.61700 44.56800 39.50300
H  7.09800 45.09400 38.52900
H  5.59000 45.53000 38.15500

