158

Mg 9.20800 3.72400 27.47700
C  10.42300 2.15600 30.46300
C  7.58000 5.96100 29.58100
C  8.00100 5.00400 24.85500
C  10.48500 0.92800 25.61300
N  8.91900 3.92700 29.82700
C  9.67200 3.31200 30.77400
C  9.47700 3.97200 32.17300
C  8.37100 5.07000 31.86100
C  8.25700 4.96400 30.34600
C  6.98100 4.69600 32.51200
C  10.83100 4.67800 32.62900
C  10.93300 5.37800 33.95300
H  10.22200 4.79600 35.22300
N  7.96200 5.20000 27.26400
C  7.41900 6.06300 28.19700
C  6.53500 7.09800 27.54500
C  6.71600 6.85000 26.18400
C  7.59000 5.65500 26.03100
C  5.77500 8.21900 28.21700
C  6.14900 7.68200 24.97600
O  6.44800 7.36200 23.83500
C  5.27200 8.87700 25.22700
N  9.47000 3.14100 25.42100
C  8.72400 3.86300 24.57200
C  8.78100 3.15600 23.17400
C  9.72000 1.89600 23.33600
C  9.90900 1.97200 24.82200
C  7.46700 2.85800 22.55100
C  11.06200 2.00900 22.53900
C  11.08700 1.11100 21.29400
N  10.29900 1.95500 27.87700
C  10.74800 0.93600 27.01800
C  11.40400 -0.11500 27.80500
C  11.38600 0.39000 29.11900
C  10.63800 1.59700 29.16200
C  12.01000 -1.35400 27.20700
C  11.82200 0.07300 30.48700
O  12.51800 -0.80900 30.85500
C  11.17800 1.20200 31.39600
C  10.27800 0.57900 32.39500
O  9.44900 -0.18100 32.06700
O  10.59600 0.90600 33.70900
C  9.91000 0.10600 34.71200
H  7.15500 6.78700 30.15600
H  7.68000 5.42000 23.89800
H  10.96700 0.06500 25.14800
H  9.21400 3.28700 32.97800
H  8.73500 6.06600 32.11200
H  7.05100 3.90000 33.25300
H  6.43800 4.38500 31.61900
H  6.65900 5.68300 32.84500
H  11.24100 5.24400 31.79300
H  11.39800 3.74800 32.64800
H  10.86800 6.46600 33.95600
H  11.98000 5.29800 34.24700
H  5.95100 8.36100 29.28400
H  4.72200 7.96200 28.11000
H  5.95300 9.20600 27.79000
H  5.95800 9.70600 25.39800
H  4.53400 8.62100 25.98800
H  4.74200 9.04600 24.29000
H  9.33100 3.76800 22.45900
H  9.14800 1.02000 23.03100
H  7.31100 1.81400 22.27900
H  7.39700 3.41000 21.61400
H  6.66000 3.15800 23.21800
H  11.84500 1.59600 23.17400
H  11.32800 3.05200 22.36400
H  10.04900 0.93400 21.01400
H  11.70900 0.22500 21.41900
H  11.48300 1.68900 20.45900
H  12.08800 -2.13500 27.96200
H  13.02200 -1.14100 26.86000
H  11.37500 -1.74100 26.41000
H  12.00900 1.66400 31.92900
H  9.09100 -0.54200 34.40000
H  9.47800 0.81900 35.41400
H  10.66200 -0.41500 35.30400
Mg -9.95300 40.03700 42.59200
C  -8.68500 36.84000 41.67200
C  -7.24000 41.47600 41.08200
C  -11.52600 42.98100 42.88500
C  -12.95600 38.37000 43.46900
N  -8.16000 39.19700 41.55000
C  -7.82500 37.88700 41.21600
C  -6.59700 37.78700 40.41000
C  -6.11100 39.27500 40.47700
C  -7.16400 40.05400 41.22500
C  -4.69000 39.54600 41.08700
C  -6.97500 37.29500 38.99200
C  -6.02100 36.27600 38.37200
H  -5.09200 36.72700 37.26400
N  -9.42500 41.95200 42.00600
C  -8.24100 42.35400 41.51700
C  -8.17300 43.77900 41.62200
C  -9.43100 44.26400 42.16600
C  -10.23300 43.05900 42.37600
C  -6.93900 44.46600 41.19100
C  -9.87700 45.73000 42.36100
O  -9.10500 46.61600 41.88400
C  -11.19200 46.16300 43.05100
N  -12.00100 40.59600 42.99200
C  -12.36700 41.85500 43.18400
C  -13.88300 41.94200 43.68600
C  -14.21300 40.45600 43.81100
C  -13.02300 39.73000 43.32200
C  -14.13900 42.89500 44.90600
C  -15.54900 40.02900 43.13800
C  -16.76000 39.87600 43.92400
N  -10.64100 37.96900 42.79500
C  -11.84700 37.49100 43.14100
C  -11.83800 36.03000 43.05500
C  -10.57900 35.73700 42.48000
C  -9.94800 36.91900 42.22400
C  -12.96600 35.19600 43.50000
C  -9.76700 34.64400 42.00300
O  -10.04000 33.45100 41.93500
C  -8.49400 35.35800 41.37400
C  -7.23800 34.79500 41.94900
O  -6.98600 34.60300 43.08500
O  -6.39100 34.53500 40.92800
C  -5.04800 33.96700 41.15600
H  -6.36700 41.85500 40.54700
H  -12.04000 43.92900 43.05600
H  -13.89500 37.94500 43.83200
H  -5.89300 37.08000 40.85000
H  -6.05100 39.76600 39.50500
H  -3.99300 38.72900 40.89800
H  -4.67300 39.71000 42.16400
H  -4.24900 40.42600 40.62000
H  -7.10200 38.11000 38.27900
H  -7.97000 36.85100 38.96400
H  -6.62400 35.48600 37.92500
H  -5.45100 35.69000 39.09300
H  -6.84400 44.48300 40.10500
H  -6.10600 43.92600 41.64100
H  -7.03500 45.49800 41.52800
H  -12.09100 45.90700 42.49100
H  -11.23100 47.25200 43.08000
H  -11.11300 45.91900 44.11000
H  -14.53200 42.34100 42.90700
H  -14.33800 40.24700 44.87400
H  -14.48900 42.45500 45.83900
H  -14.72500 43.74900 44.56500
H  -13.13900 43.26900 45.12300
H  -15.39800 39.15700 42.50200
H  -15.73700 40.75900 42.35100
H  -17.01000 38.84700 44.18500
H  -17.59200 40.33200 43.38800
H  -16.67700 40.38400 44.88500
H  -12.71400 34.14800 43.34000
H  -13.89300 35.45300 42.98600
H  -13.15800 35.40000 44.55300
H  -8.57600 35.07500 40.32500
H  -4.25100 34.70200 41.04500
H  -4.87200 33.31700 40.29900
H  -5.02900 33.41700 42.09700

