158

Mg 25.34700 2.07900 30.08400
C  27.50600 1.91900 32.85500
C  22.65200 1.98500 32.27900
C  23.37500 1.63500 27.56700
C  28.10600 1.64900 28.03100
N  25.08400 1.86300 32.28000
C  26.12200 2.02600 33.22600
C  25.65100 2.24300 34.64900
C  24.08600 2.26000 34.39600
C  23.91300 2.07200 32.92300
C  23.26900 1.26000 35.20700
C  26.18600 3.68900 35.14700
C  26.45000 3.68700 36.70300
H  25.92600 4.79100 37.60900
N  23.29600 2.08300 29.95400
C  22.34100 1.94100 30.93000
C  21.07700 1.78300 30.27900
C  21.19600 1.72700 28.87500
C  22.71300 1.78100 28.75100
C  19.78900 1.77600 31.10100
C  20.12500 1.58900 27.76200
O  20.42400 1.51700 26.58400
C  18.61400 1.54600 28.18700
N  25.66400 1.72400 28.02900
C  24.69300 1.45500 27.19300
C  25.15300 1.51000 25.67300
C  26.68300 1.66700 25.91800
C  26.85500 1.65000 27.42900
C  24.69800 0.27700 24.86800
C  27.30500 2.99400 25.32600
C  26.59600 4.34600 25.65800
N  27.39600 1.71300 30.35000
C  28.36300 1.59400 29.37100
C  29.66300 1.33600 29.96900
C  29.42400 1.49000 31.36800
C  27.99800 1.69200 31.51200
C  30.90100 1.09600 29.28500
C  29.93700 1.52200 32.72200
O  31.10300 1.34900 33.07000
C  28.78700 1.93300 33.68000
C  28.73000 1.07500 34.90100
O  28.33800 -0.06700 34.96500
O  29.11800 1.86900 36.02100
C  29.10100 1.18500 37.30000
H  21.80100 2.13000 32.94800
H  22.73400 1.46000 26.70100
H  28.92300 1.39200 27.35400
H  26.00500 1.35200 35.16700
H  23.80400 3.28100 34.65400
H  22.34500 1.74000 35.52900
H  23.94000 1.02500 36.03300
H  23.05700 0.34700 34.65100
H  25.49300 4.48000 34.86300
H  27.05900 3.89100 34.52600
H  27.51200 3.90500 36.81100
H  26.24400 2.71100 37.14400
H  18.99000 2.41700 30.72800
H  19.97100 1.75300 32.17500
H  19.42900 0.74900 31.04000
H  17.94800 1.33500 27.35100
H  18.40500 2.46800 28.73000
H  18.46800 0.78900 28.95800
H  24.74500 2.41300 25.21900
H  27.31300 0.87500 25.51200
H  25.51700 -0.43500 24.96200
H  24.52100 0.54300 23.82600
H  23.74100 -0.09900 25.22900
H  27.47600 2.86000 24.25800
H  28.29900 3.05800 25.76800
H  26.04600 4.28300 26.59700
H  25.90200 4.68000 24.88700
H  27.40300 5.07500 25.72200
H  31.05700 1.82000 28.48600
H  30.96700 0.06600 28.93300
H  31.74700 1.28800 29.94600
H  29.03800 2.98400 33.82600
H  28.34600 1.56200 37.99000
H  30.03100 1.43800 37.80900
H  29.10600 0.10000 37.19500
Mg 49.52900 46.03100 42.52000
C  46.14700 46.95200 41.47400
C  48.86500 42.85600 40.93300
C  52.78900 45.54500 42.28100
C  50.09100 49.45800 42.96300
N  47.64500 45.00100 41.50800
C  46.43000 45.62700 41.15100
C  45.62000 44.82500 40.12700
C  46.49900 43.49700 39.99600
C  47.72000 43.76000 40.82600
C  45.74700 42.21300 40.37700
C  45.36400 45.62900 38.78900
C  43.91300 45.74700 38.20700
H  43.67600 45.44800 36.73300
N  50.64000 44.36300 42.01900
C  50.16500 43.15500 41.41700
C  51.34000 42.26800 41.36400
C  52.49200 42.96100 41.79800
C  52.04500 44.33500 42.09600
C  51.33100 40.88900 40.74900
C  53.94900 42.40300 41.76200
O  54.21700 41.26400 41.32800
C  55.18900 43.22300 42.25300
N  51.21300 47.24800 42.42300
C  52.43200 46.84100 42.47800
C  53.45300 47.84400 43.00100
C  52.52600 49.10800 43.24000
C  51.18200 48.58300 42.88300
C  54.43100 47.49800 44.16100
C  52.86800 50.49800 42.53300
C  53.10800 51.79000 43.44900
N  48.33500 47.87200 42.45100
C  48.72200 49.20200 42.62800
C  47.54800 50.01100 42.70700
C  46.50800 49.19700 42.23300
C  47.04200 47.88300 42.08600
C  47.53500 51.48000 43.14800
C  45.05900 49.05100 42.06300
O  44.22100 49.83200 42.39300
C  44.82800 47.68100 41.41500
C  43.72200 46.96300 42.04700
O  43.71500 46.51400 43.20500
O  42.70400 46.69600 41.11000
C  41.70800 45.64800 41.46400
H  48.80400 41.89200 40.42400
H  53.87600 45.44100 42.26400
H  50.34500 50.39300 43.46700
H  44.64100 44.61100 40.55700
H  47.03800 43.34200 39.06100
H  46.20800 41.70400 41.22300
H  45.78500 41.61000 39.46900
H  44.67000 42.35300 40.46300
H  46.09100 45.21900 38.08800
H  45.69000 46.66700 38.85100
H  43.64900 46.78200 38.42600
H  43.10600 45.23000 38.72600
H  52.15900 40.82300 40.04300
H  50.44400 40.64200 40.16500
H  51.19300 40.18600 41.57100
H  55.64400 43.75900 41.42000
H  55.96400 42.52800 42.57500
H  54.80100 43.88500 43.02700
H  54.03800 47.89600 42.08200
H  52.50700 49.20600 44.32600
H  55.44500 47.87800 44.04200
H  54.47700 46.41000 44.21800
H  54.02100 47.76400 45.13500
H  52.07000 50.63100 41.80200
H  53.82900 50.38700 42.03000
H  54.16400 51.97700 43.25200
H  52.88600 51.49300 44.47400
H  52.57800 52.71500 43.22300
H  48.22900 51.67700 43.96600
H  46.51900 51.79400 43.38500
H  47.76400 52.18600 42.35000
H  44.66500 47.91300 40.36300
H  40.76200 46.13800 41.69400
H  42.04900 45.10700 42.34600
H  41.62900 44.86900 40.70600

