158

Mg 35.45800 2.80100 29.64500
C  33.16500 3.63600 32.10500
C  38.03700 2.92200 32.12200
C  37.97800 2.07800 27.38100
C  33.13900 3.20400 27.23700
N  35.54900 3.08500 31.87800
C  34.46200 3.40200 32.64700
C  34.85400 3.39100 34.11400
C  36.40200 3.57400 34.05800
C  36.68300 3.15400 32.61400
C  36.87300 4.91900 34.57800
C  34.27500 2.11400 34.77600
C  33.81300 2.30200 36.22100
H  34.45900 3.38900 37.08800
N  37.56500 2.37600 29.76100
C  38.38800 2.52700 30.84300
C  39.73900 2.11000 30.60100
C  39.85600 1.98800 29.17600
C  38.41500 2.17500 28.69400
C  40.80600 2.09000 31.70700
C  41.05000 1.78900 28.30300
O  40.97700 1.51100 27.13400
C  42.51300 1.86800 28.90400
N  35.56100 2.56900 27.60200
C  36.69900 2.23000 26.83700
C  36.44700 2.39700 25.36800
C  34.86500 2.56400 25.38800
C  34.43100 2.82800 26.84100
C  37.25600 3.56300 24.68700
C  34.02800 1.42100 24.75900
C  33.87400 1.43900 23.21300
N  33.49600 3.21900 29.59000
C  32.59200 3.37000 28.59400
C  31.20100 3.57300 29.06600
C  31.37900 3.71500 30.44100
C  32.76800 3.48800 30.73200
C  29.95300 3.83000 28.22500
C  30.70300 3.93600 31.76000
O  29.52600 4.05800 31.98800
C  31.84900 3.93100 32.91300
C  31.84700 5.17600 33.69400
O  32.53200 6.15500 33.49900
O  31.01400 4.93800 34.74700
C  31.08600 5.88400 35.87200
H  38.82300 3.29800 32.78100
H  38.79400 2.16100 26.66000
H  32.45000 3.32600 26.39800
H  34.36700 4.21200 34.64100
H  36.87800 2.86900 34.74000
H  37.43900 5.56400 33.90700
H  37.38100 4.80600 35.53500
H  36.00600 5.51900 34.85500
H  35.11800 1.42400 34.80600
H  33.44100 1.84000 34.13000
H  33.91000 1.33600 36.71600
H  32.74500 2.46700 36.08000
H  40.40300 1.67100 32.62900
H  41.23300 3.07800 31.87900
H  41.58100 1.36300 31.46600
H  43.27800 2.39100 28.33200
H  42.84000 0.83600 29.03200
H  42.41000 2.38100 29.86100
H  36.85100 1.46600 24.97200
H  34.70500 3.46300 24.79300
H  37.45100 4.30800 25.45800
H  36.69700 4.04600 23.88600
H  38.16500 3.05200 24.37000
H  33.03100 1.37200 25.19700
H  34.53200 0.48300 24.99200
H  34.68900 2.06700 22.85200
H  32.94700 1.82300 22.78700
H  34.08700 0.45700 22.79100
H  29.22900 3.09900 28.58600
H  30.09100 3.67300 27.15600
H  29.55300 4.83100 28.38700
H  31.73900 3.15800 33.67300
H  30.25600 5.71100 36.55700
H  31.19200 6.93600 35.60800
H  31.97200 5.55600 36.41700
Mg -6.07600 25.34700 25.61000
C  -4.22800 26.42500 28.25200
C  -7.31200 22.79400 27.79700
C  -7.70400 23.98200 23.01600
C  -4.06800 27.08800 23.40300
N  -5.85000 24.69500 27.74600
C  -5.12200 25.40900 28.59900
C  -5.35200 25.01900 30.00500
C  -6.06100 23.60600 29.79500
C  -6.37200 23.67200 28.33500
C  -5.36700 22.32600 30.19800
C  -6.15800 26.08700 30.81000
C  -6.69900 25.61900 32.18900
H  -5.77200 24.70100 33.06700
N  -7.46900 23.72900 25.47500
C  -7.76800 22.80000 26.44800
C  -8.77800 21.93700 25.87200
C  -9.08100 22.43000 24.52300
C  -8.08000 23.44800 24.28400
C  -9.39200 20.74700 26.62000
C  -10.19200 22.03200 23.58000
O  -10.36500 22.55700 22.51100
C  -11.23500 20.99300 24.01800
N  -5.90400 25.62300 23.44800
C  -6.70700 24.90300 22.63400
C  -6.41000 25.25500 21.11200
C  -5.37900 26.45200 21.31700
C  -5.10300 26.37800 22.78300
C  -5.98100 23.95900 20.25000
C  -5.99100 27.88600 20.92100
C  -6.08000 28.23100 19.40200
N  -4.55900 26.61200 25.73500
C  -3.77400 27.17900 24.79700
C  -2.65300 27.92800 25.46500
C  -2.82200 27.68900 26.82800
C  -3.97200 26.88500 26.95300
C  -1.55400 28.75600 24.70700
C  -2.26800 27.91600 28.15300
O  -1.30200 28.54800 28.60900
C  -3.23100 27.19100 29.10700
C  -2.37200 26.31800 30.03700
O  -1.68900 25.33700 29.67700
O  -2.39000 26.75800 31.34900
C  -1.66500 26.01600 32.36400
H  -7.71600 22.10000 28.53800
H  -8.12400 23.36200 22.22100
H  -3.43500 27.66400 22.72600
H  -4.33900 24.81200 30.35000
H  -7.04200 23.58900 30.27000
H  -5.37000 21.53600 29.44700
H  -5.87200 21.96200 31.09300
H  -4.38200 22.67100 30.51100
H  -7.00400 26.32200 30.16500
H  -5.75400 27.09900 30.79200
H  -7.55900 24.98600 31.97000
H  -7.22800 26.38500 32.75500
H  -9.48100 19.85300 26.00400
H  -10.38900 21.02700 26.96100
H  -8.92200 20.45900 27.56100
H  -10.70600 20.05100 23.87600
H  -12.09200 21.18700 23.37200
H  -11.43100 21.32400 25.03800
H  -7.33500 25.62800 20.67200
H  -4.45300 26.33200 20.75600
H  -4.89200 24.00500 20.23900
H  -6.53600 23.96200 19.31200
H  -6.35200 23.02600 20.67400
H  -5.36500 28.59800 21.45800
H  -7.03000 28.16000 21.10800
H  -6.19200 27.26900 18.90100
H  -5.21000 28.83200 19.14000
H  -7.00000 28.75000 19.13600
H  -1.17500 28.22900 23.83200
H  -0.83700 29.08300 25.46000
H  -2.05400 29.61600 24.26300
H  -3.71200 27.90700 29.77300
H  -2.40700 25.29100 32.69900
H  -1.41400 26.67500 33.19400
H  -0.83500 25.42400 31.97800

