158

Mg 7.65100 3.95100 27.73400
C  8.96600 2.58700 30.68200
C  6.08200 6.38200 29.65700
C  5.90000 4.93600 25.02000
C  8.91600 1.18500 25.87400
N  7.62500 4.48100 29.96800
C  8.20700 3.74700 30.98100
C  7.91700 4.38500 32.34500
C  7.04000 5.59100 31.97300
C  6.95500 5.54200 30.42000
C  5.68500 5.67600 32.61800
C  9.16700 4.77000 33.20000
C  9.08900 4.43700 34.66700
H  10.39200 4.55600 35.44300
N  6.31100 5.51700 27.39900
C  5.80300 6.39700 28.32500
C  5.04800 7.43700 27.61300
C  5.03000 7.10600 26.23200
C  5.73900 5.80700 26.14800
C  4.38200 8.63100 28.19700
C  4.30600 7.77700 25.06300
O  4.28900 7.26200 23.95300
C  3.59400 9.09600 25.17400
N  7.48200 3.22600 25.80700
C  6.56500 3.72400 24.92100
C  6.56800 2.99000 23.58500
C  7.53700 1.72800 23.84100
C  8.04900 2.08300 25.25700
C  5.14500 2.65200 23.06900
C  8.70400 1.56700 22.91400
C  8.84900 0.08400 22.28600
N  8.82200 2.34100 28.12800
C  9.22900 1.31800 27.31000
C  10.07800 0.47700 28.14200
C  10.00600 0.86800 29.43700
C  9.21000 2.04400 29.40300
C  10.80400 -0.75200 27.71100
C  10.38600 0.57600 30.81700
O  11.13400 -0.20300 31.35000
C  9.59500 1.64800 31.65000
C  8.72000 0.89300 32.51400
O  7.80000 0.21200 32.10100
O  9.07000 1.10300 33.83800
C  8.22300 0.32000 34.76400
H  5.55500 7.21800 30.12200
H  5.24600 5.36300 24.25700
H  9.26600 0.33400 25.28600
H  7.28900 3.72600 32.94500
H  7.63900 6.50100 32.00000
H  5.23900 6.65500 32.79700
H  5.82500 5.37200 33.65500
H  4.96300 5.13700 32.00500
H  9.29700 5.84500 33.07300
H  10.12100 4.30300 32.95300
H  8.68800 3.44000 34.84900
H  8.25900 5.00700 35.08500
H  4.89600 9.59100 28.15000
H  4.21900 8.47000 29.26300
H  3.39300 8.73800 27.75300
H  2.67900 8.98900 25.75600
H  3.35900 9.42400 24.16100
H  4.28300 9.80700 25.63000
H  6.96900 3.69300 22.85500
H  7.04600 0.75700 23.89200
H  4.99400 3.12500 22.09800
H  4.43600 2.98600 23.82600
H  5.11900 1.56200 23.05400
H  9.59200 1.81300 23.49700
H  8.75300 2.29800 22.10700
H  8.86500 0.04200 21.19700
H  8.09900 -0.60900 22.66700
H  9.81700 -0.34300 22.54500
H  10.40600 -1.24600 26.82400
H  10.73100 -1.63800 28.34100
H  11.86200 -0.52800 27.57400
H  10.34300 2.15400 32.26100
H  7.45600 0.92300 35.24900
H  8.85300 -0.09200 35.55200
H  7.61000 -0.44100 34.28100
Mg 41.00200 9.52100 30.24100
C  43.07000 10.64100 32.58300
C  38.89500 8.12500 32.63300
C  38.95400 8.37500 27.74300
C  43.30300 10.60500 27.74400
N  40.98700 9.32400 32.28600
C  41.92900 10.02200 33.09300
C  41.58400 9.92300 34.57900
C  40.35700 8.85100 34.57700
C  40.11200 8.69400 33.07800
C  40.62300 7.53800 35.35700
C  41.25900 11.29300 35.31300
C  41.96500 11.48600 36.64700
H  41.32300 12.21000 37.90300
N  39.17100 8.45000 30.17700
C  38.49000 7.97800 31.30000
C  37.16600 7.41000 30.79800
C  37.18300 7.41700 29.36500
C  38.48300 8.09200 29.01500
C  36.18500 6.69900 31.69700
C  36.19700 6.83300 28.36500
O  36.37700 6.67200 27.17200
C  34.92700 6.18200 28.87400
N  41.11200 9.58900 28.03400
C  40.15700 8.93900 27.27000
C  40.41700 9.16700 25.69200
C  41.83500 9.86300 25.75500
C  42.12400 10.04000 27.25300
C  40.26100 7.84100 24.87900
C  41.90000 11.18200 24.87300
C  41.19100 12.40800 25.54100
N  42.96700 10.33900 30.10700
C  43.68600 10.85900 29.09100
C  44.84500 11.52800 29.59900
C  44.69200 11.51600 31.01600
C  43.51600 10.73300 31.23900
C  45.96700 12.10700 28.83300
C  45.12200 11.98000 32.31300
O  46.09400 12.66100 32.68800
C  44.14200 11.38700 33.38000
C  44.92500 10.65400 34.38600
O  45.32100 9.47900 34.33300
O  45.08600 11.42400 35.48200
C  45.66700 10.90400 36.74000
H  38.08500 7.91700 33.33600
H  38.40300 8.02200 26.86900
H  44.00900 10.79000 26.93200
H  42.50500 9.63900 35.08800
H  39.43900 9.27900 34.98000
H  40.61100 6.72200 34.63400
H  39.97100 7.39800 36.21900
H  41.65000 7.49700 35.72000
H  40.20800 11.32700 35.60000
H  41.42400 12.12100 34.62300
H  42.81900 12.08600 36.33400
H  42.46100 10.58000 36.99500
H  36.49800 6.68100 32.74100
H  36.06300 5.65900 31.39600
H  35.20300 7.16800 31.74600
H  34.24500 5.85200 28.09000
H  34.45300 7.00400 29.41000
H  35.04700 5.29100 29.49100
H  39.78000 9.99900 25.39600
H  42.52700 9.07400 25.46000
H  39.99700 6.94700 25.44400
H  41.07000 7.45600 24.25900
H  39.38500 8.06400 24.26900
H  41.36200 11.08900 23.93000
H  42.92400 11.41500 24.58000
H  40.69700 12.95200 24.73700
H  42.03500 12.97600 25.93200
H  40.44100 11.95300 26.18900
H  45.73100 12.94000 28.17000
H  46.27200 11.33100 28.13100
H  46.73700 12.27500 29.58700
H  43.75000 12.29300 33.84300
H  46.32500 10.05400 36.56000
H  44.89300 10.66400 37.46900
H  46.28100 11.74100 37.07200

