158

Mg 47.28000 17.26100 28.26500
C  45.43600 16.82000 31.36500
C  49.58900 18.99400 30.14800
C  48.97000 17.74500 25.36300
C  44.62000 15.84400 26.61900
N  47.49000 17.68600 30.53800
C  46.68600 17.44900 31.55000
C  47.17100 18.08400 32.89200
C  48.32800 18.95900 32.38600
C  48.44200 18.62200 30.93200
C  48.08000 20.46800 32.54600
C  47.74600 16.93500 33.86800
C  47.42800 17.28900 35.33300
H  47.31600 18.75200 35.76500
N  49.01400 18.31500 27.80800
C  49.85300 18.90200 28.74900
C  51.06900 19.32200 28.05600
C  50.91700 18.95700 26.64800
C  49.60000 18.34200 26.53000
C  52.30200 19.83500 28.79100
C  51.83900 19.14300 25.46000
O  51.49000 18.82700 24.35000
C  53.20900 19.68200 25.63400
N  46.81300 16.92700 26.27900
C  47.66200 17.15800 25.27200
C  46.94100 16.96000 23.92200
C  45.63500 16.13700 24.28500
C  45.66200 16.31600 25.80500
C  46.78700 18.22200 23.07700
C  45.72600 14.56900 23.91100
C  45.05100 14.19600 22.59900
N  45.43600 16.44700 28.77500
C  44.52600 15.86100 27.98300
C  43.47400 15.38100 28.77400
C  43.81200 15.66700 30.18000
C  44.97700 16.42300 30.05000
C  42.24700 14.63300 28.21300
C  43.38800 15.56400 31.52600
O  42.42300 14.96500 31.97800
C  44.44500 16.33300 32.37000
C  43.83400 17.43300 33.12700
O  43.30600 18.47200 32.68700
O  43.80100 16.98600 34.39500
C  43.22800 17.95600 35.32200
H  50.29600 19.58200 30.73700
H  49.45100 17.89000 24.39300
H  43.75000 15.35900 26.17000
H  46.38300 18.58100 33.45800
H  49.24300 18.80600 32.95900
H  47.22500 20.63800 33.20100
H  47.84500 20.86700 31.55900
H  48.94400 20.92400 33.02800
H  48.83100 16.99300 33.78400
H  47.29900 16.02200 33.47400
H  48.28700 16.89000 35.87400
H  46.52300 16.74900 35.61300
H  52.11900 20.90100 28.92900
H  53.25200 19.64500 28.29100
H  52.34800 19.39900 29.78900
H  53.68000 19.82400 24.66100
H  53.96700 18.99300 26.00600
H  53.27700 20.64600 26.13700
H  47.58200 16.40700 23.23500
H  44.74000 16.62500 23.90000
H  47.45900 18.10500 22.22600
H  46.99600 19.16700 23.57700
H  45.73000 18.35100 22.84400
H  45.58500 13.84300 24.71100
H  46.79500 14.53300 23.69800
H  45.79700 13.80700 21.90600
H  44.57000 15.08900 22.19700
H  44.23400 13.49000 22.74500
H  41.58200 14.54000 29.07100
H  42.41000 13.64900 27.77400
H  41.69900 15.18800 27.45200
H  44.89800 15.58800 33.02500
H  43.58500 18.96000 35.09200
H  43.50500 17.77600 36.36100
H  42.13900 18.00400 35.31800
Mg 36.24200 49.19700 24.80900
C  36.33200 47.45600 27.77300
C  34.86000 51.96600 26.42900
C  35.58900 50.59800 21.82400
C  37.00600 46.16400 23.17700
N  35.45500 49.61300 26.86600
C  35.73600 48.78200 27.94300
C  35.30500 49.49800 29.25200
C  34.66800 50.87300 28.74200
C  35.12100 50.84500 27.26500
C  33.19200 51.05400 29.11800
C  36.53400 49.73000 30.23100
C  36.34900 49.34600 31.71000
H  34.92300 49.28500 32.35700
N  35.51500 51.09300 24.20900
C  34.98100 52.10200 24.97300
C  34.71500 53.32000 24.21700
C  34.91600 52.92800 22.84100
C  35.41000 51.51500 22.89900
C  34.35400 54.62100 24.87500
C  34.82400 53.72400 21.55100
O  35.21400 53.30900 20.44800
C  34.24300 55.03300 21.56700
N  36.11900 48.42900 22.84500
C  35.93700 49.24100 21.81200
C  35.85400 48.30500 20.55800
C  36.63700 47.07700 20.91000
C  36.46400 47.15600 22.36800
C  34.42600 48.05700 20.05300
C  38.10700 46.85000 20.43800
C  39.15500 47.97600 20.71500
N  36.61100 47.19200 25.29000
C  36.99800 46.10400 24.56200
C  37.39100 45.03400 25.48400
C  37.11300 45.50000 26.75300
C  36.67200 46.80700 26.53700
C  37.86800 43.68800 25.04300
C  37.25400 45.21400 28.21300
O  37.59100 44.23000 28.86900
C  36.68600 46.40400 28.89100
C  35.53800 45.85600 29.69300
O  34.40800 45.60400 29.29800
O  36.01800 45.74200 31.01900
C  35.06500 45.08200 31.90400
H  34.47500 52.79400 27.02800
H  35.23800 50.90400 20.83600
H  37.41700 45.25100 22.74200
H  34.49000 48.89100 29.64700
H  35.24200 51.71000 29.13900
H  32.65700 50.10800 29.20100
H  32.64800 51.58200 28.33500
H  33.18200 51.50800 30.10900
H  36.90800 50.75300 30.18900
H  37.39500 49.14700 29.90500
H  36.93100 50.10800 32.22900
H  36.90000 48.41900 31.86800
H  33.29600 54.88100 24.89400
H  34.76100 55.41500 24.24900
H  34.55000 54.66400 25.94600
H  34.05200 55.45500 20.58100
H  35.06400 55.62800 21.96700
H  33.35400 54.92100 22.18700
H  36.38200 48.75400 19.71700
H  36.13700 46.17200 20.56300
H  33.64800 48.74200 20.39000
H  34.11200 47.03400 20.25700
H  34.48300 48.15800 18.96900
H  37.96600 46.78900 19.35900
H  38.53700 45.88000 20.68700
H  38.77500 48.91300 21.12300
H  39.60300 48.07300 19.72600
H  39.92800 47.66600 21.41800
H  37.34400 43.29800 24.17000
H  37.75800 42.93600 25.82400
H  38.90100 43.80800 24.71500
H  37.51600 46.78600 29.48500
H  34.81400 44.09800 31.50700
H  34.17000 45.67200 32.09900
H  35.53600 45.05300 32.88700

