158

Mg 7.58700 2.55600 27.08700
C  8.86800 1.20800 30.01700
C  5.47800 4.51000 28.99700
C  6.07300 3.63100 24.21300
C  8.97200 -0.13200 25.34600
N  7.06300 2.70900 29.28700
C  7.88300 2.16700 30.24800
C  7.48200 2.76900 31.60800
C  6.22800 3.71000 31.30700
C  6.28300 3.67000 29.77800
C  4.89000 3.06300 31.69700
C  8.64800 3.52400 32.23500
C  8.38500 3.96100 33.67200
H  9.41200 3.58000 34.79100
N  6.05900 3.93700 26.62400
C  5.30300 4.55700 27.55400
C  4.33300 5.44900 26.87900
C  4.61700 5.38200 25.52100
C  5.61700 4.26200 25.38900
C  3.39600 6.35300 27.63000
C  4.18400 6.21200 24.36500
O  4.43100 5.96500 23.19600
C  3.20400 7.37000 24.63900
N  7.46300 1.86300 25.13500
C  6.92000 2.57100 24.14600
C  7.10200 1.86300 22.83800
C  8.22900 0.72500 23.09700
C  8.17800 0.80800 24.64500
C  5.89200 1.32200 22.03400
C  9.59600 1.16500 22.44600
C  10.46400 2.09000 23.27700
N  8.68300 0.86900 27.48800
C  9.23900 -0.05000 26.71900
C  10.26900 -0.75500 27.43300
C  10.08000 -0.27500 28.75100
C  9.13200 0.71000 28.71800
C  11.24900 -1.77500 26.99600
C  10.51800 -0.54400 30.07600
O  11.30000 -1.37300 30.51700
C  9.82100 0.46400 30.95100
C  9.19000 -0.08400 32.14800
O  8.21700 -0.82200 32.25300
O  9.97800 0.26200 33.23800
C  9.43300 -0.06400 34.56800
H  4.96900 5.29100 29.56500
H  5.74100 3.94200 23.22100
H  9.50300 -0.92000 24.80800
H  7.26400 1.95700 32.30100
H  6.55500 4.65800 31.73500
H  4.44800 3.57400 32.55200
H  4.96200 1.99200 31.89200
H  4.14300 2.94400 30.91200
H  8.68900 4.50600 31.76400
H  9.57100 2.94600 32.17500
H  7.38500 3.68700 34.00800
H  8.42200 5.04800 33.74500
H  3.91800 7.30400 27.73700
H  3.31000 5.95600 28.64100
H  2.48300 6.43500 27.04000
H  2.22800 6.93300 24.84800
H  3.25900 8.02400 23.76900
H  3.52500 7.95300 25.50200
H  7.63700 2.52500 22.15600
H  7.89300 -0.25800 22.76400
H  5.06800 1.23700 22.74300
H  5.98200 0.33500 21.58000
H  5.75400 2.11600 21.30000
H  9.38300 1.64400 21.49000
H  10.03000 0.18600 22.24400
H  10.08800 2.23500 24.29000
H  10.57900 3.13400 22.98500
H  11.44100 1.61000 23.33600
H  11.08700 -1.76200 25.91800
H  10.88800 -2.73800 27.35700
H  12.30100 -1.53400 27.15200
H  10.47800 1.26400 31.29100
H  9.35300 -1.14600 34.67800
H  8.41100 0.30000 34.66700
H  10.05300 0.26000 35.40400
Mg 52.89200 24.73100 44.27900
C  50.05100 26.98100 43.73100
C  50.85500 22.30600 42.94500
C  55.62800 22.97000 44.00400
C  54.68400 27.63300 45.26800
N  50.78700 24.72400 43.24500
C  49.83400 25.72500 43.13300
C  48.43800 25.19600 42.75900
C  48.58200 23.66300 42.98400
C  50.15300 23.52500 43.07700
C  47.80800 23.19000 44.22400
C  47.90500 25.67800 41.32400
C  49.02500 26.02200 40.21700
H  48.90000 25.37300 38.78300
N  53.23900 22.91900 43.61100
C  52.30800 22.05600 43.09800
C  52.91500 20.74400 42.83000
C  54.31800 20.94500 43.09000
C  54.42300 22.32000 43.61200
C  52.26200 19.52200 42.33200
C  55.46100 19.96300 42.70700
O  55.15400 18.82300 42.31500
C  56.96100 20.34100 42.70600
N  54.92000 25.29600 44.51900
C  55.85000 24.32600 44.39100
C  57.23000 24.81200 44.92500
C  56.85600 26.39400 45.27100
C  55.38300 26.47600 44.99500
C  57.98700 24.04800 46.07900
C  57.63500 27.45800 44.42100
C  58.46700 28.62200 45.20200
N  52.47100 26.79700 44.66400
C  53.27900 27.83300 45.10100
C  52.49600 28.97300 45.40000
C  51.20000 28.70900 44.86400
C  51.21700 27.40400 44.37000
C  52.98200 30.22700 46.09000
C  49.88700 29.28800 44.59800
O  49.42200 30.42800 44.78000
C  49.20100 28.21400 43.69300
C  49.00500 28.78100 42.32200
O  49.87400 28.94100 41.40600
O  47.72300 29.22300 42.24500
C  47.31000 29.97400 41.10200
H  50.14000 21.48900 42.82700
H  56.58400 22.44500 44.03900
H  55.31700 28.42900 45.66700
H  47.82300 25.54900 43.58700
H  48.38200 23.01700 42.13000
H  48.49100 22.99600 45.05100
H  47.15200 22.33200 44.07400
H  47.12000 23.95500 44.58500
H  47.34200 26.61000 41.37200
H  47.20900 24.92800 40.94900
H  49.99500 25.75900 40.64000
H  48.90000 27.09200 40.05000
H  52.52900 19.13700 41.34800
H  51.19500 19.74300 42.35100
H  52.45500 18.68300 43.00000
H  57.51200 19.65700 42.06000
H  57.10700 20.26500 43.78300
H  57.07300 21.37500 42.37800
H  57.93600 24.89100 44.09900
H  57.01100 26.56600 46.33600
H  57.50500 23.10500 46.33400
H  58.00900 24.74900 46.91400
H  58.96600 23.81700 45.65800
H  56.81600 28.05300 44.01800
H  58.09900 27.02800 43.53300
H  59.53400 28.46500 45.04800
H  58.23600 28.48500 46.25800
H  58.03300 29.51900 44.75900
H  53.74300 30.07800 46.85600
H  52.14300 30.77600 46.52000
H  53.35900 30.99400 45.41300
H  48.23000 28.03600 44.15500
H  46.29200 30.32800 41.26600
H  47.32300 29.23300 40.30300
H  48.05100 30.72900 40.84100

