158

Mg -1.52300 17.38500 26.93700
C  -2.18400 15.07000 29.43400
C  -1.89900 19.90800 28.98000
C  -1.17900 19.46300 24.25600
C  -1.48100 14.64600 24.59600
N  -2.02800 17.39900 28.95800
C  -2.14500 16.36400 29.88900
C  -2.23100 16.95400 31.39200
C  -2.15500 18.57300 31.18900
C  -2.07400 18.68600 29.61400
C  -3.33100 19.31900 31.94900
C  -1.16600 16.28700 32.35300
C  -0.97500 16.89200 33.74600
H  -1.03800 15.96900 35.09600
N  -1.52000 19.43800 26.65300
C  -1.80400 20.29100 27.65800
C  -1.80000 21.61200 27.14000
C  -1.59400 21.49300 25.73400
C  -1.36700 20.09800 25.51200
C  -2.05500 22.85000 27.89200
C  -1.62300 22.63100 24.66400
O  -1.55500 22.38800 23.47400
C  -1.98500 23.99500 25.05300
N  -1.44600 17.00000 24.75600
C  -1.14200 18.08100 23.98100
C  -1.04200 17.62800 22.48700
C  -0.86500 15.99700 22.64700
C  -1.28400 15.86900 24.09600
C  -2.18800 18.08900 21.56000
C  0.59500 15.56400 22.36000
C  1.80900 16.34500 22.84100
N  -1.84000 15.22700 26.95300
C  -1.75800 14.23700 25.93600
C  -1.93700 12.95900 26.52800
C  -1.99200 13.23500 27.95100
C  -2.02000 14.65100 28.11700
C  -1.89200 11.62200 25.88600
C  -2.13500 12.57300 29.19100
O  -2.18300 11.39000 29.51900
C  -2.18000 13.69400 30.23900
C  -0.87800 13.60300 30.88800
O  0.23000 14.02800 30.51200
O  -1.07100 13.08300 32.09700
C  0.12200 12.94500 32.99300
H  -2.03300 20.61800 29.79900
H  -1.07600 20.05500 23.34400
H  -1.36700 13.86000 23.84600
H  -3.21200 16.61800 31.73000
H  -1.20400 18.77800 31.68100
H  -4.02800 19.65800 31.18300
H  -2.88900 20.19900 32.41700
H  -3.89400 18.67000 32.61900
H  -0.23400 16.18700 31.79700
H  -1.51600 15.29200 32.62700
H  -1.67500 17.71300 33.90300
H  0.01200 17.35300 33.75800
H  -1.28600 23.61100 27.76500
H  -2.02600 22.64200 28.96200
H  -2.99200 23.31700 27.58900
H  -1.90600 24.57500 24.13300
H  -1.20900 24.47300 25.65000
H  -2.95100 24.05000 25.55500
H  -0.10800 18.04500 22.11000
H  -1.58000 15.45000 22.03300
H  -2.25800 19.13300 21.25300
H  -3.10500 17.65500 21.95800
H  -2.30500 17.50400 20.64800
H  0.68800 15.69100 21.28100
H  0.81100 14.51100 22.53500
H  1.55200 17.13000 23.55200
H  2.35300 16.86000 22.04900
H  2.38700 15.75000 23.54800
H  -1.44700 11.63600 24.89200
H  -2.92600 11.27700 25.91400
H  -1.26900 10.96400 26.49200
H  -2.97900 13.56500 30.96900
H  0.62900 13.88400 33.21200
H  0.93600 12.30000 32.66000
H  -0.09800 12.41700 33.92100
Mg 43.79500 4.57400 47.09700
C  41.83900 7.60000 46.54300
C  41.02300 2.82900 46.23000
C  45.84800 1.97000 46.77700
C  46.67700 6.78600 47.08000
N  41.68600 5.18100 46.38100
C  41.09900 6.39100 46.55600
C  39.59800 6.23600 46.49100
C  39.42200 4.67600 46.54500
C  40.81100 4.15600 46.38700
C  38.66800 4.17200 47.78700
C  38.82700 6.94200 45.25100
C  39.59600 7.08200 43.98600
H  39.07800 6.22800 42.81800
N  43.44300 2.60600 46.70200
C  42.24800 2.05500 46.34100
C  42.47900 0.70000 46.05800
C  43.78100 0.41000 46.45800
C  44.42700 1.66600 46.71500
C  41.40300 -0.25700 45.53600
C  44.46000 -1.01500 46.54800
O  43.90600 -1.93900 46.01200
C  45.71300 -1.16700 47.34300
N  45.94300 4.38000 46.87500
C  46.50900 3.16100 46.93000
C  48.07900 3.25900 46.95900
C  48.34900 4.81000 46.98500
C  46.89900 5.40800 47.01900
C  48.67900 2.51300 48.26300
C  49.23900 5.34300 45.76100
C  50.43200 4.54700 45.30700
N  44.25600 6.74100 46.93400
C  45.45400 7.44700 46.96700
C  45.18500 8.86900 46.76400
C  43.77300 8.97200 46.62700
C  43.26600 7.67000 46.69800
C  46.14400 10.05100 46.68700
C  42.62500 9.91200 46.62500
O  42.65000 11.11400 46.66900
C  41.38000 9.05800 46.46800
C  40.42300 9.25900 47.60800
O  40.59500 8.72200 48.71900
O  39.41200 10.05800 47.21400
C  38.32300 10.13900 48.17100
H  40.12800 2.20300 46.21400
H  46.57800 1.16800 46.64800
H  47.53200 7.46500 47.08100
H  39.21300 6.64900 47.42400
H  38.77800 4.33100 45.73600
H  39.31600 3.85900 48.60500
H  38.12100 3.29900 47.43000
H  38.08500 4.98300 48.22400
H  38.48900 7.86800 45.71700
H  37.85000 6.49500 45.06700
H  40.62000 6.72400 44.08400
H  39.55900 8.13800 43.72100
H  40.41500 0.20100 45.50100
H  41.30900 -1.11000 46.20900
H  41.72700 -0.56400 44.54200
H  45.87400 -0.57900 48.24700
H  46.57800 -1.03400 46.69400
H  45.73100 -2.18300 47.73700
H  48.48800 2.75700 46.08200
H  48.82200 5.01100 47.94500
H  47.83600 2.14500 48.84800
H  49.41000 3.03000 48.88400
H  49.17000 1.62200 47.87100
H  49.61500 6.33100 46.02500
H  48.50900 5.43300 44.95600
H  50.27300 4.05200 44.34900
H  50.63000 3.73800 46.01000
H  51.37600 5.09300 45.29300
H  45.74400 10.66300 47.49500
H  46.14900 10.64900 45.77600
H  47.15100 9.71100 46.93000
H  41.01900 9.33700 45.47800
H  38.56800 9.73100 49.15200
H  37.40600 9.93200 47.61800
H  38.12800 11.18300 48.41700

