158

Mg 40.20400 9.31100 28.75700
C  42.13300 10.66800 31.37300
C  37.89100 8.35300 31.28200
C  38.49300 7.96700 26.38500
C  42.76400 10.19700 26.52800
N  39.99700 9.71900 31.10100
C  40.91600 10.31100 31.91000
C  40.55600 10.14400 33.38800
C  39.30800 9.18100 33.30500
C  39.02200 9.14000 31.76300
C  39.58800 7.78100 33.97600
C  40.25600 11.53100 34.11200
C  39.81500 11.30300 35.57000
H  40.80100 11.56300 36.66400
N  38.43700 8.30900 28.80600
C  37.67600 8.01300 29.88800
C  36.57900 7.13400 29.50300
C  36.70000 6.99200 28.07800
C  37.91300 7.76600 27.67300
C  35.65700 6.46200 30.46700
C  35.86200 6.15700 27.07400
O  36.07900 6.04700 25.89100
C  34.64300 5.47200 27.50300
N  40.63300 8.94500 26.72100
C  39.74000 8.47800 25.93500
C  40.01100 8.69600 24.43800
C  41.35500 9.47400 24.55500
C  41.61300 9.52700 26.01200
C  40.03200 7.48200 23.54500
C  41.40800 10.83200 23.80400
C  41.02200 12.16700 24.49800
N  42.09300 10.12000 28.84500
C  42.97800 10.47600 27.90700
C  44.16600 11.12300 28.49300
C  43.90400 11.20100 29.87200
C  42.59900 10.68100 29.99400
C  45.38700 11.46800 27.75200
C  44.42800 11.57800 31.08100
O  45.50600 12.00500 31.42200
C  43.35600 11.21500 32.11600
C  43.91400 10.29000 33.23100
O  43.97800 9.04600 33.15700
O  44.17900 10.94400 34.40100
C  44.58700 10.19300 35.54700
H  37.27700 7.84200 32.02700
H  37.83100 7.65800 25.57500
H  43.53000 10.57900 25.85000
H  41.48800 9.78400 33.82400
H  38.39800 9.60700 33.72900
H  38.99100 7.76000 34.88800
H  40.65300 7.72900 34.19900
H  39.29500 6.94500 33.34100
H  39.47400 12.06600 33.57300
H  41.15200 12.15100 34.07800
H  39.57300 10.24400 35.65500
H  38.95700 11.90100 35.87900
H  36.15300 5.61200 30.93500
H  34.77000 5.95700 30.08500
H  35.27700 7.14400 31.22700
H  34.03800 5.09100 26.68000
H  34.05500 6.08500 28.18500
H  34.88000 4.57500 28.07500
H  39.21800 9.39600 24.17700
H  42.22500 9.00700 24.09500
H  40.68200 7.60600 22.67900
H  39.03200 7.44700 23.11200
H  40.18900 6.56600 24.11500
H  41.01200 10.69900 22.79800
H  42.48300 10.89900 23.63600
H  40.90000 11.92400 25.55300
H  40.21400 12.60000 23.90700
H  41.87000 12.85200 24.50100
H  45.59800 12.53600 27.81100
H  45.33900 11.19500 26.69700
H  46.08600 10.87400 28.33900
H  43.15400 12.11700 32.69400
H  45.43100 10.72200 35.98800
H  44.78800 9.14200 35.33800
H  43.83000 10.18200 36.33100
Mg 55.32500 22.09500 44.39900
C  53.02500 24.88500 43.70900
C  53.09300 19.97700 43.09700
C  57.81300 19.79200 43.95700
C  57.72700 24.57300 45.18900
N  53.30700 22.47600 43.39400
C  52.50000 23.55700 43.29500
C  51.12100 23.17000 42.75700
C  51.14600 21.61600 42.90900
C  52.59400 21.31900 43.16100
C  50.22100 21.13400 44.06400
C  50.92100 23.65300 41.26200
C  52.10600 23.86400 40.34800
H  51.92400 24.85700 39.20700
N  55.46700 20.15900 43.63300
C  54.35600 19.43200 43.25000
C  54.74100 17.99900 43.14200
C  56.08700 17.94800 43.54100
C  56.57000 19.28100 43.67200
C  53.70800 16.89700 42.88000
C  56.85700 16.64100 43.62500
O  56.21900 15.62400 43.54900
C  58.33400 16.43700 43.84400
N  57.49300 22.20000 44.38500
C  58.24200 21.09000 44.20800
C  59.70700 21.42600 44.57400
C  59.68500 22.95200 44.89700
C  58.19400 23.29500 44.80800
C  60.31800 20.56700 45.70200
C  60.47200 23.91600 43.91400
C  61.82200 24.29400 44.39200
N  55.37900 24.25200 44.59300
C  56.45100 25.06300 45.03300
C  55.94100 26.43300 45.17200
C  54.62200 26.44600 44.55900
C  54.33000 25.08300 44.26600
C  56.81700 27.61600 45.49700
C  53.49900 27.27000 44.20100
O  53.29700 28.46000 44.39000
C  52.40900 26.28000 43.64600
C  51.84900 26.76900 42.28600
O  52.47600 27.03100 41.28700
O  50.51100 27.00900 42.39200
C  49.81900 27.68400 41.24000
H  52.35600 19.20400 42.86900
H  58.61500 19.05200 44.00300
H  58.50200 25.23700 45.57800
H  50.45200 23.71200 43.42600
H  50.69400 21.09300 42.06500
H  49.46200 20.48600 43.62700
H  49.67000 21.95900 44.51500
H  50.87400 20.70500 44.82400
H  50.24900 24.51100 41.29500
H  50.40900 22.80300 40.81100
H  52.36900 22.86300 40.00800
H  52.97200 24.20900 40.91500
H  53.53700 16.78300 41.81000
H  52.74300 17.28500 43.20800
H  53.75400 15.92300 43.36700
H  58.62800 16.85500 44.80700
H  58.82100 16.98700 43.03900
H  58.48900 15.36200 43.74400
H  60.36000 21.32100 43.70800
H  59.96200 23.09600 45.94100
H  61.38600 20.42000 45.54200
H  59.74000 19.66600 45.90900
H  60.37700 21.17900 46.60200
H  59.87600 24.75200 43.55000
H  60.52500 23.32900 42.99700
H  62.58700 23.87100 43.74100
H  62.04300 23.89300 45.38100
H  62.00400 25.36800 44.35300
H  57.51300 27.55300 46.33400
H  56.27800 28.56300 45.53600
H  57.42500 27.68700 44.59500
H  51.55000 26.24100 44.31700
H  49.96100 28.73400 41.49600
H  48.77700 27.36900 41.18800
H  50.30300 27.46800 40.28800

