158

Mg 35.58800 2.15800 29.90600
C  33.25300 3.08100 32.29700
C  37.95700 2.03600 32.41700
C  37.98000 1.43100 27.57300
C  33.25000 2.62400 27.43900
N  35.63000 2.67800 32.01600
C  34.48800 2.84700 32.86000
C  34.86900 2.69400 34.36500
C  36.42100 2.63700 34.33700
C  36.71000 2.43200 32.83000
C  37.18500 3.80900 34.97800
C  34.16500 1.44500 35.06500
C  33.63900 1.71700 36.46000
H  34.31900 2.73300 37.34000
N  37.71800 1.76300 29.98900
C  38.47800 1.79400 31.06500
C  39.88000 1.42700 30.70800
C  39.87700 1.19600 29.30500
C  38.46200 1.45500 28.87200
C  40.97800 1.49100 31.73400
C  41.14300 0.92000 28.34900
O  41.05500 0.69700 27.13900
C  42.48200 0.80300 28.94000
N  35.63100 2.08000 27.83100
C  36.76000 1.77600 27.04400
C  36.36600 1.80600 25.57300
C  34.88200 2.11200 25.57100
C  34.50800 2.22600 27.03800
C  37.22100 2.75300 24.79800
C  33.96100 1.04100 24.85300
C  33.35200 -0.22200 25.61700
N  33.60000 2.67700 29.86100
C  32.78300 2.78000 28.78500
C  31.51400 3.13200 29.27300
C  31.60600 3.24600 30.67700
C  32.91700 3.00200 30.93000
C  30.37900 3.65000 28.49000
C  30.93800 3.64000 31.81800
O  29.76500 3.91500 32.04600
C  32.00000 3.43800 32.97300
C  32.15300 4.78300 33.68900
O  32.39800 5.82700 33.18400
O  31.95900 4.70500 35.02100
C  32.19000 6.01500 35.71500
H  38.79100 2.03900 33.12200
H  38.74400 1.17300 26.83700
H  32.46000 2.81300 26.70900
H  34.53100 3.57700 34.90700
H  36.78300 1.74300 34.84500
H  37.94700 3.51100 35.69800
H  36.51900 4.40200 35.60500
H  37.60400 4.43600 34.19000
H  34.81200 0.57600 35.18400
H  33.33700 1.07800 34.45800
H  33.60300 0.80800 37.06000
H  32.61500 2.04900 36.29300
H  41.74300 0.71600 31.67600
H  40.62400 1.48400 32.76500
H  41.44200 2.47400 31.65400
H  42.58400 1.80200 29.36400
H  43.22400 0.66400 28.15400
H  42.57000 -0.01700 29.65400
H  36.69600 0.85100 25.16400
H  34.61400 3.07100 25.12800
H  36.73400 3.26800 23.97000
H  38.10200 2.21500 24.44700
H  37.57900 3.53500 25.46700
H  34.40800 0.80600 23.88700
H  33.02500 1.55800 24.64400
H  33.87000 -0.30900 26.57200
H  33.56900 -1.15600 25.09700
H  32.26500 -0.15800 25.65400
H  30.54000 3.68000 27.41200
H  30.17500 4.69000 28.74300
H  29.46800 3.05600 28.56500
H  31.60600 2.77100 33.73900
H  31.38600 6.74900 35.75900
H  33.07900 6.54900 35.38000
H  32.39700 5.85000 36.77200
Mg 41.04100 41.77700 26.46900
C  40.36400 43.87500 29.26000
C  42.50500 39.65500 28.54100
C  42.06600 40.05500 23.71200
C  39.83300 44.34100 24.42400
N  41.39200 41.76700 28.68000
C  40.84800 42.63600 29.60700
C  40.97600 42.09900 31.01300
C  41.91600 40.84000 30.75700
C  41.93100 40.68400 29.23700
C  43.38600 40.92000 31.22700
C  39.65500 41.92100 31.82700
C  39.80900 41.26800 33.25000
H  39.00000 41.87800 34.34400
N  42.06700 40.08800 26.21500
C  42.58000 39.32000 27.16100
C  43.08000 38.09000 26.58800
C  42.87000 38.19800 25.20500
C  42.35800 39.50600 24.97800
C  43.68100 36.96900 27.38700
C  43.09300 37.14500 24.19300
O  42.84800 37.25200 23.00600
C  43.67200 35.82400 24.62400
N  40.90700 42.12700 24.40100
C  41.44000 41.29000 23.44700
C  41.25400 41.87100 22.01400
C  40.18700 43.02600 22.30000
C  40.27600 43.21600 23.78000
C  42.65200 42.38400 21.41100
C  38.70400 42.77300 21.84200
C  38.13900 41.46700 22.25400
N  40.26400 43.71300 26.68800
C  39.87800 44.65500 25.78900
C  39.62700 45.88700 26.43400
C  39.74200 45.62600 27.78700
C  40.15800 44.27700 27.92200
C  39.21400 47.14200 25.79100
C  39.63400 46.23100 29.09200
O  39.35600 47.31500 29.44200
C  40.02000 45.13300 30.13600
C  41.16600 45.57600 31.02000
O  42.31800 45.66000 30.64800
O  40.81200 45.87400 32.26000
C  41.92800 46.19800 33.20100
H  42.67500 38.81000 29.21100
H  42.29000 39.47800 22.81300
H  39.44000 45.17600 23.84000
H  41.62800 42.84800 31.46300
H  41.41700 39.96800 31.17700
H  44.16700 40.86900 30.46800
H  43.46700 40.10800 31.94900
H  43.47100 41.81600 31.84300
H  39.02500 41.34800 31.14700
H  39.18200 42.88000 32.04200
H  40.87900 41.27800 33.46000
H  39.48400 40.23000 33.17700
H  44.48000 36.59900 26.74400
H  42.88700 36.28700 27.69100
H  44.21200 37.42600 28.22200
H  43.21300 35.34000 25.48600
H  44.75700 35.91900 24.68100
H  43.56000 35.19300 23.74200
H  40.78400 41.11400 21.38600
H  40.57900 43.93500 21.84300
H  42.65900 43.47300 21.36300
H  42.82100 41.99200 20.40800
H  43.49600 42.13800 22.05600
H  38.60300 42.89700 20.76400
H  38.01100 43.53900 22.19100
H  37.12500 41.52800 22.64800
H  38.65700 40.97600 23.07800
H  38.18300 40.87200 21.34200
H  39.74200 47.22500 24.84100
H  39.44400 48.00800 26.41100
H  38.13900 47.28600 25.68800
H  39.17500 44.93900 30.79700
H  42.54600 46.96000 32.72700
H  42.40700 45.22700 33.32600
H  41.48000 46.63300 34.09400

