158

Mg 24.22300 -6.90000 46.77000
C  26.80300 -4.77800 45.83000
C  22.23800 -5.40900 44.46400
C  22.28000 -9.61900 46.90700
C  26.71500 -8.80600 48.65100
N  24.52800 -5.36300 45.38500
C  25.60600 -4.53700 45.22700
C  25.34800 -3.47100 44.14900
C  23.78300 -3.48900 43.89900
C  23.45200 -4.78700 44.66800
C  23.10900 -2.20300 44.50100
C  26.15400 -3.69900 42.84700
C  26.47000 -2.48600 41.91800
H  25.68600 -2.46400 40.51300
N  22.42100 -7.33100 45.88600
C  21.70700 -6.62400 44.97700
C  20.46000 -7.30100 44.73300
C  20.37000 -8.50900 45.46600
C  21.74200 -8.55100 46.17700
C  19.43600 -6.86900 43.82600
C  19.24500 -9.53200 45.49700
O  18.19900 -9.30500 44.92500
C  19.32400 -10.71200 46.44600
N  24.56700 -8.98900 47.39700
C  23.48400 -9.79300 47.59200
C  23.85700 -11.10300 48.37300
C  25.32500 -10.92300 48.76000
C  25.54400 -9.40200 48.27100
C  22.94700 -11.57500 49.51000
C  26.29600 -11.89300 48.06000
C  26.86400 -12.95600 48.87900
N  26.30200 -6.73700 47.38700
C  27.11100 -7.54200 48.19700
C  28.42400 -6.91700 48.26400
C  28.39100 -5.77800 47.35900
C  27.07300 -5.71700 46.83600
C  29.60300 -7.45500 49.08800
C  29.08600 -4.67100 46.78500
O  30.23000 -4.29700 46.91700
C  28.19900 -4.00000 45.72400
C  28.23700 -2.46500 45.97900
O  29.12900 -1.75200 45.54300
O  27.19900 -2.16600 46.74500
C  27.12300 -0.73700 47.09000
H  21.59700 -5.00300 43.67900
H  21.86300 -10.61600 47.06600
H  27.28600 -9.32600 49.42400
H  25.63400 -2.49100 44.53100
H  23.38400 -3.62800 42.89400
H  22.47400 -2.34700 45.37500
H  22.48600 -1.70700 43.75600
H  23.71500 -1.39400 44.91000
H  25.55200 -4.40900 42.28000
H  27.14200 -4.13100 43.00000
H  27.52500 -2.47700 41.64400
H  26.24900 -1.63600 42.56300
H  18.65800 -6.34100 44.37700
H  18.94700 -7.67900 43.28500
H  19.83300 -6.14500 43.11400
H  19.63400 -10.43800 47.45400
H  20.05100 -11.40500 46.02100
H  18.35200 -11.16100 46.64900
H  23.72300 -11.89800 47.64000
H  25.43600 -10.96000 49.84300
H  22.69700 -12.63500 49.46800
H  21.97200 -11.08600 49.48600
H  23.33200 -11.30200 50.49200
H  27.21600 -11.34900 47.84500
H  25.95900 -12.20200 47.07000
H  27.00200 -13.84900 48.26900
H  26.14800 -13.24000 49.65000
H  27.79100 -12.64700 49.36200
H  29.36200 -8.50300 49.26300
H  29.44700 -7.00800 50.07000
H  30.61000 -7.36600 48.68000
H  28.73800 -4.23500 44.80600
H  28.06800 -0.33400 47.45400
H  26.44100 -0.36800 47.85600
H  26.90500 -0.18400 46.17600
Mg -6.18100 26.04300 25.97800
C  -4.78700 27.51300 28.73100
C  -7.81100 23.83800 27.96600
C  -7.65400 24.80000 23.23500
C  -4.17800 28.10100 23.89300
N  -6.17800 25.67100 28.14300
C  -5.67600 26.45700 29.08500
C  -6.06500 26.03700 30.50600
C  -6.88700 24.70700 30.18100
C  -7.00700 24.74800 28.64700
C  -6.27000 23.39500 30.60400
C  -6.77000 27.05700 31.41300
C  -6.56600 26.90100 32.91500
H  -6.07500 25.62300 33.56600
N  -7.50500 24.48600 25.62300
C  -8.06500 23.72500 26.56500
C  -9.10300 22.96200 25.97600
C  -8.98200 23.07400 24.54900
C  -8.06500 24.19700 24.38800
C  -9.95700 22.03500 26.89400
C  -9.65300 22.31600 23.48500
O  -9.64300 22.67500 22.30500
C  -10.50600 21.06600 23.90500
N  -5.71000 26.15300 23.83500
C  -6.59000 25.64000 22.88100
C  -6.49600 26.27400 21.50500
C  -5.49100 27.41600 21.78700
C  -5.09000 27.23800 23.24200
C  -6.19200 25.37400 20.27900
C  -6.06600 28.83400 21.46400
C  -6.50700 29.06500 19.99800
N  -4.74800 27.47900 26.20200
C  -4.02400 28.23700 25.27800
C  -3.19900 29.18300 26.04700
C  -3.51900 28.92200 27.42400
C  -4.39500 27.86100 27.45400
C  -2.32800 30.26900 25.54400
C  -3.09600 29.38700 28.74700
O  -2.41900 30.34900 29.06400
C  -3.95000 28.42300 29.71800
C  -3.01800 27.65400 30.61400
O  -1.97500 27.08200 30.24100
O  -3.43200 27.73200 31.89100
C  -2.50800 27.10100 32.79900
H  -8.39600 23.28200 28.70200
H  -8.02500 24.45200 22.26900
H  -3.60800 28.81200 23.29200
H  -5.09800 25.69800 30.87900
H  -7.88800 24.65300 30.60800
H  -7.05300 22.65800 30.78100
H  -5.66800 23.45800 31.51000
H  -5.70300 22.90300 29.81300
H  -7.84600 26.91300 31.31700
H  -6.50100 28.04600 31.03900
H  -7.46800 27.12600 33.48500
H  -5.94200 27.74200 33.21800
H  -10.84400 21.70400 26.35400
H  -10.39800 22.56500 27.73800
H  -9.45000 21.16300 27.30800
H  -10.44800 20.37500 23.06400
H  -11.53900 21.31300 24.15100
H  -10.10500 20.40500 24.67300
H  -7.50000 26.65800 21.32300
H  -4.54700 27.32000 21.24900
H  -6.29300 24.29300 20.37500
H  -5.12300 25.33500 20.07000
H  -6.71100 25.77200 19.40800
H  -5.27600 29.57700 21.57800
H  -6.86700 29.09500 22.15500
H  -7.53600 29.38300 19.83200
H  -6.27800 28.20100 19.37400
H  -5.88600 29.88200 19.63100
H  -2.95100 31.16100 25.47700
H  -1.77600 29.86700 24.69400
H  -1.65400 30.53700 26.35700
H  -4.44700 29.16600 30.34200
H  -2.16500 26.16300 32.36300
H  -3.08000 26.94100 33.71300
H  -1.70000 27.80900 32.98400

