158

Mg -2.16000 17.44400 27.21800
C  -2.40600 15.41800 30.09000
C  -2.56200 20.14500 29.14400
C  -1.75700 19.17400 24.35800
C  -1.76500 14.44500 25.15700
N  -2.36900 17.73300 29.42200
C  -2.52200 16.77700 30.39700
C  -2.73100 17.37400 31.83000
C  -2.90200 18.93200 31.44900
C  -2.65400 18.97700 29.91200
C  -4.22900 19.57800 31.92400
C  -1.54200 16.99700 32.73200
C  -1.09600 18.05400 33.72900
H  -0.32000 17.51800 34.94500
N  -2.20600 19.43300 26.78000
C  -2.31200 20.44000 27.73700
C  -2.23300 21.75200 27.06600
C  -2.04500 21.47800 25.67800
C  -1.88500 19.96100 25.55400
C  -2.35700 23.10700 27.84800
C  -1.91700 22.42700 24.48000
O  -1.79100 22.08800 23.29500
C  -1.94100 23.96700 24.69400
N  -1.96900 16.93500 24.94800
C  -1.82100 17.88300 24.07100
C  -1.86000 17.31200 22.63400
C  -1.53200 15.78600 23.01600
C  -1.79500 15.61500 24.45200
C  -3.18800 17.45700 21.85000
C  -0.15900 15.43600 22.46400
C  0.95300 16.15800 23.24700
N  -2.06400 15.37800 27.50400
C  -2.00100 14.24300 26.57300
C  -2.29200 13.04800 27.34100
C  -2.41200 13.37100 28.64400
C  -2.29200 14.83900 28.75900
C  -2.36600 11.68200 26.69900
C  -2.56400 12.90100 29.94600
O  -2.82300 11.71700 30.27500
C  -2.51700 14.17700 30.93200
C  -1.25200 14.05600 31.73900
O  -0.14300 14.32800 31.40200
O  -1.60600 13.61300 33.01500
C  -0.51000 13.77500 34.02700
H  -2.54000 21.11200 29.65100
H  -1.65900 19.75300 23.43700
H  -1.43900 13.61500 24.52700
H  -3.65800 17.04300 32.29900
H  -2.14300 19.57700 31.89300
H  -4.88100 19.67900 31.05600
H  -3.97600 20.54900 32.35200
H  -4.74600 18.96100 32.65900
H  -0.71700 16.75700 32.06000
H  -1.87800 16.13800 33.31300
H  -1.97500 18.61000 34.05300
H  -0.51400 18.83600 33.24100
H  -1.53900 23.76200 27.54900
H  -2.22000 22.99300 28.92300
H  -3.22000 23.68100 27.51000
H  -1.70100 24.35200 23.70300
H  -1.17100 24.16700 25.44000
H  -2.98000 24.22100 24.90400
H  -1.11500 17.75400 21.97400
H  -2.29900 15.17000 22.54600
H  -3.78200 18.04100 22.55200
H  -3.71000 16.55200 21.54000
H  -2.99900 18.07600 20.97200
H  -0.21100 15.70600 21.41000
H  -0.04500 14.35300 22.44400
H  0.62600 16.19200 24.28600
H  1.09600 17.16800 22.86300
H  1.84200 15.54900 23.07900
H  -3.12100 11.77700 25.91900
H  -2.70500 10.93300 27.41500
H  -1.41000 11.36700 26.28000
H  -3.38500 14.12400 31.58900
H  -0.45800 14.72200 34.56400
H  0.49100 13.59400 33.63500
H  -0.62100 13.08200 34.86100
Mg 40.81700 9.90700 30.07500
C  42.38300 10.95200 32.94500
C  38.04600 8.90300 31.87900
C  39.52000 8.66700 27.15800
C  43.49900 11.23900 28.21200
N  40.35900 9.71800 32.21000
C  41.09300 10.34200 33.14600
C  40.31800 10.51200 34.45000
C  39.09900 9.63700 34.19400
C  39.09000 9.45500 32.63000
C  38.90700 8.28300 34.98300
C  40.05600 11.99900 34.76200
C  39.56300 12.20500 36.15500
H  40.44600 13.02100 37.09700
N  39.02700 8.94900 29.59300
C  38.00200 8.56800 30.45900
C  37.04700 7.69300 29.67500
C  37.46000 7.66700 28.33500
C  38.69400 8.48700 28.28400
C  35.86300 7.06900 30.28700
C  36.82200 6.96900 27.15500
O  37.24100 7.15600 26.06600
C  35.61200 6.26300 27.30400
N  41.47300 9.89200 27.95100
C  40.67000 9.37600 26.98900
C  41.27100 9.69200 25.64400
C  42.40600 10.77900 25.99200
C  42.48000 10.69400 27.45200
C  41.73000 8.47900 24.72800
C  42.13000 12.21400 25.43600
C  41.01600 12.97500 26.14100
N  42.68500 10.69900 30.44900
C  43.63500 11.20400 29.59500
C  44.74400 11.67700 30.40300
C  44.30100 11.64400 31.71200
C  43.02800 11.09600 31.71600
C  45.98500 12.26600 29.85300
C  44.57600 12.03200 33.05200
O  45.58400 12.57600 33.56000
C  43.33500 11.60000 33.91600
C  43.80400 10.66300 34.94300
O  44.49600 9.64800 34.65500
O  43.40800 11.13800 36.21800
C  43.66700 10.21100 37.31900
H  37.10100 8.63200 32.35400
H  39.29200 8.16400 26.21500
H  44.27600 11.63700 27.55700
H  40.80100 10.02200 35.29500
H  38.22800 10.17500 34.56900
H  39.84600 8.16000 35.52200
H  38.76500 7.42300 34.32800
H  38.09100 8.44500 35.68800
H  39.31200 12.40800 34.07800
H  40.96800 12.58000 34.62800
H  39.44800 11.31900 36.78000
H  38.59800 12.70600 36.07400
H  35.09700 7.83500 30.17600
H  35.99300 6.88900 31.35500
H  35.66700 6.06600 29.90600
H  35.42100 5.98400 26.26700
H  34.85400 7.02200 27.49400
H  35.62300 5.34100 27.88400
H  40.56300 10.30300 25.08400
H  43.38500 10.42800 25.66500
H  41.30700 7.54400 25.09600
H  42.80600 8.31600 24.66000
H  41.31700 8.73100 23.75100
H  41.92500 12.01500 24.38400
H  43.03400 12.81300 25.54100
H  41.31900 13.99300 26.38800
H  40.55200 12.48100 26.99500
H  40.23600 13.07100 25.38700
H  46.66400 12.44500 30.68700
H  45.64800 13.05400 29.18000
H  46.51600 11.54800 29.22900
H  43.03100 12.53300 34.39100
H  44.46600 9.49200 37.13900
H  42.74000 9.74900 37.65800
H  43.99600 10.86100 38.13000

