158

Mg 47.79400 14.61800 28.85400
C  45.67200 14.63400 31.59200
C  49.93300 16.80600 30.68000
C  49.34800 15.63000 26.02800
C  45.32200 12.93400 27.00300
N  47.77000 15.64700 30.91500
C  46.86700 15.38900 31.89300
C  47.32700 15.98400 33.18300
C  48.50100 16.91300 32.78500
C  48.71600 16.52000 31.34100
C  48.25600 18.49700 32.98100
C  47.66500 14.98100 34.36000
C  46.96200 15.25300 35.70700
H  47.46700 16.46700 36.51600
N  49.49600 15.94700 28.36300
C  50.24700 16.60000 29.33400
C  51.38100 17.19100 28.62800
C  51.24000 16.97900 27.19800
C  50.01600 16.14200 27.08700
C  52.51600 17.95500 29.39700
C  52.10700 17.46800 26.06700
O  51.90500 17.26700 24.89100
C  53.38800 18.26800 26.29200
N  47.42700 14.34600 26.84500
C  48.19900 14.89800 25.89200
C  47.81000 14.30100 24.51700
C  46.70400 13.25400 24.92700
C  46.44000 13.47300 26.35400
C  47.42200 15.46000 23.46100
C  47.12800 11.74000 24.68800
C  47.89300 11.10300 25.85200
N  45.85700 13.95800 29.13700
C  44.94300 13.25400 28.29200
C  43.76600 12.85700 29.09700
C  44.00700 13.36400 30.39500
C  45.28700 14.02500 30.38100
C  42.65200 12.04100 28.69500
C  43.39400 13.60600 31.67800
O  42.35900 13.27800 32.22000
C  44.56200 14.28800 32.54100
C  44.00800 15.40200 33.25300
O  43.98700 16.58500 32.85000
O  43.48400 15.01800 34.42200
C  42.44100 16.02000 34.97400
H  50.67200 17.37300 31.24900
H  49.78400 15.97700 25.08900
H  44.59000 12.29400 26.50700
H  46.46600 16.53900 33.55600
H  49.43600 16.71500 33.30900
H  48.95100 18.95500 33.68500
H  47.26100 18.59100 33.41600
H  48.33800 19.04800 32.04500
H  48.74300 14.96600 34.52500
H  47.42800 13.93400 34.17100
H  47.24900 14.39000 36.30700
H  45.88600 15.39100 35.59500
H  52.58400 18.91000 28.87800
H  53.43600 17.37900 29.29200
H  52.35300 18.25200 30.43300
H  53.25500 19.32000 26.54100
H  54.03800 18.19700 25.42000
H  53.80900 17.68800 27.11300
H  48.63500 13.68500 24.16100
H  45.75300 13.49900 24.45500
H  46.34500 15.38800 23.30800
H  47.90800 15.26300 22.50500
H  47.80900 16.43400 23.76000
H  47.61700 11.63400 23.72000
H  46.20200 11.18500 24.53200
H  48.50900 11.89300 26.28300
H  48.68700 10.49800 25.41600
H  47.23800 10.78600 26.66400
H  42.62200 11.85200 27.62200
H  41.80200 12.58200 29.11000
H  42.64300 11.10300 29.25000
H  44.88900 13.55100 33.27400
H  42.52500 17.01400 34.53400
H  42.56200 16.06900 36.05600
H  41.41800 15.70500 34.76600
Mg -4.74900 24.86800 26.84900
C  -3.60300 26.89300 29.58800
C  -5.97300 22.60800 29.11500
C  -5.83800 23.02900 24.21400
C  -3.55700 27.33300 24.74600
N  -4.87200 24.85800 29.07600
C  -4.34500 25.75100 30.02500
C  -4.75600 25.26700 31.44600
C  -5.25900 23.80800 31.25500
C  -5.34600 23.73600 29.72500
C  -4.39800 22.69800 31.89000
C  -5.90800 26.24600 32.04000
C  -5.86400 26.51200 33.54500
H  -5.70200 25.18800 34.28600
N  -5.58700 23.00100 26.66400
C  -6.06800 22.30500 27.76300
C  -6.66100 21.02200 27.25100
C  -6.64900 21.16600 25.83000
C  -5.97600 22.40600 25.46400
C  -7.30800 19.96200 28.07800
C  -7.11400 20.19100 24.75300
O  -6.73000 20.30400 23.55900
C  -7.76600 18.87300 25.13800
N  -4.74700 25.17200 24.72200
C  -5.35200 24.30700 23.87300
C  -5.47500 24.90800 22.46900
C  -4.55600 26.21400 22.66600
C  -4.32000 26.29100 24.11200
C  -4.96800 23.99500 21.29600
C  -5.05500 27.56200 22.08200
C  -5.67000 27.43200 20.67200
N  -3.63600 26.61300 27.01800
C  -3.24900 27.56800 26.10300
C  -2.54500 28.66200 26.66800
C  -2.66700 28.43700 28.10100
C  -3.33200 27.17500 28.22600
C  -1.71400 29.77000 25.96000
C  -2.28600 28.97900 29.38800
O  -1.61700 29.94800 29.69800
C  -2.90900 27.98500 30.43200
C  -1.78500 27.39800 31.30600
O  -0.91400 26.56500 30.99600
O  -1.96300 27.78200 32.58200
C  -0.91800 27.24300 33.51400
H  -6.41000 21.85600 29.77600
H  -6.29700 22.60000 23.32000
H  -3.20000 28.07000 24.02400
H  -3.85700 25.35600 32.05600
H  -6.21900 23.73100 31.76600
H  -4.87700 22.64400 32.86700
H  -3.33400 22.88900 32.02500
H  -4.53800 21.76600 31.34300
H  -6.87200 25.79700 31.80200
H  -5.91300 27.23800 31.58700
H  -6.75300 27.04100 33.88900
H  -4.99700 27.14700 33.72800
H  -6.83800 18.98000 28.02600
H  -8.34000 19.83900 27.74900
H  -7.54100 20.28800 29.09200
H  -8.00800 18.36500 24.20500
H  -8.78500 19.14700 25.41500
H  -7.24500 18.33600 25.93000
H  -6.53700 25.08800 22.29900
H  -3.61600 26.00100 22.15600
H  -4.34700 24.63500 20.66900
H  -5.82900 23.65000 20.72500
H  -4.33200 23.15900 21.58600
H  -4.23800 28.26900 21.93600
H  -5.74400 28.13100 22.70700
H  -5.05800 27.88000 19.88900
H  -6.67200 27.85500 20.74500
H  -5.92700 26.44500 20.28700
H  -1.96500 30.70500 26.46200
H  -2.09900 29.84900 24.94300
H  -0.65300 29.55600 26.09000
H  -3.55500 28.52700 31.12300
H  0.05900 27.20500 33.03100
H  -1.05300 26.18300 33.73100
H  -0.76900 27.95400 34.32700

