158

Mg 47.57900 24.57000 29.09400
C  48.45400 26.96400 31.53200
C  46.35500 22.60900 31.64100
C  46.77800 22.39800 26.78600
C  48.96000 26.58200 26.71000
N  47.42500 24.84400 31.32300
C  47.74800 25.88400 32.09400
C  47.30900 25.75100 33.59000
C  46.82000 24.20400 33.65500
C  46.89900 23.85000 32.14200
C  47.70100 23.31700 34.62500
C  46.15800 26.73700 33.96700
C  46.66200 27.71300 35.07900
H  47.08000 26.98100 36.41700
N  46.72300 22.69700 29.15200
C  46.25700 22.09700 30.35200
C  45.65100 20.85300 29.93600
C  45.59000 20.90200 28.47600
C  46.34300 22.05500 28.09100
C  45.06900 19.77600 30.91300
C  44.90900 19.89100 27.46300
O  45.10600 19.96000 26.23500
C  43.91600 18.84500 27.88700
N  48.09400 24.38000 27.10800
C  47.62100 23.39300 26.34300
C  48.09500 23.52300 24.87300
C  48.65500 24.98400 24.83500
C  48.57100 25.34600 26.31000
C  49.25800 22.50800 24.63400
C  47.89400 25.93000 23.97500
C  48.79500 27.01500 23.35200
N  48.53500 26.36500 29.03700
C  49.04300 27.11700 27.99600
C  49.48700 28.40700 28.39000
C  49.29800 28.33400 29.76900
C  48.72800 27.08000 30.13400
C  50.23700 29.39800 27.56900
C  49.63500 29.04400 30.97900
O  50.12000 30.15700 31.08700
C  49.04000 28.27700 32.14500
C  50.03000 27.98900 33.19800
O  50.81300 27.08800 33.31700
O  49.86300 28.98900 34.13500
C  50.62200 28.73800 35.42100
H  45.97800 21.92300 32.40200
H  46.39500 21.93600 25.87400
H  49.20600 27.27700 25.90400
H  48.26400 25.89900 34.09400
H  45.75100 24.23900 33.86800
H  48.57700 22.88700 34.13900
H  46.99100 22.58900 35.01700
H  47.98800 23.89500 35.50300
H  45.28000 26.18100 34.29600
H  45.91400 27.34200 33.09300
H  45.89600 28.48300 35.16600
H  47.53900 28.16800 34.61900
H  45.18800 18.77300 30.50200
H  44.01400 19.95600 31.12000
H  45.47200 19.92500 31.91500
H  43.11300 19.28300 28.48000
H  44.50500 18.16900 28.50700
H  43.51600 18.22000 27.08900
H  47.21700 23.20400 24.31100
H  49.72500 25.06600 24.64600
H  50.11000 23.11800 24.33500
H  48.90900 21.87600 23.81700
H  49.41500 21.98600 25.57800
H  47.03900 26.41600 24.44500
H  47.47000 25.36800 23.14300
H  48.37200 28.01900 23.40500
H  48.94700 26.76800 22.30100
H  49.83400 27.05900 23.67600
H  50.34400 30.29000 28.18600
H  49.76100 29.64000 26.61800
H  51.22000 28.99700 27.32300
H  48.11900 28.75000 32.48600
H  50.13100 27.95100 35.99300
H  50.72900 29.58700 36.09600
H  51.65800 28.44600 35.25500
Mg 48.42200 34.10500 27.43700
C  46.36200 32.62800 29.98900
C  48.38900 36.99300 29.46500
C  49.22800 35.89200 24.78400
C  47.78200 31.28200 25.57500
N  47.58300 34.68700 29.47100
C  47.02800 33.82000 30.36600
C  47.03300 34.39200 31.78400
C  47.21200 35.96500 31.48000
C  47.73900 35.90500 30.02100
C  45.80200 36.74300 31.59300
C  48.22400 33.88300 32.62400
C  48.15500 34.21700 34.12300
H  47.03000 35.10300 34.75500
N  48.93100 36.13300 27.17900
C  48.83600 37.13800 28.12400
C  49.47100 38.35800 27.50600
C  49.67600 38.10500 26.10000
C  49.29900 36.67700 25.95300
C  49.71000 39.62100 28.30000
C  50.04600 39.01000 24.98100
O  50.28900 38.48000 23.90300
C  50.26400 40.43400 25.24400
N  48.57400 33.62200 25.47100
C  49.00100 34.53000 24.52600
C  48.96500 33.84500 23.10100
C  48.83200 32.29800 23.44500
C  48.42400 32.39800 24.93900
C  47.84500 34.48000 22.18300
C  50.04300 31.33200 23.03400
C  51.25300 31.10300 23.93900
N  47.43700 32.27000 27.65000
C  47.19400 31.30600 26.77700
C  46.41700 30.27200 27.44300
C  45.85700 30.88200 28.53300
C  46.58200 32.04200 28.72200
C  46.13100 28.90200 26.96200
C  44.96100 30.67400 29.67400
O  44.26700 29.68700 29.98600
C  45.16700 31.91300 30.63400
C  45.43900 31.38800 31.99800
O  46.47300 30.90800 32.43300
O  44.29700 31.62900 32.61200
C  44.14600 31.22300 34.03800
H  48.50300 37.86500 30.11300
H  49.35500 36.44700 23.85200
H  47.74700 30.44000 24.88100
H  46.09300 34.16500 32.28600
H  47.88500 36.54800 32.10800
H  45.67200 37.27500 30.65100
H  45.89200 37.42300 32.44000
H  44.92100 36.11400 31.72700
H  49.18500 34.26100 32.27600
H  48.32400 32.80300 32.51100
H  49.08000 34.72500 34.39500
H  48.26200 33.29000 34.68600
H  48.75600 39.88800 28.75500
H  50.05400 40.48100 27.72600
H  50.39300 39.38900 29.11800
H  49.40800 40.90400 25.72900
H  50.63500 40.92700 24.34500
H  51.07500 40.54000 25.96500
H  49.91600 33.87000 22.57000
H  47.98800 31.85700 22.91500
H  48.41100 34.69400 21.27600
H  47.47800 35.38900 22.66100
H  47.00600 33.80500 22.01300
H  50.43700 31.53100 22.03800
H  49.48900 30.39300 23.04100
H  52.10300 31.42700 23.33800
H  51.38800 30.09200 24.32300
H  51.06800 31.79000 24.76400
H  46.02300 28.13500 27.72900
H  46.88900 28.58400 26.24500
H  45.23200 28.92800 26.34600
H  44.26400 32.51900 30.56100
H  43.95900 30.15200 33.95900
H  43.21300 31.62300 34.43500
H  44.98300 31.51500 34.67300

