158

Mg -0.34800 18.27700 27.19400
C  -1.11700 16.06900 29.88700
C  -1.41800 20.89000 29.19400
C  -0.06700 20.23900 24.75100
C  -0.23800 15.44900 25.08100
N  -1.19400 18.37300 29.32200
C  -1.17300 17.42900 30.26600
C  -1.51200 18.07800 31.67600
C  -1.83300 19.56500 31.26900
C  -1.45200 19.59500 29.82100
C  -3.28700 19.97400 31.66000
C  -0.37600 17.84000 32.67000
C  -0.94600 17.23700 34.01300
H  0.01300 16.89000 35.13000
N  -0.65900 20.30300 26.99100
C  -0.97700 21.21100 27.93700
C  -0.98200 22.53700 27.42800
C  -0.36500 22.35300 26.11600
C  -0.36000 20.91200 25.88200
C  -1.59500 23.63100 28.21700
C  0.11500 23.49500 25.02700
O  0.59700 23.20100 23.89800
C  -0.00900 24.94500 25.36100
N  -0.35600 17.86600 25.08300
C  -0.08000 18.89800 24.36300
C  0.12000 18.51700 22.92800
C  0.31400 16.97800 23.04100
C  -0.10900 16.70700 24.48900
C  -1.06600 18.95500 21.91200
C  1.75400 16.44700 22.65400
C  2.78400 16.31100 23.74700
N  -0.57100 16.18200 27.34500
C  -0.50200 15.20100 26.45300
C  -0.60000 13.96900 27.10800
C  -0.90300 14.24800 28.44900
C  -0.84000 15.63900 28.55000
C  -0.50100 12.53800 26.45900
C  -1.07200 13.61900 29.78300
O  -1.13700 12.46700 30.21300
C  -1.21200 14.84300 30.79400
C  -0.07000 14.68700 31.75100
O  1.02700 15.15900 31.60000
O  -0.44900 13.95600 32.92300
C  0.73300 13.54200 33.77500
H  -1.64000 21.74800 29.83200
H  0.30500 20.79700 23.88900
H  -0.14500 14.57600 24.43200
H  -2.41800 17.50500 31.87400
H  -1.16900 20.20800 31.84800
H  -4.01000 19.90200 30.84800
H  -3.28600 21.02700 31.94300
H  -3.55600 19.48500 32.59600
H  -0.03300 18.79200 33.07700
H  0.54000 17.32500 32.38300
H  -1.62800 16.42000 33.77600
H  -1.60500 18.04700 34.32500
H  -1.17900 23.77300 29.21400
H  -2.59100 23.35100 28.55800
H  -1.45700 24.56800 27.67700
H  0.23900 25.02000 26.42000
H  -1.00400 25.31300 25.11200
H  0.77200 25.48800 24.83000
H  1.09600 18.95400 22.71600
H  -0.46300 16.46300 22.47600
H  -2.04200 19.02000 22.39500
H  -1.30100 18.15700 21.20800
H  -0.80400 19.85000 21.34800
H  2.18100 17.23100 22.02900
H  1.80400 15.62500 21.94000
H  3.73700 16.74200 23.44000
H  3.08500 15.30800 24.05000
H  2.63000 16.85500 24.67900
H  -1.50600 12.12100 26.39500
H  0.10300 11.94900 27.15000
H  0.01800 12.47200 25.50300
H  -2.15800 14.82100 31.33500
H  1.69600 13.83700 33.35700
H  0.66700 12.45600 33.83200
H  0.68700 13.93800 34.78900
Mg 30.00500 57.71400 41.34200
C  27.31100 55.94400 40.06700
C  32.15200 55.36100 40.09200
C  32.52000 59.89400 41.94500
C  27.71800 60.30000 42.19900
N  29.68300 55.80200 40.30000
C  28.52500 55.25700 39.89000
C  28.76400 53.87600 39.14700
C  30.22200 53.57800 39.63200
C  30.71800 54.99700 40.04400
C  30.51100 52.33700 40.55700
C  28.66900 53.84800 37.60700
C  29.29000 55.05800 36.84700
H  28.31700 55.97500 36.06200
N  31.99800 57.65600 41.03500
C  32.69600 56.54700 40.54500
C  34.10800 56.90200 40.51900
C  34.26500 58.21400 41.00800
C  32.88400 58.63200 41.37700
C  35.07800 55.91900 39.98800
C  35.51700 59.05300 41.08300
O  36.53700 58.48900 40.84700
C  35.58600 60.49000 41.35100
N  30.11200 59.76500 41.96500
C  31.26500 60.36800 42.25000
C  31.08100 61.84700 42.75200
C  29.53600 61.94800 42.79800
C  29.11400 60.61700 42.23200
C  31.66600 62.09100 44.18000
C  28.94400 63.18800 42.11900
C  29.22600 64.53800 42.88100
N  27.86400 58.05400 41.32400
C  27.09200 59.09300 41.70200
C  25.73200 58.84600 41.41800
C  25.74400 57.57400 40.82500
C  27.09100 57.19600 40.71500
C  24.61700 59.89800 41.58600
C  24.94900 56.54100 40.22100
O  23.71000 56.43300 40.04300
C  25.92500 55.47600 39.71300
C  25.53400 54.19500 40.37100
O  25.52200 54.06000 41.58400
O  25.13700 53.23100 39.48100
C  24.65100 51.92400 40.09000
H  32.75800 54.56200 39.66000
H  33.26600 60.61700 42.27900
H  26.93200 61.02000 42.43900
H  28.09600 53.12000 39.56100
H  30.88000 53.36800 38.78800
H  31.41400 52.46200 41.15500
H  30.90200 51.56500 39.89400
H  29.56200 52.06000 41.01500
H  27.59900 53.76500 37.41400
H  29.21400 52.97200 37.25500
H  29.91100 54.56600 36.09800
H  29.90900 55.65500 37.51700
H  36.14900 56.11000 39.92100
H  34.66900 55.29500 39.19300
H  35.09200 55.16300 40.77400
H  34.75600 60.94700 40.81100
H  36.57800 60.72500 40.96800
H  35.47300 60.72700 42.40900
H  31.49200 62.51900 41.99900
H  29.15800 61.96900 43.82000
H  32.46900 61.36500 44.30700
H  30.97600 62.13200 45.02300
H  32.14200 63.04100 43.93700
H  27.86300 63.08200 42.20700
H  29.35900 63.26100 41.11400
H  29.72300 64.44000 43.84600
H  28.25700 64.98200 43.10600
H  29.76500 65.19900 42.20200
H  23.67800 59.36800 41.74700
H  24.57600 60.59600 40.75000
H  24.68500 60.49600 42.49500
H  25.66600 55.39000 38.65700
H  25.30400 51.36300 40.75800
H  24.51400 51.24400 39.24900
H  23.71000 52.12200 40.60300

