158

Mg 36.88800 49.45900 25.19900
C  37.03500 47.79500 28.20500
C  35.41000 52.11900 27.02100
C  36.49000 51.03100 22.27500
C  38.06800 46.73900 23.48900
N  36.12300 49.85400 27.32700
C  36.42300 49.04000 28.40700
C  35.91500 49.61200 29.72500
C  35.25900 50.95100 29.27100
C  35.62200 50.99500 27.80400
C  33.75500 51.13400 29.52700
C  37.16700 49.84100 30.64600
C  37.15300 49.24800 32.06900
H  35.82900 49.24900 32.86900
N  36.12600 51.31700 24.75500
C  35.55100 52.24200 25.61600
C  35.00300 53.32400 24.80300
C  35.39300 53.08200 23.46700
C  36.04200 51.76500 23.42600
C  34.23200 54.50900 25.38700
C  35.11700 53.98500 22.29500
O  35.45600 53.68100 21.10700
C  34.58200 55.39200 22.48500
N  37.37100 48.97100 23.15700
C  37.08000 49.76400 22.13500
C  37.43200 49.19100 20.79100
C  38.14600 47.86300 21.22500
C  37.95000 47.86500 22.70200
C  36.25900 49.02200 19.83600
C  39.67100 47.92400 20.96100
C  40.18800 47.72800 19.52300
N  37.45600 47.57600 25.70800
C  37.89200 46.56300 24.87200
C  38.28000 45.50300 25.77000
C  37.99100 45.89000 27.06700
C  37.41800 47.15600 26.99500
C  38.93000 44.23900 25.28100
C  38.07500 45.55300 28.47400
O  38.54500 44.56200 28.99300
C  37.28700 46.73600 29.29300
C  36.07300 46.11100 29.99400
O  34.88800 46.22100 29.68400
O  36.54200 45.50300 31.15300
C  35.59000 44.87800 32.13500
H  35.14800 53.04200 27.54300
H  36.37800 51.63300 21.37100
H  38.35200 45.87200 22.89000
H  35.32500 48.79500 30.14100
H  35.70000 51.80600 29.78200
H  33.30500 50.35100 30.13700
H  33.23300 51.26400 28.57900
H  33.61700 52.05800 30.08900
H  37.38000 50.90800 30.70600
H  38.04600 49.45000 30.13300
H  37.69200 50.01500 32.62500
H  37.64700 48.28000 32.14900
H  34.06000 54.33500 26.44900
H  33.26900 54.71700 24.92000
H  34.88900 55.37400 25.30100
H  35.13100 55.87400 23.29400
H  33.51800 55.43400 22.71900
H  34.74400 55.91400 21.54200
H  38.20900 49.78200 20.30800
H  37.76200 46.93900 20.79500
H  36.59000 49.47000 18.89900
H  35.40100 49.56400 20.23400
H  35.92600 48.03700 19.50700
H  40.03600 47.13200 21.61500
H  40.07500 48.87200 21.31500
H  40.75300 48.61300 19.23200
H  39.42500 47.31900 18.86100
H  40.87800 46.92200 19.77500
H  40.01000 44.27700 25.13900
H  38.48400 43.87200 24.35700
H  38.78700 43.54900 26.11300
H  37.92400 47.09400 30.10200
H  35.86200 43.84200 32.33700
H  34.56200 44.91800 31.77500
H  35.70200 45.41600 33.07700
Mg 6.62200 52.61700 41.32800
C  5.84500 49.18200 41.14600
C  9.84200 51.94300 40.42200
C  7.02600 55.96900 40.58500
C  3.16600 53.22500 41.75700
N  7.65600 50.76800 40.61500
C  7.17700 49.48300 40.83800
C  8.34200 48.51200 40.72300
C  9.59700 49.42200 40.74600
C  9.03800 50.77500 40.50100
C  10.37400 49.37100 42.10900
C  8.45600 47.62900 39.36300
C  8.39200 48.33500 37.95000
H  7.34300 47.87600 36.90400
N  8.29400 53.74200 40.69200
C  9.54600 53.28800 40.37000
C  10.39200 54.46400 40.01200
C  9.51900 55.60200 40.13400
C  8.16400 55.11000 40.41000
C  11.85600 54.32900 39.69500
C  10.03100 57.03600 39.98100
O  11.19300 57.16400 39.68500
C  9.22900 58.30300 40.18800
N  5.29300 54.32700 41.08100
C  5.76800 55.56400 40.96700
C  4.65500 56.63300 40.96300
C  3.36400 55.66800 40.84400
C  3.94100 54.34900 41.33200
C  4.58400 57.66100 42.20500
C  2.68100 55.64800 39.35900
C  1.34100 56.35800 39.26500
N  4.90600 51.48300 41.58500
C  3.52700 51.87400 41.86000
C  2.70100 50.62500 42.00900
C  3.67300 49.63800 41.72500
C  4.92600 50.15800 41.42900
C  1.31900 50.54500 42.53900
C  3.79500 48.16800 41.78400
O  2.92700 47.38500 42.16300
C  5.22000 47.79900 41.21900
C  4.99600 47.08000 39.91500
O  4.48700 47.64700 38.94100
O  5.36200 45.77100 39.96100
C  5.15900 45.04900 38.76700
H  10.91100 51.73800 40.33200
H  7.01100 57.05500 40.70000
H  2.07800 53.26400 41.83900
H  8.42100 47.86800 41.59800
H  10.28800 49.12300 39.95800
H  11.36000 48.92700 41.97300
H  9.79900 48.87500 42.89100
H  10.52600 50.37300 42.51100
H  7.59700 46.95900 39.37700
H  9.31200 46.97300 39.52500
H  9.43400 48.26500 37.63600
H  8.19700 49.38700 38.15500
H  12.07700 54.65100 38.67800
H  12.30200 53.34600 39.84600
H  12.51500 55.00500 40.24200
H  9.88400 59.17400 40.19400
H  8.78300 58.28900 41.18300
H  8.44300 58.34200 39.43300
H  4.61100 57.11200 39.98500
H  2.68300 56.13900 41.55300
H  4.42400 58.65300 41.78300
H  5.49800 57.63900 42.79800
H  3.80000 57.43500 42.92700
H  2.45700 54.59400 39.19800
H  3.35200 56.02500 38.58700
H  0.47300 55.71700 39.11500
H  1.27200 56.89200 38.31800
H  1.06500 57.08500 40.02800
H  1.00400 49.50200 42.51900
H  0.64100 51.18000 41.96900
H  1.35900 50.82400 43.59200
H  5.67800 47.16300 41.97700
H  4.42300 44.32500 39.11800
H  5.99400 44.40000 38.50500
H  4.82700 45.42500 37.79900

