158

Mg 30.01100 57.57900 40.98000
C  27.29300 55.70900 39.78400
C  32.11500 55.44500 39.51100
C  32.40900 59.76000 41.67900
C  27.64200 59.97000 42.21200
N  29.73500 55.91700 39.67000
C  28.52400 55.18100 39.43100
C  28.87000 54.04200 38.54100
C  30.32200 53.72000 39.03100
C  30.74100 55.10600 39.45500
C  30.53100 52.65300 40.14700
C  28.62500 54.11200 36.96000
C  27.24900 53.59100 36.48000
H  26.31600 54.63100 35.80500
N  32.01300 57.62500 40.60500
C  32.69900 56.63600 39.93700
C  34.10100 56.92500 39.99600
C  34.26000 58.17900 40.67200
C  32.85800 58.54500 41.03400
C  35.14300 55.99500 39.28800
C  35.52400 58.89400 40.90700
O  36.52900 58.31900 40.54200
C  35.65600 60.07900 41.64100
N  29.97100 59.70800 41.67200
C  31.19700 60.29400 41.88800
C  30.96400 61.76000 42.43200
C  29.45900 61.72600 42.74200
C  28.96100 60.46500 42.18800
C  31.91400 62.03800 43.58300
C  28.67900 63.10100 42.40800
C  27.75600 63.64200 43.42800
N  27.90800 57.91600 41.02800
C  27.09900 58.88000 41.60400
C  25.72400 58.49800 41.32800
C  25.76700 57.25800 40.65700
C  27.12200 56.97300 40.44200
C  24.54800 59.24800 41.90800
C  24.93200 56.19500 40.06400
O  23.72000 56.11500 40.02500
C  25.92300 55.16000 39.44000
C  25.64600 53.88000 40.18900
O  26.19900 53.53000 41.21800
O  24.73800 53.13900 39.41500
C  24.24600 51.98300 40.07300
H  32.76800 54.57200 39.45200
H  33.17900 60.44500 42.04000
H  26.98900 60.70400 42.68900
H  28.18300 53.24200 38.81800
H  30.88100 53.48600 38.12500
H  29.62000 52.06700 40.26800
H  30.70500 53.29400 41.01100
H  31.40200 52.08400 39.82200
H  29.36500 53.55400 36.38800
H  28.76700 55.15200 36.66600
H  26.65300 53.33600 37.35600
H  27.39500 52.69100 35.88200
H  34.77700 55.04700 38.89300
H  36.01300 55.77900 39.90700
H  35.43200 56.50600 38.37000
H  35.06200 60.77700 41.05000
H  36.72300 60.29900 41.61800
H  35.27900 59.96800 42.65800
H  31.20100 62.41300 41.59200
H  29.40200 61.58700 43.82200
H  32.66100 62.72700 43.18700
H  32.48000 61.18400 43.95400
H  31.42800 62.53700 44.42100
H  28.04400 62.87700 41.55100
H  29.39400 63.84100 42.04900
H  28.27200 64.45100 43.94600
H  27.58400 62.95000 44.25200
H  26.85600 63.88500 42.86300
H  24.89900 60.02300 42.58800
H  23.79000 58.54600 42.25700
H  24.06400 59.69600 41.04000
H  25.68300 54.99700 38.39000
H  23.95700 52.26000 41.08600
H  25.01900 51.22300 40.18500
H  23.33700 51.70000 39.54300
Mg -5.71300 25.61900 26.16300
C  -4.78800 27.20800 29.22400
C  -7.67800 23.61900 27.96600
C  -6.44700 24.11000 23.37600
C  -3.35400 27.64000 24.55300
N  -6.11200 25.45200 28.29900
C  -5.69100 26.17800 29.37600
C  -6.37400 25.73900 30.65900
C  -7.05600 24.34300 30.32600
C  -6.92600 24.40700 28.71900
C  -6.41600 23.12300 30.93600
C  -7.35800 26.68700 31.34700
C  -7.09800 26.97800 32.84200
H  -6.49000 25.92200 33.74900
N  -6.90700 24.05300 25.71300
C  -7.76300 23.43200 26.58400
C  -8.74400 22.56100 25.87900
C  -8.28100 22.68700 24.53900
C  -7.17400 23.63200 24.48200
C  -10.06400 21.96500 26.42500
C  -8.81500 21.99800 23.31700
O  -8.36700 22.23800 22.16900
C  -10.06500 21.13400 23.40300
N  -4.92400 25.79400 24.30200
C  -5.42600 25.08800 23.26700
C  -4.68200 25.30600 21.96900
C  -3.58200 26.43700 22.30000
C  -3.92100 26.63000 23.83600
C  -4.12000 24.03600 21.37600
C  -3.79600 27.69700 21.34800
C  -3.13300 27.46900 19.96900
N  -4.32900 27.14000 26.64600
C  -3.44400 27.94100 25.88900
C  -2.92700 28.97500 26.73900
C  -3.39200 28.77300 28.08300
C  -4.23600 27.61900 28.02000
C  -1.98000 30.12400 26.30100
C  -3.29000 29.14200 29.51500
O  -2.54800 29.99300 30.02400
C  -4.25800 28.25500 30.26300
C  -3.41200 27.65800 31.37400
O  -2.48300 26.87000 31.19200
O  -3.85100 28.10900 32.60000
C  -2.91700 27.75700 33.68400
H  -8.33500 22.92800 28.49800
H  -6.63400 23.74400 22.36400
H  -2.67100 28.38900 24.14700
H  -5.55800 25.69100 31.38000
H  -8.10000 24.22000 30.61300
H  -6.28700 22.46800 30.07400
H  -7.13100 22.80100 31.69300
H  -5.42700 23.26100 31.37300
H  -8.36700 26.28900 31.23700
H  -7.27900 27.56500 30.70600
H  -8.04200 27.27800 33.29800
H  -6.43700 27.83300 32.98300
H  -10.96900 22.35400 25.95800
H  -10.31900 22.21400 27.45500
H  -9.99700 20.87800 26.44800
H  -9.82400 20.43700 24.20600
H  -10.21600 20.64500 22.44100
H  -11.02600 21.52500 23.73500
H  -5.43400 25.84200 21.39000
H  -2.61600 25.93400 22.25000
H  -3.07400 24.26000 21.16400
H  -4.61600 23.74400 20.45000
H  -4.19500 23.19100 22.05900
H  -3.44300 28.57600 21.88600
H  -4.86000 27.89200 21.21500
H  -3.36500 28.38800 19.43000
H  -3.69600 26.64000 19.54200
H  -2.04900 27.37500 19.89800
H  -2.12600 30.32100 25.23900
H  -1.00000 29.65000 26.34900
H  -2.02700 30.99700 26.95200
H  -5.06000 28.91600 30.59400
H  -2.39900 26.80000 33.62000
H  -3.45300 27.91500 34.62000
H  -2.12500 28.50500 33.66000

