158

Mg 35.99600 48.81000 24.27200
C  36.34400 47.09500 27.30700
C  34.75100 51.53500 25.93900
C  35.69500 50.40000 21.26600
C  37.27900 45.95400 22.58200
N  35.43900 49.18200 26.33700
C  35.69300 48.37400 27.46400
C  35.48900 49.17300 28.79000
C  34.69800 50.48100 28.29000
C  34.98100 50.40500 26.77300
C  33.25100 50.64400 28.71400
C  36.77700 49.43700 29.59000
C  36.74800 49.09100 31.13500
H  35.38400 49.00100 31.91600
N  35.43200 50.74000 23.66500
C  34.93300 51.71000 24.50300
C  34.51900 52.81400 23.70800
C  34.89100 52.55100 22.37700
C  35.36800 51.18100 22.35700
C  33.87700 54.02600 24.31600
C  34.72600 53.48300 21.17300
O  35.20700 53.13900 20.09800
C  34.01400 54.82400 21.25600
N  36.15500 48.12100 22.13100
C  36.07300 49.04400 21.21800
C  36.25400 48.30400 19.85800
C  37.07200 47.02500 20.22000
C  36.80300 47.00100 21.69800
C  34.89400 48.03200 19.20200
C  38.50100 47.08000 19.67500
C  39.74100 47.24600 20.69500
N  36.54700 46.87200 24.80300
C  37.10700 45.85600 24.00200
C  37.70100 44.87100 24.85400
C  37.41700 45.33000 26.18300
C  36.60400 46.49300 26.06200
C  38.44600 43.69400 24.34500
C  37.53300 45.02600 27.63900
O  38.09300 44.09100 28.24800
C  36.87000 46.18100 28.37300
C  35.82900 45.72100 29.38000
O  34.67600 45.50600 29.13900
O  36.45200 45.55100 30.55700
C  35.59400 44.82100 31.57000
H  34.41000 52.40200 26.50900
H  35.51100 50.81100 20.27100
H  37.70800 45.07000 22.10600
H  34.81200 48.60700 29.43000
H  35.13100 51.38000 28.72900
H  32.92800 49.92600 29.46800
H  32.58800 50.51000 27.85900
H  33.03600 51.63600 29.11100
H  37.13400 50.45600 29.44000
H  37.55500 48.72800 29.30600
H  37.32100 49.88200 31.62000
H  37.31800 48.20100 31.40100
H  34.46800 54.91300 24.54100
H  33.49500 53.82300 25.31700
H  33.02900 54.29000 23.68500
H  32.93800 54.68300 21.35500
H  34.16900 55.35800 20.31900
H  34.34100 55.52200 22.02700
H  36.77600 48.99200 19.19300
H  36.52500 46.18100 19.80000
H  34.01800 48.19300 19.83000
H  34.73700 47.04800 18.76000
H  34.81400 48.68500 18.33300
H  38.67300 47.83200 18.90600
H  38.69300 46.16800 19.10900
H  40.36900 46.35600 20.72600
H  39.37000 47.61500 21.65200
H  40.25900 48.14700 20.36700
H  38.94600 43.93500 23.40600
H  37.97700 42.71100 24.29800
H  39.17800 43.43300 25.10800
H  37.70700 46.61300 28.92200
H  35.33000 43.79000 31.33500
H  34.67800 45.36000 31.81300
H  36.15700 44.81200 32.50400
Mg 17.42000 51.40600 26.02300
C  19.32400 49.55700 28.16100
C  15.11200 51.98400 28.49400
C  15.33900 52.81400 23.62400
C  19.48600 50.39200 23.32500
N  17.25300 50.77600 28.11800
C  18.22300 50.12300 28.80500
C  18.08300 50.36500 30.28000
C  16.56300 50.77600 30.37700
C  16.30100 51.23700 28.94300
C  15.57300 49.63800 30.83500
C  19.10700 51.33900 30.93900
C  19.44700 51.28200 32.44200
H  18.48900 50.53000 33.34500
N  15.39800 52.22200 26.05900
C  14.70800 52.49500 27.22200
C  13.44800 53.08800 26.83000
C  13.50500 53.30700 25.37700
C  14.82700 52.72400 24.96900
C  12.39000 53.47100 27.85500
C  12.48000 53.90600 24.41100
O  12.62100 54.11100 23.21100
C  11.13500 54.35400 24.92500
N  17.43400 51.57800 23.83000
C  16.50800 52.29900 23.07100
C  16.82300 52.45300 21.62300
C  18.12200 51.62600 21.40500
C  18.41000 51.20300 22.94800
C  15.63300 51.92500 20.69500
C  19.24600 52.42500 20.67600
C  20.42100 51.61700 20.14900
N  19.11400 50.36000 25.79000
C  19.74800 49.89500 24.64900
C  20.86100 49.06100 24.98400
C  20.78700 48.93500 26.43600
C  19.66100 49.64200 26.82800
C  21.86000 48.53200 24.00400
C  21.40500 48.39300 27.61000
O  22.33400 47.61700 27.62000
C  20.60600 48.88900 28.82000
C  20.23700 47.71500 29.66100
O  19.47700 46.85000 29.42400
O  20.76800 47.92200 30.91100
C  20.35200 46.94700 31.99800
H  14.46700 52.22300 29.34300
H  14.76600 53.34500 22.86100
H  20.15200 50.10200 22.50900
H  18.18700 49.38900 30.75300
H  16.44200 51.59000 31.09200
H  15.33700 49.58700 31.89800
H  16.02600 48.67300 30.60700
H  14.66500 49.64600 30.23300
H  18.90500 52.34400 30.57000
H  20.07600 51.08300 30.51000
H  19.60200 52.26500 32.88600
H  20.44500 50.87700 32.61100
H  11.31000 53.37300 27.74800
H  12.55100 54.54100 27.98900
H  12.59600 53.03700 28.83300
H  11.23600 55.22200 25.57700
H  10.54900 53.51100 25.28900
H  10.55100 54.64900 24.05300
H  17.09300 53.50000 21.48800
H  17.99000 50.66600 20.90500
H  15.20900 51.06800 21.22000
H  16.08500 51.66400 19.73900
H  14.86200 52.64600 20.42300
H  19.63700 53.10400 21.43400
H  18.78900 52.99700 19.86800
H  21.40100 51.86000 20.55700
H  20.40500 51.66800 19.06000
H  20.38900 50.54700 20.35400
H  21.28400 48.08600 23.19400
H  22.48100 47.88400 24.62300
H  22.46200 49.36000 23.62900
H  21.19400 49.62200 29.37300
H  19.29300 46.71100 31.90200
H  20.34800 47.59600 32.87400
H  21.11600 46.18100 32.12900

