158

Mg 26.53600 49.66900 27.06000
C  24.49100 51.12500 29.60300
C  28.38100 48.11300 29.39600
C  28.51800 48.70800 24.52300
C  24.57300 51.43000 24.71700
N  26.28000 49.57800 29.21100
C  25.41800 50.24700 30.09400
C  25.67100 49.77400 31.54700
C  27.11900 49.06100 31.42200
C  27.22400 48.80400 29.88000
C  28.37500 49.75300 32.06400
C  24.49700 48.93100 32.17500
C  23.95800 49.38400 33.51500
H  24.17200 48.54000 34.74500
N  28.20500 48.56300 26.93200
C  28.89900 48.00700 28.05400
C  30.08800 47.34300 27.58500
C  30.19900 47.55900 26.18500
C  28.94300 48.29500 25.78200
C  30.99900 46.64700 28.43200
C  31.26600 47.21200 25.20100
O  31.21700 47.50700 24.02500
C  32.41600 46.35200 25.52800
N  26.50100 49.97500 24.94800
C  27.34900 49.35900 24.09500
C  27.06800 49.63100 22.57800
C  25.61300 50.18700 22.70000
C  25.51400 50.53600 24.22400
C  27.97800 50.75900 21.97600
C  24.45200 49.24700 22.21400
C  23.41600 49.78300 21.25100
N  24.87000 51.02100 27.11000
C  24.23600 51.67100 26.09000
C  23.19100 52.62400 26.70700
C  23.25400 52.36500 27.99600
C  24.28700 51.45000 28.24700
C  22.26800 53.54800 25.94300
C  22.61300 52.67200 29.24700
O  21.65100 53.36600 29.50100
C  23.41000 51.90100 30.38900
C  23.83100 52.96400 31.26400
O  24.84200 53.70200 31.15100
O  22.98100 52.93000 32.35100
C  23.26100 53.91100 33.40500
H  28.97200 47.67400 30.20300
H  29.16000 48.42100 23.68700
H  23.88000 51.84800 23.98400
H  25.90700 50.71500 32.04400
H  26.91000 48.08300 31.85500
H  28.90000 50.51400 31.48600
H  29.09500 48.99800 32.37800
H  28.12000 50.40500 32.89900
H  24.71100 47.86900 32.29600
H  23.66600 48.96000 31.47000
H  22.92800 49.73000 33.43000
H  24.42200 50.31600 33.84000
H  31.91700 47.23200 28.48800
H  31.11800 45.70400 27.89800
H  30.51700 46.47500 29.39400
H  32.02200 45.34000 25.62600
H  32.89200 46.67100 26.45500
H  33.08500 46.41900 24.67100
H  26.95600 48.66900 22.07900
H  25.54600 51.13800 22.17300
H  28.96300 50.64500 22.42800
H  27.58000 51.72200 22.29600
H  28.04500 50.56800 20.90600
H  24.13900 48.79400 23.15500
H  25.01100 48.49200 21.66200
H  23.56900 50.84900 21.08600
H  22.38100 49.65600 21.56900
H  23.44900 49.28400 20.28200
H  21.52800 52.98300 25.37600
H  22.90700 54.09500 25.25000
H  21.83700 54.24900 26.65800
H  22.74900 51.20900 30.91200
H  22.39600 53.88900 34.06700
H  23.24500 54.92000 32.99300
H  24.21300 53.78100 33.92000
Mg 9.93100 48.07100 26.01700
C  7.71400 48.15200 28.78200
C  12.34800 49.41100 27.95700
C  11.89800 47.43100 23.49400
C  7.16500 47.46000 23.97700
N  10.02000 48.63700 28.14800
C  9.02300 48.48500 29.11200
C  9.62100 48.86200 30.49400
C  10.91300 49.61700 30.06800
C  11.16600 49.07500 28.65200
C  10.85100 51.18500 30.15100
C  9.90000 47.68000 31.48200
C  9.27700 47.92300 32.89700
H  9.02600 46.72800 33.77400
N  11.89200 48.45000 25.72400
C  12.72500 49.00800 26.66300
C  14.09600 48.91200 26.12500
C  13.97700 48.28900 24.86800
C  12.55600 48.05500 24.63700
C  15.19600 49.28400 27.03100
C  15.05400 48.11900 23.85200
O  14.76900 47.89600 22.67400
C  16.50500 48.16200 24.20400
N  9.58800 47.79000 23.87700
C  10.57100 47.28300 23.13400
C  10.10400 46.64000 21.80900
C  8.61500 46.78100 21.94600
C  8.45100 47.34500 23.36300
C  10.74300 47.20000 20.45600
C  7.80200 45.44200 21.60900
C  6.47200 45.69000 20.83400
N  7.85200 48.00200 26.22700
C  6.87800 47.71300 25.31300
C  5.62800 47.57400 25.99400
C  5.89300 47.72100 27.35000
C  7.25800 47.99500 27.43400
C  4.34600 47.20200 25.32600
C  5.28900 47.81500 28.68500
O  4.13500 47.74900 29.05100
C  6.46900 47.99000 29.61700
C  6.55900 46.70800 30.43900
O  7.01500 45.62500 30.09900
O  5.85400 46.91400 31.62900
C  5.51300 45.76400 32.49800
H  13.12400 49.97500 28.47900
H  12.68500 46.93600 22.92100
H  6.26600 47.25700 23.39100
H  8.96200 49.59800 30.95600
H  11.83000 49.27100 30.54400
H  11.26400 51.37800 31.14100
H  9.85100 51.61900 30.14400
H  11.51600 51.66000 29.43000
H  10.91300 47.30800 31.63300
H  9.43200 46.76000 31.12900
H  8.34100 48.46800 32.77100
H  9.79400 48.70900 33.44700
H  15.85800 48.42400 27.13600
H  14.92000 49.66700 28.01300
H  15.85400 50.05800 26.63800
H  16.84400 49.13300 24.56600
H  17.24800 47.74700 23.52400
H  16.57300 47.48300 25.05400
H  10.23900 45.55900 21.83100
H  8.27800 47.58600 21.29400
H  10.03800 47.51400 19.68700
H  11.33300 46.41500 19.98400
H  11.42000 48.02700 20.67100
H  7.44000 45.00600 22.54000
H  8.47300 44.68700 21.19900
H  6.37000 46.74700 20.58900
H  5.64400 45.29200 21.42100
H  6.57000 45.16900 19.88100
H  3.61200 47.19600 26.13300
H  4.29000 46.27500 24.75700
H  4.10000 48.01000 24.63700
H  6.16900 48.80800 30.27200
H  4.50400 45.92700 32.87700
H  6.12700 45.88300 33.39100
H  5.60400 44.76600 32.07100

