158

Mg 24.14400 -4.15100 46.24900
C  25.96200 -1.49100 44.96800
C  21.39900 -3.11100 44.61600
C  22.75300 -7.13100 47.09600
C  27.26700 -5.45800 47.56200
N  23.84100 -2.50900 44.85600
C  24.64700 -1.49800 44.48400
C  23.92900 -0.61300 43.47200
C  22.37900 -0.94200 43.78900
C  22.55400 -2.25400 44.49000
C  21.65600 0.15900 44.61300
C  24.36500 -0.94900 41.99800
C  24.89000 0.22600 41.19700
H  24.93800 0.06100 39.66600
N  22.32700 -5.03600 45.84400
C  21.30000 -4.47200 45.13500
C  20.13000 -5.33000 45.08700
C  20.44200 -6.46200 45.91900
C  21.89100 -6.25900 46.30200
C  18.88500 -4.98900 44.31600
C  19.55500 -7.58500 46.35000
O  18.44400 -7.53200 45.95800
C  19.84500 -8.81700 47.17400
N  24.88100 -6.06200 47.31100
C  24.08100 -7.11300 47.53100
C  24.82000 -8.25500 48.27400
C  26.35200 -7.67600 48.30700
C  26.15200 -6.28500 47.75000
C  24.25200 -8.82800 49.65800
C  27.35300 -8.41400 47.36200
C  28.62700 -8.92300 48.02800
N  26.21100 -3.58800 46.44200
C  27.37700 -4.16700 46.95900
C  28.43700 -3.18300 46.88700
C  27.99200 -2.22000 46.01800
C  26.62500 -2.48500 45.75300
C  29.67100 -3.19100 47.54100
C  28.37000 -1.07200 45.29600
O  29.45500 -0.56900 45.17300
C  27.11600 -0.55000 44.45800
C  26.70400 0.79100 44.87900
O  26.47500 1.15400 46.01100
O  26.90900 1.62100 43.77000
C  26.75000 3.01400 43.96200
H  20.43700 -2.65700 44.37200
H  22.39700 -8.11900 47.39700
H  28.20300 -5.82300 47.98800
H  24.06700 0.44700 43.68800
H  21.80900 -1.03100 42.86500
H  22.22600 1.07600 44.46300
H  21.60900 -0.17200 45.65000
H  20.66900 0.48000 44.28000
H  23.62500 -1.34600 41.30300
H  25.16300 -1.68800 42.05300
H  25.89200 0.40500 41.58700
H  24.26100 1.08600 41.42600
H  18.36500 -5.77900 43.77400
H  19.11100 -4.19900 43.59900
H  18.17300 -4.60300 45.04500
H  19.18200 -9.65700 46.96800
H  20.02200 -8.47700 48.19400
H  20.82500 -9.16900 46.85100
H  25.06000 -9.10300 47.63300
H  26.74600 -7.53800 49.31400
H  24.91500 -8.53300 50.47100
H  24.22700 -9.91700 49.63300
H  23.23400 -8.50600 49.88000
H  27.68400 -7.74400 46.56800
H  26.81500 -9.19500 46.82600
H  29.41600 -8.30000 47.60600
H  28.81900 -9.96500 47.77100
H  28.51100 -8.74200 49.09600
H  29.61700 -3.42100 48.60500
H  30.14700 -2.21100 47.56700
H  30.38700 -3.87400 47.08400
H  27.12800 -0.47100 43.37100
H  26.89100 3.24800 45.01700
H  25.77700 3.30400 43.56500
H  27.62600 3.28200 43.37100
Mg -11.56500 38.45300 41.15700
C  -9.76500 35.57600 40.25800
C  -9.10400 40.41900 39.71800
C  -13.73700 40.97700 41.17100
C  -13.93500 36.31300 42.57900
N  -9.65400 37.96900 39.98000
C  -9.12600 36.77100 39.82800
C  -7.70800 36.82100 39.20600
C  -7.49600 38.42100 39.11600
C  -8.77900 39.01300 39.74300
C  -6.37000 38.88600 40.11100
C  -7.55300 36.10400 37.87100
C  -6.31300 35.18600 37.67500
H  -5.16000 35.60500 36.78700
N  -11.43300 40.44700 40.51200
C  -10.33100 41.06800 40.00300
C  -10.58600 42.49100 39.75400
C  -11.95600 42.68600 40.02700
C  -12.45300 41.37000 40.64300
C  -9.57200 43.30300 38.99400
C  -12.75400 43.93800 39.69600
O  -12.25500 44.84600 39.14400
C  -14.18600 43.95700 39.85800
N  -13.57800 38.56600 41.67100
C  -14.20400 39.74900 41.67300
C  -15.59700 39.64500 42.26300
C  -15.58900 38.23600 42.88200
C  -14.26900 37.62500 42.33400
C  -16.08600 40.70000 43.35000
C  -16.85800 37.39500 42.47000
C  -16.66400 36.47500 41.21100
N  -11.83400 36.33800 41.46000
C  -12.79500 35.62000 42.12500
C  -12.43900 34.21900 42.07100
C  -11.30200 34.16800 41.29100
C  -10.98300 35.46800 40.95600
C  -13.25100 33.15900 42.70000
C  -10.33600 33.31400 40.66000
O  -10.25000 32.12100 40.58900
C  -9.22900 34.18400 40.03200
C  -7.91800 33.81600 40.74900
O  -7.26600 32.86400 40.44000
O  -7.68800 34.69700 41.79300
C  -6.47800 34.40400 42.55400
H  -8.16700 40.86100 39.37100
H  -14.53900 41.71200 41.27100
H  -14.64100 35.65300 43.08700
H  -7.01500 36.27300 39.84500
H  -7.35700 38.74700 38.08500
H  -5.54900 38.19000 39.94100
H  -6.74900 38.96400 41.13000
H  -5.95600 39.86700 39.87600
H  -7.57800 36.86600 37.09200
H  -8.44100 35.53800 37.59200
H  -6.68900 34.21300 37.36000
H  -5.83600 35.00500 38.63800
H  -9.98800 43.59200 38.02900
H  -8.68500 42.69000 38.83500
H  -9.24500 44.19600 39.52800
H  -14.67500 43.26500 39.17300
H  -14.55100 44.88900 39.42600
H  -14.44400 43.83900 40.91000
H  -16.24100 39.63900 41.38400
H  -15.39900 38.15200 43.95200
H  -17.03000 41.15600 43.05300
H  -15.32400 41.47800 43.39500
H  -16.21200 40.28800 44.35100
H  -17.70800 38.06300 42.33000
H  -17.15100 36.75400 43.30100
H  -15.91100 36.77100 40.48100
H  -17.62800 36.22400 40.77000
H  -16.33900 35.52400 41.63300
H  -12.71800 32.21400 42.80100
H  -14.22600 32.97500 42.25000
H  -13.55200 33.51900 43.68300
H  -9.06500 34.01100 38.96800
H  -6.80100 33.69600 43.31800
H  -6.13700 35.35100 42.97200
H  -5.63500 33.98800 42.00200

