158

Mg 2.50500 -1.38700 43.59500
C  5.81900 -0.75600 43.27500
C  1.75100 1.27700 41.61900
C  -0.65600 -2.37600 43.77500
C  3.38800 -4.47700 45.35000
N  3.65300 0.14000 42.52900
C  5.01900 0.16400 42.51300
C  5.51100 1.28800 41.55600
C  4.18400 1.94200 41.03100
C  3.09100 1.12500 41.73000
C  4.11300 3.47100 41.36700
C  6.34100 0.74700 40.28000
C  7.56200 1.60500 39.82600
H  7.41300 2.50100 38.59300
N  0.68200 -0.53700 42.88300
C  0.58200 0.56900 42.11300
C  -0.86900 0.73700 41.69700
C  -1.60600 -0.29800 42.32800
C  -0.56000 -1.09900 43.10400
C  -1.38500 1.72800 40.60500
C  -3.07100 -0.49400 42.22700
O  -3.75500 0.22500 41.46700
C  -3.77400 -1.75000 42.75800
N  1.50600 -3.12700 44.47600
C  0.18900 -3.26100 44.36800
C  -0.34200 -4.51400 45.06900
C  0.95200 -5.22700 45.48400
C  2.01400 -4.21800 45.14200
C  -1.26900 -4.17800 46.19300
C  1.21600 -6.55300 44.72800
C  1.73200 -7.67700 45.61300
N  4.21100 -2.44200 44.29300
C  4.37600 -3.63000 44.93700
C  5.80200 -3.84800 45.12000
C  6.46100 -2.76500 44.50300
C  5.41200 -1.86300 43.98200
C  6.46400 -5.09900 45.89500
C  7.69700 -2.08200 44.16100
O  8.88100 -2.32500 44.35300
C  7.34900 -0.82000 43.43300
C  7.97500 0.29400 44.16400
O  7.67900 0.62800 45.29700
O  8.90400 0.96400 43.37300
C  9.30200 2.35000 43.83800
H  1.38900 1.96800 40.85500
H  -1.69800 -2.69300 43.86400
H  3.66300 -5.45900 45.74200
H  6.11700 2.01800 42.09300
H  4.00600 1.82100 39.96300
H  4.05700 4.13600 40.50500
H  4.91800 3.69100 42.06900
H  3.14400 3.67800 41.81900
H  5.60200 0.68100 39.48100
H  6.72600 -0.25800 40.45600
H  8.33100 0.85600 39.63600
H  7.96600 2.15200 40.67700
H  -1.85400 1.31500 39.71200
H  -0.52500 2.27800 40.22400
H  -1.96300 2.50800 41.10200
H  -4.81100 -1.72800 42.42300
H  -3.72200 -1.89900 43.83700
H  -3.18600 -2.50900 42.24300
H  -0.99700 -5.02900 44.36700
H  1.02700 -5.42100 46.55400
H  -0.98100 -3.18900 46.55000
H  -1.10300 -4.89400 46.99700
H  -2.31700 -4.23300 45.90100
H  1.96500 -6.25000 43.99600
H  0.32700 -6.84900 44.17100
H  2.70400 -8.03100 45.27000
H  1.10000 -8.56400 45.56600
H  1.87000 -7.42700 46.66400
H  6.12000 -6.05100 45.48900
H  6.08200 -5.02400 46.91300
H  7.55300 -5.05100 45.90100
H  7.88500 -0.81900 42.48400
H  9.68500 2.94200 43.00600
H  10.10500 2.13100 44.54200
H  8.55700 2.93900 44.37300
Mg 44.78200 3.27100 47.38900
C  42.57500 6.02600 47.21000
C  42.07300 1.24200 47.03900
C  46.90100 0.52800 47.38300
C  47.42300 5.39800 47.38400
N  42.59900 3.64900 47.08300
C  41.91000 4.83700 47.03200
C  40.39500 4.68100 46.64900
C  40.30400 3.10800 47.02400
C  41.74100 2.61300 47.04500
C  39.42100 2.78100 48.31600
C  39.97100 5.03000 45.15800
C  39.01800 6.21800 45.03300
H  38.39400 6.34400 43.63600
N  44.51100 1.15300 47.25700
C  43.28700 0.52800 47.10500
C  43.57300 -0.90000 47.00700
C  44.95600 -1.09900 46.87800
C  45.58500 0.22200 47.20500
C  42.47100 -1.90800 46.95500
C  45.60200 -2.45000 46.51200
O  44.89000 -3.42300 46.29100
C  47.16800 -2.62100 46.34400
N  46.85500 2.97700 47.09900
C  47.51500 1.76800 47.40300
C  49.03900 1.98100 47.64200
C  49.16900 3.53900 47.58700
C  47.72200 4.05600 47.34600
C  49.58000 1.31500 48.89300
C  50.13900 4.00700 46.42700
C  51.45800 4.75800 46.81900
N  45.06000 5.32500 47.22700
C  46.15400 6.04400 47.31000
C  45.85100 7.46700 47.31700
C  44.45800 7.48300 47.20900
C  43.97500 6.14300 47.23800
C  46.74600 8.61500 47.34100
C  43.30600 8.36100 47.12700
O  43.27500 9.60100 47.06000
C  42.05500 7.42600 47.05100
C  41.18100 7.72200 48.18800
O  41.53100 7.60500 49.37400
O  39.92600 8.26900 47.82100
C  38.94600 8.61600 48.78700
H  41.15900 0.68200 46.83100
H  47.63800 -0.26900 47.26000
H  48.31500 6.01400 47.51900
H  39.81900 5.26100 47.37100
H  39.87300 2.57700 46.17600
H  39.12600 3.74000 48.74300
H  40.02200 2.27200 49.07000
H  38.56200 2.19800 47.98500
H  39.46200 4.12900 44.81600
H  40.86700 5.00200 44.53800
H  39.47500 7.15300 45.35800
H  38.17900 6.01700 45.69900
H  42.57600 -2.53000 46.06700
H  41.45500 -1.52200 46.87600
H  42.49900 -2.52600 47.85300
H  47.48200 -1.82400 45.67000
H  47.34400 -3.62900 45.96800
H  47.66000 -2.53900 47.31300
H  49.58800 1.50600 46.82900
H  49.52000 3.83300 48.57600
H  48.75100 1.23700 49.59600
H  50.37900 1.95900 49.26200
H  50.02100 0.35000 48.64300
H  49.67700 4.64600 45.67400
H  50.46400 3.16000 45.82300
H  51.44200 5.77100 46.41900
H  52.17800 4.19200 46.22800
H  51.61000 4.66700 47.89400
H  46.95000 8.86400 46.30000
H  47.58400 8.24300 47.93200
H  46.09500 9.39300 47.73900
H  41.48300 7.51200 46.12700
H  39.15600 8.24300 49.78900
H  37.95100 8.36200 48.42200
H  39.00400 9.70200 48.85900

