158

Mg 0.93300 43.54200 25.76700
C  3.08900 43.36500 28.43200
C  -1.68300 43.52700 28.02800
C  -1.04600 42.73900 23.32200
C  3.57600 43.96300 23.65700
N  0.73200 43.41900 27.97200
C  1.75700 43.31000 28.85000
C  1.29300 43.39200 30.29700
C  -0.30400 43.23700 30.16600
C  -0.38100 43.45300 28.64200
C  -0.94600 41.79900 30.50700
C  1.67900 44.66700 31.08300
C  1.76000 44.68200 32.65900
H  1.27100 43.46700 33.39200
N  -1.07000 43.31500 25.64300
C  -1.99600 43.38600 26.64100
C  -3.29700 43.16000 26.11400
C  -3.23700 42.77600 24.71400
C  -1.76600 42.92400 24.48300
C  -4.50100 43.12200 27.05800
C  -4.32800 42.22900 23.82400
O  -4.06700 41.79700 22.71700
C  -5.75000 42.06300 24.29500
N  1.22900 43.16300 23.67500
C  0.22400 42.89800 22.85900
C  0.81000 42.76800 21.40000
C  2.13000 43.66800 21.59900
C  2.35000 43.60700 23.07300
C  1.12100 41.24100 20.96800
C  2.02900 45.12000 21.23100
C  3.31000 45.72800 20.48100
N  2.92200 43.59000 25.95700
C  3.94300 43.85300 25.05100
C  5.26700 43.78900 25.65000
C  4.91400 43.49900 26.97500
C  3.57000 43.45500 27.11800
C  6.59800 43.89600 24.92900
C  5.49700 43.29800 28.26800
O  6.65000 43.10600 28.64900
C  4.25300 43.39200 29.31500
C  4.39000 42.17600 30.19500
O  4.06700 41.04700 29.82200
O  5.01000 42.43900 31.38400
C  5.07300 41.26900 32.24400
H  -2.43900 43.70200 28.79600
H  -1.67800 42.44000 22.48300
H  4.42800 44.19800 23.01600
H  1.83500 42.57400 30.77300
H  -0.86400 44.02000 30.67800
H  -1.56400 41.42900 29.68900
H  -1.63500 41.89200 31.34700
H  -0.08800 41.15600 30.70300
H  0.95100 45.45700 30.90000
H  2.68600 44.95600 30.78100
H  1.36300 45.60600 33.07800
H  2.79600 44.76100 32.98800
H  -5.24400 43.74000 26.55400
H  -4.36100 43.60100 28.02700
H  -4.89100 42.11100 27.17400
H  -5.79200 41.31000 25.08200
H  -6.27500 41.67800 23.42100
H  -6.10600 43.00900 24.70500
H  0.15400 43.23200 20.66400
H  2.91000 43.18400 21.01100
H  2.18700 41.11000 20.78300
H  0.48500 41.02600 20.10900
H  0.88700 40.52500 21.75600
H  1.65800 45.69900 22.07700
H  1.29100 45.21900 20.43600
H  3.24500 46.78900 20.72100
H  3.41500 45.49600 19.42100
H  4.19000 45.30200 20.96300
H  7.42100 43.56900 25.56500
H  6.69100 44.90700 24.53400
H  6.53900 43.27800 24.03300
H  4.50300 44.24000 29.95200
H  5.65600 40.54000 31.68200
H  4.04500 40.96100 32.43200
H  5.62500 41.61800 33.11700
Mg -2.09200 34.43100 26.95800
C  -3.93900 32.91300 29.50500
C  -1.14300 36.91300 29.20800
C  -0.75700 36.12700 24.42500
C  -3.56800 32.31400 24.70600
N  -2.49700 34.87500 29.10300
C  -3.19900 33.99900 29.93300
C  -3.11200 34.44700 31.35200
C  -2.44700 35.91800 31.25200
C  -1.96200 35.95100 29.81700
C  -3.31000 37.09200 31.61800
C  -2.44900 33.43200 32.33100
C  -3.02300 33.43300 33.80000
H  -2.19400 34.08500 34.86000
N  -0.98300 36.14100 26.87100
C  -0.63200 37.00400 27.95000
C  0.28200 38.02200 27.36700
C  0.27400 37.88200 25.89800
C  -0.56300 36.73100 25.69500
C  0.87700 39.19700 28.14800
C  1.10600 38.62400 24.82300
O  0.83300 38.50800 23.67400
C  2.09100 39.69000 25.33800
N  -2.18900 34.29800 24.90900
C  -1.49600 35.07200 24.06900
C  -1.55600 34.53000 22.58300
C  -2.29900 33.22700 22.75400
C  -2.76900 33.31300 24.18400
C  -2.24100 35.61300 21.65800
C  -1.44400 31.96200 22.59500
C  -1.97800 30.73600 21.82000
N  -3.52900 32.89500 27.02500
C  -3.96100 32.08900 25.99700
C  -4.85800 31.07400 26.55100
C  -4.78800 31.31100 27.95700
C  -4.01200 32.45400 28.16300
C  -5.54600 29.96700 25.74900
C  -5.27600 30.80500 29.21100
O  -6.01000 29.84600 29.46100
C  -4.54400 31.76200 30.31400
C  -5.65300 32.19700 31.20200
O  -6.54300 32.96300 30.88600
O  -5.58500 31.54900 32.43900
C  -6.55500 31.87900 33.45000
H  -0.82900 37.75900 29.82200
H  -0.31200 36.58400 23.53900
H  -4.07100 31.63400 24.01700
H  -4.12400 34.53400 31.74700
H  -1.59500 36.01400 31.92400
H  -3.11700 37.36200 32.65600
H  -4.34300 36.80700 31.41700
H  -3.14100 37.98900 31.02300
H  -1.40900 33.75000 32.40900
H  -2.49000 32.45600 31.84800
H  -3.13000 32.38000 34.06100
H  -4.00400 33.90600 33.77600
H  1.96600 39.20200 28.19600
H  0.49800 39.26100 29.16800
H  0.64000 40.08800 27.56500
H  1.59700 40.56600 25.75900
H  2.77600 39.93500 24.52700
H  2.73800 39.12200 26.00600
H  -0.50900 34.43200 22.29600
H  -3.12100 33.16100 22.04100
H  -1.51700 35.93600 20.91000
H  -2.64900 36.44400 22.23400
H  -3.03400 35.10900 21.10500
H  -1.21900 31.67700 23.62300
H  -0.50900 32.21000 22.09300
H  -2.23900 29.93300 22.50900
H  -1.34800 30.53900 20.95200
H  -2.91000 31.09900 21.38600
H  -5.48000 30.10000 24.66900
H  -6.61300 29.85600 25.94400
H  -5.16400 28.98600 26.03100
H  -3.73900 31.24800 30.83900
H  -6.78200 31.08200 34.15800
H  -7.51600 32.20400 33.05100
H  -6.25800 32.70500 34.09800

