158

Mg 25.70900 1.63500 29.54800
C  27.76600 1.21700 32.35000
C  23.00700 1.82000 31.68300
C  23.72000 1.76800 26.88000
C  28.39700 0.57300 27.52700
N  25.49200 1.48000 31.76700
C  26.42900 1.36700 32.70600
C  25.77400 1.59200 34.12400
C  24.28000 1.69500 33.81200
C  24.24400 1.66700 32.30200
C  23.41100 0.62100 34.54700
C  26.32500 2.86200 34.85600
C  25.60500 3.10600 36.23400
H  26.48600 3.41800 37.44400
N  23.60400 1.70800 29.30900
C  22.70600 1.78100 30.32500
C  21.34600 1.93600 29.71400
C  21.60300 1.95800 28.29500
C  23.01700 1.86400 28.09200
C  20.12800 2.12000 30.59200
C  20.55300 2.01900 27.19400
O  20.76100 2.11700 25.96100
C  19.11700 2.13400 27.64000
N  26.05300 1.34200 27.45700
C  25.08800 1.55900 26.59400
C  25.72200 1.61100 25.16700
C  27.15800 1.18700 25.41500
C  27.23700 1.00000 26.91700
C  24.93100 0.83400 24.05200
C  28.21600 2.24900 24.85900
C  29.57700 1.53800 24.52100
N  27.71700 1.03300 29.80000
C  28.65000 0.63600 28.87100
C  29.87900 0.35500 29.54700
C  29.61100 0.56200 30.89600
C  28.30200 1.01300 31.01700
C  31.21400 0.03200 28.98900
C  30.17700 0.44100 32.22200
O  31.26300 0.11400 32.69700
C  28.96900 0.88500 33.17500
C  28.65500 -0.23200 34.04400
O  28.19600 -1.29000 33.66700
O  28.95300 0.08200 35.35000
C  28.72400 -0.93800 36.33700
H  22.21200 2.00000 32.41000
H  23.10400 1.99300 26.00700
H  29.24400 0.41500 26.85700
H  26.02100 0.66800 34.64600
H  23.96900 2.69800 34.10400
H  22.50400 1.16200 34.81600
H  23.87100 0.21700 35.44900
H  23.03500 -0.18600 33.91900
H  26.16700 3.67100 34.14300
H  27.40200 2.77100 34.99900
H  25.08800 2.18000 36.48500
H  24.95900 3.89400 35.84700
H  19.55300 1.21900 30.37500
H  19.66400 3.10000 30.48300
H  20.34900 2.01100 31.65300
H  19.01800 2.99100 28.30700
H  18.95300 1.21700 28.20500
H  18.47800 2.28500 26.77000
H  25.70900 2.64700 24.82900
H  27.34200 0.20200 24.98400
H  24.60900 1.51400 23.26300
H  24.11500 0.20000 24.39800
H  25.53900 0.12400 23.49200
H  28.24500 3.08000 25.56300
H  27.90300 2.62400 23.88400
H  29.70500 1.73100 23.45600
H  29.53300 0.45200 24.44300
H  30.47000 1.95400 24.98800
H  31.52200 0.69000 28.17600
H  31.16900 -0.97500 28.57600
H  31.95400 0.05200 29.78800
H  29.27900 1.79700 33.68400
H  29.59700 -1.01900 36.98400
H  28.51900 -1.98500 36.11500
H  27.92500 -0.53500 36.95900
Mg -12.04600 16.48100 41.16900
C  -8.75700 15.19700 40.61200
C  -10.95400 19.47900 39.74300
C  -15.22300 17.48900 41.10500
C  -13.02400 13.27100 42.17600
N  -10.05500 17.16100 39.96900
C  -8.89900 16.55400 40.09400
C  -7.81100 17.40000 39.27600
C  -8.53300 18.81700 39.20500
C  -9.95400 18.49000 39.63200
C  -7.89200 19.99000 40.02000
C  -7.36100 16.69600 37.95300
C  -5.86700 16.51300 37.78300
H  -5.25000 17.06100 36.51700
N  -12.95000 18.30200 40.58200
C  -12.32000 19.43100 40.11100
C  -13.37100 20.44600 39.93100
C  -14.61700 19.89900 40.41300
C  -14.31300 18.51800 40.69600
C  -13.05400 21.76800 39.34900
C  -15.98100 20.57500 40.53000
O  -15.99600 21.81400 40.36000
C  -17.34400 19.93200 40.76300
N  -13.85500 15.48800 41.61800
C  -14.97800 16.16600 41.60000
C  -16.17200 15.27800 42.03600
C  -15.50100 13.93500 42.39400
C  -14.06100 14.20400 41.99200
C  -17.14200 15.86800 43.10800
C  -16.07900 12.71700 41.54400
C  -16.17900 11.39500 42.34800
N  -11.15600 14.58000 41.41500
C  -11.68600 13.41000 41.87900
C  -10.63800 12.45000 42.02200
C  -9.43500 13.06500 41.59100
C  -9.83600 14.40600 41.22900
C  -10.80800 11.01800 42.57300
C  -7.95900 12.99300 41.30700
O  -7.18700 12.06100 41.62600
C  -7.58300 14.30800 40.57600
C  -6.36300 14.88300 41.13300
O  -6.38800 15.65700 42.08600
O  -5.25400 14.42100 40.43700
C  -4.03600 14.67400 41.19500
H  -10.69200 20.48400 39.40600
H  -16.28000 17.74800 41.20100
H  -13.22600 12.32700 42.68600
H  -6.95300 17.66300 39.89300
H  -8.72000 19.06600 38.16100
H  -6.98700 19.78900 40.59300
H  -8.61600 20.26900 40.78600
H  -7.63800 20.88800 39.45700
H  -7.82700 17.31200 37.18300
H  -7.75400 15.68200 37.88700
H  -5.82800 15.42700 37.86800
H  -5.39400 16.99700 38.63700
H  -13.91900 22.20800 38.85300
H  -12.23800 21.76900 38.62600
H  -12.78200 22.34500 40.23300
H  -18.17900 20.61300 40.59900
H  -17.47400 19.52700 41.76700
H  -17.44700 19.15300 40.00800
H  -16.78300 15.26100 41.13300
H  -15.64000 13.69200 43.44800
H  -18.02000 16.08200 42.49800
H  -16.74600 16.79300 43.52600
H  -17.47500 15.08600 43.79100
H  -15.57100 12.58100 40.59000
H  -17.11700 12.98300 41.34400
H  -15.46000 10.65100 42.00600
H  -17.15700 10.94500 42.17600
H  -15.92400 11.48800 43.40400
H  -11.74700 11.03100 43.12600
H  -9.93500 10.70400 43.14600
H  -10.85600 10.45700 41.64000
H  -7.41000 14.08000 39.52400
H  -4.25000 14.22300 42.16400
H  -3.89100 15.74300 41.35500
H  -3.18600 14.17600 40.72900

