158

Mg 41.97500 40.81900 26.63200
C  41.61500 43.56000 28.88100
C  42.86900 38.87200 29.39100
C  43.07500 38.46800 24.50600
C  41.67000 43.11600 24.08200
N  42.01500 41.15200 28.91900
C  41.72600 42.30800 29.54700
C  41.84800 42.06400 31.08000
C  42.70000 40.68000 31.18200
C  42.51200 40.15000 29.81400
C  44.15000 40.69400 31.70600
C  40.39200 41.96000 31.70600
C  40.15700 43.02500 32.82800
H  39.69700 42.49500 34.21800
N  42.67900 38.85200 26.90200
C  42.90900 38.19800 28.13100
C  43.42500 36.91000 27.81800
C  43.56400 36.78300 26.41900
C  43.17600 38.09500 25.87500
C  43.76500 35.88500 28.91500
C  44.13100 35.57500 25.55500
O  44.35600 35.86900 24.38000
C  44.43100 34.28100 26.04400
N  42.51500 40.88700 24.53900
C  42.72200 39.70700 23.89400
C  42.51900 39.95400 22.40900
C  42.02900 41.45500 22.24500
C  42.01100 41.83800 23.71800
C  43.87800 39.61600 21.62200
C  40.65100 41.51500 21.52400
C  39.39200 41.37000 22.47500
N  41.67200 42.90300 26.45300
C  41.56400 43.67600 25.35900
C  41.26300 45.03100 25.66100
C  41.28600 45.01600 27.05900
C  41.54400 43.74200 27.50400
C  40.93100 46.10600 24.67100
C  41.04500 45.87700 28.21100
O  40.71700 47.06100 28.28500
C  41.22700 44.94600 29.46400
C  42.27700 45.56400 30.31400
O  43.48400 45.58700 30.08800
O  41.68300 46.16200 31.38800
C  42.58800 46.77700 32.33100
H  43.38200 38.24300 30.12200
H  43.11700 37.71900 23.71300
H  41.33000 43.78900 23.29200
H  42.38300 42.89700 31.53500
H  42.13100 40.03700 31.85400
H  44.80500 39.99700 31.18400
H  44.09800 40.65900 32.79400
H  44.56500 41.67300 31.46300
H  40.19000 40.99900 32.18000
H  39.59200 41.96200 30.96600
H  39.35700 43.66500 32.45800
H  41.04900 43.63500 32.97000
H  43.16800 34.99700 28.70900
H  43.48200 36.33200 29.86800
H  44.81500 35.62100 29.03900
H  45.20700 33.88700 25.38900
H  43.53900 33.79000 25.65600
H  44.61200 34.24100 27.11900
H  41.69600 39.27200 22.19300
H  42.74800 42.09100 21.73000
H  43.84100 39.86800 20.56300
H  44.06000 38.54100 21.64000
H  44.67900 40.19900 22.07700
H  40.62900 40.74100 20.75800
H  40.60500 42.46100 20.98400
H  38.64800 40.71100 22.02700
H  38.94700 42.35500 22.61000
H  39.62700 40.98900 23.46900
H  41.23400 45.78000 23.67600
H  41.51500 46.97100 24.98300
H  39.86800 46.31600 24.78600
H  40.28800 44.77600 29.99200
H  42.00200 47.17700 33.15800
H  43.04200 47.59700 31.77500
H  43.36100 46.07500 32.64300
Mg -1.76400 34.81600 26.86700
C  -3.04100 32.84500 29.53200
C  -0.23400 36.76500 29.07100
C  -0.97500 36.73600 24.23500
C  -3.40600 32.53800 24.59500
N  -1.81500 34.86700 29.11400
C  -2.19200 33.82600 29.99300
C  -1.72100 34.09600 31.41500
C  -0.76600 35.41200 31.19100
C  -0.97200 35.77200 29.69000
C  -1.02500 36.55600 32.18700
C  -0.98400 32.91800 32.04400
C  -1.67200 32.27800 33.25200
H  -0.82200 32.29700 34.53200
N  -0.72700 36.56500 26.69000
C  -0.13700 37.18600 27.73700
C  0.59200 38.22900 27.19900
C  0.44600 38.23400 25.76900
C  -0.46700 37.12700 25.48400
C  1.38700 39.18900 28.07900
C  1.02600 39.22200 24.72000
O  0.72900 39.25600 23.51700
C  2.02900 40.18500 25.14200
N  -2.53100 34.90300 24.68900
C  -1.80300 35.69100 23.87100
C  -1.84600 35.24300 22.40200
C  -2.35300 33.73800 22.62100
C  -2.85300 33.70300 24.02400
C  -2.85300 36.10100 21.55300
C  -1.21100 32.64000 22.35600
C  -1.74600 31.28300 21.92100
N  -3.03900 33.09100 26.95100
C  -3.55000 32.28000 25.97800
C  -4.12700 31.18000 26.64200
C  -4.08400 31.38000 28.04300
C  -3.32100 32.56000 28.16400
C  -4.88300 30.08800 25.98200
C  -4.50500 30.91700 29.31000
O  -5.27200 29.98000 29.59700
C  -3.79200 31.80800 30.33900
C  -4.93800 32.38100 31.10500
O  -5.60000 33.35600 30.81700
O  -5.13400 31.70600 32.33800
C  -5.99600 32.24700 33.36500
H  0.39500 37.28700 29.79400
H  -0.44400 37.19500 23.39800
H  -3.65700 31.76200 23.86900
H  -2.61600 34.33900 31.98800
H  0.26000 35.05800 31.29400
H  -1.55500 37.42400 31.79500
H  -0.00900 36.89500 32.38400
H  -1.45600 36.15600 33.10500
H  -0.00200 33.24400 32.38600
H  -0.85100 32.13900 31.29400
H  -1.85500 31.22500 33.04000
H  -2.68000 32.61100 33.50000
H  2.31700 39.50800 27.60800
H  1.67400 38.65700 28.98600
H  0.69000 40.02300 28.15400
H  1.65500 40.86300 25.90800
H  2.29800 40.65200 24.19400
H  2.90300 39.69700 25.57500
H  -0.81600 35.35500 22.06400
H  -3.10900 33.40600 21.91000
H  -3.15800 36.91600 22.20900
H  -3.74500 35.57000 21.22000
H  -2.48600 36.55000 20.63000
H  -0.64800 32.39100 23.25600
H  -0.55800 33.16500 21.66000
H  -1.29500 30.50000 22.53000
H  -1.44900 31.14900 20.88100
H  -2.83600 31.29100 21.94600
H  -5.07400 29.25900 26.66300
H  -4.37500 29.55400 25.17900
H  -5.83100 30.41300 25.55400
H  -3.16600 31.18900 30.98200
H  -6.73300 32.98500 33.04700
H  -5.39000 32.63200 34.18500
H  -6.45500 31.34200 33.76200

