158

Mg 1.05700 8.07400 27.70700
C  1.96900 10.42300 30.15500
C  1.42000 5.60500 30.00800
C  0.80000 5.95800 25.23400
C  1.29300 10.66400 25.24600
N  1.52600 8.03500 29.92300
C  1.78600 9.14800 30.71200
C  1.69400 8.75500 32.18500
C  2.00500 7.18100 32.08800
C  1.65900 6.85800 30.61500
C  3.47000 6.75100 32.49700
C  0.32500 9.10400 32.83000
C  0.07700 8.91000 34.31600
H  1.18800 8.26200 35.12400
N  0.89700 6.00400 27.62100
C  1.07500 5.16000 28.67700
C  0.95200 3.82300 28.24700
C  0.59200 3.87700 26.87400
C  0.76800 5.28900 26.47100
C  0.93300 2.59300 29.14700
C  0.16300 2.79600 26.00200
O  -0.20300 3.04400 24.85700
C  0.02600 1.43800 26.53800
N  1.19900 8.28100 25.56500
C  1.00100 7.25200 24.78200
C  0.87600 7.65700 23.36000
C  0.76000 9.23100 23.39200
C  1.08600 9.41900 24.84800
C  2.17000 7.22600 22.63100
C  -0.55500 9.80600 22.91100
C  -0.49800 10.85000 21.73300
N  1.47700 10.08400 27.65100
C  1.56200 10.94400 26.60200
C  2.02500 12.23600 27.14400
C  2.26800 12.04900 28.50300
C  1.93300 10.74500 28.76300
C  2.12500 13.42600 26.28300
C  2.59000 12.74600 29.68800
O  3.05600 13.82900 29.91100
C  2.41400 11.68900 30.80600
C  3.62700 11.43900 31.64100
O  4.53800 10.66700 31.36000
O  3.57100 12.18700 32.80300
C  4.73300 12.06400 33.63100
H  1.55100 4.85300 30.78900
H  0.56500 5.26100 24.42700
H  1.43000 11.41800 24.46800
H  2.45200 9.32200 32.72500
H  1.27600 6.68100 32.72600
H  3.83000 6.24000 31.60500
H  3.28600 5.98700 33.25100
H  4.16200 7.48500 32.91200
H  -0.47100 8.55600 32.32500
H  0.24200 10.17300 32.63100
H  -0.88000 8.41800 34.48700
H  -0.08200 9.81200 34.90700
H  -0.11800 2.32100 29.24300
H  1.35900 2.85200 30.11600
H  1.63100 1.79300 28.90300
H  -0.43600 0.90600 25.70600
H  -0.64100 1.42000 27.40000
H  1.03700 1.03200 26.56600
H  -0.03500 7.19500 22.97900
H  1.54600 9.78700 22.88100
H  2.53100 6.29900 23.07600
H  2.94500 7.99100 22.58900
H  2.00200 6.85300 21.62100
H  -1.01100 10.38200 23.71600
H  -1.24000 9.05700 22.51200
H  -0.79800 11.69100 22.35900
H  -1.11800 10.45200 20.93000
H  0.53800 10.97100 21.41800
H  1.12500 13.71400 25.96000
H  2.74200 13.25900 25.40000
H  2.53500 14.27500 26.83100
H  1.66800 11.95700 31.55400
H  4.73900 12.72200 34.50000
H  5.62200 12.44100 33.12600
H  5.00500 11.04000 33.88700
Mg 36.04300 2.31000 30.77800
C  33.32500 3.06900 33.03300
C  38.08800 2.19000 33.27000
C  38.30500 1.69000 28.45800
C  33.55800 2.35600 28.16600
N  35.69800 2.63900 32.88900
C  34.56300 2.87700 33.64700
C  34.95900 2.96300 35.12500
C  36.49200 2.88500 35.16100
C  36.79500 2.49300 33.65300
C  37.25200 4.21200 35.48500
C  34.20800 1.81000 36.02000
C  33.75300 2.17000 37.45500
H  34.57600 3.18000 38.20400
N  37.93500 1.89100 30.84400
C  38.64800 1.89900 32.01600
C  39.98800 1.33800 31.79000
C  40.02100 1.17200 30.38800
C  38.74600 1.66200 29.83200
C  41.01600 1.05400 32.89700
C  41.14300 0.61800 29.51100
O  40.90500 0.39200 28.36900
C  42.54600 0.35500 30.09100
N  35.91900 1.92300 28.58500
C  37.01000 1.81500 27.88300
C  36.69600 1.48100 26.45500
C  35.13300 1.49400 26.38000
C  34.77100 1.87600 27.79400
C  37.34700 2.20600 25.29000
C  34.57500 0.05200 26.10700
C  34.50000 -0.29000 24.61500
N  33.95400 2.80800 30.53700
C  33.11400 2.73800 29.44800
C  31.78900 3.02500 29.87200
C  31.88400 3.23400 31.26800
C  33.19000 3.02000 31.59100
C  30.57600 2.96300 28.97900
C  31.08800 3.50300 32.46800
O  29.92200 3.75200 32.63800
C  32.08300 3.37900 33.65100
C  32.10800 4.72000 34.32500
O  32.54000 5.76600 33.81400
O  31.52200 4.62400 35.55800
C  31.43300 5.81300 36.44600
H  38.82100 2.16400 34.07900
H  39.00800 1.42600 27.66500
H  32.93700 2.31300 27.27000
H  34.59800 3.93500 35.46300
H  36.97000 2.12900 35.78300
H  37.76100 4.66600 34.63500
H  37.99600 4.06700 36.26800
H  36.59100 5.02700 35.77900
H  34.86900 0.94400 36.04600
H  33.38900 1.46800 35.38700
H  33.78300 1.18000 37.91000
H  32.72900 2.53900 37.38900
H  41.98800 1.43900 32.58900
H  41.00300 -0.02400 33.05400
H  40.73800 1.37000 33.90300
H  43.16800 -0.06300 29.29900
H  42.39800 -0.29400 30.95400
H  43.04400 1.26600 30.42400
H  37.01500 0.45600 26.26600
H  34.77500 2.29200 25.73100
H  36.63200 2.08800 24.47600
H  38.18100 1.59800 24.94000
H  37.60200 3.26400 25.35200
H  33.61200 -0.04700 26.60900
H  35.28500 -0.64800 26.54700
H  33.66600 -0.95400 24.38600
H  35.42000 -0.71600 24.21500
H  34.35500 0.62700 24.04300
H  29.69500 2.95500 29.62100
H  30.67100 2.03300 28.41800
H  30.50800 3.79800 28.28300
H  31.75400 2.60400 34.34200
H  31.47300 5.63400 37.52100
H  30.49600 6.33300 36.24500
H  32.24100 6.51900 36.25400

