158

Mg -1.99100 17.38700 27.08000
C  -2.54200 15.31800 29.81400
C  -2.82100 20.12600 28.99700
C  -1.82800 19.37500 24.36800
C  -2.09900 14.54600 24.98400
N  -2.74800 17.56100 29.07500
C  -2.64800 16.67000 30.11900
C  -2.83700 17.31200 31.48600
C  -3.15400 18.77300 31.15000
C  -2.85800 18.85400 29.60700
C  -4.54200 19.26200 31.55100
C  -1.64300 17.19200 32.48700
C  -2.01600 16.41000 33.83200
H  -0.85500 16.22700 34.92100
N  -2.06900 19.52800 26.76500
C  -2.46700 20.40900 27.69000
C  -2.55000 21.75400 27.09400
C  -2.04100 21.56100 25.77700
C  -1.98500 20.10600 25.57400
C  -3.01200 23.01100 27.75700
C  -1.72400 22.49600 24.74700
O  -1.60100 22.16200 23.54900
C  -1.48400 23.95600 25.10400
N  -2.01700 17.03500 24.98100
C  -1.90700 17.98100 24.05300
C  -1.69700 17.51800 22.62000
C  -1.54200 15.97300 22.84400
C  -1.88000 15.78800 24.37600
C  -2.77900 18.00600 21.66200
C  -0.21400 15.38000 22.34600
C  1.08600 15.92200 22.95000
N  -2.16500 15.36900 27.36500
C  -2.27500 14.35300 26.37100
C  -2.61500 13.20700 27.03300
C  -2.57400 13.46200 28.37200
C  -2.33400 14.80900 28.54900
C  -2.97700 11.83800 26.38400
C  -2.75900 12.88200 29.67300
O  -3.15800 11.77400 29.99800
C  -2.56700 14.07200 30.69300
C  -1.29700 13.81100 31.50000
O  -0.21900 14.33900 31.25800
O  -1.46200 12.79800 32.39500
C  -0.35600 12.40500 33.28800
H  -2.95400 20.98500 29.65800
H  -1.70200 19.91700 23.42800
H  -2.07300 13.66000 24.34500
H  -3.60800 16.73400 31.99500
H  -2.45400 19.39300 31.71000
H  -5.03500 19.40400 30.59000
H  -4.67100 20.18400 32.11800
H  -5.12900 18.47400 32.02200
H  -1.25200 18.13700 32.86400
H  -0.70500 16.78500 32.11000
H  -2.39900 15.40900 33.63600
H  -2.80600 16.92200 34.38200
H  -3.67700 23.45600 27.01700
H  -2.18700 23.67200 28.02400
H  -3.58400 22.76200 28.65000
H  -0.71100 24.39600 24.47500
H  -1.20900 24.12600 26.14500
H  -2.37700 24.56300 24.95400
H  -0.79900 17.98400 22.21400
H  -2.35200 15.46100 22.32400
H  -3.68000 17.45800 21.93600
H  -2.58800 17.80500 20.60800
H  -2.95600 19.08200 21.67900
H  -0.23600 15.61300 21.28100
H  -0.33400 14.29900 22.41400
H  1.75000 16.47300 22.28400
H  1.64000 15.05200 23.30300
H  0.82100 16.72000 23.64300
H  -2.70200 10.96800 26.98100
H  -2.33200 11.56200 25.55000
H  -4.00800 11.88100 26.03100
H  -3.41400 14.03200 31.37800
H  -0.81200 12.00300 34.19200
H  0.38900 13.13100 33.61400
H  0.12500 11.46000 33.03300
Mg 1.18700 42.44100 25.86500
C  2.04800 42.67200 29.35600
C  -1.70100 40.96500 26.82600
C  0.67300 41.82000 22.57000
C  4.34500 43.75600 25.16000
N  0.37300 41.88400 27.81600
C  0.77400 42.09000 29.10100
C  -0.28800 41.91200 30.11600
C  -1.42900 41.16100 29.34500
C  -0.89800 41.28200 27.88100
C  -1.74300 39.68000 29.74300
C  -0.70500 43.23800 30.87900
C  -0.48400 43.21000 32.45800
H  -0.36100 41.88300 33.28900
N  -0.35600 41.58800 24.80000
C  -1.45300 40.95900 25.41600
C  -2.31900 40.54100 24.40500
C  -1.72000 40.85400 23.09000
C  -0.43700 41.48600 23.43600
C  -3.50000 39.69300 24.83500
C  -2.22300 40.54800 21.71000
O  -1.59200 40.89200 20.74000
C  -3.56700 39.95100 21.48800
N  2.29400 42.77900 24.14700
C  1.92000 42.43000 22.87400
C  2.97200 42.84600 21.83400
C  3.91400 43.66500 22.67700
C  3.48300 43.37500 24.08100
C  3.58300 41.65400 21.01000
C  3.90100 45.17900 22.19000
C  2.61600 45.98500 22.38400
N  2.92400 43.07000 26.91900
C  4.09900 43.63700 26.50800
C  4.94500 43.90100 27.58400
C  4.20100 43.50900 28.73800
C  2.99900 43.03500 28.29100
C  6.35000 44.32400 27.48700
C  4.17100 43.49000 30.14400
O  5.02800 43.79300 30.98600
C  2.81400 42.74900 30.58700
C  3.34200 41.41800 30.97100
O  3.97800 40.63700 30.28500
O  3.06600 41.34700 32.30000
C  3.51300 40.17600 33.01600
H  -2.65000 40.63300 27.25200
H  0.62200 41.59400 21.50300
H  5.31000 44.19200 24.89400
H  0.13200 41.28100 30.90000
H  -2.33900 41.74600 29.47900
H  -1.09400 39.39600 30.57100
H  -1.43900 39.09100 28.87800
H  -2.75000 39.40700 30.05900
H  -1.71300 43.54800 30.60100
H  -0.20700 44.07200 30.38500
H  -1.22900 43.84800 32.93400
H  0.44800 43.68900 32.76000
H  -4.27300 40.29900 25.30700
H  -3.06700 39.00600 25.56200
H  -3.92200 39.08100 24.03700
H  -3.40700 38.96500 21.92400
H  -3.77100 39.93400 20.41800
H  -4.31000 40.49900 22.06800
H  2.42300 43.40400 21.07600
H  4.92300 43.25200 22.65900
H  4.66400 41.51400 21.00500
H  3.18800 41.85800 20.01500
H  3.14700 40.72600 21.38000
H  4.10000 45.22800 21.11900
H  4.76600 45.62400 22.68200
H  1.71600 45.38600 22.52100
H  2.33700 46.46400 21.44600
H  2.68100 46.68500 23.21700
H  6.55700 44.93400 26.60700
H  6.93500 43.40500 27.47400
H  6.63600 44.88700 28.37600
H  2.47300 43.23100 31.50300
H  3.88300 40.48400 33.99400
H  4.36800 39.62800 32.62000
H  2.73500 39.41400 33.05900

