158

Mg 47.91200 25.18600 28.56200
C  48.87400 27.69700 30.92600
C  47.01000 23.21200 31.17900
C  47.20100 22.93600 26.39900
C  49.30900 27.23100 25.96700
N  48.08300 25.42200 30.78600
C  48.32300 26.54800 31.52900
C  48.11900 26.25500 33.04200
C  47.78500 24.73200 33.03400
C  47.52600 24.45800 31.60000
C  48.89100 23.84000 33.57500
C  46.87800 27.03600 33.53100
C  47.31300 27.92000 34.79600
H  46.30100 28.06000 35.98400
N  47.20000 23.29900 28.71700
C  46.92000 22.62500 29.86900
C  46.60400 21.23200 29.57400
C  46.45100 21.21200 28.14300
C  46.98200 22.51200 27.71000
C  46.29800 20.22100 30.61400
C  45.88500 20.08800 27.25900
O  45.70100 20.20900 26.02600
C  45.51700 18.75600 27.87900
N  48.23300 25.12900 26.48800
C  47.68700 24.11400 25.80500
C  48.03400 24.27500 24.32400
C  48.46500 25.76500 24.08900
C  48.71700 26.01700 25.59600
C  48.82800 23.15000 23.63600
C  47.40600 26.66800 23.52000
C  47.86600 28.02500 22.98600
N  48.69400 27.14100 28.35300
C  49.23500 27.83500 27.25400
C  49.68300 29.17500 27.66800
C  49.55600 29.17000 29.13300
C  48.94900 27.83400 29.51300
C  50.40000 30.24600 27.00200
C  49.66900 29.93500 30.32600
O  50.15800 31.02700 30.49100
C  49.14400 29.08300 31.48900
C  50.10800 28.91000 32.68300
O  51.12300 28.22500 32.68100
O  49.84600 29.74200 33.69100
C  50.70200 29.75900 34.89400
H  46.72100 22.58500 32.02500
H  46.89000 22.19500 25.66000
H  49.79800 27.87500 25.23400
H  48.96700 26.58900 33.63900
H  46.78900 24.53000 33.42800
H  48.45100 22.88800 33.87200
H  49.42600 24.24900 34.43200
H  49.56900 23.70500 32.73200
H  46.00600 26.42900 33.77200
H  46.57600 27.76900 32.78300
H  47.34700 28.95800 34.46600
H  48.26300 27.65400 35.25900
H  45.22900 20.15700 30.81500
H  46.81500 20.50100 31.53200
H  46.67500 19.24900 30.29400
H  46.33400 18.17900 28.31300
H  44.95300 18.10400 27.21300
H  44.86700 18.82700 28.75100
H  47.10200 24.19100 23.76600
H  49.34800 25.86600 23.45800
H  49.63800 23.61100 23.07100
H  48.30100 22.46200 22.97500
H  49.27500 22.50800 24.39500
H  46.77500 26.81900 24.39600
H  46.87700 26.13000 22.73300
H  48.93800 28.22000 23.02700
H  47.34100 28.81100 23.52900
H  47.76400 27.96000 21.90300
H  49.98400 30.47300 26.02000
H  51.47000 30.11200 26.84900
H  50.27000 31.17300 27.56000
H  48.22700 29.58700 31.79500
H  51.71200 29.61900 34.50700
H  50.43100 29.02200 35.65000
H  50.68800 30.76300 35.31900
Mg -5.44200 25.60600 26.31200
C  -4.54100 27.17500 29.26600
C  -7.48300 23.50200 28.17100
C  -6.17300 23.91500 23.45500
C  -3.37900 27.82400 24.52900
N  -5.89400 25.32200 28.46400
C  -5.38700 26.06400 29.46900
C  -6.01700 25.69700 30.79500
C  -6.61800 24.26500 30.43400
C  -6.76300 24.40800 28.95900
C  -5.74100 22.99600 30.78500
C  -7.08600 26.76500 31.28500
C  -6.90400 27.24800 32.76900
H  -6.45000 26.18800 33.87000
N  -6.64900 23.87000 25.92800
C  -7.47200 23.19600 26.80000
C  -8.31600 22.25900 26.05600
C  -7.79000 22.18600 24.72000
C  -6.85400 23.39000 24.66100
C  -9.40100 21.42900 26.77900
C  -8.00700 21.21800 23.70100
O  -7.49300 21.40700 22.58800
C  -8.73900 19.95700 24.02300
N  -4.84400 25.86900 24.24200
C  -5.26600 24.96500 23.32200
C  -4.63700 25.39900 21.99200
C  -3.94600 26.82200 22.29300
C  -4.03900 26.87300 23.76100
C  -3.80900 24.33300 21.18500
C  -4.66600 28.03900 21.58200
C  -4.02400 28.41400 20.27200
N  -4.20400 27.16100 26.73600
C  -3.41800 27.99200 25.89600
C  -2.67700 28.91900 26.69600
C  -3.19100 28.68500 28.00800
C  -4.02500 27.58600 27.97200
C  -1.65800 29.85800 26.13500
C  -3.07400 29.16700 29.39700
O  -2.42600 30.07900 29.92400
C  -3.95400 28.12900 30.25400
C  -3.12700 27.43500 31.30700
O  -2.13600 26.69800 31.10700
O  -3.54300 27.85300 32.57600
C  -2.78600 27.27700 33.72600
H  -8.09000 22.82000 28.77100
H  -6.31100 23.39200 22.50700
H  -2.73200 28.52500 23.99800
H  -5.20400 25.63800 31.51900
H  -7.64400 24.05600 30.73700
H  -5.62000 22.33600 29.92600
H  -6.21000 22.35500 31.53200
H  -4.76800 23.33400 31.14100
H  -8.08400 26.37300 31.09100
H  -6.96600 27.63800 30.64300
H  -7.89400 27.55800 33.10300
H  -6.20300 28.07900 32.84300
H  -10.16700 21.31800 26.01200
H  -9.86700 21.93000 27.62700
H  -9.05300 20.44300 27.08700
H  -8.48600 19.64500 25.03700
H  -8.46200 19.14900 23.34600
H  -9.80100 20.10300 23.82300
H  -5.53400 25.52600 21.38500
H  -2.90600 26.64900 22.01600
H  -3.93600 23.33200 21.59700
H  -2.73900 24.53900 21.15700
H  -4.06400 24.32500 20.12500
H  -4.47200 28.96200 22.12900
H  -5.72100 27.77100 21.52500
H  -3.29800 29.22300 20.35600
H  -4.76500 28.66600 19.51400
H  -3.42300 27.61700 19.83400
H  -1.44100 29.66000 25.08600
H  -0.69500 30.06000 26.60400
H  -2.10000 30.83900 26.31000
H  -4.83400 28.51700 30.76700
H  -2.46300 26.24800 33.57400
H  -3.49200 27.32100 34.55400
H  -1.86500 27.83800 33.88600

