158

Mg 43.29900 42.81900 26.00900
C  42.42800 45.41500 28.19600
C  44.63900 41.05600 28.48400
C  44.17000 40.59400 23.65100
C  42.57000 45.16700 23.42600
N  43.44300 43.16500 28.12500
C  42.90600 44.20300 28.88700
C  43.01500 43.95600 30.40800
C  44.01800 42.70100 30.39800
C  44.08100 42.25900 28.90100
C  45.38900 42.87300 31.20600
C  41.53100 43.80000 30.90500
C  41.19100 44.16400 32.31800
H  42.28200 43.93700 33.35300
N  44.35800 41.08400 26.03800
C  44.75600 40.43300 27.22600
C  45.40600 39.20000 26.89500
C  45.12600 38.94500 25.45600
C  44.52700 40.21400 24.94500
C  45.89200 38.39700 28.04800
C  45.47400 37.79800 24.54000
O  45.14400 37.81800 23.36000
C  46.23300 36.69200 25.13800
N  43.49400 42.94900 23.83100
C  43.86300 41.86600 23.12600
C  43.56100 41.97800 21.68600
C  42.77100 43.32300 21.66600
C  42.87700 43.88100 23.06600
C  44.92400 42.04900 20.90900
C  41.31600 43.19100 21.02600
C  40.40200 42.05500 21.52700
N  42.67200 44.86200 25.81300
C  42.46800 45.65400 24.72000
C  42.09800 47.01000 25.12900
C  42.06100 46.96500 26.52500
C  42.41400 45.64200 26.83400
C  41.79700 48.13000 24.18100
C  41.85100 47.72400 27.70700
O  41.54100 48.87900 27.86000
C  42.14100 46.74400 28.89900
C  43.20500 47.18700 29.84400
O  44.41000 47.19600 29.68000
O  42.57900 47.46400 31.00800
C  43.37000 48.01900 32.08500
H  45.14200 40.50700 29.28300
H  44.10400 39.80300 22.90100
H  42.20700 45.80600 22.61900
H  43.59900 44.73000 30.90600
H  43.43200 42.02400 31.01900
H  45.64300 43.87300 31.55700
H  46.10200 42.46800 30.48800
H  45.47100 42.20800 32.06600
H  41.02600 42.86900 30.64800
H  40.84800 44.43700 30.34300
H  40.37800 43.51900 32.65300
H  40.84500 45.19300 32.42100
H  46.52700 38.97100 28.72400
H  46.50500 37.55400 27.72800
H  45.03000 37.92300 28.51600
H  45.60600 36.27900 25.92800
H  47.11900 37.18600 25.53700
H  46.59500 35.89600 24.48700
H  42.93600 41.16500 21.31700
H  43.23800 44.07500 21.03000
H  45.76000 42.01700 21.60700
H  45.02200 42.88900 20.22100
H  45.10700 41.06300 20.48100
H  41.46000 43.29600 19.95100
H  40.85600 44.09200 21.43000
H  39.41900 42.46800 21.75100
H  40.77900 41.54600 22.41400
H  40.23400 41.21600 20.85200
H  42.73800 48.15000 23.63200
H  41.58000 49.01400 24.78200
H  40.95800 47.89000 23.52700
H  41.19300 46.57000 29.40800
H  44.15300 48.71200 31.77600
H  43.75000 47.41300 32.90800
H  42.68100 48.73000 32.54200
Mg 16.68300 51.76100 26.87900
C  18.73200 50.58100 29.48000
C  14.45200 52.90000 29.31500
C  14.63500 52.90400 24.42600
C  19.17100 50.88200 24.54000
N  16.65300 51.76500 29.16800
C  17.58700 51.17100 30.03200
C  17.14000 51.19800 31.50300
C  15.59000 51.59600 31.21900
C  15.55700 52.18900 29.80800
C  14.63500 50.38400 31.46300
C  17.92200 52.35200 32.31200
C  18.14200 51.97500 33.78500
H  17.17200 52.34000 34.95100
N  14.79600 52.74500 26.87900
C  14.10100 53.20400 27.99300
C  12.94900 53.95000 27.50800
C  12.89200 53.89400 26.10900
C  14.13900 53.06800 25.73300
C  12.05300 54.66000 28.55400
C  11.88300 54.55100 25.21200
O  12.01700 54.40900 23.97300
C  10.68700 55.33500 25.73000
N  16.89400 51.88800 24.77200
C  15.88700 52.39100 23.94500
C  16.25300 52.21900 22.37200
C  17.72100 51.55800 22.53400
C  17.97200 51.41400 24.03200
C  15.13300 51.33700 21.75900
C  18.87000 52.28500 21.85400
C  19.85300 51.30600 21.22700
N  18.55700 50.99300 26.93700
C  19.53800 50.69300 25.89800
C  20.67300 50.09000 26.38300
C  20.38600 50.05900 27.77800
C  19.10900 50.60100 28.05900
C  21.93000 49.61700 25.51800
C  20.90400 49.69900 29.08200
O  22.00800 49.21300 29.32800
C  19.84800 49.91500 30.23300
C  19.60700 48.59900 30.86700
O  18.91200 47.65500 30.44800
O  20.20500 48.51900 32.03500
C  19.90300 47.44000 32.97800
H  13.85900 53.33700 30.12100
H  13.89800 53.08500 23.64100
H  19.97600 50.58700 23.86400
H  17.20800 50.23800 32.01400
H  15.40000 52.34300 31.98900
H  13.87400 50.29200 30.68800
H  14.09300 50.44600 32.40700
H  15.13900 49.43000 31.31400
H  17.41900 53.31900 32.33800
H  18.85500 52.59100 31.80200
H  19.08200 52.38200 34.15800
H  18.26400 50.89200 33.76000
H  11.02800 54.71800 28.18700
H  12.28600 55.70300 28.76700
H  12.12300 54.18800 29.53400
H  11.10300 55.98900 26.49600
H  9.89200 54.65700 26.04100
H  10.31600 56.01900 24.96600
H  16.22200 53.21100 21.92200
H  17.61500 50.52600 22.20000
H  15.46500 50.62900 21.00000
H  14.32900 51.95200 21.35600
H  14.64600 50.75500 22.54200
H  19.46600 52.93700 22.49300
H  18.61500 52.97200 21.04700
H  19.86600 51.51900 20.15800
H  19.58900 50.25100 21.30900
H  20.85600 51.55400 21.57400
H  22.73900 49.97900 26.15200
H  21.92900 50.08000 24.53200
H  21.96600 48.52900 25.45200
H  20.40000 50.61100 30.86500
H  20.19100 47.79600 33.96700
H  20.57900 46.59700 32.83300
H  18.90000 47.02800 32.86300

