158

Mg 47.87900 14.46000 28.17300
C  45.85500 14.58200 31.04000
C  49.80500 17.03100 29.66900
C  49.86000 14.60600 25.40800
C  45.52800 12.76800 26.51400
N  47.80700 15.63200 30.16800
C  47.04800 15.33900 31.24400
C  47.70400 15.94700 32.45900
C  48.54300 17.07700 31.88500
C  48.70400 16.59600 30.43100
C  48.07000 18.50500 31.96400
C  48.37600 14.89800 33.31100
C  48.10100 14.90400 34.77100
H  49.20900 14.65000 35.75700
N  49.67700 15.61500 27.64300
C  50.38000 16.53600 28.42900
C  51.56900 17.00800 27.69900
C  51.57400 16.30900 26.43300
C  50.37800 15.42600 26.47200
C  52.55100 17.97900 28.36900
C  52.59000 16.50600 25.32600
O  52.51500 15.84700 24.26800
C  53.63200 17.55300 25.46600
N  47.70600 13.86400 26.26900
C  48.61400 13.96100 25.28900
C  48.19300 13.36500 23.94800
C  46.79600 12.78100 24.34200
C  46.67100 13.12000 25.82700
C  48.07200 14.38700 22.80200
C  46.45400 11.28400 23.98100
C  47.13600 10.16500 24.73500
N  46.09900 13.82100 28.61900
C  45.18100 13.17400 27.81900
C  44.02700 12.80900 28.60100
C  44.22300 13.36700 29.82200
C  45.48800 13.93100 29.83700
C  42.83000 12.14500 28.09200
C  43.60200 13.60200 31.08500
O  42.47300 13.35100 31.49300
C  44.65000 14.35500 31.89600
C  44.01700 15.56200 32.51500
O  44.10500 16.73600 32.20100
O  43.56800 15.10900 33.75500
C  43.07300 16.20300 34.66900
H  50.33400 17.82000 30.20700
H  50.52400 14.53400 24.54400
H  44.67600 12.15400 26.21500
H  46.89800 16.44700 32.99600
H  49.48400 17.15600 32.42900
H  47.47800 18.80200 31.09900
H  48.88800 19.21200 32.10300
H  47.48900 18.72600 32.86000
H  49.46100 15.00400 33.27200
H  48.19600 13.92800 32.84700
H  47.36700 14.17800 35.12100
H  47.72100 15.90200 34.98700
H  52.44300 19.04100 28.15300
H  53.61900 17.82000 28.21600
H  52.56400 17.85300 29.45200
H  54.48800 17.34000 26.10500
H  53.20300 18.48700 25.83000
H  54.07600 17.63700 24.47400
H  48.78400 12.54400 23.54200
H  46.05200 13.37500 23.81200
H  47.07000 14.37200 22.37300
H  48.89200 14.26000 22.09600
H  48.38600 15.34500 23.21500
H  46.72400 11.18200 22.92900
H  45.39100 11.07700 24.10800
H  47.82400 9.63800 24.07400
H  46.36000 9.48700 25.09100
H  47.63800 10.57900 25.61000
H  42.86000 11.05800 28.01700
H  42.50000 12.66900 27.19500
H  42.07100 12.24800 28.86700
H  44.84500 13.65100 32.70500
H  42.16400 16.59200 34.21000
H  43.76700 17.03900 34.76100
H  42.88700 15.79600 35.66300
Mg 0.07000 43.29600 26.67000
C  2.21700 42.69800 29.39100
C  -2.62700 41.96100 28.48200
C  -1.80400 43.64400 23.91800
C  2.93800 44.14800 24.85800
N  -0.15800 42.41800 28.71000
C  0.84500 42.53000 29.66700
C  0.22000 42.23000 31.02600
C  -1.21200 41.75800 30.59500
C  -1.35000 42.04100 29.15800
C  -1.61800 40.29900 30.74600
C  0.26100 43.24400 32.15500
C  0.61600 42.76600 33.58200
H  0.00800 41.50300 34.12200
N  -1.96800 42.88200 26.29400
C  -2.88100 42.30300 27.11500
C  -4.18400 42.21300 26.47200
C  -3.98300 42.76300 25.14500
C  -2.51800 43.09000 25.08100
C  -5.44100 41.73400 27.09000
C  -4.94200 42.99500 24.01800
O  -4.56500 43.44500 22.93100
C  -6.52600 42.79700 24.23400
N  0.48600 43.84700 24.73900
C  -0.47700 43.99300 23.79900
C  0.01900 44.85000 22.58500
C  1.46100 45.13400 23.03700
C  1.70800 44.24300 24.28300
C  -0.10500 44.19800 21.23200
C  1.69600 46.63700 23.42900
C  1.45400 47.67500 22.39400
N  2.17300 43.41800 27.01400
C  3.18800 43.67800 26.17500
C  4.44300 43.50000 26.83900
C  4.10100 43.11600 28.17200
C  2.75800 43.01100 28.14400
C  5.79400 43.76000 26.32500
C  4.68400 42.77000 29.45700
O  5.88000 42.66100 29.77000
C  3.47100 42.70500 30.36200
C  3.51300 41.49200 31.28400
O  3.18400 40.32600 31.06000
O  3.96300 41.87200 32.52700
C  4.19200 40.84700 33.56000
H  -3.52500 41.63900 29.01400
H  -2.34000 43.85000 22.99000
H  3.85900 44.48100 24.37500
H  0.67700 41.33400 31.44600
H  -1.95500 42.44900 30.99300
H  -0.89100 39.78500 31.37500
H  -1.72100 39.73300 29.82000
H  -2.58500 40.24700 31.24700
H  -0.72800 43.66800 32.32900
H  0.92900 44.06900 31.90700
H  0.55500 43.55700 34.33000
H  1.67100 42.57600 33.38400
H  -6.01000 41.07200 26.43800
H  -6.08700 42.54900 27.41600
H  -5.24000 41.09500 27.95000
H  -6.96100 43.20000 25.14800
H  -6.70200 41.73300 24.07600
H  -7.05500 43.36500 23.46800
H  -0.52500 45.79300 22.54700
H  2.16800 44.92700 22.23400
H  0.90500 44.13800 20.82500
H  -0.64500 44.75500 20.46600
H  -0.50200 43.18500 21.17300
H  2.73200 46.67000 23.76700
H  1.16100 46.98300 24.31400
H  1.05300 47.13100 21.53900
H  2.40300 48.13300 22.11700
H  0.66100 48.37200 22.66800
H  5.77900 43.95100 25.25200
H  6.53000 42.96800 26.46500
H  6.13800 44.63600 26.87400
H  3.32700 43.60800 30.95700
H  5.18600 41.03200 33.96600
H  4.21700 39.78500 33.31400
H  3.51800 41.02500 34.39800

