158

Mg 9.01800 4.81200 27.17100
C  10.43200 3.11600 29.90200
C  6.93800 6.45200 29.28000
C  7.50900 5.95400 24.45200
C  10.60200 2.33800 25.12400
N  8.70200 4.80300 29.31600
C  9.55200 4.19700 30.23800
C  9.20900 4.57600 31.65100
C  8.03500 5.67600 31.37900
C  7.81000 5.54200 29.89000
C  6.79900 5.35700 32.25500
C  10.42700 5.09400 32.52200
C  10.10300 5.83200 33.83600
H  10.82500 5.48100 35.14100
N  7.55800 6.19200 26.88700
C  6.76800 6.74800 27.90800
C  5.75600 7.52200 27.29100
C  6.01400 7.53700 25.82500
C  7.09100 6.53000 25.69000
C  4.58300 8.17600 28.09100
C  5.26300 8.26800 24.69300
O  5.49700 8.05500 23.50300
C  4.09000 9.21200 25.05000
N  9.09000 4.25700 25.05300
C  8.43600 5.04400 24.15600
C  8.88000 4.70300 22.71200
C  9.88000 3.50900 22.93400
C  9.79300 3.27400 24.46000
C  7.57700 4.38100 21.84600
C  11.45100 3.75200 22.43400
C  12.16300 2.76100 21.47000
N  10.18700 3.08400 27.45000
C  10.77300 2.26200 26.46400
C  11.68900 1.30900 27.14100
C  11.54000 1.60600 28.48300
C  10.63700 2.62000 28.62000
C  12.60400 0.30100 26.55600
C  11.82600 1.21300 29.87300
O  12.46200 0.28300 30.29700
C  11.24200 2.33300 30.79600
C  10.39800 1.73700 31.87500
O  9.31300 1.21400 31.59400
O  11.06000 1.72200 33.07600
C  10.36100 0.94500 34.08900
H  6.34100 6.95400 30.04400
H  7.09100 6.38600 23.54000
H  11.03800 1.59700 24.45000
H  8.79500 3.76900 32.25500
H  8.55100 6.60600 31.61800
H  5.90200 5.45100 31.64200
H  6.60400 6.12600 33.00200
H  6.80100 4.35700 32.68700
H  10.96200 5.77100 31.85600
H  11.00000 4.22300 32.84000
H  9.03400 5.63600 33.92800
H  10.40500 6.86500 33.66500
H  4.48600 7.78100 29.10300
H  3.66400 7.95500 27.54900
H  4.76500 9.24200 28.22200
H  3.22800 8.70700 25.48500
H  3.93200 9.83300 24.16900
H  4.44000 9.94500 25.77600
H  9.48700 5.47900 22.24700
H  9.53300 2.59900 22.44500
H  7.81800 3.64800 21.07500
H  7.27400 5.28600 21.32000
H  6.75500 4.12600 22.51500
H  12.08100 3.80900 23.32200
H  11.41900 4.70800 21.91100
H  11.47400 2.27800 20.77800
H  12.56000 1.93000 22.05200
H  12.92000 3.27500 20.87800
H  12.67200 0.25600 25.46900
H  12.20000 -0.67200 26.83600
H  13.61700 0.59500 26.82900
H  12.01800 2.93400 31.27100
H  10.01800 -0.04400 33.78700
H  9.67600 1.49600 34.73300
H  11.18000 0.61500 34.72800
Mg -10.97300 38.54100 40.87200
C  -9.80600 35.20100 40.09400
C  -7.94700 39.71000 39.60000
C  -12.28500 41.62400 40.72100
C  -14.07700 37.20200 41.69800
N  -9.11900 37.47700 39.76800
C  -8.82100 36.16800 39.70400
C  -7.48600 35.95600 39.11900
C  -6.76900 37.36700 39.47300
C  -7.99400 38.24500 39.65200
C  -5.75700 37.40000 40.63700
C  -7.36800 35.47100 37.64200
C  -7.94700 36.50100 36.58400
H  -9.21300 36.21100 35.80300
N  -10.28100 40.34000 40.17900
C  -9.00100 40.69000 39.67300
C  -8.93200 42.12700 39.34000
C  -10.18200 42.65900 39.67600
C  -11.02100 41.53600 40.23200
C  -7.77600 42.78500 38.61200
C  -10.61600 44.10200 39.34600
O  -9.83400 44.86100 38.82200
C  -12.09200 44.58800 39.49100
N  -12.97000 39.32000 40.99500
C  -13.19800 40.59500 41.10100
C  -14.64200 40.95700 41.54600
C  -15.16600 39.46400 41.76900
C  -13.96300 38.59200 41.53900
C  -14.82600 41.87200 42.75300
C  -16.47200 39.10500 40.98900
C  -17.64500 38.61200 41.82800
N  -11.76800 36.67500 40.91000
C  -13.03000 36.27000 41.35200
C  -13.06500 34.84500 41.33900
C  -11.84200 34.36300 40.89200
C  -11.08900 35.53100 40.61700
C  -14.28300 34.06600 41.69100
C  -11.05300 33.18600 40.67500
O  -11.36300 32.01800 40.74900
C  -9.70800 33.66900 40.08800
C  -8.54900 33.00400 40.80600
O  -8.45800 32.76200 42.01700
O  -7.52200 32.74100 39.90500
C  -6.35700 32.29100 40.49600
H  -6.90600 40.03500 39.54300
H  -12.71500 42.61900 40.85100
H  -15.10500 37.00100 42.00900
H  -7.07100 35.11000 39.66700
H  -6.21900 37.77700 38.62600
H  -4.79400 37.76800 40.28400
H  -5.73700 36.41100 41.09600
H  -6.07200 38.08000 41.42800
H  -8.10100 34.66900 37.55600
H  -6.37200 35.23000 37.27300
H  -7.15200 36.67400 35.85900
H  -8.01800 37.52300 36.95600
H  -8.03800 43.41400 37.76200
H  -7.00600 42.06700 38.32900
H  -7.26900 43.49800 39.26200
H  -12.34900 44.83500 40.52100
H  -12.80500 43.83300 39.16100
H  -12.11000 45.56200 39.00200
H  -15.19900 41.31300 40.67900
H  -15.29600 39.39500 42.84900
H  -14.00900 42.58300 42.87700
H  -14.94300 41.33400 43.69400
H  -15.80900 42.33200 42.65700
H  -16.33900 38.27900 40.29000
H  -16.78600 39.93300 40.35300
H  -18.52700 39.25300 41.80900
H  -17.34400 38.53000 42.87200
H  -17.93700 37.61800 41.49000
H  -13.99300 33.11900 42.14600
H  -14.88000 33.74300 40.83800
H  -14.94700 34.48600 42.44600
H  -9.84700 33.24800 39.09300
H  -6.27900 31.24500 40.79500
H  -6.11700 32.80100 41.42900
H  -5.53500 32.43100 39.79400

