158

Mg 54.69400 25.00900 44.78300
C  52.35300 27.40700 43.64000
C  52.59400 22.64200 43.72800
C  57.34100 23.02900 44.86200
C  56.62200 27.75100 45.94900
N  52.87200 25.15400 43.45300
C  52.08800 26.17500 43.00100
C  50.75700 25.71100 42.31100
C  50.74600 24.28200 42.98400
C  52.23000 23.96600 43.40700
C  49.69400 24.05900 44.13400
C  50.73400 25.77000 40.76400
C  51.79300 26.45100 39.93600
H  52.89400 25.62000 39.25200
N  54.94400 23.03800 44.33300
C  53.91100 22.18600 44.06200
C  54.43100 20.79700 44.21400
C  55.80500 20.83800 44.52600
C  56.13600 22.35000 44.54500
C  53.57500 19.66000 43.91300
C  56.77100 19.68900 44.74000
O  56.33400 18.57700 44.77300
C  58.11000 19.86700 45.07800
N  56.69000 25.38700 45.20400
C  57.61700 24.37100 45.17000
C  59.07700 24.89400 45.55200
C  58.70700 26.27800 46.19600
C  57.26600 26.51600 45.79500
C  59.97500 23.96700 46.43100
C  59.73600 27.44700 45.89500
C  60.48800 27.98700 47.01100
N  54.50200 27.09300 44.93000
C  55.31300 28.02800 45.58300
C  54.63800 29.34400 45.61300
C  53.51100 29.08600 44.84100
C  53.43000 27.74100 44.47600
C  55.09100 30.57200 46.24700
C  52.32000 29.71800 44.40800
O  51.90300 30.85000 44.49400
C  51.47600 28.66900 43.70600
C  51.17600 29.16800 42.32400
O  51.91100 29.65300 41.51100
O  49.81500 28.89000 42.08700
C  49.06900 29.53900 41.01900
H  51.85300 21.89000 43.44900
H  58.21300 22.37200 44.83800
H  57.27400 28.54900 46.31000
H  49.98400 26.35500 42.73200
H  50.62800 23.56400 42.17300
H  50.19300 23.57100 44.97100
H  48.90800 23.40500 43.75800
H  49.35400 25.05400 44.42200
H  49.72500 26.13900 40.58100
H  50.59400 24.75100 40.40100
H  52.29200 27.14100 40.61600
H  51.26300 27.02100 39.17300
H  54.11100 18.79500 44.30500
H  53.15300 19.40200 42.94200
H  52.69700 19.71100 44.55700
H  58.43200 18.92100 45.51400
H  58.25500 20.59200 45.87800
H  58.59200 20.13300 44.13700
H  59.65000 25.14300 44.65900
H  58.59000 26.15300 47.27200
H  61.02300 24.20500 46.24600
H  59.67900 22.93100 46.26800
H  59.65500 24.06300 47.46800
H  59.32500 28.25700 45.29300
H  60.51400 27.06100 45.23600
H  61.51400 27.62700 47.08200
H  60.06100 27.74600 47.98400
H  60.40300 29.07300 47.00300
H  55.26400 30.37700 47.30500
H  54.32900 31.33700 46.09300
H  55.98000 30.82800 45.67000
H  50.52800 28.57000 44.23500
H  49.40100 29.30600 40.00700
H  49.03700 30.57300 41.36300
H  48.04300 29.18100 41.10600
Mg 7.21200 54.87100 41.68500
C  6.66500 51.49700 41.11400
C  10.22200 54.49500 39.82300
C  7.62600 58.16300 41.61800
C  3.98600 55.12400 42.80000
N  8.31200 53.18100 40.73200
C  7.88300 51.94100 40.48800
C  8.82600 51.14300 39.44200
C  10.11800 51.96000 39.70500
C  9.52300 53.30600 40.06500
C  11.07900 51.39500 40.77200
C  8.45600 51.28400 37.86600
C  8.85700 50.02200 37.15900
H  8.33200 49.86800 35.72000
N  8.71700 56.16000 40.96500
C  9.90900 55.79500 40.28400
C  10.71300 56.96700 40.06800
C  10.02100 58.07700 40.61900
C  8.75200 57.50800 41.13700
C  12.09500 56.77000 39.50000
C  10.50000 59.49200 40.51500
O  11.54600 59.71900 39.91500
C  9.64600 60.59200 41.16200
N  5.86700 56.46400 41.97500
C  6.30700 57.74700 42.01200
C  5.22600 58.66000 42.50400
C  4.05100 57.69700 42.89200
C  4.66300 56.34300 42.56000
C  5.62800 59.56300 43.68300
C  2.66800 57.90300 42.20300
C  1.57500 58.13600 43.23400
N  5.70000 53.57800 42.21100
C  4.39100 53.81000 42.59400
C  3.65500 52.61700 42.65700
C  4.54000 51.69000 42.12000
C  5.76000 52.30800 41.82400
C  2.21900 52.38000 43.07400
C  4.69700 50.26200 41.91000
O  3.88300 49.37500 42.15400
C  6.07800 50.07300 41.17600
C  5.70100 49.51500 39.88100
O  5.43100 50.08800 38.82900
O  5.75800 48.16200 40.00100
C  5.56900 47.43400 38.71800
H  11.13500 54.36100 39.23900
H  7.58400 59.25300 41.56000
H  2.98700 55.28800 43.20900
H  8.90500 50.08600 39.69600
H  10.59900 52.16800 38.74900
H  10.89800 50.36800 41.08800
H  11.11200 52.00000 41.67900
H  12.03000 51.44000 40.24200
H  8.99700 52.02300 37.27700
H  7.40400 51.48200 37.66400
H  8.45300 49.21900 37.77500
H  9.93600 49.99100 37.31000
H  12.59300 57.69300 39.20200
H  12.10500 56.11500 38.62900
H  12.69200 56.24500 40.24600
H  9.33100 60.24900 42.14800
H  8.75700 60.74800 40.55100
H  10.16400 61.54800 41.23300
H  5.01400 59.27100 41.62600
H  3.99600 57.66600 43.98000
H  6.36400 60.30700 43.37600
H  6.07200 58.97200 44.48400
H  4.73800 60.09800 44.01500
H  2.43100 57.03900 41.58200
H  2.73700 58.80300 41.59100
H  1.73700 57.91000 44.28800
H  0.69500 57.51100 43.08100
H  1.03300 59.07700 43.13800
H  2.36200 51.79600 43.98400
H  1.74700 51.75300 42.31800
H  1.73300 53.34900 43.18900
H  6.64600 49.36100 41.77500
H  5.74500 46.37700 38.91400
H  6.18900 47.76400 37.88400
H  4.54400 47.69100 38.45200

