158

Mg 47.87500 25.30000 29.19800
C  48.34600 27.56000 31.77400
C  46.69800 22.98300 31.51200
C  47.63900 23.02500 26.68700
C  49.56200 27.50300 27.02900
N  47.46400 25.30400 31.35900
C  47.67500 26.39400 32.22800
C  47.25700 26.12300 33.68700
C  46.83700 24.59200 33.59700
C  47.01900 24.21100 32.08000
C  47.53900 23.68900 34.61200
C  46.11700 27.07600 34.21700
C  46.34200 27.85400 35.52200
H  46.77300 27.22800 36.89500
N  47.15400 23.27800 29.13500
C  46.71900 22.50100 30.19100
C  46.31500 21.15000 29.70200
C  46.59400 21.19700 28.29400
C  47.10700 22.59400 27.95100
C  45.65200 20.12800 30.53400
C  46.38600 20.05200 27.24500
O  46.81400 20.02500 26.08900
C  45.67400 18.80300 27.64000
N  48.60000 25.23400 27.13000
C  48.28700 24.19700 26.31300
C  48.82300 24.39300 24.90200
C  49.27700 25.98900 24.93000
C  49.14600 26.30200 26.43400
C  49.90200 23.39500 24.40900
C  48.41200 26.98000 24.17300
C  49.23300 27.97700 23.41500
N  48.84900 27.13600 29.31800
C  49.39100 27.91300 28.31700
C  49.90800 29.05100 28.89300
C  49.48000 29.04800 30.26800
C  48.78300 27.83300 30.42600
C  50.62300 30.04100 28.03900
C  49.47000 29.81200 31.57400
O  49.93100 30.92800 31.81100
C  48.71200 28.89100 32.52400
C  49.46100 28.80000 33.77600
O  50.43500 28.14700 34.01900
O  48.97600 29.68800 34.68800
C  49.76800 29.88700 35.88400
H  46.35300 22.25800 32.25200
H  47.32300 22.38400 25.86100
H  50.05900 28.16100 26.31400
H  48.14100 26.25900 34.31100
H  45.77700 24.48600 33.83100
H  48.11500 24.08800 35.44700
H  48.30900 23.18600 34.02700
H  46.83100 22.93900 34.96300
H  45.14600 26.58500 34.28800
H  46.06300 27.85300 33.45500
H  45.41200 28.27200 35.90700
H  46.93400 28.75100 35.33900
H  46.29000 19.24400 30.53900
H  44.80300 19.70100 30.00100
H  45.34900 20.45100 31.53000
H  44.63000 18.92100 27.93000
H  46.23600 18.20800 28.36000
H  45.64900 18.17600 26.74800
H  47.97600 24.28900 24.22400
H  50.34400 25.99400 24.70800
H  50.85600 23.92000 24.38600
H  49.67700 22.85000 23.49100
H  50.00500 22.58600 25.13200
H  47.79900 27.56600 24.85700
H  47.76500 26.58900 23.38800
H  49.21900 27.78700 22.34200
H  50.23300 27.91500 23.84400
H  48.89000 28.99400 23.60900
H  50.76500 30.90300 28.69100
H  49.93000 30.30400 27.24000
H  51.51600 29.54500 27.65800
H  47.76500 29.37100 32.77000
H  49.43500 30.82900 36.31900
H  50.85500 29.81000 35.93200
H  49.53200 29.09800 36.59800
Mg 26.92100 50.18500 26.89600
C  25.08800 51.52600 29.40100
C  29.31400 49.49600 29.12500
C  28.97300 49.37700 24.25500
C  24.41800 51.19400 24.44300
N  27.11900 50.49500 29.00100
C  26.17000 50.92500 29.83000
C  26.46700 50.47100 31.26500
C  27.94800 50.08000 31.23400
C  28.17400 49.98100 29.73100
C  28.88900 51.09400 31.95100
C  25.46300 49.37000 31.88100
C  24.84800 49.81100 33.23200
H  25.28200 49.13200 34.47200
N  28.85600 49.58400 26.75000
C  29.67900 49.33400 27.77000
C  30.89100 48.71800 27.31700
C  30.90000 48.76400 25.86300
C  29.56200 49.26000 25.55400
C  31.98900 48.19700 28.27500
C  31.92400 48.45500 24.85100
O  31.78300 48.60800 23.67700
C  33.29600 48.04800 25.37300
N  26.69300 50.28200 24.66800
C  27.75300 49.83600 23.87100
C  27.35600 49.82500 22.39400
C  25.89900 50.38900 22.41300
C  25.62200 50.62900 23.91300
C  28.24200 50.71300 21.51200
C  24.78400 49.46800 21.84900
C  24.79400 49.42800 20.36600
N  25.11500 51.24700 26.85600
C  24.18100 51.47100 25.82200
C  23.10000 52.19200 26.44100
C  23.37400 52.12100 27.82900
C  24.63100 51.58900 28.02700
C  21.91300 52.76800 25.73300
C  22.77800 52.47500 29.15100
O  21.64700 52.86500 29.53100
C  23.91000 52.11000 30.31300
C  24.43100 53.29900 30.86200
O  25.08100 54.10100 30.26700
O  23.99700 53.52300 32.14000
C  24.36500 54.76900 32.83400
H  29.96300 49.04500 29.87900
H  29.70000 49.02000 23.52300
H  23.66500 51.45900 23.69800
H  26.30800 51.39000 31.83000
H  28.01600 49.01000 31.42900
H  29.73400 51.38400 31.32700
H  29.07300 50.54500 32.87400
H  28.43100 52.05400 32.18900
H  25.99000 48.42400 32.00300
H  24.68600 49.15600 31.14600
H  23.76700 49.78800 33.09900
H  24.96900 50.87800 33.42300
H  32.95000 48.67100 28.07600
H  32.08700 47.15700 27.96500
H  31.94400 48.26600 29.36200
H  33.98400 47.88000 24.54400
H  33.30200 47.19800 26.05500
H  33.71500 48.90400 25.90100
H  27.42900 48.80500 22.01800
H  25.89900 51.33600 21.87300
H  29.13200 51.06200 22.03600
H  27.78500 51.51200 20.92900
H  28.62200 49.97000 20.81200
H  23.79200 49.63600 22.26800
H  25.12100 48.48800 22.18700
H  24.92600 48.38800 20.06800
H  25.64500 49.86400 19.84100
H  23.93400 49.93300 19.92600
H  21.50200 52.10000 24.97700
H  22.10400 53.71500 25.22700
H  21.15500 52.92200 26.50100
H  23.46300 51.54600 31.13100
H  24.82500 55.57600 32.26400
H  25.11300 54.52500 33.58800
H  23.58100 55.34400 33.32600

