158

Mg 24.03900 -4.62300 46.08400
C  26.18400 -2.22300 44.52300
C  21.54100 -3.29400 44.10100
C  22.22000 -7.25400 46.76400
C  26.83900 -5.95500 47.69600
N  23.88300 -3.00400 44.37700
C  24.92700 -2.17000 44.04000
C  24.38900 -1.01700 43.12100
C  22.82400 -1.26900 43.21100
C  22.70800 -2.60600 43.95700
C  22.01300 -0.09100 43.72300
C  25.00800 -1.24800 41.64800
C  25.02000 -0.04400 40.77200
H  24.39700 -0.30000 39.37000
N  22.17600 -5.20400 45.56400
C  21.26100 -4.51600 44.70000
C  20.02100 -5.30400 44.62300
C  20.17500 -6.46100 45.47800
C  21.51000 -6.29200 46.06600
C  18.91500 -4.79100 43.77100
C  19.09700 -7.55400 45.71100
O  18.07900 -7.45800 45.03900
C  19.21400 -8.55200 46.79100
N  24.43100 -6.27800 47.12300
C  23.52300 -7.30000 47.26500
C  24.10400 -8.56100 47.85900
C  25.41700 -7.96100 48.44300
C  25.58100 -6.62800 47.76000
C  23.26100 -9.34900 48.89600
C  26.59000 -8.98100 48.33700
C  27.65800 -8.92200 49.45100
N  26.15500 -4.20400 46.20700
C  27.13100 -4.79600 46.92100
C  28.42900 -4.17800 46.66200
C  28.07100 -3.10900 45.73000
C  26.68900 -3.14200 45.51200
C  29.69600 -4.72000 46.97900
C  28.62000 -1.98400 44.92200
O  29.76600 -1.63600 44.75100
C  27.46400 -1.36900 44.08600
C  27.24300 0.11400 44.40300
O  26.79400 0.55800 45.44700
O  27.54500 0.85500 43.35600
C  27.45800 2.32000 43.53300
H  20.67100 -2.76100 43.71300
H  21.67100 -8.18500 46.91900
H  27.66100 -6.44500 48.22000
H  24.66200 -0.06400 43.57300
H  22.44200 -1.53900 42.22700
H  22.72000 0.73800 43.75000
H  21.66600 -0.35400 44.72200
H  21.23200 0.05800 42.97800
H  24.43000 -1.97800 41.08200
H  26.02600 -1.63400 41.70800
H  25.99700 0.40500 40.59600
H  24.41500 0.68600 41.31000
H  19.08900 -5.24000 42.79200
H  18.87400 -3.70900 43.64500
H  17.92100 -5.18800 43.97800
H  18.34000 -9.20200 46.83200
H  19.33100 -8.17600 47.80700
H  20.01100 -9.26000 46.56300
H  24.40200 -9.24500 47.06400
H  25.13700 -7.74500 49.47400
H  22.60400 -10.18900 48.67400
H  22.70100 -8.55500 49.39000
H  23.95600 -9.68600 49.66500
H  27.12000 -8.74200 47.41500
H  26.26500 -10.01600 48.22500
H  27.95400 -9.91100 49.80100
H  27.28300 -8.36200 50.30700
H  28.41800 -8.34200 48.92700
H  30.49100 -4.05900 46.63400
H  29.76700 -5.76300 46.66900
H  29.74600 -4.62700 48.06400
H  27.67400 -1.68100 43.06300
H  27.93500 2.62700 44.46300
H  26.41000 2.59700 43.64800
H  28.02500 2.81100 42.74200
Mg 9.91400 46.77800 25.39200
C  7.50300 47.09000 27.74300
C  12.32600 47.75600 27.51900
C  12.42100 46.40800 22.82300
C  7.54100 46.22200 22.89300
N  9.86300 47.31600 27.37000
C  8.78900 47.34100 28.20500
C  9.23300 47.50700 29.67600
C  10.56400 48.24000 29.38800
C  10.96200 47.86300 27.91400
C  10.66200 49.72600 29.67800
C  9.43200 46.22800 30.57300
C  10.11800 46.51700 31.94600
H  9.44100 45.93300 33.15700
N  12.12700 46.91500 25.25700
C  12.87900 47.33000 26.30800
C  14.27500 47.33200 25.93800
C  14.38100 46.82600 24.59200
C  12.95700 46.66800 24.14700
C  15.39100 47.96600 26.77200
C  15.60800 46.58300 23.74100
O  15.47900 46.22500 22.58500
C  17.02600 46.72400 24.25600
N  10.05500 46.46600 23.20400
C  11.09600 46.45500 22.36800
C  10.73000 46.26500 20.87600
C  9.23000 46.15600 20.94200
C  8.87200 46.27700 22.42900
C  11.37100 47.42400 19.98600
C  8.71800 44.79700 20.41400
C  8.10200 44.79600 19.05000
N  7.88100 46.62500 25.24700
C  7.01600 46.39600 24.21700
C  5.60500 46.35000 24.79500
C  5.78200 46.47000 26.18500
C  7.16700 46.78900 26.37600
C  4.32700 46.17100 24.00500
C  5.07500 46.47600 27.43800
O  3.86000 46.31400 27.73100
C  6.21400 46.87100 28.48200
C  6.35500 45.71600 29.51200
O  6.86100 44.61000 29.34100
O  5.78900 46.13400 30.66300
C  5.54400 45.11500 31.70500
H  12.87400 48.12200 28.38900
H  13.12200 46.36100 21.98700
H  6.75300 45.97800 22.17800
H  8.60800 48.26300 30.15100
H  11.35400 47.77500 29.97900
H  9.85200 50.04900 30.33100
H  10.72600 50.23200 28.71500
H  11.58100 49.86600 30.24700
H  10.07100 45.57000 29.98400
H  8.48500 45.71900 30.75600
H  10.35100 47.57200 32.09000
H  11.09300 46.05100 31.80200
H  15.81300 48.83800 26.27300
H  16.04600 47.14000 27.04900
H  15.08100 48.31700 27.75700
H  17.08600 47.77200 24.55000
H  17.78700 46.45400 23.52300
H  17.16500 46.03500 25.08800
H  11.14900 45.28500 20.64500
H  8.80600 46.91300 20.28200
H  11.78200 48.18000 20.65500
H  10.63100 47.76300 19.26100
H  12.12700 46.92000 19.38400
H  7.98300 44.32300 21.06400
H  9.51500 44.05700 20.35900
H  8.53600 45.54600 18.38900
H  7.01900 44.91500 19.04500
H  8.28000 43.82800 18.58100
H  4.16200 45.09500 23.96200
H  4.68000 46.50500 23.02900
H  3.49800 46.69500 24.48000
H  5.95600 47.73800 29.09000
H  4.50900 45.03500 32.03700
H  6.17600 45.47800 32.51600
H  5.84900 44.09800 31.45800

