158

Mg 49.92200 44.40500 41.55400
C  46.68100 44.97500 40.39500
C  49.43200 41.07800 40.76000
C  53.09700 44.02100 42.10500
C  50.10400 47.81200 42.41200
N  48.22600 43.18400 40.78900
C  46.97400 43.64600 40.43700
C  46.16400 42.53800 39.79700
C  46.89900 41.25300 40.33000
C  48.29900 41.86500 40.61800
C  46.24700 40.62600 41.63000
C  46.22000 42.60500 38.29400
C  44.82800 42.64400 37.57200
H  44.74500 43.57800 36.31300
N  51.20200 42.75500 41.36800
C  50.78500 41.46300 41.04100
C  51.99600 40.64100 41.02600
C  53.07900 41.43200 41.49100
C  52.50900 42.77600 41.69400
C  52.07900 39.31500 40.59500
C  54.57500 41.04900 41.63100
O  55.00500 39.95600 41.38100
C  55.68300 42.06800 41.90500
N  51.40400 45.73300 42.17000
C  52.69900 45.29900 42.36200
C  53.60600 46.43400 42.87200
C  52.63700 47.67800 42.95700
C  51.28600 47.04800 42.53200
C  54.33000 46.08700 44.23100
C  53.12200 48.98400 42.32700
C  54.43500 49.54800 42.72400
N  48.63700 46.11200 41.47400
C  48.86800 47.46100 41.78500
C  47.73000 48.26900 41.39200
C  46.86000 47.28900 40.81700
C  47.46700 46.01700 40.88600
C  47.68300 49.77400 41.41100
C  45.60900 47.16800 40.10800
O  44.75800 47.99200 39.82500
C  45.47300 45.63200 39.82500
C  44.22000 45.13500 40.44700
O  43.32500 44.58300 39.80800
O  44.18500 45.47900 41.78000
C  42.81500 45.62100 42.26900
H  49.31600 40.02700 40.48800
H  54.11000 44.01800 42.51300
H  50.23900 48.80600 42.84300
H  45.14000 42.55000 40.17000
H  46.76600 40.41900 39.64100
H  45.49700 41.17900 42.19500
H  47.09900 40.67800 42.30700
H  45.98300 39.58300 41.45500
H  46.92500 41.88500 37.87800
H  46.58500 43.59200 38.01000
H  43.98900 42.97900 38.18200
H  44.59000 41.62300 37.27500
H  52.32000 39.25300 39.53300
H  51.12600 38.82800 40.80200
H  52.87400 38.79900 41.13200
H  55.73900 42.42200 42.93400
H  55.49200 42.90100 41.22900
H  56.63100 41.71300 41.49900
H  54.41500 46.51500 42.14600
H  52.47600 47.96600 43.99600
H  54.33100 45.02400 44.47500
H  53.90800 46.67600 45.04500
H  55.34400 46.48600 44.20800
H  52.37600 49.75000 42.54000
H  53.29800 48.92300 41.25300
H  54.98400 49.87300 41.83900
H  55.07900 48.89800 43.31700
H  54.12600 50.43900 43.27000
H  47.01000 50.23600 42.13200
H  47.44400 50.12200 40.40600
H  48.71900 50.10800 41.46400
H  45.40400 45.27800 38.79600
H  42.90000 46.16000 43.21200
H  42.64300 44.58700 42.56600
H  42.02200 45.92000 41.58300
Mg -10.91900 16.66400 40.50700
C  -7.44200 16.53000 40.52500
C  -10.66700 20.07600 39.91700
C  -14.34300 16.89000 39.92000
C  -10.99700 13.26800 40.09500
N  -9.30900 18.08900 40.38200
C  -7.96700 17.84900 40.39800
C  -7.12900 19.08500 40.16400
C  -8.16300 20.22200 40.54000
C  -9.46900 19.42600 40.22300
C  -8.10000 20.75800 42.08300
C  -6.63300 19.08900 38.70100
C  -5.08700 19.00800 38.43900
H  -4.68200 18.23000 37.21800
N  -12.33500 18.35300 40.03500
C  -12.06500 19.65600 39.86600
C  -13.22400 20.50300 39.68600
C  -14.31900 19.58700 39.91400
C  -13.71900 18.19300 39.95200
C  -13.09200 22.02100 39.35900
C  -15.76600 19.97600 39.88900
O  -15.93700 21.20100 39.84900
C  -16.96300 19.07300 40.01300
N  -12.43900 15.30300 40.12900
C  -13.72800 15.59000 39.91400
C  -14.59600 14.38500 39.76800
C  -13.49900 13.22400 39.67300
C  -12.23700 13.97100 40.01700
C  -15.71400 14.26800 40.84900
C  -13.44000 12.62400 38.23100
C  -12.70300 11.19000 38.10900
N  -9.56000 15.16700 40.56100
C  -9.74000 13.79500 40.33800
C  -8.40100 13.11900 40.23400
C  -7.52400 14.18200 40.28500
C  -8.23200 15.34200 40.48700
C  -8.13300 11.69600 40.00300
C  -6.09600 14.46700 40.24500
O  -5.11300 13.70300 40.04500
C  -6.03100 15.96700 40.55800
C  -5.22600 16.08600 41.81400
O  -5.34800 15.39500 42.83500
O  -4.36700 17.21000 41.66300
C  -3.58300 17.56900 42.88000
H  -10.52100 21.14300 39.73500
H  -15.43500 16.89200 39.93600
H  -11.05200 12.20000 39.87500
H  -6.24800 19.26600 40.78000
H  -8.02900 21.08300 39.88600
H  -8.93700 20.35500 42.65300
H  -7.98300 21.83800 42.16700
H  -7.15000 20.50400 42.55300
H  -6.99700 20.01600 38.25800
H  -7.01200 18.24900 38.11900
H  -4.61300 18.57200 39.31800
H  -4.61900 19.97900 38.27800
H  -13.12700 22.03600 38.27000
H  -12.13000 22.46700 39.61400
H  -13.80700 22.70200 39.82200
H  -17.82300 19.71900 40.18800
H  -16.87200 18.36600 40.83700
H  -16.94600 18.62100 39.02100
H  -15.11900 14.40800 38.81200
H  -13.57400 12.50200 40.48600
H  -15.93000 13.20000 40.79800
H  -16.62600 14.72900 40.46800
H  -15.28800 14.45600 41.83400
H  -12.84100 13.33500 37.66100
H  -14.41600 12.46500 37.77300
H  -12.94600 10.76700 39.08300
H  -11.65700 11.22500 37.80400
H  -13.20300 10.44600 37.48900
H  -8.25100 11.10100 40.90900
H  -7.09200 11.55300 39.71400
H  -8.72000 11.15500 39.26000
H  -5.37900 16.27700 39.74100
H  -2.72100 18.03300 42.39900
H  -3.22800 16.68400 43.40800
H  -3.92400 18.31300 43.59900

