158

Mg 0.46000 8.17200 26.00600
C  1.38300 10.09800 28.97500
C  0.32400 5.43200 27.88900
C  0.20100 6.62800 23.06300
C  1.00400 11.25500 24.31100
N  0.78900 7.82900 28.13200
C  1.06200 8.74600 29.17300
C  0.93200 8.10400 30.55500
C  1.19300 6.59900 30.11600
C  0.67200 6.57800 28.60700
C  2.63100 6.07300 30.53900
C  -0.47000 8.41000 31.27200
C  -0.43400 8.55500 32.86500
H  0.74100 7.89300 33.68000
N  0.10500 6.32100 25.56000
C  0.10700 5.27600 26.47400
C  -0.24000 4.09500 25.78000
C  -0.17300 4.41500 24.34700
C  0.03700 5.87800 24.29100
C  -0.38500 2.73900 26.42600
C  -0.41700 3.46600 23.16000
O  -0.38400 3.76900 21.94200
C  -0.74600 2.00000 23.49600
N  0.50000 8.89000 24.08700
C  0.34100 8.04400 23.04200
C  0.45700 8.77400 21.70300
C  0.16800 10.21000 22.15300
C  0.71600 10.07900 23.56700
C  1.78800 8.69100 21.02900
C  -1.35400 10.68400 22.13600
C  -1.65200 11.71000 21.00900
N  1.22300 10.26500 26.46300
C  1.31300 11.39400 25.66400
C  1.67800 12.52300 26.41000
C  1.63800 12.03600 27.69500
C  1.37600 10.69700 27.70400
C  2.08000 13.91900 25.87100
C  1.75000 12.48000 29.04400
O  2.03100 13.63900 29.40400
C  1.52600 11.23700 29.92600
C  2.62100 11.05500 30.89300
O  3.63500 10.34800 30.85300
O  2.29600 11.87500 31.93000
C  3.11200 11.65500 33.13100
H  0.30500 4.63100 28.63000
H  0.16500 6.12400 22.09500
H  0.89500 12.12300 23.65600
H  1.67400 8.54600 31.22000
H  0.43700 6.05600 30.68500
H  3.09700 6.74400 31.26000
H  3.27700 6.05300 29.66000
H  2.51500 5.14400 31.09600
H  -1.23300 7.81300 30.77100
H  -0.79000 9.40800 30.97100
H  -1.32600 8.07800 33.27000
H  -0.37500 9.60000 33.17200
H  -1.42500 2.42200 26.35000
H  -0.07000 2.78400 27.46900
H  0.44700 2.14800 26.04200
H  -1.00700 1.48400 22.57200
H  -1.60900 2.04800 24.16000
H  0.07400 1.50200 24.01300
H  -0.38400 8.45700 21.08600
H  0.74300 10.93900 21.58300
H  2.53400 9.31700 21.51900
H  1.71500 9.05800 20.00600
H  2.06800 7.63800 20.98400
H  -1.49900 11.23300 23.06600
H  -2.09600 9.88700 22.09600
H  -0.97400 11.68000 20.15600
H  -1.58400 12.68900 21.48200
H  -2.66100 11.57700 20.61900
H  2.47300 13.66300 24.88700
H  2.91400 14.34200 26.43200
H  1.28200 14.64700 25.72600
H  0.59500 11.44500 30.45400
H  2.57800 11.75600 34.07500
H  3.96000 12.34000 33.11500
H  3.63700 10.70800 33.25300
Mg 25.21500 1.56400 29.80600
C  27.31000 1.49600 32.59500
C  22.52200 1.82800 31.86300
C  23.17600 1.35300 27.07900
C  28.08100 0.88100 27.71200
N  25.02300 1.63200 31.93500
C  26.01100 1.77800 32.92000
C  25.41500 2.12400 34.28000
C  23.84400 1.79000 33.98000
C  23.75200 1.77100 32.44500
C  23.28400 0.43500 34.54400
C  25.75700 3.55800 34.75400
C  26.80600 3.66400 35.93500
H  26.54900 4.53000 37.18200
N  23.11100 1.67000 29.49300
C  22.22700 1.90800 30.48700
C  20.90300 1.92100 29.89200
C  21.03300 1.76500 28.52400
C  22.47800 1.58900 28.29200
C  19.68100 2.04300 30.69200
C  19.99200 1.80700 27.48300
O  20.20400 1.65000 26.26900
C  18.53400 2.06400 27.90400
N  25.53500 0.97600 27.73600
C  24.49200 1.11700 26.78900
C  25.00600 0.93900 25.33200
C  26.59200 1.05300 25.59800
C  26.79200 1.05500 27.10400
C  24.51000 -0.37200 24.62600
C  27.21300 2.15600 24.71300
C  27.23300 3.49300 25.41700
N  27.23700 1.11100 30.04200
C  28.24500 0.87800 29.13000
C  29.49000 0.97400 29.80500
C  29.18500 1.09200 31.15500
C  27.79500 1.21200 31.26900
C  30.82600 0.81900 29.19900
C  29.69100 1.24900 32.50200
O  30.85800 1.18100 32.79500
C  28.55700 1.52500 33.45000
C  28.64000 0.48900 34.52400
O  28.43900 -0.71600 34.32800
O  28.97000 1.12200 35.68900
C  28.97700 0.19000 36.76600
H  21.65600 1.98400 32.50900
H  22.57300 1.35400 26.16900
H  28.96300 1.06100 27.09400
H  25.73000 1.45300 35.07900
H  23.17100 2.50700 34.45100
H  22.90400 -0.18100 33.72900
H  22.46500 0.58200 35.24900
H  24.06500 -0.09900 35.08600
H  24.87700 4.19000 34.87400
H  26.26600 3.92900 33.86500
H  27.69500 4.00800 35.40600
H  27.06200 2.65200 36.25000
H  19.13100 2.97100 30.53700
H  19.81000 2.03400 31.77500
H  19.02700 1.18000 30.57100
H  18.04300 1.28300 28.48500
H  17.92000 2.12000 27.00400
H  18.50400 3.04700 28.37300
H  24.70900 1.83600 24.78800
H  27.03600 0.11900 25.25500
H  23.72200 -0.84000 25.21700
H  25.34700 -1.05600 24.49300
H  24.13000 -0.04300 23.65900
H  26.62900 2.38700 23.82300
H  28.12600 1.77300 24.25800
H  27.21000 3.36400 26.50000
H  26.39700 4.11300 25.09400
H  28.18600 3.98500 25.22900
H  30.88200 1.42000 28.29100
H  30.86700 -0.18800 28.78500
H  31.55900 1.03900 29.97500
H  28.70900 2.53400 33.83600
H  27.98300 0.06900 37.19600
H  29.62500 0.66500 37.50200
H  29.42100 -0.79100 36.59700

