158

Mg -2.00000 17.22700 26.89700
C  -2.12800 15.01800 29.70000
C  -2.66300 19.81400 29.03300
C  -2.42300 19.20600 24.12800
C  -2.34800 14.34900 24.74300
N  -2.19300 17.33800 29.14500
C  -2.29700 16.37800 30.06500
C  -2.63500 16.92600 31.43900
C  -3.22000 18.37200 31.08600
C  -2.62700 18.53600 29.68200
C  -4.78900 18.50800 31.25300
C  -1.45100 17.08500 32.42900
C  -1.77700 17.27900 33.97200
H  -0.79400 16.80100 34.98100
N  -2.18100 19.29400 26.58500
C  -2.42200 20.13300 27.65200
C  -2.48000 21.46800 27.07800
C  -2.36900 21.35700 25.64900
C  -2.34600 19.89700 25.38000
C  -2.64600 22.66300 27.95900
C  -2.35000 22.39500 24.62300
O  -2.51100 22.13900 23.43200
C  -2.14300 23.83500 25.03500
N  -2.32400 16.84700 24.82900
C  -2.46500 17.86300 23.88400
C  -2.88200 17.23300 22.55100
C  -2.35100 15.75600 22.69800
C  -2.32500 15.63500 24.18300
C  -4.37000 17.47400 22.23700
C  -0.93000 15.43700 22.02100
C  -0.69300 14.04000 21.34100
N  -2.12200 15.09100 27.09100
C  -2.30100 14.07100 26.11300
C  -2.47100 12.78100 26.85800
C  -2.30500 13.08200 28.24600
C  -2.05600 14.51100 28.30800
C  -2.83500 11.41300 26.30500
C  -2.27100 12.47100 29.56900
O  -2.31900 11.31800 29.96500
C  -2.17200 13.70100 30.54000
C  -1.09400 13.60500 31.50600
O  0.10700 13.69200 31.22500
O  -1.61400 13.35500 32.71000
C  -0.63200 13.25000 33.79800
H  -2.81800 20.60700 29.76700
H  -2.60400 19.88400 23.29100
H  -2.43200 13.50300 24.05800
H  -3.35500 16.29600 31.96200
H  -2.86100 19.20800 31.68600
H  -5.32500 18.48500 30.30400
H  -4.90700 19.48000 31.73300
H  -5.25600 17.68200 31.78900
H  -0.98500 18.05500 32.25200
H  -0.66500 16.34000 32.30800
H  -2.77400 16.84400 34.05000
H  -1.83000 18.34600 34.19000
H  -2.41700 22.53200 29.01700
H  -3.62700 23.12100 27.83600
H  -2.06500 23.48300 27.53700
H  -1.15500 24.09200 25.41600
H  -2.94200 24.20500 25.67700
H  -2.19800 24.44100 24.13100
H  -2.35300 17.72200 21.73200
H  -3.05600 15.06400 22.23700
H  -4.76900 18.13000 23.01000
H  -4.87600 16.51100 22.18000
H  -4.56700 18.05400 21.33500
H  -0.16200 15.52600 22.78900
H  -0.80300 16.28200 21.34400
H  0.00800 14.06900 20.50700
H  -1.59600 13.64800 20.87200
H  -0.33500 13.28300 22.03900
H  -2.45600 11.40400 25.28300
H  -3.90500 11.25800 26.16300
H  -2.38700 10.65500 26.94700
H  -3.08500 13.73500 31.13500
H  -1.14100 12.81100 34.65600
H  -0.16300 14.17600 34.13100
H  0.05700 12.49800 33.41400
Mg -5.48400 24.58200 27.33800
C  -3.63200 26.26600 29.75800
C  -6.52500 22.23900 29.68600
C  -6.98200 22.75700 24.84100
C  -4.32300 26.77200 24.91100
N  -5.14600 24.39000 29.48100
C  -4.45200 25.23000 30.31800
C  -4.65700 24.90600 31.76700
C  -5.20000 23.46400 31.63800
C  -5.66800 23.32500 30.12200
C  -4.29100 22.32900 32.28700
C  -5.57800 25.76200 32.64600
C  -5.10700 25.81600 34.12100
H  -5.49700 24.79700 35.21400
N  -6.58500 22.73100 27.30300
C  -6.94000 21.89100 28.36000
C  -7.74900 20.79900 27.85200
C  -7.89100 20.91500 26.49700
C  -7.16500 22.22200 26.18200
C  -8.32200 19.78300 28.74800
C  -8.60300 20.08000 25.51400
O  -8.71400 20.45500 24.39300
C  -9.01900 18.69500 25.93000
N  -5.58500 24.73100 25.19300
C  -6.35100 23.96700 24.43600
C  -6.28600 24.32900 22.94600
C  -5.86600 25.79700 23.12300
C  -5.21700 25.79600 24.50500
C  -5.44500 23.51900 22.03100
C  -6.92500 26.81900 22.73100
C  -7.01000 27.17600 21.27300
N  -4.14700 26.17300 27.25100
C  -3.81400 27.00300 26.20100
C  -2.83200 28.03600 26.70100
C  -2.77000 27.76000 28.06300
C  -3.56200 26.65400 28.36300
C  -1.93700 28.88800 25.82200
C  -2.06700 28.16400 29.26400
O  -1.17800 29.00700 29.43500
C  -2.66200 27.23300 30.37700
C  -1.53000 26.59700 31.20200
O  -0.75900 25.77100 30.94800
O  -1.75900 27.03800 32.46900
C  -0.92000 26.44100 33.54400
H  -6.82700 21.54700 30.47500
H  -7.52000 22.24700 24.03900
H  -4.17600 27.64600 24.27200
H  -3.65200 24.80600 32.17700
H  -6.15500 23.34700 32.15100
H  -4.05600 21.63600 31.48000
H  -4.94800 21.77800 32.95900
H  -3.34600 22.61900 32.74600
H  -6.61500 25.43000 32.60100
H  -5.63800 26.76700 32.23000
H  -5.14100 26.86900 34.40200
H  -4.02300 25.73100 34.04200
H  -8.12200 18.78000 28.37000
H  -9.40000 19.90700 28.84400
H  -7.92300 19.87900 29.75800
H  -8.12000 18.17100 26.25500
H  -9.51800 18.09800 25.16700
H  -9.80000 18.80200 26.68300
H  -7.32000 24.22700 22.61700
H  -5.00100 26.07700 22.52100
H  -5.04700 22.58400 22.42500
H  -4.55100 24.07100 21.74100
H  -6.07000 23.31200 21.16100
H  -6.58500 27.67800 23.30900
H  -7.88100 26.51400 23.15600
H  -7.97200 27.24500 20.76500
H  -6.58500 26.43700 20.59400
H  -6.52200 28.13600 21.10500
H  -1.84700 29.96200 25.98300
H  -2.44300 28.85600 24.85800
H  -0.94200 28.44500 25.78100
H  -3.12800 27.94500 31.05800
H  0.14600 26.48100 33.32300
H  -1.15300 25.40800 33.80200
H  -1.21100 27.06000 34.39300

