158

Mg 8.39300 3.45700 28.05500
C  9.87300 2.14600 30.85900
C  6.32300 5.38500 30.07000
C  6.74800 4.49000 25.18900
C  10.23400 1.26800 26.01900
N  8.18700 3.73700 30.23600
C  8.94100 3.13000 31.16400
C  8.62800 3.74800 32.62700
C  7.36800 4.56300 32.38300
C  7.32700 4.61300 30.78900
C  6.11400 3.92700 32.96600
C  9.86900 4.65200 33.02000
C  10.57000 4.19900 34.32500
H  10.72500 5.22000 35.41300
N  6.80900 4.81400 27.68900
C  6.09300 5.48400 28.64400
C  5.16200 6.33100 27.98300
C  5.27200 6.09500 26.58700
C  6.29100 5.02800 26.45000
C  4.31900 7.25500 28.82500
C  4.56500 6.81700 25.41300
O  4.84600 6.58200 24.23500
C  3.70400 7.93300 25.80200
N  8.40300 2.98600 25.92200
C  7.59500 3.44000 24.95700
C  7.96000 2.92700 23.53600
C  9.24000 2.07900 23.79300
C  9.30400 2.15100 25.33900
C  6.84200 2.16300 22.83700
C  10.58900 2.46100 23.18200
C  11.29800 1.33200 22.27200
N  9.76700 2.01100 28.30300
C  10.39600 1.19100 27.39200
C  11.32900 0.35700 28.12300
C  11.21400 0.73000 29.45500
C  10.22900 1.70000 29.54000
C  11.91400 -0.88600 27.60200
C  11.70500 0.45000 30.74000
O  12.50700 -0.39000 31.13100
C  10.88500 1.41000 31.72300
C  10.31900 0.44800 32.72900
O  9.31800 -0.22500 32.61800
O  11.05100 0.57600 33.85700
C  10.34700 0.23200 35.12800
H  5.72300 5.98300 30.75900
H  6.12300 4.73700 24.32800
H  10.75000 0.58100 25.34400
H  8.44200 2.96700 33.36300
H  7.44400 5.55500 32.82800
H  6.37900 3.03800 33.53900
H  5.28500 3.72000 32.29000
H  5.74400 4.58400 33.75400
H  9.45100 5.65500 33.10300
H  10.60800 4.70500 32.22100
H  11.42500 3.53500 34.20000
H  9.83000 3.67400 34.93000
H  4.68600 8.25000 28.57500
H  4.20800 7.08900 29.89700
H  3.30700 7.08200 28.46000
H  2.76500 7.54700 26.19600
H  3.48400 8.46700 24.87800
H  4.04000 8.75700 26.43300
H  8.27400 3.79400 22.95500
H  9.13000 1.06400 23.40900
H  5.98500 1.86500 23.44000
H  7.19700 1.29500 22.28200
H  6.32100 2.81900 22.13800
H  11.24400 2.76500 23.99800
H  10.43600 3.32500 22.53600
H  11.22700 1.58000 21.21300
H  10.85200 0.34800 22.41200
H  12.36600 1.20100 22.44100
H  11.24800 -1.53500 27.03300
H  12.33800 -1.51400 28.38500
H  12.77300 -0.66100 26.97000
H  11.62800 2.08700 32.14600
H  10.28300 -0.85500 35.19100
H  9.44500 0.81200 35.32200
H  10.98800 0.57900 35.93700
Mg 29.89200 57.58300 39.33500
C  27.13200 55.50100 38.54000
C  31.94500 55.09200 38.27100
C  32.35100 59.84500 39.25800
C  27.61200 60.30700 40.00000
N  29.44300 55.51400 38.43100
C  28.31400 54.81900 38.33200
C  28.59500 53.33500 38.11300
C  30.18000 53.25000 38.20200
C  30.58500 54.71100 38.31400
C  30.70300 52.33200 39.39800
C  27.99900 52.81700 36.85600
C  28.60900 53.28500 35.52000
H  27.70100 54.03700 34.51600
N  31.97100 57.44600 38.86500
C  32.65100 56.30300 38.54800
C  34.08000 56.54300 38.40000
C  34.21900 57.94100 38.68700
C  32.82600 58.55700 38.98200
C  35.03800 55.56500 37.90300
C  35.63200 58.67400 38.67500
O  36.70300 58.16000 38.34000
C  35.76300 60.12500 39.01900
N  29.99800 59.74500 39.79400
C  31.15800 60.38800 39.63600
C  30.95200 61.96500 39.72500
C  29.47900 61.98700 40.34300
C  28.98800 60.60000 39.99300
C  32.01500 62.69200 40.65000
C  28.58400 63.08400 39.78600
C  29.03900 64.58400 39.67000
N  27.77800 57.91500 39.32800
C  27.01000 59.05900 39.62900
C  25.61600 58.64900 39.50100
C  25.64900 57.26100 39.04600
C  26.95700 56.90000 38.95900
C  24.45300 59.49100 39.91300
C  24.74300 56.14900 38.72700
O  23.50100 56.08300 38.74600
C  25.65800 54.95900 38.34300
C  25.23500 53.75200 39.11700
O  25.63300 53.38900 40.23200
O  24.31200 53.04100 38.33800
C  23.54400 51.98300 39.03800
H  32.60200 54.23900 38.08800
H  33.16800 60.55900 39.13600
H  26.83500 60.99200 40.34700
H  28.26500 52.72900 38.95700
H  30.50800 52.76700 37.28200
H  29.96600 51.61800 39.76500
H  31.21900 53.00000 40.08700
H  31.55000 51.84200 38.91900
H  26.92700 53.01200 36.80600
H  28.08700 51.73400 36.93600
H  29.17400 52.48100 35.04800
H  29.35600 54.04400 35.75000
H  36.11100 55.75900 37.90300
H  34.85700 55.29800 36.86200
H  34.89900 54.58800 38.36600
H  36.72700 60.40300 39.44500
H  35.03900 60.03500 39.82900
H  35.44400 60.72300 38.16600
H  30.97900 62.42900 38.73900
H  29.44500 62.07200 41.42900
H  32.78200 62.14700 41.20000
H  31.33400 63.20200 41.33200
H  32.47700 63.52700 40.12400
H  27.68200 63.12200 40.39700
H  28.29700 62.76900 38.78300
H  29.81200 64.85100 40.39100
H  28.24700 65.32500 39.77400
H  29.53500 64.79700 38.72400
H  23.69300 58.94500 40.47200
H  24.01000 59.78500 38.96200
H  24.70900 60.31200 40.58300
H  25.52400 54.63000 37.31200
H  24.21600 51.12500 39.03300
H  22.62000 51.73700 38.51600
H  23.34800 52.18900 40.09100

