158

Mg -2.41500 16.50200 26.87900
C  -2.87100 14.72200 29.84400
C  -2.37600 19.43900 28.80600
C  -2.37700 18.20900 24.02400
C  -2.80400 13.47600 25.15100
N  -2.60000 16.96300 29.09500
C  -2.82700 16.11900 30.11400
C  -2.86900 16.80600 31.47500
C  -2.77000 18.29600 31.11200
C  -2.52000 18.26800 29.58600
C  -3.91700 19.21200 31.49400
C  -1.77800 16.39000 32.54900
C  -1.61800 17.34900 33.76500
H  -0.84300 16.91300 35.05100
N  -2.36000 18.52900 26.47800
C  -2.32900 19.53400 27.40200
C  -2.26400 20.79300 26.66500
C  -2.21500 20.58500 25.25900
C  -2.27800 19.05900 25.14800
C  -2.30700 22.19200 27.45500
C  -2.08700 21.53900 24.09200
O  -1.94500 21.11900 22.93800
C  -1.99500 23.01700 24.33600
N  -2.76400 15.92900 24.85900
C  -2.44600 16.79900 23.87800
C  -2.46400 16.09000 22.52400
C  -2.28800 14.58100 22.90800
C  -2.62300 14.61200 24.40800
C  -3.72900 16.43400 21.66100
C  -0.79100 14.13400 22.68400
C  -0.48500 13.75700 21.18600
N  -2.79400 14.59500 27.28700
C  -2.86800 13.41700 26.52100
C  -2.98900 12.27300 27.33600
C  -2.96200 12.76400 28.60400
C  -2.85600 14.18000 28.60000
C  -3.08700 10.89500 26.78300
C  -3.00700 12.39900 29.94600
O  -3.25100 11.27400 30.39000
C  -2.92700 13.65500 30.80200
C  -1.72200 13.39400 31.56900
O  -0.58200 13.73600 31.25900
O  -2.13700 12.67700 32.64600
C  -1.05900 12.43400 33.55100
H  -2.29500 20.32800 29.43600
H  -2.31900 18.69600 23.04900
H  -2.67300 12.54100 24.60200
H  -3.89900 16.62700 31.78400
H  -1.93200 18.81300 31.58000
H  -3.56300 20.22300 31.69400
H  -4.42600 18.81600 32.37200
H  -4.67100 19.36000 30.72100
H  -0.79400 16.24700 32.10100
H  -1.94300 15.41500 33.00500
H  -2.55300 17.79800 34.09900
H  -0.99700 18.12500 33.31800
H  -1.24600 22.34300 27.65500
H  -2.91900 22.17800 28.35700
H  -2.59200 23.06300 26.86600
H  -2.09400 23.49600 23.36200
H  -1.00800 23.30100 24.70000
H  -2.87800 23.35400 24.88000
H  -1.65800 16.42400 21.87100
H  -2.97000 13.99000 22.29600
H  -4.13300 15.52400 21.21900
H  -3.45700 17.02200 20.78500
H  -4.47900 16.99700 22.21800
H  -0.53700 13.30000 23.34000
H  -0.08800 14.95400 22.83200
H  0.16500 12.88200 21.17700
H  0.10500 14.59800 20.82200
H  -1.39900 13.76300 20.59200
H  -2.30600 10.74700 26.03800
H  -4.01500 10.81600 26.21700
H  -2.94400 10.22100 27.62800
H  -3.83600 13.73200 31.39800
H  -0.02700 12.44300 33.20100
H  -1.28500 11.47100 34.00800
H  -1.24200 13.22400 34.28000
Mg 39.64700 9.87500 29.89700
C  41.74500 11.19300 32.48000
C  37.52400 8.91700 32.56300
C  37.82200 8.23800 27.61300
C  41.90800 10.97800 27.55100
N  39.75100 9.90600 32.34400
C  40.66300 10.57100 33.09700
C  40.22600 10.58100 34.55400
C  38.89000 9.73700 34.51800
C  38.71300 9.56600 33.01200
C  38.85700 8.34600 35.23300
C  40.01900 11.99900 35.16400
C  40.92600 12.32900 36.37000
H  40.25300 12.72800 37.69700
N  37.86700 8.71400 30.08500
C  37.07800 8.53500 31.26400
C  35.90300 7.84100 30.76000
C  36.09200 7.53900 29.35500
C  37.28200 8.17700 28.93900
C  34.79300 7.48000 31.75400
C  35.14900 6.70800 28.50700
O  35.43600 6.35200 27.35700
C  33.87100 6.37500 29.02500
N  39.78000 9.84800 27.78000
C  38.89700 8.99800 27.08700
C  39.30500 8.98100 25.58700
C  40.54100 10.02400 25.57900
C  40.79500 10.24700 27.03900
C  39.61300 7.60400 25.03400
C  40.22900 11.25800 24.71000
C  41.39500 12.19600 24.44000
N  41.47900 10.80800 29.96600
C  42.26400 11.22100 28.89100
C  43.47100 11.94800 29.38600
C  43.25800 11.99700 30.78900
C  42.01300 11.26900 31.07600
C  44.57600 12.45500 28.49700
C  43.83300 12.48300 32.00900
O  44.86100 13.17300 32.17200
C  42.84800 12.03800 33.18100
C  43.59500 11.13600 34.07300
O  43.80200 9.92400 33.97600
O  43.96300 11.80300 35.23500
C  44.72200 11.11300 36.23500
H  36.75000 8.85300 33.33000
H  37.16900 7.83300 26.83800
H  42.58500 11.20900 26.72600
H  41.00400 9.98000 35.02400
H  38.03300 10.29800 34.88800
H  39.85900 7.93500 35.36200
H  38.46200 7.51300 34.65300
H  38.30700 8.35500 36.17400
H  38.98700 12.11900 35.49400
H  40.12400 12.76800 34.39900
H  41.30500 13.31200 36.09100
H  41.65300 11.53700 36.54800
H  34.80100 8.18000 32.58900
H  34.96100 6.44800 32.05900
H  33.83600 7.58900 31.24300
H  33.41100 7.31500 29.33100
H  34.02200 5.63000 29.80600
H  33.26100 5.85400 28.28800
H  38.39300 9.34400 25.11400
H  41.38200 9.51000 25.11400
H  39.71600 6.86100 25.82500
H  40.41400 7.56700 24.29500
H  38.70000 7.29000 24.53000
H  39.40100 11.86000 25.08300
H  39.89300 10.83300 23.76400
H  41.16700 12.68500 23.49300
H  42.36500 11.70100 24.39400
H  41.41200 13.03700 25.13200
H  45.52600 11.99000 28.76300
H  44.57200 13.48300 28.85900
H  44.48500 12.35300 27.41500
H  42.41400 12.94400 33.60500
H  45.56200 10.62200 35.74300
H  44.15100 10.27500 36.63500
H  45.06600 11.74300 37.05500

