158

Mg 7.63400 2.31000 26.80900
C  9.01800 0.68500 29.86900
C  5.22200 3.65900 28.80000
C  6.18400 3.30200 24.08300
C  9.41900 -0.26900 25.01400
N  7.13900 2.04500 29.03800
C  7.89400 1.46000 30.08400
C  7.21100 1.84900 31.43100
C  5.92300 2.59500 31.00300
C  6.10200 2.80400 29.52000
C  4.61200 1.87800 31.51900
C  8.21600 2.69500 32.25400
C  8.09100 2.56100 33.79300
H  9.34600 2.79400 34.70400
N  6.02100 3.52100 26.49800
C  5.14000 3.99800 27.42100
C  4.19000 4.83400 26.82500
C  4.42600 4.75800 25.39600
C  5.56400 3.83200 25.27100
C  3.18100 5.76300 27.53300
C  3.79000 5.48600 24.22200
O  3.99900 5.24200 23.07900
C  2.80500 6.52700 24.44300
N  7.72900 1.51500 24.84800
C  7.14000 2.23400 23.85800
C  7.65000 1.84900 22.46000
C  8.70600 0.75500 22.77900
C  8.60000 0.59200 24.29200
C  6.50100 1.44500 21.46900
C  10.12200 1.05100 22.31800
C  10.96600 -0.08000 21.60500
N  9.08000 0.66200 27.27200
C  9.65500 -0.21900 26.40200
C  10.34100 -1.20700 27.14400
C  10.31800 -0.85000 28.48900
C  9.38300 0.28200 28.55100
C  11.10400 -2.32500 26.42700
C  10.74800 -1.07700 29.83800
O  11.55900 -1.79100 30.38400
C  10.01500 -0.04900 30.74500
C  9.33900 -0.83100 31.88300
O  8.84500 -1.94700 31.86000
O  9.61100 -0.23100 33.08400
C  9.29800 -1.00400 34.30800
H  4.53200 4.08100 29.53300
H  5.76700 3.64700 23.13400
H  9.91400 -1.01900 24.39400
H  6.94300 0.95100 31.98800
H  5.91800 3.60100 31.42300
H  4.28500 2.49700 32.35500
H  4.82100 0.85000 31.81400
H  3.89300 1.75400 30.71000
H  8.13600 3.73800 31.94900
H  9.23700 2.36100 32.07100
H  7.62500 1.63800 34.14000
H  7.51000 3.42500 34.11600
H  3.38600 6.81500 27.33100
H  3.33500 5.59400 28.59900
H  2.14000 5.53400 27.30700
H  3.36200 7.36500 24.86200
H  2.11500 6.07900 25.15900
H  2.24900 6.85700 23.56600
H  8.19100 2.69500 22.03600
H  8.27500 -0.12700 22.30600
H  6.07300 2.33700 21.01200
H  5.68700 1.05600 22.08100
H  6.71900 0.72600 20.67900
H  10.58800 1.53200 23.17800
H  10.00900 1.86500 21.60200
H  10.40200 -1.00700 21.71500
H  11.90100 -0.28900 22.12500
H  10.95900 0.23600 20.56200
H  11.99700 -2.48900 27.03000
H  11.36300 -1.81400 25.49900
H  10.55400 -3.25100 26.26400
H  10.82000 0.57900 31.12600
H  8.51300 -1.75900 34.27000
H  8.88300 -0.26500 34.99400
H  10.19900 -1.39300 34.78400
Mg 48.98000 35.31400 26.99000
C  46.56500 34.43500 29.55500
C  49.56100 38.23700 28.72200
C  50.81000 36.48500 24.29800
C  47.66900 32.86000 25.05500
N  48.20500 36.15600 28.92900
C  47.37900 35.56800 29.91100
C  47.05300 36.53700 31.05500
C  47.85200 37.78600 30.64200
C  48.65700 37.38600 29.39700
C  47.07400 39.09200 30.30600
C  47.48200 36.00800 32.51700
C  46.52700 36.58400 33.56900
H  47.01300 37.67900 34.45300
N  50.20000 36.96400 26.68600
C  50.35900 38.01700 27.55000
C  51.37000 38.85900 27.00900
C  51.85900 38.25900 25.82100
C  50.96000 37.22200 25.50900
C  51.70900 40.27600 27.59900
C  53.05100 38.66400 24.95000
O  53.43300 38.02800 23.97700
C  53.95500 39.83500 25.33900
N  49.06400 34.87800 24.99900
C  49.84100 35.46700 23.99200
C  49.76200 34.63400 22.68900
C  49.08300 33.31600 23.13400
C  48.53700 33.70000 24.50200
C  49.02800 35.47600 21.62700
C  50.04700 32.08900 23.19300
C  50.35400 31.43500 21.89400
N  47.50800 33.91700 27.24300
C  47.08100 32.98600 26.35300
C  45.97100 32.17900 26.87700
C  45.69700 32.74500 28.14100
C  46.71900 33.69700 28.34400
C  45.44000 30.89000 26.29000
C  44.89300 32.72000 29.35200
O  43.86000 32.10700 29.64900
C  45.31400 33.97000 30.18000
C  45.46800 33.44000 31.56100
O  46.34300 32.66900 31.92900
O  44.36600 33.84900 32.23400
C  44.21500 33.34700 33.54500
H  49.73400 39.21800 29.17100
H  51.46600 36.83200 23.49700
H  47.19200 32.04900 24.50100
H  45.98100 36.73100 31.03200
H  48.52000 38.19500 31.40000
H  47.54400 39.91000 30.85200
H  46.08400 39.00100 30.75300
H  46.96700 39.37600 29.25900
H  48.44500 36.34800 32.89800
H  47.53100 34.91900 32.50800
H  46.17700 35.83900 34.28400
H  45.68100 37.07200 33.08600
H  50.74300 40.77800 27.66100
H  52.30200 40.90400 26.93400
H  52.23800 40.18300 28.54800
H  54.85700 39.61900 24.76700
H  54.14600 39.76400 26.41000
H  53.55300 40.83100 25.15000
H  50.75900 34.27400 22.43700
H  48.31800 33.06000 22.40100
H  48.92600 36.51800 21.92700
H  48.02100 35.06200 21.57500
H  49.66700 35.53100 20.74500
H  49.57800 31.41400 23.90900
H  51.00700 32.42700 23.58400
H  49.83400 31.94900 21.08600
H  49.99500 30.42200 22.07400
H  51.40400 31.53200 21.61500
H  46.29800 30.22300 26.20800
H  45.32000 31.04600 25.21800
H  44.52800 30.47100 26.71500
H  44.49000 34.68400 30.19000
H  44.78900 34.00900 34.19300
H  44.54600 32.32300 33.72300
H  43.21600 33.52500 33.94300

