158

Mg 8.38900 2.91200 27.95700
C  9.83100 1.66900 30.80100
C  6.27800 4.82500 29.93700
C  6.67000 3.69300 25.12100
C  9.96400 0.22000 26.11400
N  8.10200 3.20700 30.14000
C  8.97500 2.71200 31.08200
C  8.65500 3.36800 32.41400
C  7.33400 4.16300 32.17400
C  7.24200 4.12000 30.63000
C  6.11400 3.58600 32.89000
C  9.97600 4.11700 32.96300
C  10.72600 3.50600 34.24800
H  11.03700 4.48700 35.46200
N  6.71600 4.16600 27.56600
C  6.03200 4.85300 28.51700
C  5.11600 5.79600 27.73900
C  5.29200 5.50400 26.36400
C  6.21500 4.37900 26.29900
C  4.18600 6.82300 28.43300
C  4.74900 6.23500 25.16100
O  4.96100 5.97200 23.96800
C  3.82100 7.37900 25.36100
N  8.35800 2.06700 25.93000
C  7.57900 2.61800 24.94900
C  7.62200 1.90400 23.60000
C  8.78300 0.81400 23.86500
C  9.07300 1.01000 25.39200
C  6.21400 1.25500 23.28600
C  10.09700 0.97000 23.01000
C  10.33200 -0.14600 22.02500
N  9.72600 1.34300 28.27800
C  10.32800 0.38100 27.51300
C  11.23500 -0.40600 28.25200
C  11.07900 0.11700 29.58200
C  10.10600 1.14200 29.49900
C  11.95400 -1.55000 27.84600
C  11.48200 -0.07900 30.95000
O  12.23100 -0.97700 31.36300
C  10.76400 1.01600 31.76500
C  10.02800 0.39400 32.90500
O  8.89600 -0.11500 32.89400
O  10.76200 0.43300 34.07800
C  10.10200 0.03500 35.34900
H  5.70200 5.54200 30.52600
H  6.29200 4.13300 24.19500
H  10.36000 -0.61000 25.52600
H  8.46100 2.57200 33.13200
H  7.50800 5.18600 32.50700
H  6.07100 2.61100 33.37600
H  5.39800 3.58600 32.06800
H  5.80900 4.32600 33.63000
H  9.64300 5.10200 33.29200
H  10.71600 4.16800 32.16500
H  11.53200 2.80500 34.03300
H  10.00300 2.78900 34.63800
H  4.59300 7.82400 28.57300
H  4.12600 6.51000 29.47500
H  3.20700 6.80800 27.95400
H  2.89600 7.03700 25.82500
H  3.60700 7.85100 24.40300
H  4.22100 8.11100 26.06300
H  8.01200 2.66200 22.92000
H  8.41400 -0.19800 23.70000
H  5.75000 1.95700 22.59300
H  5.50000 1.05700 24.08500
H  6.38000 0.33700 22.72300
H  10.99600 1.18300 23.58900
H  10.06600 1.87200 22.39900
H  10.89500 0.17000 21.14700
H  9.34600 -0.49200 21.71600
H  11.03900 -0.89300 22.38700
H  12.21200 -1.51300 26.78800
H  11.49400 -2.47300 28.19800
H  12.93900 -1.65000 28.30300
H  11.42100 1.76200 32.21300
H  9.83600 -1.01700 35.25100
H  9.14700 0.54400 35.47800
H  10.70400 0.19000 36.24500
Mg 44.44700 4.52900 48.09500
C  42.41000 7.23800 47.38000
C  41.94500 2.33800 47.18900
C  46.70800 1.82400 47.82500
C  47.16600 6.74000 47.60500
N  42.42600 4.83400 47.30400
C  41.72200 5.97200 47.19800
C  40.32900 5.74800 46.75500
C  40.11700 4.18200 47.06500
C  41.62100 3.74400 47.13700
C  39.34100 3.88300 48.31800
C  40.10200 6.09200 45.24900
C  39.06400 7.12100 44.91200
H  39.50600 8.18900 43.94200
N  44.30700 2.32900 47.87200
C  43.13200 1.65600 47.46500
C  43.41300 0.33000 47.31600
C  44.81900 0.10500 47.36300
C  45.34600 1.42600 47.78700
C  42.29100 -0.58300 46.74600
C  45.54300 -1.16600 47.03200
O  44.91800 -2.24600 46.79500
C  46.96400 -1.25300 46.87400
N  46.66700 4.30300 47.75700
C  47.33600 3.08800 47.78400
C  48.83300 3.31500 47.58600
C  49.06500 4.89200 47.61700
C  47.56500 5.39600 47.60700
C  49.72300 2.55100 48.60400
C  49.96800 5.39300 46.49300
C  51.41400 5.69200 46.85100
N  44.80600 6.57200 47.75800
C  45.95700 7.29400 47.73700
C  45.61400 8.72900 47.62800
C  44.23800 8.81600 47.54300
C  43.76800 7.44900 47.62500
C  46.67700 9.85400 47.57300
C  43.03900 9.62300 47.36600
O  42.84600 10.80400 47.19700
C  41.82900 8.61300 47.37200
C  40.81100 8.86500 48.43400
O  40.90700 8.40800 49.56400
O  39.74600 9.71600 47.97000
C  38.58500 9.86300 48.92800
H  41.07200 1.70300 47.02500
H  47.47800 1.05200 47.77000
H  47.96300 7.46000 47.41100
H  39.57100 6.28100 47.32800
H  39.66000 3.71300 46.19400
H  40.05200 3.43300 49.01100
H  38.49900 3.24300 48.05500
H  39.08800 4.75500 48.92300
H  39.96800 5.20800 44.62500
H  40.98800 6.63100 44.91500
H  38.58500 7.53900 45.79700
H  38.27200 6.65900 44.32100
H  42.40700 -0.34000 45.69000
H  41.41600 -0.16700 47.24500
H  42.43100 -1.61800 47.05900
H  47.26400 -2.23200 46.50000
H  47.44200 -1.17800 47.85100
H  47.35200 -0.48600 46.20400
H  49.06200 2.96600 46.58000
H  49.50700 5.20300 48.56400
H  49.26500 1.65100 49.01500
H  50.14600 3.19600 49.37400
H  50.47700 2.09600 47.96200
H  49.56100 6.31800 46.08400
H  50.06700 4.59300 45.75900
H  52.00200 5.21600 46.06600
H  51.67600 5.39900 47.86800
H  51.56300 6.77200 46.88400
H  46.86200 10.04900 46.51700
H  47.58900 9.69000 48.14700
H  46.29500 10.69200 48.15600
H  41.20000 8.83100 46.50900
H  38.01300 8.93600 48.89300
H  38.01100 10.71400 48.56100
H  38.91700 10.02000 49.95500

