158

Mg 30.44600 56.97400 40.57500
C  27.75900 54.90900 39.76300
C  32.56600 54.31900 39.77800
C  33.11500 59.08200 40.63200
C  28.30000 59.67000 40.92700
N  30.13600 54.90400 39.73300
C  28.93700 54.24500 39.63200
C  29.09100 52.75900 39.48500
C  30.68800 52.58600 39.76100
C  31.20600 54.03200 39.72900
C  30.98600 51.98100 41.15300
C  28.70900 52.15600 38.10300
C  29.11700 52.76100 36.77800
H  28.10400 53.19300 35.70700
N  32.48500 56.70000 40.33000
C  33.16100 55.54000 40.03800
C  34.57800 55.81700 39.99700
C  34.75800 57.20500 40.25200
C  33.39300 57.73700 40.51300
C  35.70600 54.88300 39.49400
C  36.19300 57.90400 40.30200
O  37.23100 57.28300 40.08900
C  36.23600 59.44300 40.53500
N  30.67400 59.08200 40.68800
C  31.83900 59.71200 40.88100
C  31.71300 61.21200 41.29400
C  30.17700 61.26800 41.42500
C  29.65900 59.90800 40.96000
C  32.49300 61.71600 42.55400
C  29.53200 62.52600 40.70300
C  29.46200 63.66100 41.74400
N  28.42000 57.27900 40.35200
C  27.68900 58.44700 40.62700
C  26.27600 58.12200 40.44700
C  26.26400 56.77000 40.05800
C  27.64600 56.25400 40.04200
C  25.06800 59.12600 40.58500
C  25.41400 55.71200 39.65900
O  24.19300 55.68500 39.39500
C  26.29400 54.43600 39.46600
C  25.81200 53.38300 40.39900
O  26.28700 53.07200 41.49400
O  24.74800 52.75800 39.84100
C  23.95500 51.83900 40.69600
H  33.20600 53.43600 39.73000
H  33.94000 59.76600 40.84400
H  27.63300 60.49400 41.18700
H  28.49500 52.32400 40.28700
H  31.11300 51.97900 38.96100
H  30.03900 51.63900 41.57100
H  31.47800 52.63500 41.87300
H  31.64800 51.12400 41.03000
H  27.63200 52.01500 38.19100
H  29.22000 51.19400 38.15900
H  29.88600 52.11200 36.35700
H  29.65100 53.66900 37.06000
H  36.58400 54.76800 40.12900
H  36.00800 55.31200 38.53800
H  35.24000 53.90900 39.34200
H  35.98500 59.75200 41.55000
H  35.56200 59.93800 39.83600
H  37.18500 59.91200 40.27500
H  32.10900 61.89900 40.54700
H  30.01500 61.26100 42.50300
H  33.28200 61.03200 42.86700
H  31.88800 61.92800 43.43600
H  33.12600 62.57600 42.33200
H  28.50000 62.21600 40.53600
H  29.93000 62.85500 39.74300
H  30.30700 63.75500 42.42700
H  28.57300 63.65600 42.37500
H  29.42400 64.58800 41.17300
H  25.35800 60.07800 41.03100
H  24.10400 58.82300 40.99400
H  24.75800 59.33300 39.56100
H  26.14600 54.12700 38.43100
H  24.61800 50.99400 40.88000
H  23.22900 51.43900 39.98800
H  23.53700 52.28600 41.59700
Mg 17.14500 50.90700 26.88300
C  19.18100 49.92100 29.57200
C  14.84500 52.14500 28.98700
C  15.38200 51.86200 24.27200
C  19.61300 49.52700 24.66600
N  17.03000 51.01300 28.94100
C  17.96600 50.56100 29.90800
C  17.43500 50.83700 31.34100
C  15.88900 51.14300 31.07900
C  15.92400 51.51300 29.55100
C  14.96500 49.99600 31.38200
C  18.23700 52.05400 31.91500
C  18.16900 52.41700 33.45100
H  17.07400 51.92500 34.37200
N  15.47700 52.03800 26.68500
C  14.57800 52.46800 27.63800
C  13.48500 53.22600 27.07400
C  13.64400 53.15100 25.68100
C  14.90000 52.35900 25.48900
C  12.31500 53.71100 27.89400
C  12.74000 53.66400 24.59300
O  12.87900 53.50300 23.39700
C  11.51600 54.41000 25.00200
N  17.43600 50.72700 24.76600
C  16.48200 51.18700 23.87400
C  16.78800 50.81800 22.43600
C  18.27400 50.16400 22.52800
C  18.51500 50.13600 24.04600
C  15.69800 49.98900 21.70000
C  19.33700 50.78200 21.56500
C  20.10400 51.97800 22.18000
N  18.95700 49.88900 26.97000
C  19.87600 49.46600 26.04000
C  20.97500 48.83300 26.67600
C  20.73500 48.96500 28.08400
C  19.54000 49.65800 28.21400
C  22.13900 48.08100 25.99100
C  21.27700 48.64900 29.36700
O  22.20500 47.99100 29.69600
C  20.25100 49.31600 30.42000
C  19.69400 48.31400 31.31300
O  19.22900 47.25600 30.96500
O  19.98000 48.68000 32.64100
C  19.53700 47.78400 33.71100
H  14.02900 52.49000 29.62500
H  14.79700 52.38300 23.51100
H  20.30500 49.04800 23.97000
H  17.52200 49.90900 31.90700
H  15.58000 51.99200 31.68900
H  14.13200 50.38800 31.96600
H  15.57700 49.21800 31.83900
H  14.55600 49.54900 30.47500
H  17.85200 52.99200 31.51500
H  19.26300 52.00400 31.55000
H  18.06700 53.50100 33.48900
H  19.11600 52.14600 33.91800
H  12.46300 53.69400 28.97300
H  11.35400 53.30700 27.57500
H  12.17900 54.78700 27.78100
H  11.71500 55.36000 25.49800
H  10.82800 53.69700 25.45400
H  10.94000 54.72400 24.13100
H  16.94100 51.87400 22.21200
H  18.13900 49.10700 22.30000
H  14.88400 49.76100 22.38900
H  16.21200 49.09800 21.34000
H  15.25200 50.56700 20.89000
H  18.91000 50.92700 20.57200
H  20.04500 49.97100 21.39900
H  19.73300 52.19900 23.18100
H  19.87800 52.89300 21.63300
H  21.19300 51.92200 22.20000
H  21.97500 47.01800 26.17100
H  23.14800 48.34200 26.31200
H  22.04400 48.18900 24.91000
H  20.78200 50.09200 30.97200
H  20.27100 46.97800 33.70600
H  18.53500 47.36700 33.61000
H  19.58900 48.43300 34.58500

