158

Mg 0.56800 8.05000 27.07600
C  1.10200 10.26600 29.61300
C  0.90500 5.46100 29.35900
C  0.56300 5.79400 24.38300
C  0.74300 10.69100 24.87900
N  1.00700 7.89100 29.16700
C  1.03400 8.97200 30.06500
C  0.95800 8.52800 31.53100
C  1.26200 7.04700 31.35800
C  1.06500 6.74800 29.86600
C  2.56700 6.55700 32.00800
C  -0.46800 8.87600 32.04700
C  -0.71600 8.98700 33.57200
H  0.42500 8.62900 34.54800
N  0.54900 5.91800 26.93600
C  0.67000 5.04800 28.00500
C  0.45900 3.71800 27.55300
C  0.20200 3.76400 26.13200
C  0.50100 5.21600 25.72700
C  0.51200 2.52100 28.52200
C  -0.14800 2.63800 25.18300
O  -0.19400 2.82100 24.00100
C  -0.51200 1.24500 25.75200
N  0.60400 8.24300 24.98300
C  0.61700 7.17500 24.06900
C  0.68900 7.74100 22.65600
C  0.17300 9.15900 22.88000
C  0.57900 9.40500 24.33900
C  2.12100 7.55600 22.04600
C  -1.41300 9.41800 22.63900
C  -1.69400 10.35600 21.39000
N  0.83700 10.09600 27.14300
C  0.93800 11.03900 26.17200
C  1.12900 12.36000 26.70200
C  1.17400 12.15600 28.05100
C  1.01000 10.71100 28.32900
C  1.34300 13.64900 25.97700
C  1.42300 12.77600 29.32500
O  1.63500 13.92800 29.65600
C  1.23800 11.60200 30.36900
C  2.36600 11.69300 31.34200
O  3.47700 11.27000 31.12400
O  1.94300 12.12500 32.51800
C  2.85700 12.01400 33.61700
H  0.69400 4.63900 30.04700
H  0.38300 5.15700 23.51500
H  0.64300 11.49900 24.15100
H  1.69100 9.03100 32.16100
H  0.52200 6.44800 31.88800
H  3.16000 7.43300 32.27300
H  3.09900 6.04500 31.20500
H  2.47300 5.81400 32.79900
H  -1.08400 8.10700 31.58000
H  -0.87000 9.76200 31.55600
H  -1.58500 8.38900 33.84900
H  -0.96800 10.04000 33.70000
H  0.87500 2.78000 29.51700
H  1.21900 1.74100 28.24100
H  -0.46900 2.17700 28.85000
H  -1.30200 1.19100 26.50000
H  0.34800 0.81300 26.26500
H  -0.91900 0.69600 24.90200
H  0.02700 7.28200 21.92100
H  0.80400 9.76900 22.23400
H  2.49400 6.55900 22.28300
H  2.78300 8.34300 22.40500
H  2.08900 7.66300 20.96200
H  -1.93400 9.80300 23.51600
H  -1.84000 8.42800 22.48000
H  -2.38100 9.75400 20.79600
H  -0.84600 10.55700 20.73600
H  -2.12400 11.28000 21.77900
H  1.70900 13.50700 24.96000
H  2.01500 14.17300 26.65700
H  0.39000 14.17800 25.97400
H  0.34200 11.64400 30.98900
H  3.39300 12.95700 33.72700
H  3.59100 11.21600 33.50100
H  2.28000 11.89000 34.53300
Mg 30.51100 57.98700 40.45500
C  27.65700 55.99900 39.46400
C  32.51000 55.60000 39.12500
C  33.01000 60.04400 40.72500
C  28.19500 60.46300 41.30400
N  30.13700 56.03700 39.48800
C  28.94800 55.44500 39.19700
C  29.13600 54.03600 38.56500
C  30.70900 53.92400 38.49400
C  31.18400 55.25100 39.15400
C  31.35200 52.66700 39.20300
C  28.52300 53.79000 37.19400
C  28.68100 54.89500 36.12300
H  27.43000 55.38000 35.33000
N  32.53000 57.82100 40.04400
C  33.16700 56.76800 39.49300
C  34.59000 57.05100 39.36900
C  34.81900 58.30200 39.97700
C  33.43500 58.82600 40.26600
C  35.52600 56.07600 38.77500
C  36.14600 58.99700 40.10300
O  37.20500 58.42000 39.81700
C  36.15100 60.43100 40.63000
N  30.60000 59.97000 40.80200
C  31.74600 60.60700 41.01900
C  31.41800 62.06400 41.44500
C  29.92200 62.06500 41.88600
C  29.54100 60.71200 41.28800
C  32.38800 62.59100 42.43000
C  29.07800 63.21900 41.18900
C  27.98500 63.89200 42.12900
N  28.33900 58.28200 40.44000
C  27.55700 59.29100 40.82300
C  26.14700 59.05100 40.60600
C  26.15800 57.69100 40.12500
C  27.49300 57.32300 39.98700
C  25.07600 60.05600 40.85000
C  25.23300 56.59900 39.66300
O  24.05600 56.41700 39.51600
C  26.23500 55.45200 39.19800
C  25.95200 54.16200 39.90100
O  26.50000 53.74900 40.89300
O  24.84200 53.58600 39.38700
C  24.36600 52.37100 40.09300
H  33.22500 54.87600 38.72800
H  33.84800 60.68400 41.01000
H  27.46600 61.24300 41.53200
H  28.66800 53.29300 39.21000
H  31.00600 54.05800 37.45300
H  32.08700 52.96600 39.95100
H  31.74100 51.97000 38.46200
H  30.59200 52.10400 39.74400
H  27.51000 53.42600 37.36600
H  29.11300 52.94600 36.83800
H  29.52300 54.60400 35.49500
H  29.02100 55.84700 36.53000
H  36.35400 56.56300 38.25900
H  35.10600 55.50800 37.94500
H  36.01600 55.37600 39.45200
H  35.64100 61.10800 39.94400
H  37.20000 60.71800 40.70100
H  35.83600 60.46200 41.67300
H  31.58400 62.50700 40.46300
H  29.75000 62.24400 42.94700
H  33.07300 61.82300 42.78900
H  31.91100 62.98300 43.32800
H  32.98800 63.40400 42.02200
H  28.51200 62.97400 40.29000
H  29.76300 63.98900 40.83400
H  27.22800 64.42500 41.55400
H  28.41700 64.64400 42.79000
H  27.61400 63.14800 42.83300
H  25.26400 60.80600 41.61800
H  24.11900 59.54400 40.95700
H  24.90000 60.50800 39.87400
H  26.09600 55.12300 38.16800
H  24.39000 51.43200 39.53900
H  23.30800 52.59900 40.22300
H  24.57600 52.14400 41.13900

