158

Mg 24.27000 -4.91200 46.24900
C  26.39700 -2.77900 44.55800
C  21.76100 -4.15800 43.84200
C  22.55800 -7.63900 47.16500
C  26.96100 -6.06100 48.23300
N  24.10900 -3.61500 44.38500
C  25.04600 -2.74400 44.02900
C  24.54900 -1.93800 42.84700
C  23.05400 -2.16400 42.87400
C  22.92100 -3.34700 43.80100
C  22.24400 -0.90300 43.24400
C  25.23600 -2.36400 41.56000
C  25.78000 -1.19500 40.72900
H  25.07600 -0.84900 39.43100
N  22.30200 -5.65800 45.72900
C  21.47300 -5.25300 44.68500
C  20.29500 -6.14300 44.66900
C  20.48500 -7.13000 45.64000
C  21.88100 -6.87000 46.22100
C  19.15600 -5.95800 43.63300
C  19.52600 -8.24800 45.86900
O  18.47600 -8.20300 45.20500
C  19.69100 -9.33500 46.88700
N  24.72300 -6.56400 47.61300
C  23.80500 -7.51500 47.77800
C  24.33100 -8.57400 48.87300
C  25.71500 -8.05500 49.16700
C  25.82400 -6.80100 48.30000
C  23.46100 -8.87000 50.17100
C  26.91600 -9.11700 48.87900
C  27.83700 -9.21700 50.06500
N  26.24600 -4.49300 46.47800
C  27.21100 -4.92700 47.36500
C  28.42300 -4.14400 47.25200
C  28.15200 -3.32600 46.06000
C  26.79900 -3.48600 45.68800
C  29.63600 -4.30100 48.03800
C  28.75300 -2.36700 45.17700
O  29.88200 -1.92900 45.19200
C  27.59300 -1.90900 44.14400
C  27.30400 -0.47100 44.39900
O  26.38900 -0.06600 45.04700
O  28.27500 0.25200 43.74200
C  28.10300 1.70800 44.04900
H  21.02600 -3.91900 43.07100
H  21.95600 -8.47800 47.52000
H  27.76300 -6.41500 48.88300
H  24.66800 -0.88400 43.09900
H  22.63800 -2.56100 41.94900
H  22.71800 -0.13300 42.63500
H  22.50900 -0.67300 44.27600
H  21.17000 -0.98600 43.08100
H  24.49800 -2.89600 40.96000
H  26.08200 -3.03200 41.72200
H  26.78100 -1.49300 40.41600
H  25.85700 -0.34100 41.40200
H  19.29200 -6.61800 42.77600
H  19.24500 -4.92900 43.28600
H  18.19200 -6.24600 44.05100
H  19.62500 -9.02800 47.93100
H  20.66000 -9.81600 46.75300
H  18.89000 -10.07000 46.80500
H  24.42800 -9.50100 48.30700
H  25.73800 -7.67900 50.19000
H  22.46100 -8.44500 50.08600
H  23.95000 -8.59400 51.10500
H  23.37100 -9.91000 50.48500
H  27.55900 -8.70500 48.10100
H  26.51900 -10.09000 48.58900
H  28.52800 -10.02200 49.81700
H  27.31400 -9.41500 51.00000
H  28.35400 -8.25700 50.05900
H  30.38800 -4.94700 47.58500
H  29.49700 -4.65600 49.06000
H  30.10600 -3.31800 48.04200
H  27.94700 -2.08200 43.12700
H  27.33200 2.01600 43.34300
H  29.11000 2.11300 43.95000
H  27.75800 1.90500 45.06400
Mg 54.71100 25.23900 45.01100
C  51.80900 26.99100 43.92100
C  53.49500 22.45400 43.44500
C  57.83100 23.86800 45.23500
C  56.08400 28.39800 45.95400
N  52.94800 24.84700 43.70800
C  51.86800 25.73100 43.46100
C  50.83600 24.94600 42.58000
C  51.20900 23.47100 42.77300
C  52.62700 23.57500 43.37300
C  50.24200 22.84700 43.81700
C  50.86000 25.33700 41.06000
C  49.48800 25.49700 40.41400
H  49.35600 24.64800 39.21300
N  55.54800 23.40900 44.47700
C  54.86500 22.33500 43.95800
C  55.69600 21.10400 43.94100
C  56.96700 21.51700 44.33300
C  56.83500 22.99700 44.65300
C  55.27200 19.75700 43.44400
C  58.23500 20.75600 44.31600
O  58.12900 19.61500 43.96600
C  59.66000 21.21800 44.65500
N  56.75100 26.09000 45.28600
C  57.75200 25.24500 45.60100
C  58.95100 25.90400 46.23900
C  58.41600 27.41100 46.37600
C  56.98400 27.31500 45.83500
C  59.37500 25.20700 47.51100
C  59.36100 28.51900 45.81700
C  58.93500 29.18600 44.56700
N  54.13000 27.30300 44.99300
C  54.74100 28.39400 45.49400
C  53.71800 29.40700 45.83300
C  52.56200 28.97700 45.08400
C  52.89900 27.66500 44.65900
C  53.95300 30.60600 46.58000
C  51.20800 29.30700 44.62500
O  50.58900 30.32900 44.86700
C  50.68200 27.99500 43.86900
C  50.31200 28.52300 42.46200
O  51.15700 28.92000 41.60500
O  48.91700 28.64600 42.32500
C  48.51000 29.27700 41.07100
H  53.14400 21.50700 43.03100
H  58.75500 23.34300 45.48800
H  56.45100 29.29800 46.45200
H  49.85500 25.15500 43.00500
H  51.15100 22.83500 41.88900
H  49.88100 21.86300 43.51900
H  49.40400 23.51400 44.01900
H  50.78200 22.76900 44.76100
H  51.33300 24.50400 40.54000
H  51.53100 26.19600 41.04700
H  49.33100 26.53200 40.10800
H  48.77300 25.24700 41.19800
H  54.24600 19.49500 43.70200
H  55.80300 19.07200 44.10500
H  55.43500 19.60900 42.37700
H  59.95200 22.13300 44.13800
H  60.38500 20.45500 44.36900
H  59.65900 21.27700 45.74300
H  59.83000 25.91700 45.59600
H  58.37600 27.51600 47.46000
H  59.43700 25.77300 48.44000
H  60.38700 24.83900 47.34100
H  58.75300 24.31100 47.52200
H  60.35800 28.11800 45.63600
H  59.51500 29.20300 46.65100
H  58.50500 28.34700 44.02000
H  59.82300 29.49300 44.01500
H  58.33600 30.08700 44.69800
H  54.67000 30.39600 47.37400
H  52.92700 30.85100 46.85700
H  54.39800 31.37700 45.95200
H  49.80200 27.65000 44.41200
H  48.97500 30.26300 41.07800
H  47.43300 29.44100 41.10900
H  48.81300 28.75700 40.16200

