158

Mg 36.54700 49.85600 26.26900
C  36.67300 47.93200 29.36000
C  35.54900 52.50100 28.20700
C  35.96600 51.54900 23.37800
C  37.03100 46.98800 24.46500
N  36.25700 50.19800 28.53600
C  36.43100 49.28400 29.60800
C  36.16500 49.94500 30.99800
C  35.67300 51.33800 30.48600
C  35.85900 51.39100 28.98400
C  34.24800 51.79800 31.07900
C  37.55600 49.97000 31.75500
C  37.71200 49.71200 33.28200
H  36.44100 49.79300 34.00600
N  35.99400 51.75000 25.87700
C  35.68400 52.72500 26.84100
C  35.40900 53.95000 26.16200
C  35.49700 53.69700 24.74400
C  35.82300 52.26500 24.60000
C  34.64000 55.08000 26.77700
C  35.37600 54.66200 23.57800
O  35.37800 54.29500 22.38300
C  35.21200 56.12900 24.00700
N  36.59200 49.32200 24.23000
C  36.40800 50.25300 23.20900
C  36.53100 49.60800 21.80700
C  37.15000 48.17600 22.21100
C  36.91900 48.14400 23.71800
C  35.17700 49.49600 20.98900
C  38.65800 48.02700 21.95500
C  39.17200 46.66200 21.30000
N  36.78700 47.83200 26.68900
C  37.04200 46.78500 25.86100
C  37.17800 45.55000 26.62500
C  36.98300 45.96800 27.95200
C  36.78200 47.38300 27.95600
C  37.64200 44.23200 26.14000
C  37.04300 45.51200 29.32400
O  37.27700 44.42100 29.77400
C  36.85700 46.79300 30.30100
C  35.56500 46.49200 31.15500
O  34.42600 46.89600 30.98200
O  35.96700 45.77900 32.24100
C  34.86400 45.41400 33.18300
H  35.04400 53.26200 28.80600
H  35.78000 52.03900 22.42000
H  37.27800 46.05100 23.96000
H  35.39400 49.41800 31.56000
H  36.29100 52.12500 30.91700
H  33.85200 50.92200 31.59100
H  33.54600 51.98400 30.26600
H  34.32400 52.56700 31.84800
H  37.97600 50.96100 31.58300
H  38.14800 49.14600 31.35800
H  38.46600 50.41500 33.63800
H  38.17300 48.73200 33.40600
H  33.77900 55.38700 26.18200
H  35.28900 55.92100 27.01900
H  34.25800 54.92600 27.78600
H  34.24300 56.28500 24.48000
H  35.11200 56.63000 23.04500
H  35.99000 56.48700 24.68200
H  37.26600 50.16200 21.22400
H  36.51900 47.34500 21.89800
H  34.74500 48.52800 21.24200
H  35.57500 49.48700 19.97400
H  34.49400 50.32800 21.16200
H  39.09800 48.01100 22.95200
H  39.08800 48.81200 21.33200
H  39.95200 47.02900 20.63200
H  38.34100 46.30800 20.68900
H  39.65300 45.97000 21.99100
H  38.14200 44.30000 25.17400
H  36.79200 43.55000 26.14500
H  38.32500 43.84200 26.89500
H  37.82700 46.87100 30.79300
H  35.30900 44.56100 33.69600
H  33.92500 45.21600 32.66700
H  34.75300 46.21100 33.91800
Mg 26.92600 51.13600 27.14900
C  24.52600 52.12900 29.45600
C  28.95200 50.22800 29.53500
C  29.12000 50.60700 24.78300
C  24.57300 52.24600 24.63500
N  26.73300 51.27500 29.33500
C  25.64100 51.51200 30.06000
C  25.84200 51.23400 31.50700
C  27.33400 50.56000 31.52900
C  27.69600 50.66800 30.04700
C  28.18900 51.31500 32.54500
C  24.76100 50.29800 32.07700
C  24.04400 50.72400 33.41000
H  24.19000 49.76500 34.58700
N  28.83000 50.56000 27.18200
C  29.53400 50.26700 28.26500
C  30.89700 49.93600 27.90200
C  30.96200 50.17300 26.47500
C  29.59500 50.46400 26.06300
C  31.96500 49.58000 28.81400
C  32.12100 50.08800 25.56200
O  32.14000 50.40300 24.34600
C  33.46700 49.60700 26.07600
N  26.78900 51.36700 25.01500
C  27.86400 51.00700 24.26700
C  27.69500 51.02100 22.82300
C  26.13200 51.31900 22.74900
C  25.73000 51.64800 24.23000
C  28.57100 52.05000 22.05200
C  25.16400 50.22000 22.19600
C  23.81200 50.75300 21.64700
N  24.95700 52.01700 27.02400
C  24.21400 52.45700 25.98300
C  23.01700 53.05300 26.41700
C  23.07100 52.91200 27.81700
C  24.26700 52.25500 28.10700
C  22.04200 53.74700 25.51400
C  22.38200 53.24400 29.05500
O  21.31500 53.77400 29.28500
C  23.24900 52.57200 30.12600
C  23.59800 53.62000 31.14600
O  24.42200 54.51200 31.08300
O  22.75000 53.45900 32.21400
C  23.00900 54.44000 33.31500
H  29.61500 49.89000 30.33400
H  29.79100 50.21700 24.01400
H  23.76100 52.33800 23.91100
H  25.81700 52.17500 32.05600
H  27.41000 49.50000 31.77300
H  29.14400 50.79600 32.63700
H  27.89600 51.28500 33.59500
H  28.38200 52.34500 32.24700
H  25.26500 49.36300 32.32000
H  23.90600 50.05300 31.44700
H  22.98900 50.87600 33.18100
H  24.37800 51.66800 33.84000
H  31.60400 49.74900 29.82800
H  32.88900 50.15200 28.72900
H  32.22100 48.54600 28.58100
H  34.14600 49.51500 25.22800
H  33.42000 48.62200 26.54000
H  33.82800 50.36000 26.77600
H  27.93500 50.02500 22.45300
H  26.00600 52.18900 22.10400
H  29.54200 52.03900 22.54700
H  28.15500 53.05600 22.10100
H  28.67000 51.74500 21.01000
H  24.88000 49.64900 23.08000
H  25.66100 49.52000 21.52400
H  23.67100 50.56600 20.58300
H  23.69500 51.79500 21.94600
H  22.99100 50.26300 22.17000
H  21.07500 53.74100 26.01800
H  21.79300 53.05800 24.70700
H  22.40100 54.75200 25.29500
H  22.64200 51.78100 30.56700
H  23.99700 54.39000 33.77300
H  22.30600 54.34700 34.14300
H  22.85100 55.47400 33.00700

