158

Mg 47.83500 15.13100 28.14400
C  45.80300 14.80500 30.99800
C  50.00100 17.09700 30.19900
C  49.63900 15.83000 25.47500
C  45.39200 13.51900 26.22600
N  47.91400 15.75200 30.37000
C  46.95900 15.55600 31.27300
C  47.38500 15.99900 32.61200
C  48.47000 17.09200 32.22300
C  48.82500 16.62900 30.86100
C  48.01700 18.56000 32.33700
C  47.96600 14.82500 33.46800
C  48.40500 15.19200 34.94900
H  48.09000 16.60300 35.46100
N  49.71400 16.20100 27.93200
C  50.42400 16.82700 28.91300
C  51.53400 17.43900 28.22600
C  51.41900 17.15800 26.88300
C  50.29200 16.32000 26.68800
C  52.49200 18.30100 28.99200
C  52.31000 17.72900 25.76000
O  52.12200 17.37400 24.60800
C  53.67300 18.48600 25.93800
N  47.50000 14.75100 26.17300
C  48.48700 15.04200 25.24800
C  48.10700 14.49700 23.85000
C  46.76300 13.74500 24.08300
C  46.47800 13.98700 25.58600
C  48.14600 15.55400 22.66800
C  46.64800 12.24900 23.71300
C  45.63600 11.86800 22.63300
N  45.95300 14.36100 28.51600
C  45.02200 13.78700 27.64000
C  43.81200 13.47600 28.38800
C  44.07100 13.94600 29.66900
C  45.38900 14.37600 29.76600
C  42.62600 12.70300 27.79300
C  43.49100 14.08200 30.93700
O  42.41000 13.79000 31.45100
C  44.60900 14.64000 31.88300
C  44.07700 15.89200 32.48500
O  43.90300 16.94200 31.87300
O  43.92200 15.75900 33.87700
C  43.44700 16.84800 34.73700
H  50.52800 17.84300 30.79800
H  50.21400 16.14900 24.60300
H  44.62100 13.06500 25.60000
H  46.60200 16.41800 33.24300
H  49.30800 16.83400 32.87100
H  46.93500 18.62700 32.45700
H  48.28000 19.10400 31.43000
H  48.69000 19.02300 33.05900
H  48.82400 14.41100 32.93800
H  47.30200 13.96100 33.48600
H  49.48700 15.06000 34.95900
H  47.94100 14.60700 35.74300
H  53.49800 17.98800 28.71400
H  52.52300 18.21800 30.07900
H  52.24500 19.33300 28.74200
H  53.51600 19.37200 26.55200
H  54.07100 18.89800 25.01000
H  54.39700 17.82200 26.41000
H  48.84200 13.71500 23.66000
H  45.96200 14.22400 23.51900
H  48.24900 16.57500 23.03600
H  47.27400 15.63000 22.01800
H  48.97600 15.39300 21.98000
H  46.20000 11.80200 24.60100
H  47.62300 11.85700 23.42500
H  46.08300 11.07400 22.03500
H  45.35400 12.76900 22.08900
H  44.77800 11.43800 23.15000
H  42.57800 12.94000 26.73000
H  41.77400 13.10500 28.34200
H  42.80700 11.66900 28.08600
H  44.80700 13.94100 32.69600
H  42.40400 16.59500 34.92300
H  43.40600 17.77900 34.17000
H  43.94700 16.81900 35.70500
Mg -0.13300 44.30200 27.29800
C  2.27200 44.29000 29.96600
C  -2.61400 43.63500 29.60400
C  -2.14500 43.63500 24.69200
C  2.62600 44.56500 25.03300
N  -0.15200 43.85500 29.53600
C  0.89900 44.10500 30.38400
C  0.40900 44.05000 31.86000
C  -1.04800 43.41900 31.66200
C  -1.33400 43.68600 30.16700
C  -1.34700 41.89800 32.06500
C  0.52500 45.44000 32.57700
C  0.82700 45.33600 34.07500
H  0.68200 43.97500 34.81700
N  -2.15100 43.83300 27.21900
C  -2.98700 43.68600 28.27800
C  -4.33700 43.62100 27.71100
C  -4.20400 43.56700 26.33000
C  -2.81000 43.73000 25.98300
C  -5.58400 43.56800 28.61200
C  -5.36400 43.45700 25.19600
O  -5.11900 43.42900 24.00800
C  -6.77300 43.44300 25.57300
N  0.19300 44.05600 25.12300
C  -0.80300 43.83800 24.27800
C  -0.34000 43.87500 22.82800
C  1.04700 44.53800 22.96300
C  1.33700 44.29100 24.47200
C  -0.17900 42.49700 22.10900
C  1.10900 46.01600 22.57700
C  1.05900 47.04100 23.71000
N  2.07800 44.44400 27.44100
C  3.01100 44.61600 26.43400
C  4.30800 44.71700 26.96500
C  4.04900 44.64000 28.36500
C  2.66700 44.43500 28.61600
C  5.58400 44.90600 26.20300
C  4.66700 44.66200 29.72900
O  5.84300 44.69100 30.12900
C  3.54100 44.58200 30.78600
C  3.84200 43.49000 31.75600
O  3.64200 42.26300 31.50800
O  4.18400 43.96100 32.94500
C  4.77200 42.84800 33.80000
H  -3.44200 43.42500 30.28300
H  -2.85300 43.63300 23.86200
H  3.50200 44.69400 24.39300
H  1.05500 43.33200 32.36600
H  -1.69400 44.07600 32.24500
H  -1.76000 41.39900 31.18800
H  -2.13800 41.81800 32.81000
H  -0.39800 41.40100 32.26600
H  -0.42800 45.96900 32.56900
H  1.27300 46.08700 32.11900
H  0.19400 46.02700 34.63100
H  1.89500 45.55500 34.09400
H  -5.34300 43.33900 29.65000
H  -6.13800 42.72400 28.20200
H  -6.23200 44.41800 28.39800
H  -6.81000 44.13000 26.41900
H  -7.15800 42.47200 25.88500
H  -7.35500 43.97100 24.81800
H  -1.02900 44.46900 22.22900
H  1.85100 44.03700 22.42300
H  -0.40100 41.67800 22.79400
H  0.74800 42.33600 21.55900
H  -0.91500 42.45100 21.30600
H  0.22100 46.28500 22.00500
H  1.99600 46.23000 21.98200
H  1.11600 46.81600 24.77500
H  0.31500 47.82800 23.59300
H  2.03000 47.51900 23.58200
H  5.62900 44.40500 25.23600
H  6.22200 44.49600 26.98600
H  5.95700 45.91900 26.04700
H  3.56100 45.57800 31.22800
H  4.11600 42.03100 34.09800
H  5.32600 43.15900 34.68500
H  5.55700 42.45400 33.15400

