158

Mg 24.36900 -5.59400 47.06800
C  26.25600 -3.40100 45.15200
C  21.75200 -5.04100 44.91000
C  22.83200 -8.26300 48.45400
C  27.48400 -6.81300 48.50600
N  24.10200 -4.52400 45.18300
C  24.93100 -3.54000 44.67100
C  24.29500 -2.66200 43.58800
C  22.85000 -3.22200 43.60300
C  22.89500 -4.31100 44.64400
C  21.72600 -2.21200 43.87800
C  25.00400 -2.61300 42.16600
C  25.18000 -1.11200 41.66100
H  25.37800 -0.96300 40.09000
N  22.53500 -6.46400 46.79000
C  21.62000 -6.10300 45.86000
C  20.44100 -6.90900 46.10200
C  20.68200 -7.80300 47.14300
C  22.11800 -7.51400 47.55100
C  19.15200 -6.56000 45.33000
C  19.70900 -8.80100 47.74600
O  18.59500 -8.82700 47.17000
C  19.93200 -9.69500 48.90500
N  25.08100 -7.46300 48.10700
C  24.19400 -8.30200 48.65600
C  24.90800 -9.37900 49.55000
C  26.27200 -8.78100 49.71900
C  26.33900 -7.64000 48.65900
C  24.31600 -9.75000 50.92800
C  27.40200 -9.86800 49.65400
C  27.88100 -10.62100 50.90400
N  26.39600 -5.10800 47.05800
C  27.50100 -5.60900 47.70600
C  28.64500 -4.91000 47.35500
C  28.20900 -3.97500 46.39200
C  26.81100 -4.18700 46.16500
C  30.08400 -5.12200 47.91900
C  28.65500 -2.94400 45.50200
O  29.78500 -2.53900 45.34700
C  27.34400 -2.49800 44.73100
C  27.12800 -1.06000 45.05300
O  26.29300 -0.63400 45.81700
O  27.86700 -0.22100 44.34700
C  27.84000 1.20300 44.66900
H  20.88000 -4.83300 44.28600
H  22.37600 -9.16700 48.86200
H  28.44400 -7.02000 48.98300
H  24.24400 -1.67400 44.04600
H  22.63300 -3.66000 42.62900
H  21.03400 -2.21200 43.03600
H  22.07100 -1.19200 44.04700
H  21.22100 -2.53000 44.79100
H  24.40100 -3.09100 41.39400
H  25.92800 -3.19200 42.16400
H  26.12700 -0.70400 42.01500
H  24.27000 -0.65800 42.05500
H  18.87000 -7.34700 44.63100
H  19.18000 -5.71900 44.63700
H  18.42600 -6.39100 46.12500
H  18.96900 -10.16200 49.11200
H  20.38500 -9.14900 49.73200
H  20.67000 -10.48300 48.75300
H  25.04300 -10.25900 48.92100
H  26.42100 -8.23500 50.65000
H  23.49300 -9.08300 51.18400
H  24.95500 -9.65300 51.80600
H  23.97600 -10.78500 50.95400
H  28.27600 -9.32100 49.30100
H  27.15100 -10.65900 48.94700
H  28.92500 -10.42800 51.15200
H  27.84100 -11.70500 50.79300
H  27.27400 -10.46700 51.79600
H  30.82300 -4.60500 47.30600
H  30.13600 -6.21000 47.96100
H  30.05900 -4.65800 48.90500
H  27.53900 -2.52000 43.65900
H  28.63400 1.36900 45.39800
H  26.88100 1.51800 45.08000
H  28.23600 1.75100 43.81400
Mg 48.78800 35.08500 26.47200
C  46.84500 33.51100 28.96900
C  48.91100 37.85200 28.60200
C  50.12100 36.72800 23.95500
C  48.24200 32.30800 24.33700
N  48.06800 35.52200 28.62200
C  47.33000 34.72100 29.38300
C  47.34600 35.24200 30.79800
C  47.68900 36.68700 30.63800
C  48.31000 36.75000 29.22200
C  46.45900 37.69700 30.88800
C  48.44700 34.41800 31.62300
C  48.13600 33.94900 33.07100
H  47.72900 34.97000 34.11700
N  49.36400 37.02800 26.30500
C  49.31700 38.05700 27.24900
C  49.91200 39.29300 26.66100
C  50.27700 38.95700 25.31200
C  49.93300 37.54500 25.12700
C  50.07400 40.58400 27.45400
C  50.91900 39.79300 24.26600
O  51.29600 39.38400 23.16700
C  51.35900 41.16900 24.68000
N  48.99500 34.63100 24.32800
C  49.78800 35.42000 23.63700
C  50.16300 34.82700 22.26600
C  49.68700 33.29400 22.45200
C  48.94400 33.41600 23.78700
C  49.48400 35.47600 21.11300
C  50.71500 32.15700 22.61000
C  50.40200 30.75700 22.05500
N  47.78800 33.27700 26.55700
C  47.65100 32.22800 25.65700
C  46.82700 31.14300 26.20400
C  46.45100 31.63300 27.48900
C  47.08000 32.93300 27.69900
C  46.34700 29.87000 25.56600
C  45.70000 31.33800 28.65300
O  44.94600 30.42500 28.94600
C  45.72700 32.61700 29.47600
C  45.79600 32.34100 30.95200
O  46.52500 31.54500 31.45500
O  44.82700 32.98500 31.54500
C  44.64500 32.81900 32.99200
H  48.97800 38.79000 29.15600
H  50.61800 37.12700 23.06800
H  48.09400 31.41900 23.72000
H  46.41400 35.10200 31.34500
H  48.58300 36.92900 31.21200
H  46.34300 38.42300 30.08300
H  46.66700 38.39000 31.70300
H  45.50800 37.19700 31.07200
H  49.44000 34.86700 31.62000
H  48.63300 33.46700 31.12500
H  49.01500 33.64800 33.64100
H  47.44000 33.11500 33.16800
H  49.28900 40.46900 28.20100
H  49.84900 41.39400 26.75900
H  51.13400 40.72800 27.66600
H  50.62300 41.97200 24.73200
H  52.06300 41.58800 23.96000
H  51.84600 41.07800 25.65100
H  51.22000 34.87800 22.00700
H  48.90900 32.97600 21.75800
H  48.64600 36.07800 21.46600
H  49.15100 34.74500 20.37600
H  50.24300 36.10900 20.65200
H  50.91100 31.98000 23.66700
H  51.71000 32.47500 22.29800
H  50.42100 30.09500 22.92000
H  51.12500 30.42200 21.31100
H  49.37900 30.66900 21.68900
H  45.27000 29.92000 25.40400
H  46.60100 29.00800 26.18400
H  46.84800 29.89500 24.59900
H  44.82600 33.18000 29.23200
H  43.75500 32.25000 33.26200
H  44.58200 33.82100 33.41500
H  45.48500 32.24200 33.37900

