158

Mg 40.43200 8.53900 30.20400
C  42.21500 9.87700 32.89200
C  37.93600 7.54500 32.48400
C  38.70600 7.28300 27.61500
C  43.01500 9.18600 28.10900
N  40.17400 8.70200 32.40800
C  40.96200 9.34000 33.26400
C  40.22400 9.43600 34.63600
C  38.93500 8.59900 34.50500
C  38.97300 8.31200 33.03100
C  38.84400 7.43100 35.46800
C  40.02900 10.89900 35.14700
C  39.55400 11.08300 36.59100
H  40.26600 11.84800 37.64000
N  38.61700 7.46900 30.07900
C  37.72800 7.22500 31.07100
C  36.55300 6.50000 30.56700
C  36.84100 6.39700 29.10800
C  38.11900 7.07400 28.87300
C  35.40400 6.00100 31.41500
C  35.93900 5.72900 28.03300
O  36.27100 5.67300 26.82700
C  34.69800 4.99900 28.37300
N  40.84600 8.11800 28.18700
C  39.91500 7.74800 27.32600
C  40.50100 7.74000 25.92000
C  41.72300 8.71600 25.97300
C  41.84100 8.74200 27.50300
C  40.91200 6.32500 25.41000
C  41.60600 10.04000 25.22600
C  41.00300 11.27700 25.98000
N  42.35400 9.18900 30.42300
C  43.30400 9.46000 29.47300
C  44.49400 10.03600 30.18800
C  44.05600 10.29800 31.51400
C  42.75900 9.74600 31.61500
C  45.80400 10.34800 29.49600
C  44.47400 10.95300 32.70600
O  45.53400 11.55000 32.91700
C  43.30400 10.66400 33.69600
C  43.90800 10.01000 34.88900
O  44.54600 8.96000 34.85900
O  43.75200 10.79600 35.99500
C  44.48600 10.37400 37.19500
H  37.05800 7.35200 33.10400
H  38.10800 7.00300 26.74600
H  43.77800 9.53900 27.41200
H  40.89500 9.01200 35.38300
H  38.20000 9.32400 34.85700
H  38.65300 6.47600 34.97800
H  38.02900 7.71400 36.13500
H  39.69500 7.42500 36.14900
H  39.27300 11.25300 34.44600
H  40.94100 11.49000 35.06400
H  39.34100 10.07100 36.93700
H  38.56300 11.53000 36.66900
H  34.46500 6.55100 31.46500
H  35.65700 5.76700 32.44900
H  35.12500 5.02200 31.02400
H  34.25700 4.70700 27.42000
H  33.87100 5.63200 28.69700
H  34.87200 4.16500 29.05200
H  39.74100 8.10700 25.22900
H  42.65600 8.29600 25.59800
H  40.14100 5.62900 25.74200
H  41.92000 6.07800 25.74200
H  41.01000 6.30200 24.32500
H  40.99100 9.86500 24.34300
H  42.61100 10.38900 24.98900
H  40.07800 11.38400 25.41400
H  41.65800 12.14400 25.89700
H  40.83300 10.96300 27.00900
H  45.71100 11.36000 29.10200
H  45.92900 9.62400 28.69100
H  46.53000 10.23000 30.30100
H  42.88800 11.64300 33.93300
H  44.16200 9.38100 37.50700
H  44.31400 11.02100 38.05500
H  45.54800 10.21500 37.01000
Mg 0.46100 42.75900 26.11200
C  2.78200 42.56300 28.74100
C  -1.99300 41.80800 28.32200
C  -1.68000 42.56200 23.44900
C  3.08600 43.45100 24.04700
N  0.44200 42.05500 28.20100
C  1.48400 42.28600 29.13600
C  0.96500 42.23100 30.60300
C  -0.47000 41.60800 30.39600
C  -0.78100 41.84200 28.87700
C  -0.59600 40.12900 30.81700
C  1.07200 43.63400 31.32400
C  1.00900 43.78200 32.91100
H  0.60900 42.49600 33.76200
N  -1.51900 42.27600 25.92400
C  -2.37600 42.00300 26.96300
C  -3.70600 41.90800 26.46000
C  -3.67000 42.06400 25.01500
C  -2.23800 42.27000 24.68600
C  -4.91000 41.68000 27.30100
C  -4.80600 42.02800 24.03000
O  -4.59500 42.16300 22.84300
C  -6.18300 41.77100 24.56100
N  0.68600 42.82500 24.00200
C  -0.31900 42.87000 23.11200
C  0.10700 43.27800 21.67300
C  1.62600 43.56200 21.91200
C  1.84200 43.21400 23.41000
C  -0.21000 42.14500 20.70600
C  2.08600 44.96900 21.56300
C  1.70700 46.02900 22.57800
N  2.53400 43.03800 26.32600
C  3.42500 43.24500 25.36600
C  4.77900 43.27400 25.89400
C  4.62200 42.99400 27.26200
C  3.19500 42.87200 27.42800
C  6.04700 43.31200 25.10800
C  5.23700 42.81400 28.50400
O  6.41700 42.80000 28.76800
C  4.07100 42.54000 29.52400
C  4.30300 41.28900 30.30700
O  3.84200 40.15600 30.06700
O  5.21800 41.51500 31.28900
C  5.68200 40.36100 32.10200
H  -2.71800 41.65700 29.12400
H  -2.32700 42.62700 22.57200
H  3.82900 43.82600 23.34000
H  1.65700 41.58300 31.14100
H  -1.26700 42.14100 30.91400
H  0.38400 39.67100 30.94900
H  -0.98200 39.66500 29.90900
H  -1.25400 39.87500 31.64800
H  0.31300 44.34300 30.99600
H  1.99300 44.12100 31.00400
H  0.34200 44.57900 33.24100
H  1.91800 44.18400 33.35800
H  -5.61500 42.51000 27.27500
H  -4.61100 41.36000 28.30000
H  -5.47200 40.87500 26.82700
H  -6.29200 40.72800 24.85800
H  -6.90900 41.88600 23.75600
H  -6.46200 42.38100 25.42000
H  -0.50400 44.11500 21.33700
H  2.25400 42.86500 21.35800
H  0.33700 42.18000 19.76300
H  -1.28500 41.97400 20.66700
H  0.15700 41.24400 21.19700
H  1.55000 45.13500 20.62800
H  3.17300 45.05200 21.57900
H  1.07000 45.55900 23.32700
H  1.19100 46.85200 22.08400
H  2.66000 46.39900 22.95800
H  6.84900 43.86400 25.60000
H  5.74600 43.70900 24.13900
H  6.45500 42.31900 24.92100
H  4.15900 43.33400 30.26600
H  4.89300 39.62200 32.23700
H  5.84100 40.71100 33.12200
H  6.60900 39.91600 31.73900

