158

Mg 16.96500 -2.59700 27.99600
C  16.08600 -0.66300 30.84400
C  18.22800 -4.96900 29.98600
C  17.89700 -4.33800 25.13900
C  15.47800 -0.18000 26.04600
N  17.17500 -2.74300 30.15200
C  16.74800 -1.86400 31.10900
C  17.02500 -2.45400 32.56200
C  17.88300 -3.78800 32.23500
C  17.85100 -3.83100 30.67400
C  19.30800 -3.75800 32.93600
C  15.74500 -2.72400 33.40600
C  15.84900 -2.22700 34.87900
H  17.20600 -1.65600 35.43700
N  17.70100 -4.51300 27.68200
C  18.05300 -5.37700 28.64400
C  18.39200 -6.60600 28.00400
C  18.45800 -6.37600 26.56700
C  18.08700 -5.00900 26.44300
C  18.71800 -7.86600 28.84800
C  18.85700 -7.33800 25.41900
O  18.84300 -7.07500 24.23900
C  19.41900 -8.68300 25.86100
N  16.87000 -2.25000 25.88400
C  17.35500 -3.04200 24.93800
C  17.05000 -2.51600 23.58900
C  16.10400 -1.27200 23.86400
C  16.12400 -1.24800 25.32600
C  18.32400 -2.26800 22.62000
C  14.66700 -1.20000 23.24600
C  13.58200 -2.02100 23.89700
N  16.20100 -0.63300 28.28700
C  15.50300 0.10200 27.44400
C  14.90800 1.17200 28.23100
C  15.12200 0.90700 29.52800
C  15.93600 -0.20800 29.55400
C  14.00300 2.32800 27.73000
C  14.77800 1.43000 30.80800
O  14.17200 2.41900 31.17500
C  15.41000 0.37700 31.73000
C  16.39800 0.97000 32.71000
O  17.61200 0.94700 32.59600
O  15.73100 1.65400 33.62800
C  16.50900 2.54500 34.54800
H  18.60500 -5.66100 30.74200
H  18.29300 -4.85800 24.26400
H  14.99900 0.50400 25.34200
H  17.63600 -1.65600 32.98200
H  17.39500 -4.70700 32.56000
H  19.96000 -4.19000 32.17700
H  19.22900 -4.33800 33.85600
H  19.66600 -2.79200 33.29300
H  15.45300 -3.77400 33.38900
H  14.88400 -2.22900 32.95700
H  15.50000 -2.99600 35.56900
H  15.10300 -1.48500 35.16600
H  17.96900 -8.61100 28.58000
H  18.72300 -7.71900 29.92800
H  19.74200 -8.14700 28.60200
H  20.18700 -8.76800 26.63000
H  19.92400 -9.12900 25.00300
H  18.59500 -9.28700 26.24000
H  16.48700 -3.33000 23.13200
H  16.71900 -0.47000 23.45700
H  18.27000 -1.26400 22.19900
H  18.36800 -3.01800 21.83000
H  19.24900 -2.37300 23.18700
H  14.80600 -1.45100 22.19400
H  14.37900 -0.15000 23.29600
H  13.91100 -2.69100 24.69200
H  13.14800 -2.68100 23.14700
H  12.79500 -1.32500 24.18900
H  13.02400 2.19000 28.19000
H  13.93700 2.33500 26.64200
H  14.27600 3.31400 28.10400
H  14.60400 -0.07900 32.30600
H  15.93400 3.47000 34.57200
H  17.48900 2.82100 34.15900
H  16.60900 2.24000 35.59000
Mg 26.43100 -1.55900 29.58300
C  28.49900 -1.41600 32.40300
C  23.68500 -1.27300 31.55400
C  24.37900 -1.73400 26.78200
C  29.20700 -2.34900 27.66900
N  26.11700 -1.50100 31.80900
C  27.10000 -1.26700 32.71400
C  26.55800 -0.83100 34.07000
C  24.98100 -0.82400 33.77200
C  24.90000 -1.30900 32.32500
C  24.12900 -1.72900 34.72400
C  27.00300 0.52600 34.66600
C  27.86200 0.40600 35.89100
H  27.66500 1.38800 37.02300
N  24.31900 -1.53300 29.20200
C  23.34900 -1.32700 30.21500
C  22.06200 -1.29600 29.60100
C  22.25200 -1.32000 28.20300
C  23.63400 -1.60800 28.00100
C  20.78000 -1.32000 30.39600
C  21.18600 -1.23400 27.03900
O  21.41500 -1.48500 25.84300
C  19.75500 -0.96700 27.39200
N  26.74100 -1.88500 27.60600
C  25.69500 -1.98000 26.62400
C  26.36000 -2.11500 25.18900
C  27.85200 -2.25400 25.50700
C  27.95200 -2.13300 27.02800
C  25.72600 -3.31700 24.35400
C  28.82300 -1.34300 24.67500
C  29.00200 0.14400 25.18100
N  28.44200 -1.82300 29.92500
C  29.46800 -2.13900 29.07400
C  30.73400 -2.17900 29.79500
C  30.33100 -1.82500 31.08500
C  28.98000 -1.66200 31.12800
C  32.03500 -2.46700 29.18500
C  30.89400 -1.75000 32.36600
O  32.02600 -1.88400 32.81500
C  29.68400 -1.44800 33.34900
C  29.66200 -2.42300 34.49000
O  29.11000 -3.51200 34.50200
O  30.22000 -1.88500 35.60600
C  30.21900 -2.78600 36.77100
H  22.79300 -1.04600 32.14200
H  23.78800 -1.88800 25.87700
H  30.02100 -2.54700 26.96900
H  26.82400 -1.67000 34.71300
H  24.66900 0.21900 33.72600
H  23.26600 -1.12300 34.99800
H  24.64800 -2.12400 35.59800
H  23.70800 -2.55200 34.14500
H  26.11000 1.14500 34.75600
H  27.69500 0.90800 33.91600
H  28.90700 0.53100 35.60600
H  27.72400 -0.57600 36.34300
H  20.37800 -0.30900 30.46100
H  20.98200 -1.56900 31.43700
H  20.16000 -2.05900 29.88900
H  19.23700 -1.89000 27.65200
H  19.17500 -0.59800 26.54600
H  19.77500 -0.20600 28.17200
H  26.13500 -1.14700 24.74100
H  28.21400 -3.27600 25.39900
H  26.39800 -4.17500 24.38200
H  25.67800 -3.14400 23.27900
H  24.72300 -3.64800 24.62400
H  28.42600 -1.20700 23.67000
H  29.82800 -1.72100 24.48700
H  30.06700 0.37300 25.19000
H  28.67400 0.22600 26.21700
H  28.51300 0.84000 24.49900
H  31.81800 -2.60600 28.12600
H  32.53900 -3.27000 29.72300
H  32.49200 -1.49700 29.38000
H  29.79300 -0.47900 33.83600
H  29.21400 -3.04700 37.10200
H  30.76400 -2.23800 37.53900
H  30.76200 -3.69400 36.50800

