158

Mg 44.96300 5.43600 47.86000
C  42.92100 8.14700 46.85500
C  42.20200 3.33700 47.19700
C  46.98300 2.82600 47.99700
C  47.67700 7.55800 47.70800
N  42.88500 5.70000 47.01000
C  42.21900 6.90700 46.78200
C  40.81100 6.65200 46.22500
C  40.57500 5.23600 46.75100
C  41.97700 4.72800 47.00400
C  39.58400 4.99100 47.89300
C  40.76900 6.83800 44.64200
C  39.60000 7.73000 44.09500
H  38.74100 7.15800 43.00200
N  44.61800 3.33100 47.73400
C  43.43700 2.70700 47.46600
C  43.65700 1.31700 47.66900
C  45.00900 1.15000 47.98600
C  45.63200 2.47800 47.97000
C  42.57700 0.30400 47.38600
C  45.65900 -0.16500 48.33000
O  44.99600 -1.24200 48.19500
C  47.05500 -0.32800 48.93500
N  47.05600 5.22500 47.87500
C  47.66600 4.06500 47.96800
C  49.16100 4.16000 48.08700
C  49.41500 5.74400 48.00400
C  47.93900 6.27000 47.89100
C  49.59600 3.43500 49.31700
C  50.29600 6.09700 46.71800
C  51.81900 6.09100 47.05400
N  45.26100 7.48500 47.70500
C  46.45900 8.20800 47.58400
C  46.16900 9.62500 47.30200
C  44.73200 9.64000 47.17700
C  44.31300 8.29200 47.20400
C  47.18100 10.72800 47.22100
C  43.64700 10.51400 46.84200
O  43.57700 11.70200 46.66500
C  42.38000 9.57100 46.67700
C  41.38700 9.86900 47.64100
O  41.44500 9.39900 48.78900
O  40.21900 10.55800 47.18800
C  39.06800 10.51500 48.00200
H  41.27200 2.77300 47.10600
H  47.63500 1.96200 47.85200
H  48.54500 8.19700 47.53200
H  40.06200 7.30500 46.67400
H  40.09300 4.62500 45.98800
H  40.05600 4.97100 48.87600
H  39.03400 4.05800 47.76700
H  38.86700 5.81100 47.91000
H  40.92200 5.84400 44.22200
H  41.68900 7.38800 44.44600
H  40.09200 8.59300 43.64500
H  38.96000 8.10700 44.89200
H  41.56800 0.68400 47.22600
H  42.37200 -0.42100 48.17300
H  42.78800 -0.39400 46.57500
H  47.74100 -0.43100 48.09400
H  47.12500 -1.23400 49.53800
H  47.28500 0.61400 49.43300
H  49.66400 3.70500 47.23400
H  50.02700 6.04200 48.85500
H  49.79100 2.37700 49.14300
H  48.94400 3.55700 50.18200
H  50.50800 3.99600 49.52600
H  49.96600 7.06900 46.35200
H  50.00000 5.50100 45.85500
H  52.41100 5.87200 46.16600
H  52.09100 5.30100 47.75400
H  52.22100 7.05900 47.35400
H  47.93100 10.36600 46.51900
H  47.54100 11.04200 48.20100
H  46.69600 11.57000 46.72600
H  41.89000 9.74900 45.71900
H  39.05800 11.29000 48.76800
H  39.00500 9.55300 48.51000
H  38.27800 10.73000 47.28200
Mg -11.13400 38.49500 41.30200
C  -9.06200 35.93600 40.40900
C  -8.79100 40.77800 40.11100
C  -13.47300 40.89500 41.36300
C  -13.61400 36.12900 42.24300
N  -9.12800 38.41900 40.48800
C  -8.49900 37.23800 40.15000
C  -7.17500 37.47600 39.39400
C  -7.00700 39.05500 39.51600
C  -8.34900 39.46000 40.17900
C  -5.70800 39.56500 40.22300
C  -7.19600 36.88300 37.95400
C  -6.01100 35.98900 37.53400
H  -5.28500 36.46600 36.24900
N  -11.15400 40.58000 40.82600
C  -10.06200 41.27700 40.38700
C  -10.44900 42.68300 40.20500
C  -11.89500 42.79300 40.52300
C  -12.24400 41.39100 40.90000
C  -9.43200 43.76100 39.64900
C  -12.80400 44.02200 40.40800
O  -12.30300 45.09400 40.01700
C  -14.28900 44.06900 40.64000
N  -13.23100 38.43500 41.82800
C  -13.93600 39.57600 41.72800
C  -15.38300 39.36300 42.02500
C  -15.48600 37.80600 42.27000
C  -14.04100 37.41000 42.15500
C  -15.96000 40.18900 43.19500
C  -16.32500 37.08800 41.16700
C  -17.88500 37.15300 41.37000
N  -11.30800 36.42100 41.33900
C  -12.31100 35.65400 41.84000
C  -11.86800 34.27700 41.94400
C  -10.62700 34.29000 41.30800
C  -10.32600 35.61700 41.01500
C  -12.72800 33.18000 42.48200
C  -9.48800 33.53200 40.83100
O  -9.24500 32.33900 40.97500
C  -8.38900 34.60300 40.31700
C  -7.17400 34.41000 41.10100
O  -6.53500 33.40800 40.95000
O  -6.91100 35.41900 42.02900
C  -5.84700 35.17500 43.03000
H  -7.98400 41.44900 39.80900
H  -14.18700 41.72000 41.38900
H  -14.33700 35.39000 42.59500
H  -6.38400 37.06800 40.02200
H  -7.00200 39.57600 38.55900
H  -5.94100 40.19900 41.07900
H  -5.25100 40.28100 39.54000
H  -5.03900 38.73600 40.45100
H  -7.20800 37.69800 37.23000
H  -8.11400 36.33200 37.75300
H  -6.32100 34.94400 37.53500
H  -5.17200 36.06000 38.22600
H  -9.85700 44.18600 38.73900
H  -8.38600 43.48300 39.51700
H  -9.48400 44.69300 40.21000
H  -14.53300 44.24700 41.68700
H  -14.77500 43.20300 40.19200
H  -14.75300 44.90000 40.10800
H  -15.91400 39.61700 41.10700
H  -15.83000 37.68100 43.29700
H  -16.51900 39.64400 43.95600
H  -16.71100 40.85600 42.77300
H  -15.17500 40.76800 43.68200
H  -16.03700 36.03800 41.21700
H  -16.09900 37.55000 40.20600
H  -18.43400 37.29200 40.43900
H  -18.17500 37.98200 42.01500
H  -18.19400 36.22300 41.84900
H  -12.12900 32.27900 42.61200
H  -13.58300 32.90900 41.86300
H  -13.05600 33.32600 43.51100
H  -8.19300 34.33900 39.27800
H  -4.98900 35.54000 42.46500
H  -5.71500 34.21200 43.52400
H  -5.89100 35.99400 43.74800

