158

Mg 40.88000 9.37200 30.09200
C  42.74600 10.59900 32.78500
C  38.58000 8.14400 32.32600
C  39.16400 8.12000 27.52200
C  43.65800 10.10300 27.94500
N  40.80900 9.19900 32.34400
C  41.56000 9.95500 33.20200
C  41.00100 9.83500 34.63600
C  39.73600 9.07000 34.48500
C  39.71000 8.73500 32.93100
C  39.56600 7.72800 35.38600
C  40.79100 11.23100 35.40400
C  40.16500 11.21600 36.81000
H  41.09100 11.81700 37.93200
N  39.08600 8.44700 29.95900
C  38.26100 8.03300 30.94300
C  36.93900 7.64900 30.36000
C  37.10300 7.66200 29.00600
C  38.47300 8.06100 28.77400
C  35.86200 7.25200 31.20100
C  36.09400 7.42400 27.83500
O  36.47200 7.59700 26.69400
C  34.77700 6.90400 28.06800
N  41.34500 9.15700 27.98800
C  40.45100 8.58800 27.12600
C  41.09300 8.46400 25.72100
C  42.33700 9.41700 25.86000
C  42.50200 9.56700 27.38500
C  41.47500 7.01300 25.35600
C  42.26300 10.74100 25.08800
C  41.50200 11.91600 25.75200
N  42.87700 10.01000 30.29800
C  43.82700 10.38900 29.34800
C  44.86800 11.17800 29.98400
C  44.53400 11.17500 31.35200
C  43.28800 10.55500 31.44100
C  46.05600 11.78700 29.26600
C  44.95300 11.62400 32.68900
O  46.01800 12.16700 33.03600
C  43.82200 11.34400 33.59000
C  44.51600 10.48800 34.53400
O  44.69800 9.26900 34.48700
O  44.89100 11.22100 35.67000
C  45.55100 10.41100 36.73100
H  37.90600 7.77300 33.10000
H  38.88300 7.52700 26.64900
H  44.47300 10.34100 27.25800
H  41.74400 9.25800 35.18600
H  38.82700 9.63300 34.69400
H  38.88700 7.86100 36.22900
H  40.51400 7.57300 35.90200
H  39.43400 6.80800 34.81700
H  40.21600 11.92800 34.79500
H  41.80300 11.59000 35.59100
H  39.99000 10.18400 37.11600
H  39.17700 11.65300 36.95200
H  35.91600 6.31600 31.75700
H  34.93700 7.31500 30.62800
H  35.67300 8.01300 31.95800
H  34.27400 6.56800 27.16200
H  34.20200 7.64800 28.62000
H  34.76400 6.01600 28.70000
H  40.38300 8.86700 24.99900
H  43.21700 8.96000 25.40700
H  41.08700 6.83800 24.35200
H  41.01600 6.26600 26.00300
H  42.56200 6.92800 25.34000
H  41.95600 10.55600 24.05900
H  43.29600 11.08800 25.06100
H  42.07100 12.82800 25.57500
H  41.19200 11.77600 26.78800
H  40.63500 12.04400 25.10400
H  46.01500 11.68300 28.18100
H  46.90000 11.34800 29.79800
H  46.16100 12.82700 29.57400
H  43.50200 12.21300 34.16400
H  45.51700 11.04100 37.61900
H  46.59600 10.22400 36.48400
H  44.99700 9.49800 36.95100
Mg 49.31200 35.85400 26.80500
C  47.23700 34.85300 29.49200
C  49.59300 38.96400 28.24800
C  51.15200 36.65100 24.19600
C  48.21400 32.89700 25.05300
N  48.68900 36.64600 28.77300
C  47.78100 36.15600 29.69200
C  47.38500 37.14200 30.76800
C  47.89300 38.43000 30.19300
C  48.79400 38.00900 28.97000
C  46.89900 39.63400 30.16600
C  47.74000 36.87300 32.28400
C  46.52700 36.84800 33.18800
H  46.45200 38.00200 34.26700
N  50.36700 37.47200 26.31900
C  50.39500 38.69600 27.06000
C  51.24500 39.62200 26.36500
C  51.70900 38.97300 25.13000
C  51.11900 37.61300 25.20700
C  51.35900 41.05600 26.90400
C  52.58100 39.60200 24.05400
O  52.98600 39.00700 23.09700
C  53.05500 41.00500 24.25900
N  49.64100 34.87500 24.92000
C  50.49300 35.45000 24.00600
C  50.64100 34.70500 22.70500
C  49.71500 33.46600 22.90000
C  49.16100 33.75700 24.36800
C  50.18800 35.48700 21.40300
C  50.43000 31.99400 22.81800
C  50.06800 31.07400 21.68400
N  48.10300 34.08800 27.21100
C  47.70500 33.03100 26.38600
C  46.79000 32.18200 27.12600
C  46.58300 32.85500 28.32700
C  47.44500 34.02000 28.37300
C  46.24700 30.82000 26.75100
C  45.88000 32.83600 29.60200
O  45.16000 31.97300 30.06600
C  46.32100 34.08500 30.41800
C  47.08100 33.61700 31.60400
O  48.31700 33.56800 31.74100
O  46.26300 33.29300 32.64900
C  46.74600 33.00100 33.92900
H  49.60200 39.96900 28.67600
H  51.86500 36.97700 23.43500
H  47.89100 31.99600 24.52700
H  46.31100 37.13500 30.58300
H  48.67300 38.80900 30.85400
H  46.03000 39.25700 30.70500
H  46.91000 39.97900 29.13200
H  47.34000 40.38700 30.81900
H  48.33700 37.72400 32.61200
H  48.34800 35.98500 32.45700
H  46.39800 35.94000 33.77800
H  45.58400 37.02100 32.66900
H  51.02400 41.16200 27.93500
H  50.76800 41.58900 26.15900
H  52.37200 41.45300 26.83700
H  52.16000 41.61900 24.36400
H  53.82300 41.27300 23.53300
H  53.56000 40.97700 25.22400
H  51.68500 34.39400 22.67900
H  48.75100 33.46300 22.39100
H  49.24500 35.11400 21.00300
H  51.05000 35.27900 20.76900
H  50.25500 36.54400 21.65800
H  50.05900 31.52200 23.72800
H  51.49700 32.11600 23.00100
H  49.91400 31.59900 20.74100
H  49.10300 30.58700 21.82200
H  50.88300 30.36800 21.52100
H  46.08400 30.33200 27.71100
H  47.08000 30.26000 26.32700
H  45.38800 30.79100 26.08000
H  45.38700 34.58200 30.67700
H  47.70600 33.48700 34.09700
H  46.94000 31.93300 34.02800
H  46.01000 33.24100 34.69700

