158

Mg 35.14200 2.93800 28.41800
C  33.16200 4.08800 31.12800
C  37.66500 2.40200 30.66400
C  37.28100 2.67500 25.75400
C  32.59900 3.95900 26.19800
N  35.43900 3.35700 30.60400
C  34.44400 3.63900 31.52300
C  34.97600 3.38900 32.93000
C  36.47000 3.25400 32.76500
C  36.54100 2.90600 31.26100
C  37.36400 4.41800 33.25700
C  34.19600 2.30300 33.79200
C  33.55500 2.79300 35.08100
H  34.33200 3.82400 35.88800
N  37.16300 2.37600 28.24300
C  38.01000 2.29400 29.29700
C  39.28100 1.73500 28.78200
C  39.21300 1.79400 27.34600
C  37.86900 2.39400 27.07900
C  40.48500 1.45200 29.58500
C  40.23100 1.37900 26.30800
O  40.08200 1.48700 25.06900
C  41.51000 0.79600 26.73600
N  34.96200 3.10400 26.37300
C  35.95500 2.90700 25.44900
C  35.39800 2.96600 23.97900
C  33.88700 3.18800 24.17200
C  33.74400 3.38800 25.70900
C  36.06700 4.06700 23.16100
C  33.01000 2.07600 23.54400
C  32.32600 1.07900 24.48400
N  33.20800 3.93800 28.54500
C  32.28100 4.21600 27.59300
C  31.02200 4.67100 28.27200
C  31.36000 4.65200 29.64100
C  32.68400 4.23300 29.76100
C  29.64500 4.83800 27.65300
C  30.84800 4.76900 30.96600
O  29.71500 4.92100 31.43600
C  32.03200 4.56700 31.95300
C  32.39200 5.68200 32.83000
O  33.34300 6.42500 32.64600
O  31.47600 5.88000 33.86700
C  31.74300 6.97500 34.83700
H  38.48100 2.17700 31.35400
H  37.97200 2.57700 24.91400
H  31.80000 4.07700 25.46300
H  34.88100 4.33400 33.46300
H  36.79300 2.36500 33.30800
H  38.33000 3.97700 33.50200
H  36.88900 4.95600 34.07700
H  37.41600 5.09300 32.40200
H  34.83000 1.47900 34.12000
H  33.46500 1.82800 33.13700
H  33.43600 1.94700 35.75700
H  32.50300 3.05200 34.95500
H  40.90900 0.50400 29.25600
H  40.30100 1.11200 30.60400
H  41.27400 2.19600 29.46900
H  42.00300 0.68700 25.77000
H  41.50500 -0.22400 27.11800
H  42.12200 1.49300 27.30800
H  35.69800 1.99500 23.58300
H  33.59900 4.10900 23.66500
H  36.86400 3.61500 22.57000
H  36.51700 4.82000 23.80700
H  35.40800 4.65700 22.52500
H  33.76500 1.49100 23.01800
H  32.24500 2.52800 22.91300
H  31.33900 1.39000 24.82800
H  33.03800 0.82900 25.27000
H  32.12000 0.18200 23.90000
H  29.65400 4.49600 26.61800
H  29.26900 5.85400 27.77900
H  29.02100 4.17000 28.24700
H  31.61500 3.79800 32.60300
H  32.21700 7.84900 34.39000
H  32.39800 6.72600 35.67200
H  30.78100 7.24900 35.27100
Mg -11.84100 16.40300 41.69400
C  -8.46300 14.99700 41.38000
C  -10.50200 19.29600 40.32500
C  -14.91800 17.43400 41.13600
C  -12.93300 13.10300 42.03900
N  -9.73500 16.97800 40.94900
C  -8.56600 16.29200 40.93400
C  -7.45200 17.12700 40.30600
C  -8.11800 18.53600 39.90500
C  -9.55700 18.21400 40.40300
C  -7.52600 19.82300 40.51300
C  -6.86000 16.36400 39.02400
C  -5.35800 16.30000 38.79600
H  -4.87800 16.98200 37.54100
N  -12.59900 18.14900 40.96400
C  -11.88500 19.28400 40.57400
C  -12.70500 20.35400 40.45700
C  -14.06900 19.88800 40.67200
C  -13.93000 18.42700 40.94300
C  -12.18900 21.81200 40.25400
C  -15.32500 20.82400 40.59200
O  -15.25500 22.03200 40.35000
C  -16.63100 20.22100 41.01800
N  -13.63200 15.36600 41.46500
C  -14.82000 16.09500 41.45400
C  -15.99900 15.15100 41.80900
C  -15.34700 13.79800 42.11500
C  -13.90600 14.09600 41.87700
C  -16.79600 15.75200 43.05300
C  -15.94900 12.71800 41.08800
C  -16.99000 11.70500 41.63300
N  -10.94900 14.53300 41.89300
C  -11.57100 13.29600 42.11200
C  -10.55200 12.28600 42.36000
C  -9.34700 12.91900 42.18000
C  -9.58600 14.29100 41.84300
C  -10.82400 10.88400 42.75000
C  -7.85300 12.76200 42.20500
O  -7.20800 11.75400 42.40800
C  -7.22900 14.05300 41.56800
C  -6.24200 14.52800 42.48800
O  -6.47000 14.70400 43.72100
O  -4.98400 14.71700 41.89200
C  -3.89800 15.26300 42.78600
H  -10.03500 20.24600 40.05600
H  -15.96300 17.74600 41.19100
H  -13.36200 12.12200 42.25500
H  -6.70100 17.27600 41.08200
H  -8.21200 18.70300 38.83200
H  -7.75700 20.56500 39.74800
H  -6.44600 19.68500 40.57000
H  -7.89500 20.09200 41.50300
H  -7.38300 16.85400 38.20300
H  -7.29000 15.36600 38.93100
H  -5.10300 15.24200 38.73500
H  -4.87200 16.75600 39.65800
H  -11.74700 21.96100 39.26900
H  -11.37700 21.97200 40.96400
H  -12.97900 22.55000 40.39100
H  -17.33000 21.02100 40.77300
H  -16.77900 20.08700 42.09000
H  -16.97700 19.36300 40.44100
H  -16.82400 15.10300 41.09800
H  -15.58700 13.43200 43.11300
H  -16.29400 16.51800 43.64600
H  -17.02200 14.94500 43.75000
H  -17.70200 16.15400 42.60000
H  -15.13000 12.07000 40.77400
H  -16.34600 13.23000 40.21200
H  -17.00500 10.75700 41.09500
H  -17.92900 12.20300 41.38900
H  -16.92000 11.61500 42.71700
H  -10.05200 10.41300 43.35900
H  -10.91000 10.34500 41.80700
H  -11.73700 10.78300 43.33700
H  -6.66000 13.85000 40.66100
H  -3.82800 16.26500 42.36200
H  -3.01500 14.75200 42.40100
H  -3.96000 15.15000 43.86800

