158

Mg 7.92800 2.29700 27.87000
C  9.30200 1.15700 30.80900
C  5.88500 4.42000 29.80500
C  6.34200 3.28500 24.99700
C  9.64400 -0.15400 26.16300
N  7.63500 2.61600 30.11100
C  8.39700 2.13900 31.10700
C  8.16000 2.80900 32.41500
C  6.81700 3.65500 32.10900
C  6.69700 3.54200 30.56900
C  5.45800 3.13300 32.64900
C  9.29400 3.47500 33.13800
C  9.77800 2.98500 34.53000
H  8.73900 2.87200 35.60600
N  6.36700 3.69400 27.48900
C  5.70700 4.48100 28.39400
C  4.88900 5.36400 27.66600
C  5.08400 5.18000 26.25100
C  5.93300 4.00800 26.18600
C  4.16300 6.55300 28.35600
C  4.65300 6.03900 25.06400
O  4.84000 5.73200 23.88300
C  3.95300 7.37500 25.24600
N  7.80600 1.49800 25.97400
C  7.09600 2.11400 24.92300
C  7.41400 1.49900 23.60300
C  8.68000 0.57700 23.89000
C  8.74500 0.63600 25.45000
C  6.39500 0.88800 22.72500
C  9.94300 1.14100 23.14800
C  10.85500 2.03200 23.97900
N  9.24100 0.78100 28.34300
C  9.87200 -0.14700 27.56700
C  10.76600 -0.88800 28.32900
C  10.57100 -0.44300 29.60200
C  9.57400 0.51800 29.61600
C  11.59900 -2.03500 27.83500
C  11.02600 -0.57400 30.97300
O  11.88800 -1.26400 31.44700
C  10.15100 0.39000 31.84200
C  9.39400 -0.44100 32.79000
O  8.24800 -0.84500 32.67100
O  10.09200 -0.55000 33.97900
C  9.34800 -1.10900 35.19700
H  5.34800 5.07600 30.49400
H  5.79400 3.59500 24.10500
H  10.21300 -0.81100 25.50200
H  7.93400 1.93500 33.02600
H  6.79200 4.66000 32.53000
H  5.04900 2.60400 31.78800
H  4.82800 3.97900 32.92400
H  5.69700 2.48200 33.49000
H  9.00400 4.48900 33.41700
H  10.15400 3.55400 32.47400
H  10.59900 3.59000 34.91500
H  10.19200 1.99700 34.32800
H  4.54800 6.73400 29.36000
H  3.10200 6.30200 28.34100
H  4.38500 7.43900 27.76100
H  3.08300 7.27700 25.89600
H  3.57900 7.66400 24.26400
H  4.71900 8.05400 25.62000
H  7.60500 2.36800 22.97400
H  8.46300 -0.46500 23.65200
H  5.35600 1.02300 23.02500
H  6.65400 -0.16000 22.57400
H  6.50300 1.37400 21.75600
H  9.58900 1.53900 22.19700
H  10.52500 0.23900 22.95600
H  11.46000 2.73500 23.40700
H  11.51300 1.32900 24.49000
H  10.29900 2.63700 24.69500
H  11.98000 -2.03000 26.81400
H  11.06300 -2.97000 28.00100
H  12.48400 -2.07700 28.46900
H  10.79000 1.04200 32.43600
H  8.55800 -1.80200 34.91000
H  8.95200 -0.39500 35.91900
H  10.06200 -1.78100 35.67400
Mg 42.23900 41.51800 27.04700
C  41.19200 43.82300 29.46900
C  43.33400 39.43500 29.55500
C  43.42100 39.48200 24.72700
C  41.76100 44.00400 24.66600
N  42.19900 41.69000 29.31900
C  41.71100 42.66300 30.09500
C  41.89700 42.30300 31.57600
C  42.80400 40.99000 31.53500
C  42.73000 40.58100 30.01800
C  44.32000 40.99600 31.96400
C  40.48100 42.17400 32.17400
C  40.27200 42.95700 33.52300
H  39.70000 42.23400 34.70600
N  43.11400 39.65800 27.12700
C  43.45000 38.94300 28.20200
C  43.87200 37.65100 27.82000
C  44.01200 37.67600 26.39600
C  43.56500 39.03500 26.00300
C  44.29000 36.57400 28.74800
C  44.55700 36.54800 25.36600
O  44.57900 36.71000 24.10700
C  44.93200 35.24900 25.86000
N  42.48600 41.64400 25.06600
C  42.88900 40.66300 24.30000
C  42.70600 40.89600 22.78000
C  42.31900 42.42800 22.71300
C  42.12500 42.72400 24.27100
C  43.84100 40.53400 21.73000
C  41.13800 42.79000 21.73200
C  39.80400 43.04700 22.35500
N  41.53900 43.53000 27.00100
C  41.47700 44.47900 25.98700
C  40.83400 45.65100 26.42100
C  40.70400 45.46200 27.78700
C  41.23600 44.18500 28.10500
C  40.29200 46.76000 25.56700
C  40.31600 46.04300 29.08200
O  39.81000 47.16300 29.29500
C  40.71200 45.07000 30.22700
C  41.65000 45.72600 31.12100
O  42.72600 46.18100 30.81900
O  41.00300 45.82100 32.33500
C  41.58800 46.66900 33.29000
H  43.71100 38.84700 30.39400
H  43.85600 38.87600 23.93000
H  41.67100 44.79600 23.92000
H  42.56400 43.06200 31.98600
H  42.33600 40.19200 32.11200
H  44.39700 42.01400 32.34600
H  45.05100 40.98400 31.15500
H  44.52700 40.16700 32.64000
H  40.35400 41.11600 32.40500
H  39.73000 42.37500 31.41000
H  39.47200 43.67600 33.34200
H  41.14900 43.48500 33.90000
H  45.37500 36.61200 28.84900
H  43.86800 35.63500 28.39200
H  43.85700 36.66000 29.74400
H  45.31400 34.69700 25.00100
H  43.98500 34.75800 26.08300
H  45.54700 35.20400 26.75900
H  41.81100 40.36600 22.45300
H  43.20600 42.94700 22.35100
H  43.38600 40.33300 20.76000
H  44.15900 39.53500 22.02900
H  44.65500 41.24400 21.58500
H  40.92600 42.02600 20.98400
H  41.42300 43.69400 21.19400
H  39.56600 42.48200 23.25600
H  39.05800 42.84800 21.58500
H  39.60600 44.10800 22.50200
H  40.02600 46.43800 24.56100
H  41.03500 47.55600 25.51500
H  39.41100 47.15900 26.06900
H  39.74600 45.07600 30.73300
H  42.00200 46.05800 34.09200
H  40.74000 47.21200 33.70700
H  42.29500 47.42600 32.95200

