158

Mg 48.88200 34.55000 26.62600
C  46.68800 33.28700 29.03200
C  49.09800 37.51700 28.46300
C  50.42700 35.94300 24.04600
C  48.01100 31.69600 24.65800
N  47.95800 35.28900 28.50600
C  47.24900 34.47800 29.39200
C  47.42000 35.03600 30.75100
C  47.77000 36.58000 30.39200
C  48.39200 36.49500 29.06800
C  46.53400 37.60600 30.39000
C  48.62800 34.44500 31.60100
C  48.52000 34.20400 33.08000
H  47.31900 34.94200 33.75200
N  49.84200 36.42200 26.39200
C  49.78300 37.52200 27.22900
C  50.72300 38.51100 26.73200
C  51.14800 38.05800 25.46100
C  50.44900 36.75000 25.27400
C  50.96900 39.70100 27.45900
C  52.11100 38.73300 24.57900
O  52.25900 38.47300 23.36300
C  52.81500 39.97600 25.11000
N  49.04300 33.88900 24.62700
C  49.76500 34.67100 23.78400
C  49.78300 34.01000 22.36400
C  49.36900 32.56000 22.69400
C  48.78000 32.71100 24.08800
C  48.76200 34.76100 21.38800
C  50.63500 31.55400 22.59700
C  50.68200 30.39900 21.57900
N  47.54200 32.79100 26.79800
C  47.36000 31.76100 25.92700
C  46.62100 30.74100 26.53600
C  46.21300 31.34100 27.74700
C  46.80400 32.56000 27.84200
C  46.28100 29.42100 25.97900
C  45.46800 31.16900 28.94000
O  44.67300 30.26900 29.19000
C  45.83400 32.34300 29.92100
C  46.53000 31.73400 31.08300
O  47.62000 31.19600 31.06700
O  45.76400 31.81400 32.18600
C  46.21000 31.15200 33.43100
H  49.09800 38.31800 29.20600
H  50.94300 36.37600 23.18600
H  48.10500 30.76300 24.10000
H  46.49300 34.98700 31.32300
H  48.50000 37.00400 31.08200
H  46.86600 38.41100 31.04700
H  45.67800 37.00200 30.69200
H  46.34900 37.97800 29.38300
H  49.41600 35.18800 31.47400
H  48.93500 33.51300 31.12700
H  49.33900 34.70700 33.59500
H  48.46100 33.14800 33.34200
H  50.65400 39.52900 28.48800
H  50.32600 40.50100 27.09100
H  51.95800 40.14300 27.57800
H  52.06500 40.72800 25.35900
H  53.38400 40.24200 24.21900
H  53.39600 39.72400 25.99700
H  50.76100 34.00400 21.88200
H  48.53500 32.32400 22.03400
H  47.75600 34.60200 21.77500
H  48.83300 34.27100 20.41600
H  48.97900 35.82700 21.45500
H  50.85400 31.02900 23.52700
H  51.52700 32.17400 22.51300
H  50.77900 29.42700 22.06400
H  51.53200 30.43600 20.89700
H  49.81000 30.45000 20.92700
H  46.40300 28.79400 26.86200
H  46.99000 29.17400 25.18900
H  45.28400 29.46100 25.54100
H  44.89400 32.78900 30.24600
H  47.28400 31.14200 33.61500
H  45.86500 30.11900 33.48100
H  45.71800 31.81700 34.14000
Mg 41.82100 40.96100 26.37600
C  41.49100 43.40100 28.97600
C  43.03900 38.78000 28.78600
C  42.33500 38.82900 23.94900
C  41.44200 43.57300 24.04000
N  42.26100 41.14600 28.63900
C  41.93500 42.18000 29.46100
C  42.21000 41.88600 30.92300
C  42.86400 40.42500 30.82300
C  42.69800 40.04700 29.34500
C  44.36300 40.34400 31.37600
C  40.86300 41.95000 31.72000
C  40.72900 42.88800 32.99100
H  39.73800 42.52800 34.07400
N  42.52200 39.04400 26.35900
C  42.98500 38.34400 27.44600
C  43.24400 37.00000 26.98900
C  42.93000 36.94200 25.55100
C  42.55400 38.33500 25.22900
C  43.87100 35.88300 27.92300
C  42.86800 35.76900 24.60400
O  42.62300 35.85200 23.41400
C  43.19800 34.36800 25.01700
N  41.95200 41.17200 24.32100
C  42.15500 40.12100 23.50100
C  42.07700 40.51800 22.01400
C  41.93600 42.04400 22.07100
C  41.86600 42.31700 23.57800
C  43.37700 40.06300 21.32600
C  40.65800 42.51700 21.32100
C  40.62500 43.96200 20.87400
N  41.28600 43.00500 26.38500
C  41.09500 43.90300 25.40400
C  40.84800 45.19800 25.96100
C  40.91200 44.98400 27.27500
C  41.29400 43.65500 27.55400
C  40.65900 46.52900 25.26800
C  40.82800 45.69900 28.54200
O  40.53100 46.88900 28.75400
C  41.12800 44.78800 29.68600
C  42.17000 45.26400 30.61400
O  43.38600 45.14000 30.44000
O  41.57200 46.01600 31.61900
C  42.49000 46.58500 32.57400
H  43.43400 37.97800 29.41300
H  42.20400 38.10000 23.14700
H  41.37300 44.31300 23.24000
H  42.87000 42.67800 31.27500
H  42.27800 39.76000 31.45700
H  44.79200 41.34500 31.41900
H  44.97200 39.81600 30.64200
H  44.48500 39.97900 32.39600
H  40.43100 40.97700 31.95400
H  40.17500 42.39500 31.00100
H  40.43400 43.83500 32.53900
H  41.72200 43.17800 33.33500
H  43.12600 35.10500 28.09600
H  44.40500 36.26500 28.79300
H  44.68300 35.42700 27.35700
H  42.81800 33.68000 24.26100
H  42.71600 34.21500 25.98200
H  44.24400 34.21200 25.28000
H  41.21200 40.03900 21.55700
H  42.76000 42.58100 21.60000
H  43.54800 40.68100 20.44500
H  43.32200 39.02300 21.00400
H  44.21000 39.97400 22.02400
H  39.83900 42.49500 22.04100
H  40.35100 41.85100 20.51500
H  40.33800 44.13500 19.83600
H  41.59200 44.45500 20.97400
H  39.90300 44.54900 21.44200
H  40.45800 46.35200 24.21200
H  41.54600 47.16000 25.33400
H  39.78800 47.05100 25.66500
H  40.26500 44.70800 30.34700
H  42.05100 46.97100 33.49400
H  43.15800 47.30400 32.10000
H  43.10200 45.79000 32.99900

