158

Mg 42.80900 3.99800 46.49600
C  41.11200 7.10200 46.66000
C  39.89000 2.35400 46.42300
C  44.64400 1.23000 45.76000
C  45.81400 5.96600 45.99700
N  40.74800 4.69500 46.61200
C  40.22400 5.97400 46.72200
C  38.70900 5.89300 46.97400
C  38.45800 4.41900 47.11000
C  39.77800 3.69900 46.68400
C  37.89600 3.94200 48.53400
C  37.80300 6.61900 45.91200
C  37.96600 6.11500 44.42200
H  37.99400 7.18900 43.32700
N  42.33300 2.10000 46.16000
C  41.04000 1.59900 46.17000
C  41.11500 0.08700 45.93800
C  42.48100 -0.18300 45.77000
C  43.20500 1.03500 45.96900
C  39.88500 -0.73500 45.82100
C  43.01700 -1.55500 45.45400
O  42.23500 -2.50500 45.57000
C  44.48300 -1.90700 44.94600
N  44.93500 3.68600 45.79400
C  45.41800 2.39400 45.67900
C  46.97900 2.37000 45.56500
C  47.33000 3.89100 45.34500
C  45.95600 4.57600 45.80300
C  47.60100 1.72500 46.86200
C  47.84400 4.29900 43.98800
C  49.40500 4.48000 43.84100
N  43.40500 6.09300 46.26300
C  44.64200 6.72100 46.10800
C  44.50500 8.08600 46.22600
C  43.11300 8.30000 46.50500
C  42.47800 7.05600 46.46300
C  45.56900 9.14600 46.22800
C  42.09200 9.30600 46.67700
O  42.23300 10.52100 46.78500
C  40.73100 8.53800 46.79500
C  39.98900 8.81000 48.01300
O  40.08100 8.19800 49.10800
O  39.03100 9.75100 47.64900
C  37.93700 9.95800 48.65400
H  38.89500 1.90400 46.41300
H  45.23400 0.31300 45.72200
H  46.79300 6.44200 46.08000
H  38.46800 6.30000 47.95600
H  37.65200 4.12800 46.43700
H  36.90600 3.53500 48.33000
H  37.73500 4.83000 49.14500
H  38.53400 3.21500 49.03600
H  38.06700 7.67500 45.85900
H  36.76800 6.50200 46.23200
H  37.26400 5.34200 44.11000
H  38.96900 5.71000 44.28600
H  38.98200 -0.13600 45.70600
H  39.88100 -1.34100 46.72700
H  39.98900 -1.43000 44.98800
H  45.19800 -1.98700 45.76400
H  44.84100 -1.11800 44.28500
H  44.61800 -2.81300 44.35400
H  47.34400 1.80600 44.70600
H  48.18000 4.02300 46.01400
H  48.33700 2.37000 47.34100
H  48.06200 0.80300 46.50700
H  46.79600 1.44900 47.54300
H  47.32200 5.18600 43.62900
H  47.56600 3.62000 43.18200
H  49.91900 4.53000 44.80100
H  49.52100 5.48000 43.42200
H  49.77000 3.70400 43.16900
H  46.20400 8.94100 45.36600
H  46.23900 8.96300 47.06800
H  45.22600 10.18000 46.25100
H  40.15900 8.87100 45.92900
H  38.53500 10.46200 49.41300
H  37.59900 9.00900 49.06900
H  37.21100 10.53100 48.07700
Mg 47.37600 25.04900 29.06500
C  48.00400 27.47100 31.46000
C  45.96000 23.07200 31.35200
C  46.90800 22.69700 26.67900
C  49.01500 26.95200 26.69100
N  46.96500 25.35000 31.15700
C  47.38000 26.37700 31.99700
C  46.92000 26.14100 33.43200
C  46.36300 24.66300 33.39100
C  46.44500 24.29500 31.88900
C  47.13400 23.58100 34.16300
C  45.76300 27.08100 33.92900
C  45.81100 27.64900 35.33000
H  46.34200 26.76100 36.54700
N  46.48900 23.22300 28.98900
C  45.86200 22.59300 30.06400
C  45.28500 21.42100 29.68100
C  45.55800 21.33000 28.24100
C  46.32600 22.45300 27.90900
C  44.50500 20.46700 30.67300
C  45.18600 20.21200 27.29400
O  45.46500 19.99200 26.08900
C  44.13800 19.20900 27.82900
N  48.04200 24.79300 27.00900
C  47.72700 23.67300 26.24400
C  48.17600 23.86300 24.79200
C  48.53600 25.37100 24.67400
C  48.63300 25.69100 26.18700
C  49.33600 22.87600 24.53000
C  47.59700 26.34100 23.84800
C  48.25700 27.50500 23.00900
N  48.25900 26.84000 29.06700
C  48.93000 27.43300 28.00400
C  49.42700 28.74200 28.48600
C  49.06500 28.81800 29.84800
C  48.36800 27.61900 30.17100
C  50.09200 29.78000 27.56800
C  49.06400 29.61300 31.09000
O  49.52700 30.71300 31.29000
C  48.45000 28.71700 32.23200
C  49.51700 28.42300 33.17800
O  50.60000 27.94200 32.92800
O  49.12300 28.82300 34.43000
C  50.15100 29.07200 35.48300
H  45.59600 22.55900 32.24500
H  46.65900 22.04200 25.84100
H  49.53000 27.64600 26.02300
H  47.76000 26.11700 34.12600
H  45.32100 24.52000 33.67900
H  46.33600 23.16300 34.77700
H  47.80400 24.02200 34.90100
H  47.48800 22.76800 33.53000
H  44.77600 26.63300 33.81200
H  45.68400 27.92200 33.24000
H  44.93600 28.23000 35.62100
H  46.63400 28.36100 35.39200
H  44.40400 20.80100 31.70500
H  45.05500 19.52800 30.74000
H  43.54200 20.27600 30.19900
H  44.37400 18.61200 28.71000
H  43.87500 18.59000 26.97100
H  43.25800 19.78000 28.12600
H  47.47900 23.59300 23.99900
H  49.52300 25.34500 24.21300
H  49.09100 21.95800 25.06500
H  50.29500 23.18500 24.94700
H  49.41000 22.63300 23.47000
H  46.90800 26.78200 24.56900
H  47.00000 25.72300 23.17800
H  47.88800 27.53600 21.98400
H  49.34000 27.38900 22.99100
H  47.97500 28.46700 23.43700
H  51.17200 29.63300 27.52300
H  49.85000 30.73000 28.04300
H  49.65200 29.80200 26.57100
H  47.61100 29.27300 32.65000
H  51.17800 29.12900 35.12300
H  50.06700 28.48100 36.39500
H  50.07000 30.11900 35.77800

