158

Mg 6.29500 54.90900 41.19400
C  6.13000 51.39900 40.97200
C  9.52500 54.82200 40.01400
C  6.34000 58.21900 41.10200
C  3.13100 54.85400 42.68600
N  7.57200 53.27800 40.35300
C  7.34600 51.94500 40.46800
C  8.55800 51.14900 40.10800
C  9.72400 52.24500 40.06100
C  8.93300 53.53100 40.19300
C  10.93900 52.13700 41.07500
C  8.37100 50.23100 38.81300
C  7.55700 50.80400 37.58800
H  8.13900 50.98400 36.19200
N  7.63500 56.27900 40.45600
C  8.91800 56.08100 40.06600
C  9.53000 57.33800 39.70000
C  8.64000 58.39300 39.96700
C  7.47000 57.64800 40.54300
C  10.92200 57.40900 39.14700
C  8.84600 59.82000 39.68300
O  9.86700 60.17700 39.16700
C  7.71700 60.82000 39.70500
N  4.81300 56.31800 41.65600
C  5.20200 57.63400 41.70600
C  4.11600 58.53100 42.25500
C  3.08500 57.43000 42.73600
C  3.72000 56.13000 42.39600
C  4.54700 59.46400 43.39200
C  1.77300 57.44800 41.98800
C  0.96400 58.75200 42.23100
N  4.79300 53.41300 41.58400
C  3.61400 53.51900 42.32000
C  3.14000 52.19500 42.66400
C  4.11100 51.35400 42.10100
C  5.10400 52.14500 41.41600
C  1.78900 51.95700 43.47100
C  4.50800 49.93900 42.05100
O  4.05800 48.82900 42.45500
C  5.80100 49.93500 41.29500
C  5.57700 49.00000 40.04400
O  5.02000 49.39200 39.03100
O  5.95400 47.67700 40.27700
C  5.60400 46.81000 39.17700
H  10.58100 54.57200 39.88700
H  6.40400 59.30700 41.03800
H  2.14800 54.71500 43.14200
H  8.80700 50.58900 41.00900
H  10.13400 52.34400 39.05600
H  11.08100 53.00900 41.71500
H  11.90000 51.97000 40.58900
H  10.65100 51.28900 41.69600
H  7.90800 49.26000 38.98900
H  9.36400 50.06200 38.39600
H  7.20900 51.82300 37.75600
H  6.59000 50.31700 37.46000
H  11.29400 56.43300 38.83500
H  11.49500 57.81600 39.98000
H  11.01700 57.93200 38.19500
H  7.86600 61.60000 38.95900
H  7.62600 61.21500 40.71700
H  6.79900 60.32500 39.38700
H  3.76600 59.02400 41.34800
H  2.88500 57.26700 43.79500
H  4.65100 59.07900 44.40600
H  3.81700 60.27200 43.33400
H  5.43800 60.03200 43.12500
H  1.19900 56.60100 42.36300
H  1.95500 57.18100 40.94700
H  0.10400 58.35600 42.77000
H  0.67300 59.32800 41.35300
H  1.38400 59.47200 42.93300
H  0.92100 52.39000 42.97600
H  2.01000 52.47900 44.40200
H  1.66400 50.89200 43.67000
H  6.56900 49.43000 41.88000
H  6.01000 47.21700 38.25000
H  4.52300 46.68900 39.10300
H  6.05200 45.81600 39.18400
Mg 9.96100 48.14300 25.52100
C  7.66900 48.29500 28.09300
C  12.33000 49.63400 27.69000
C  12.24400 48.15100 22.92100
C  7.41900 47.37000 23.36600
N  10.01100 48.77700 27.71900
C  8.93800 48.67000 28.55700
C  9.40600 49.17700 29.97300
C  10.90100 49.69900 29.85800
C  11.14000 49.35000 28.34000
C  11.18400 51.20200 30.21800
C  9.22700 48.05000 31.05500
C  10.08200 48.00500 32.37900
H  9.48600 47.99200 33.74000
N  12.00100 48.67500 25.34600
C  12.77400 49.15400 26.36700
C  14.15100 49.33600 25.87200
C  14.08000 48.88700 24.51600
C  12.74800 48.53300 24.18000
C  15.26900 49.97700 26.61200
C  15.25200 48.86100 23.47000
O  15.05900 48.49100 22.30100
C  16.64500 49.25400 23.90400
N  9.88500 47.59900 23.44900
C  10.89900 47.73600 22.58500
C  10.49300 47.43900 21.15100
C  8.93900 47.28900 21.26800
C  8.69800 47.39500 22.81200
C  10.81100 48.58900 20.11000
C  8.56900 45.92000 20.73100
C  9.10200 44.75900 21.55400
N  7.97200 47.86000 25.58700
C  7.01900 47.48200 24.65600
C  5.72700 47.30200 25.29900
C  5.96500 47.64400 26.61600
C  7.26600 47.99500 26.76000
C  4.40300 46.99700 24.61100
C  5.28800 47.66500 27.88900
O  4.12200 47.43200 28.22100
C  6.42700 48.08000 28.91600
C  6.45200 46.86800 29.79600
O  7.10500 45.86400 29.60600
O  5.75200 47.06300 30.98900
C  6.05200 46.13500 32.10500
H  12.95900 50.27500 28.31100
H  12.89300 48.01100 22.05400
H  6.66300 47.16300 22.60500
H  8.77500 50.04300 30.17600
H  11.59000 49.03900 30.38500
H  10.45000 51.52400 30.95700
H  11.21500 51.81400 29.31700
H  12.14300 51.29600 30.72800
H  9.36100 47.12400 30.49600
H  8.21500 48.18000 31.44000
H  10.85000 48.77400 32.46200
H  10.51300 47.00600 32.30500
H  15.07800 49.94500 27.68500
H  15.40000 50.97700 26.19900
H  16.22600 49.47000 26.48500
H  16.72400 50.21700 24.40800
H  17.28100 49.37300 23.02700
H  16.95800 48.45200 24.57300
H  10.95800 46.49700 20.85800
H  8.38800 48.07000 20.74500
H  11.23300 49.49400 20.54700
H  9.90800 49.02600 19.68400
H  11.60200 48.31200 19.41300
H  9.10200 45.82200 19.78600
H  7.48500 45.83400 20.65000
H  9.70700 44.10600 20.92400
H  8.26000 44.14800 21.87900
H  9.73600 44.94600 22.42000
H  4.28600 45.91600 24.53100
H  4.48700 47.37900 23.59400
H  3.56400 47.43500 25.15100
H  5.99700 48.97600 29.36200
H  5.99000 45.16400 31.61300
H  5.34500 46.16900 32.93400
H  7.08100 46.32400 32.41100

