158

Mg 54.44600 24.52200 45.00200
C  51.85600 26.94300 44.09000
C  52.36500 22.01400 43.79500
C  57.07300 22.44900 44.93500
C  56.50400 27.23000 45.51100
N  52.40500 24.54600 43.92400
C  51.48900 25.60600 43.83400
C  50.08200 25.03900 43.33600
C  50.27300 23.44900 43.63000
C  51.77700 23.29300 43.82700
C  49.46500 22.85000 44.88100
C  49.78800 25.34400 41.83700
C  48.26800 25.15200 41.49900
H  47.97200 24.89900 40.03000
N  54.65800 22.48300 44.61400
C  53.72300 21.66200 44.04700
C  54.32100 20.37300 43.84000
C  55.67800 20.45800 44.34800
C  55.86200 21.86200 44.59700
C  53.56700 19.15400 43.45600
C  56.67100 19.22000 44.46800
O  56.31100 18.03300 44.28200
C  57.99900 19.35400 44.88100
N  56.54800 24.83300 45.01900
C  57.40900 23.74400 45.16100
C  58.79900 24.33700 45.43500
C  58.65200 25.88500 45.60300
C  57.13100 26.00500 45.40400
C  59.59300 23.64000 46.65000
C  59.48500 26.72900 44.59700
C  58.88000 27.11700 43.23100
N  54.18900 26.56700 45.08300
C  55.13200 27.52500 45.36100
C  54.53900 28.77100 45.45200
C  53.25700 28.63300 44.86200
C  53.13400 27.26500 44.58900
C  55.23800 30.06600 45.71600
C  52.14900 29.40900 44.38500
O  52.01100 30.64800 44.46100
C  51.12200 28.31700 43.85000
C  50.85000 28.64000 42.40900
O  51.67500 28.60900 41.45500
O  49.53300 28.84200 42.26000
C  48.86000 29.17900 40.96800
H  51.62600 21.22300 43.65500
H  57.97100 21.82800 44.93600
H  57.23300 27.98900 45.80200
H  49.39900 25.49700 44.05200
H  50.14200 22.94600 42.67200
H  50.05500 22.06600 45.35500
H  48.54100 22.33900 44.61000
H  49.35700 23.68300 45.57600
H  50.40700 24.69000 41.22300
H  50.10200 26.37300 41.66500
H  47.84100 26.09600 41.83800
H  48.02400 24.28300 42.11000
H  54.06300 18.72300 42.58600
H  52.55300 19.38000 43.12500
H  53.50300 18.32600 44.16300
H  58.42700 18.37500 45.09500
H  58.01300 19.77900 45.88500
H  58.63300 19.93600 44.21100
H  59.30000 24.09800 44.49800
H  58.96100 26.07200 46.63100
H  59.21800 24.08400 47.57200
H  60.68100 23.64300 46.59100
H  59.17600 22.63300 46.62900
H  60.13200 25.97000 44.15600
H  60.05900 27.45400 45.17400
H  58.38400 26.19800 42.92000
H  59.73000 27.39600 42.60900
H  58.17000 27.90700 43.47800
H  55.51000 30.68200 44.85900
H  56.10100 29.88600 46.35600
H  54.59100 30.69300 46.33000
H  50.17100 28.33800 44.38100
H  49.65300 29.80400 40.55800
H  47.99200 29.82600 41.09100
H  48.61900 28.41200 40.23100
Mg 48.12700 16.57800 28.60100
C  46.31900 16.46600 31.55400
C  50.56400 18.41500 30.13700
C  49.57900 17.23800 25.52900
C  45.47600 15.08000 26.81600
N  48.46800 17.34200 30.66600
C  47.55600 17.12400 31.70500
C  48.08800 17.67400 33.00700
C  49.46700 18.30300 32.53400
C  49.52300 18.00100 31.01400
C  49.41500 19.83600 32.75100
C  48.36900 16.38500 34.02800
C  47.79300 16.51700 35.44700
H  47.54400 18.00200 35.96200
N  50.00500 17.42000 27.94300
C  50.80200 18.13800 28.77800
C  51.95500 18.58300 28.00200
C  51.73400 18.21400 26.63700
C  50.38900 17.54300 26.63800
C  53.12100 19.34900 28.65700
C  52.60300 18.49500 25.39800
O  52.31000 18.07300 24.29300
C  53.95200 19.21000 25.57000
N  47.62600 16.23500 26.47800
C  48.37100 16.64500 25.44200
C  47.70000 16.23400 24.08300
C  46.45600 15.44900 24.53300
C  46.58200 15.48400 26.03900
C  47.42900 17.52400 23.23700
C  46.21900 13.96700 24.01300
C  45.40600 13.75300 22.71400
N  46.29700 15.87300 29.11400
C  45.29900 15.28000 28.23700
C  44.12600 15.00000 29.08200
C  44.57700 15.43500 30.36700
C  45.83200 15.95300 30.32500
C  42.80800 14.42800 28.55300
C  44.15600 15.52400 31.73500
O  43.07300 15.20400 32.14600
C  45.24900 16.09900 32.61200
C  44.67800 17.29000 33.25900
O  44.75000 18.43000 32.90500
O  43.98600 16.88300 34.35000
C  43.45800 17.97300 35.13900
H  51.17300 19.18900 30.60800
H  50.06900 17.40500 24.56800
H  44.62200 14.52700 26.41700
H  47.38000 18.38300 33.43600
H  50.21100 17.84700 33.18600
H  49.50600 19.99100 33.82600
H  48.46700 20.35700 32.62200
H  50.15100 20.39500 32.17300
H  49.42000 16.11200 34.11900
H  47.88700 15.52400 33.56500
H  48.49800 16.13400 36.18500
H  46.83200 16.00400 35.47300
H  53.96700 18.68500 28.83400
H  52.69100 19.85300 29.52300
H  53.41200 20.20000 28.04100
H  53.90700 20.20200 26.01900
H  54.24800 19.36700 24.53400
H  54.69500 18.65000 26.13800
H  48.41000 15.51500 23.67500
H  45.55600 15.95500 24.18300
H  47.57100 18.47600 23.74900
H  46.45800 17.51600 22.74200
H  48.09400 17.50000 22.37500
H  45.96700 13.27900 24.82000
H  47.19400 13.62300 23.66900
H  44.34800 13.52400 22.83600
H  45.79700 12.99100 22.04000
H  45.43400 14.74600 22.26600
H  42.65500 14.54600 27.48000
H  41.99600 14.96400 29.04400
H  42.87900 13.34900 28.68800
H  45.58100 15.32000 33.29900
H  42.50000 18.26600 34.71100
H  44.02200 18.89300 35.29000
H  43.33800 17.60400 36.15800

