158

Mg -0.23600 7.66900 27.12300
C  0.88300 9.95000 29.53200
C  -0.41700 5.15900 29.32700
C  -1.06800 5.55600 24.61200
C  0.61600 10.11400 24.58900
N  0.07200 7.58500 29.17500
C  0.50100 8.67700 29.98500
C  0.27900 8.28200 31.46400
C  0.09900 6.69300 31.31600
C  -0.10900 6.44700 29.86300
C  1.16600 5.85900 32.01000
C  -0.97100 9.03200 32.11700
C  -1.03300 9.11100 33.69900
H  0.14100 8.62400 34.58700
N  -0.81900 5.61900 26.96300
C  -0.79000 4.74200 28.02800
C  -1.28400 3.44600 27.60900
C  -1.40700 3.50900 26.24700
C  -1.07200 4.92600 25.86500
C  -1.56200 2.22700 28.55000
C  -1.61000 2.36100 25.21800
O  -1.47500 2.58900 24.02500
C  -1.93700 1.00000 25.70000
N  -0.02700 7.78900 24.88400
C  -0.61600 6.79000 24.14800
C  -0.86300 7.15500 22.69900
C  -0.33500 8.61500 22.62200
C  0.12100 8.89900 24.09300
C  -0.18000 6.19800 21.77000
C  -1.18300 9.78300 22.03600
C  -0.45300 10.94500 21.26900
N  0.71000 9.56300 27.01400
C  0.92300 10.44700 25.96300
C  1.43800 11.74300 26.52400
C  1.33700 11.57700 27.89300
C  0.93800 10.26600 28.19200
C  1.77900 12.95500 25.76000
C  1.48300 12.34200 29.04600
O  1.67600 13.55300 29.27800
C  1.21700 11.29900 30.21800
C  2.31400 11.29300 31.16300
O  3.32500 10.63500 31.03000
O  2.01700 12.05600 32.27900
C  2.88600 11.92900 33.50700
H  -0.60600 4.43200 30.12000
H  -1.46500 4.86800 23.86300
H  0.82200 10.90900 23.86800
H  1.20000 8.44100 32.02700
H  -0.81600 6.36000 31.80600
H  0.58200 5.27000 32.71700
H  1.95200 6.44400 32.48800
H  1.49000 5.05800 31.34500
H  -1.77500 8.35400 31.83100
H  -1.29700 9.98400 31.69800
H  -1.96700 8.61100 33.95500
H  -0.99200 10.18900 33.85400
H  -1.68800 2.63300 29.55300
H  -0.78700 1.48800 28.75500
H  -2.49400 1.71200 28.31600
H  -2.15700 0.30800 24.88700
H  -2.79500 1.13400 26.35900
H  -1.01300 0.63000 26.14600
H  -1.92400 7.27600 22.48100
H  0.62800 8.63700 22.11200
H  0.36300 5.41300 22.29400
H  0.44800 6.76100 21.07900
H  -1.00500 5.77200 21.19900
H  -1.71900 10.16400 22.90500
H  -1.92500 9.29900 21.40000
H  -0.76500 10.85000 20.22900
H  0.62000 10.82500 21.41900
H  -0.67300 11.85600 21.82500
H  1.24100 13.76600 26.25100
H  1.40500 12.81600 24.74500
H  2.83500 13.22500 25.75700
H  0.25800 11.58300 30.65000
H  3.86700 11.50000 33.30400
H  2.31900 11.42800 34.29100
H  3.11100 12.94300 33.83700
Mg 53.79300 24.32000 44.44800
C  51.20500 26.78800 43.71000
C  51.60300 21.88900 43.37100
C  56.44200 22.44000 44.17400
C  55.85300 27.16400 45.33700
N  51.64500 24.36300 43.53400
C  50.79600 25.44800 43.44100
C  49.44300 24.92900 43.02300
C  49.51200 23.40700 43.41200
C  50.98300 23.14400 43.46800
C  48.79600 22.95800 44.74900
C  49.23400 25.17300 41.56400
C  47.81800 25.53300 41.27800
H  47.39800 25.36700 39.85300
N  53.99100 22.48900 43.93300
C  53.00200 21.60400 43.57400
C  53.59500 20.27600 43.38700
C  54.96300 20.42200 43.77400
C  55.18700 21.87200 43.94500
C  52.93700 19.09100 42.79600
C  55.91700 19.28300 43.85400
O  55.66500 18.11000 43.50800
C  57.23600 19.43700 44.52700
N  55.95600 24.82600 44.74700
C  56.82500 23.77000 44.60500
C  58.24000 24.25400 44.77400
C  58.05900 25.71200 45.38300
C  56.54700 25.94800 45.15000
C  58.99200 23.28000 45.70200
C  58.91500 26.82100 44.66900
C  59.40100 27.84900 45.73300
N  53.55900 26.44600 44.67500
C  54.47300 27.45700 45.06300
C  53.82700 28.74200 45.10300
C  52.57000 28.50900 44.53700
C  52.49000 27.11600 44.24400
C  54.35700 30.09500 45.52700
C  51.38800 29.14400 44.13000
O  51.02000 30.33000 44.24700
C  50.48600 28.11100 43.53400
C  50.26300 28.34200 42.04300
O  51.13600 28.41900 41.19900
O  48.95100 28.78800 41.87000
C  48.54600 28.99900 40.57800
H  50.89300 21.08500 43.16500
H  57.29000 21.75900 44.07700
H  56.43600 28.05900 45.56500
H  48.65800 25.30900 43.67600
H  49.12900 22.77100 42.61400
H  49.57600 22.81800 45.49800
H  48.30000 21.99300 44.64200
H  48.04300 23.68300 45.05800
H  49.43300 24.22700 41.06000
H  49.91200 25.89300 41.10500
H  47.69800 26.58300 41.54500
H  47.12200 25.00300 41.92800
H  53.31700 18.95100 41.78400
H  51.88500 19.35300 42.68400
H  53.10800 18.11700 43.25500
H  58.02300 19.85600 43.89900
H  57.49300 18.45400 44.92000
H  57.05400 20.09600 45.37600
H  58.87900 24.24200 43.89100
H  58.18700 25.58400 46.45800
H  59.60700 23.63100 46.53000
H  59.74700 22.79000 45.08700
H  58.28600 22.53000 46.05800
H  58.26100 27.32400 43.95700
H  59.70200 26.35800 44.07300
H  59.01400 28.81900 45.42200
H  60.48300 27.95500 45.81500
H  59.07000 27.62300 46.74700
H  53.56600 30.74600 45.89700
H  54.73600 30.63800 44.66100
H  55.16700 29.98000 46.24800
H  49.56500 28.11200 44.11600
H  49.19800 28.64600 39.77900
H  48.28200 30.04700 40.43000
H  47.62900 28.45000 40.36800

