158

Mg 8.33200 3.10200 27.67200
C  9.48700 1.52300 30.65000
C  6.18600 4.87100 29.69300
C  6.98500 4.45300 24.92000
C  10.00000 0.82400 25.88500
N  7.91100 3.16600 29.90200
C  8.55700 2.57200 30.89700
C  8.05700 3.01500 32.32800
C  6.91600 4.03000 31.94200
C  6.96600 3.98400 30.38400
C  5.46300 3.64600 32.56400
C  9.14800 3.48600 33.26500
C  8.77800 4.59500 34.18100
H  9.64800 4.67700 35.46000
N  6.76300 4.52800 27.32300
C  6.12600 5.26800 28.29200
C  5.21800 6.19300 27.63000
C  5.33200 5.98100 26.23000
C  6.39400 4.99300 26.10600
C  4.22800 7.02500 28.42200
C  4.58100 6.62000 25.14600
O  4.89700 6.41600 24.00000
C  3.62000 7.70300 25.41000
N  8.47200 2.72100 25.64900
C  7.85500 3.42900 24.70800
C  8.28800 3.02600 23.32600
C  9.43900 1.96000 23.59200
C  9.28900 1.78800 25.13900
C  7.24400 2.61800 22.29000
C  10.88700 2.33300 23.16800
C  11.85500 3.07400 24.09600
N  9.46300 1.44900 28.11400
C  10.15600 0.67200 27.28400
C  10.91500 -0.31200 28.00000
C  10.74500 -0.00100 29.38900
C  9.85600 1.05600 29.34800
C  11.81900 -1.34600 27.33600
C  11.19700 -0.26100 30.74100
O  12.09500 -0.97100 31.17000
C  10.36100 0.68000 31.70000
C  9.62500 -0.02700 32.76500
O  8.58200 -0.63800 32.64600
O  10.39600 -0.03000 33.85100
C  9.77800 -0.56900 35.10700
H  5.48800 5.23800 30.44900
H  6.59700 4.91200 24.00900
H  10.47500 0.07000 25.25400
H  7.56700 2.24000 32.91700
H  7.10100 5.04200 32.30200
H  4.60200 4.05700 32.03700
H  5.40300 4.12700 33.54000
H  5.51800 2.55800 32.60400
H  10.00500 3.93800 32.76600
H  9.59200 2.72400 33.90600
H  7.74500 4.61300 34.52900
H  9.00500 5.47700 33.58400
H  3.24500 6.81100 28.00400
H  4.56500 8.05300 28.28700
H  4.30000 6.77200 29.48000
H  3.37200 8.15800 24.45200
H  4.16400 8.49500 25.92500
H  2.80800 7.25900 25.98700
H  8.82200 3.91800 22.99800
H  9.22900 1.09900 22.95800
H  6.22200 2.69300 22.66200
H  7.46900 1.61700 21.92200
H  7.17200 3.30700 21.44800
H  10.66700 3.06300 22.38800
H  11.33900 1.55200 22.55700
H  11.39600 3.64000 24.90700
H  12.38000 3.76400 23.43500
H  12.62500 2.41400 24.49600
H  12.16300 -0.96300 26.37500
H  11.29800 -2.24100 26.99600
H  12.55200 -1.68600 28.06800
H  11.08500 1.40800 32.06700
H  10.41000 -1.36700 35.49700
H  8.84400 -1.11000 34.95900
H  9.80600 0.24600 35.83100
Mg 23.68400 -5.79100 45.98300
C  25.86100 -3.55700 44.38600
C  21.10900 -4.68800 44.06800
C  21.99000 -8.63500 46.77700
C  26.61800 -7.18200 47.50400
N  23.54900 -4.45000 44.29600
C  24.54800 -3.52300 43.98100
C  24.05300 -2.50800 42.89300
C  22.49200 -2.80200 42.99200
C  22.35600 -4.04300 43.85500
C  21.60800 -1.60400 43.61400
C  24.64000 -2.79400 41.51900
C  25.26200 -1.62300 40.76200
H  25.11000 -1.57600 39.25300
N  21.76500 -6.56500 45.54400
C  20.80300 -5.91600 44.78000
C  19.56900 -6.68900 44.69600
C  19.92000 -7.94800 45.27000
C  21.27400 -7.82000 45.88400
C  18.29200 -6.25800 43.89000
C  19.06800 -9.16000 45.29400
O  17.93100 -9.09700 44.95400
C  19.65400 -10.53300 45.61600
N  24.29500 -7.70700 46.89700
C  23.33400 -8.63900 47.23100
C  23.92800 -9.68300 48.12400
C  25.36000 -9.12500 48.52300
C  25.49200 -7.97300 47.54000
C  23.11100 -10.05800 49.29600
C  26.35800 -10.25800 48.28400
C  27.46500 -10.27800 49.36100
N  25.82600 -5.38500 46.02800
C  26.82100 -6.00400 46.78400
C  28.04400 -5.26500 46.58300
C  27.75600 -4.27800 45.65300
C  26.40000 -4.44500 45.25100
C  29.40800 -5.51500 47.19500
C  28.36500 -3.18900 44.83800
O  29.45100 -2.63900 44.77300
C  27.08300 -2.67400 43.98500
C  26.80500 -1.25600 44.36400
O  26.39000 -0.92900 45.47100
O  27.17200 -0.51600 43.32400
C  27.13100 0.98100 43.56000
H  20.25400 -4.24400 43.55300
H  21.43200 -9.46900 47.20700
H  27.42700 -7.54600 48.14100
H  24.38500 -1.51300 43.18900
H  22.10500 -3.03600 42.00000
H  21.02400 -1.22600 42.77400
H  22.32000 -0.81300 43.84600
H  20.97800 -1.87100 44.46200
H  23.87300 -3.24100 40.88700
H  25.43700 -3.53600 41.52000
H  26.32500 -1.49300 40.96300
H  24.88100 -0.71700 41.23300
H  18.19100 -7.18700 43.32900
H  18.41300 -5.45100 43.16600
H  17.46500 -5.98600 44.54500
H  19.00200 -11.26700 45.14400
H  19.52100 -10.67300 46.68900
H  20.67400 -10.68700 45.26400
H  24.09100 -10.57900 47.52500
H  25.40600 -8.68900 49.52100
H  22.16600 -9.51400 49.30400
H  23.64200 -9.78400 50.20700
H  22.99300 -11.14100 49.31300
H  26.80300 -10.29800 47.29000
H  25.95200 -11.27000 48.31200
H  27.39100 -11.32700 49.64800
H  27.29500 -9.59700 50.19500
H  28.39700 -10.03400 48.85000
H  29.62200 -6.54800 46.92200
H  29.18700 -5.46300 48.26100
H  30.13100 -4.80000 46.80200
H  27.41000 -2.72200 42.94700
H  26.18500 1.23400 44.03800
H  27.21900 1.58000 42.65300
H  27.94900 1.16100 44.25700

