158

Mg 17.25100 -1.87000 28.15400
C  15.79100 0.08000 30.93700
C  19.03800 -3.58900 30.36800
C  18.78900 -3.27400 25.56000
C  15.41700 0.29700 25.95200
N  17.34300 -1.70200 30.43100
C  16.70800 -0.93500 31.39600
C  17.09100 -1.37500 32.80700
C  18.12100 -2.58300 32.52900
C  18.17000 -2.66200 31.01700
C  19.55900 -2.43500 33.10000
C  15.88100 -1.89200 33.67500
C  16.15900 -2.17800 35.10100
H  17.46000 -1.73600 35.76200
N  18.60800 -3.29100 27.98400
C  19.27200 -3.88500 29.01300
C  20.11300 -4.94200 28.50900
C  19.97600 -4.93000 27.08600
C  19.12400 -3.81100 26.84300
C  20.90400 -5.85100 29.33300
C  20.67800 -5.66500 26.03400
O  20.40600 -5.56900 24.83500
C  21.91000 -6.57300 26.38900
N  16.92600 -1.62500 25.99400
C  17.82600 -2.28800 25.14900
C  17.65900 -1.70400 23.65500
C  16.45500 -0.78000 23.82400
C  16.19000 -0.66300 25.31600
C  19.05500 -1.08000 23.04900
C  15.17200 -1.19100 23.14700
C  15.29400 -1.15000 21.60500
N  15.84000 -0.25500 28.33400
C  15.23100 0.52300 27.33800
C  14.50000 1.55300 27.98400
C  14.61100 1.38400 29.33400
C  15.55500 0.37800 29.54100
C  13.60300 2.59400 27.31100
C  14.08100 1.91200 30.59900
O  13.22200 2.74600 30.79800
C  14.96900 1.19600 31.67000
C  15.85100 2.18200 32.24900
O  16.84800 2.69500 31.74700
O  15.50900 2.14500 33.55600
C  16.38500 2.82700 34.48200
H  19.65400 -4.14300 31.07900
H  19.33400 -3.64500 24.69000
H  15.13800 1.22200 25.44400
H  17.56200 -0.54100 33.32700
H  17.68700 -3.43200 33.05600
H  19.69000 -1.60700 33.79600
H  20.23300 -2.25800 32.26200
H  19.86500 -3.37500 33.55900
H  15.34500 -2.68600 33.15400
H  15.06200 -1.17200 33.68100
H  15.92800 -3.22800 35.28400
H  15.39500 -1.58400 35.60400
H  20.72200 -5.58600 30.37400
H  21.94300 -5.60400 29.11200
H  20.60600 -6.82200 28.93900
H  22.45500 -6.28500 27.28700
H  22.60400 -6.47300 25.55500
H  21.53700 -7.59200 26.50100
H  17.40300 -2.54600 23.01200
H  16.58400 0.28500 23.63100
H  19.82800 -1.25200 23.79700
H  18.87800 -0.02200 22.85700
H  19.37800 -1.61700 22.15700
H  14.42000 -0.47900 23.48700
H  15.02300 -2.20800 23.51000
H  14.30000 -0.98300 21.18900
H  15.72400 -2.05800 21.18300
H  15.89500 -0.29400 21.29600
H  13.53100 3.46100 27.96900
H  12.58000 2.22100 27.26700
H  14.08700 2.93200 26.39400
H  14.35000 0.68800 32.40900
H  16.09900 3.86100 34.67500
H  17.36800 3.06900 34.07900
H  16.48600 2.25500 35.40400
Mg -1.79400 34.79300 25.97800
C  -3.02200 32.79900 28.68900
C  -0.09000 36.65200 28.32900
C  -0.89200 36.70700 23.47100
C  -3.44600 32.64900 23.85800
N  -1.49900 34.68000 28.31200
C  -2.26100 33.88800 29.18100
C  -1.73500 34.06500 30.63000
C  -0.85900 35.37400 30.49000
C  -0.85900 35.65900 28.93800
C  -1.34700 36.58800 31.32100
C  -1.08600 32.82300 31.20200
C  -1.68800 32.20200 32.49900
H  -0.75800 31.92800 33.70000
N  -0.51100 36.36600 25.88000
C  0.18400 36.91100 26.92700
C  1.05400 37.92200 26.46000
C  0.82700 37.95200 25.08400
C  -0.26800 37.07500 24.72200
C  2.01300 38.67500 27.24000
C  1.45800 38.87800 24.01400
O  1.13000 38.93900 22.81700
C  2.57300 39.83300 24.43200
N  -2.31600 34.80600 23.99100
C  -1.76200 35.70100 23.14200
C  -1.97800 35.28400 21.61300
C  -2.55800 33.82800 21.82800
C  -2.73400 33.76400 23.31000
C  -2.92100 36.23300 20.77500
C  -1.61300 32.65300 21.24800
C  -0.22000 32.56800 21.86900
N  -2.99800 33.12400 26.19900
C  -3.59300 32.31000 25.22500
C  -4.35200 31.25600 25.73400
C  -4.14000 31.41100 27.15600
C  -3.39100 32.54200 27.38500
C  -5.20700 30.22700 24.96300
C  -4.46200 30.86500 28.47700
O  -5.21600 29.94300 28.80200
C  -3.69400 31.74000 29.52700
C  -4.57500 32.47700 30.47700
O  -4.97200 33.61200 30.40900
O  -4.88400 31.55400 31.48500
C  -5.55000 32.07600 32.69300
H  0.38500 37.27700 29.08900
H  -0.54700 37.20400 22.56200
H  -3.92800 31.93000 23.19200
H  -2.51200 34.36900 31.33200
H  0.15300 35.18200 30.84600
H  -1.86200 37.31400 30.69200
H  -0.58600 37.09000 31.91900
H  -2.05800 36.26100 32.07900
H  -0.09600 33.16200 31.50900
H  -0.94500 32.10600 30.39300
H  -2.00300 31.25000 32.07100
H  -2.54400 32.76500 32.87100
H  2.22300 38.34700 28.25800
H  1.74000 39.73000 27.22600
H  2.99300 38.46800 26.81000
H  3.32000 39.23600 24.95500
H  2.12100 40.55600 25.11100
H  2.99100 40.44300 23.63100
H  -1.08300 35.24100 20.99200
H  -3.54700 33.79300 21.37100
H  -3.40800 36.88500 21.50000
H  -3.73400 35.70600 20.27700
H  -2.35600 36.80600 20.04000
H  -1.62600 32.67200 20.15900
H  -2.12600 31.74500 21.56500
H  -0.14300 32.79900 22.93100
H  0.46700 33.15800 21.26300
H  -0.00000 31.50100 21.90700
H  -6.07100 30.80200 24.62900
H  -5.42300 29.37400 25.60600
H  -4.70700 29.81600 24.08600
H  -3.00000 31.19200 30.16400
H  -4.92300 32.90100 33.03300
H  -5.43000 31.28200 33.42900
H  -6.60800 32.29400 32.55100

