158

Mg 29.05000 58.68500 39.88000
C  26.52000 56.49200 38.95800
C  31.41400 56.51600 38.71700
C  31.53300 61.21600 40.18900
C  26.56100 61.14500 40.43600
N  28.94100 56.81500 38.73000
C  27.78800 56.05100 38.65000
C  28.15300 54.63200 38.07300
C  29.70500 54.62900 38.05100
C  30.05900 56.08000 38.55000
C  30.31400 53.46500 38.85200
C  27.45100 54.12600 36.75900
C  26.91100 55.21800 35.75400
H  27.72800 55.33500 34.48700
N  31.21500 58.85500 39.58700
C  31.97200 57.74200 39.14300
C  33.38600 58.12400 39.06100
C  33.44500 59.54100 39.35600
C  32.04400 59.98700 39.77900
C  34.50600 57.27600 38.48400
C  34.67900 60.48900 39.08400
O  35.64000 60.03900 38.46400
C  34.69700 61.94300 39.52000
N  29.04700 60.82000 40.21500
C  30.16800 61.54900 40.43700
C  29.82900 63.01100 40.72200
C  28.25000 63.01100 40.78200
C  27.87700 61.57800 40.47200
C  30.53100 63.52800 42.04900
C  27.66900 63.88800 39.61400
C  28.05500 65.33700 39.43200
N  26.92100 58.76700 39.90000
C  26.06500 59.80100 40.09000
C  24.74200 59.33000 39.96900
C  24.84200 57.99000 39.58600
C  26.23200 57.73400 39.49700
C  23.47200 60.13700 40.15700
C  24.08200 56.83500 39.24300
O  22.90300 56.57000 39.18200
C  25.18700 55.74800 38.89900
C  25.05500 54.46400 39.64000
O  25.71800 54.22600 40.63700
O  24.19300 53.65700 39.04100
C  24.05600 52.32600 39.65400
H  32.08200 55.74600 38.32600
H  32.33600 61.95500 40.21700
H  25.80800 61.92200 40.58100
H  27.78400 53.91800 38.81000
H  30.05400 54.54200 37.02200
H  29.66600 52.70700 39.29000
H  30.92900 53.91800 39.62900
H  30.82300 52.80700 38.14700
H  26.67000 53.37000 36.84400
H  28.20500 53.65600 36.12700
H  26.97400 56.23000 36.15300
H  25.91500 54.98200 35.37900
H  34.80300 57.55600 37.47400
H  34.16900 56.24000 38.46400
H  35.34600 57.17600 39.17100
H  34.39500 62.08200 40.55800
H  33.93200 62.44600 38.93000
H  35.60200 62.48800 39.25200
H  30.05200 63.66300 39.87700
H  27.86200 63.26500 41.76900
H  31.34600 62.87200 42.35700
H  29.89600 63.26500 42.89500
H  31.01000 64.49100 41.87100
H  26.58900 63.90000 39.76500
H  27.78700 63.44500 38.62500
H  29.03500 65.45500 39.89400
H  27.32700 66.02300 39.86400
H  28.24500 65.62600 38.39900
H  22.90700 59.70600 40.98300
H  23.03700 59.77400 39.22600
H  23.73100 61.19600 40.15800
H  25.04400 55.46300 37.85700
H  23.31000 51.73400 39.12300
H  23.62500 52.40100 40.65200
H  25.04500 51.89400 39.50200
Mg 35.80900 49.31800 24.75400
C  36.06100 47.38100 27.65100
C  34.74000 51.86200 26.81500
C  34.88700 51.02200 21.94300
C  36.76900 46.55800 22.90500
N  35.31200 49.52000 26.91600
C  35.50900 48.63400 27.92700
C  35.23300 49.23600 29.24300
C  34.66100 50.64400 28.96300
C  34.90000 50.68400 27.46000
C  33.11900 50.82100 29.34700
C  36.63000 49.41000 30.03200
C  36.54300 49.46100 31.58700
H  35.13800 49.45400 32.27200
N  34.98400 51.16300 24.38700
C  34.69500 52.10900 25.41100
C  34.24700 53.37000 24.78100
C  34.24900 53.09800 23.31900
C  34.69600 51.71400 23.16900
C  33.78600 54.53900 25.48300
C  33.90900 54.08100 22.20500
O  33.73200 53.79300 21.02800
C  33.68600 55.55200 22.62900
N  36.02400 48.91400 22.70300
C  35.61800 49.78800 21.75800
C  35.89900 49.29800 20.33000
C  36.36000 47.80700 20.59900
C  36.47200 47.74200 22.13900
C  34.62900 49.30900 19.42400
C  37.75200 47.37700 19.92900
C  39.06000 47.85500 20.52700
N  36.37400 47.41400 25.14200
C  36.90000 46.42900 24.31000
C  37.35100 45.27400 25.06000
C  37.01900 45.58800 26.37200
C  36.43000 46.89800 26.38400
C  37.93600 44.09400 24.48300
C  37.08700 45.07900 27.67500
O  37.51800 43.96700 28.08900
C  36.47500 46.22500 28.56500
C  35.32700 45.64800 29.29600
O  34.15500 45.59200 28.93800
O  35.80600 45.30300 30.56900
C  34.81500 45.09900 31.62500
H  34.76000 52.67400 27.54500
H  34.68000 51.61100 21.04700
H  37.15100 45.72300 22.31400
H  34.55700 48.61700 29.83200
H  35.18100 51.43300 29.50600
H  32.61300 49.95100 29.76600
H  32.52400 50.95900 28.44500
H  33.04300 51.71500 29.96500
H  37.12400 50.27200 29.58400
H  37.13700 48.47300 29.80000
H  37.02100 50.40500 31.85100
H  37.15700 48.65300 31.98500
H  33.73700 54.46600 26.57000
H  32.79500 54.82700 25.13500
H  34.42900 55.39500 25.27800
H  33.66200 56.03000 21.64900
H  34.51100 55.98900 23.19200
H  32.68700 55.51300 23.06100
H  36.64700 50.01700 19.99700
H  35.61100 47.10700 20.22900
H  33.73000 48.95200 19.92600
H  34.83500 48.70000 18.54400
H  34.42100 50.32800 19.09600
H  37.66200 47.64000 18.87500
H  37.70200 46.28900 19.97800
H  39.55000 48.37400 19.70400
H  39.60300 46.97200 20.86600
H  38.96300 48.57600 21.33800
H  37.10700 43.38800 24.51200
H  38.67900 43.73500 25.19500
H  38.22800 44.07600 23.43300
H  37.34300 46.43200 29.19200
H  34.77400 44.03100 31.83800
H  33.80900 45.39100 31.32200
H  35.07400 45.64800 32.53000

