158

Mg 17.09700 51.37300 26.21100
C  18.92000 49.96200 28.74400
C  14.50600 52.04300 28.50300
C  15.13900 52.48100 23.74700
C  19.50400 50.30900 23.94100
N  16.85100 51.04100 28.36100
C  17.66900 50.45400 29.20800
C  17.28700 50.75200 30.63700
C  15.80400 51.31500 30.53900
C  15.69500 51.50900 29.01200
C  14.72200 50.36300 31.18000
C  18.21200 51.79200 31.32800
C  18.67200 51.42400 32.66900
H  18.03300 52.05200 33.85100
N  15.05400 52.16300 26.12100
C  14.23300 52.40300 27.18700
C  13.10200 53.17700 26.74400
C  13.24300 53.30400 25.31500
C  14.52300 52.59400 24.97300
C  11.98800 53.64100 27.67800
C  12.32100 53.99800 24.38000
O  12.41200 53.97100 23.15900
C  11.08100 54.71600 24.90000
N  17.18600 51.17800 24.10900
C  16.29900 51.86400 23.34200
C  16.69600 51.78300 21.82200
C  18.10300 51.17900 21.85800
C  18.33200 50.87400 23.40800
C  15.70100 51.03000 20.82600
C  19.21200 52.14200 21.32800
C  20.44400 51.48500 20.66300
N  18.93300 50.42900 26.32200
C  19.77900 50.06700 25.31100
C  20.95900 49.40200 25.89800
C  20.66900 49.31100 27.26300
C  19.34900 49.90300 27.40800
C  22.09300 48.87000 25.13100
C  21.12800 48.85100 28.56700
O  22.10200 48.24700 28.80700
C  19.99300 49.29400 29.57500
C  19.52900 48.17300 30.40900
O  18.62500 47.40300 30.16500
O  20.20900 48.26700 31.64800
C  19.91800 47.28500 32.68500
H  13.75900 52.26000 29.26900
H  14.61300 52.99900 22.94200
H  20.25500 49.98700 23.21700
H  17.26800 49.74400 31.05300
H  15.63600 52.27800 31.02100
H  14.22700 49.98000 30.28700
H  13.96800 50.89000 31.76400
H  15.12200 49.47800 31.67400
H  17.70800 52.75800 31.34800
H  19.05800 51.99000 30.67000
H  19.71400 51.71600 32.79800
H  18.46900 50.35800 32.76800
H  11.19100 52.90800 27.54900
H  11.67100 54.66200 27.46700
H  12.30200 53.73900 28.71700
H  11.23600 55.41000 25.72600
H  10.37700 53.92800 25.16900
H  10.67000 55.32800 24.09800
H  16.81500 52.76700 21.36800
H  18.07900 50.19700 21.38500
H  15.20000 51.72100 20.14900
H  14.95800 50.50000 21.42300
H  16.31100 50.25800 20.35700
H  19.63000 52.62100 22.21300
H  18.80300 52.89500 20.65400
H  20.45700 50.40500 20.80500
H  21.42000 51.94000 20.83500
H  20.18600 51.51000 19.60400
H  21.82200 47.88200 24.75900
H  22.95700 48.91400 25.79400
H  22.48300 49.41700 24.27300
H  20.45700 50.05100 30.20700
H  19.02300 47.63400 33.20000
H  20.76100 47.11800 33.35600
H  19.60500 46.32000 32.28600
Mg -12.67300 37.53400 42.97400
C  -10.18600 35.24900 41.62700
C  -10.97400 39.94700 41.44400
C  -15.29300 39.48500 43.41900
C  -14.42500 34.72400 43.87500
N  -10.77700 37.51900 41.74200
C  -9.94200 36.56600 41.32300
C  -8.77700 37.06300 40.48300
C  -9.03800 38.57900 40.65400
C  -10.37300 38.74700 41.33300
C  -7.93900 39.33600 41.42800
C  -8.69600 36.54700 38.99800
C  -7.37000 35.81800 38.58500
H  -6.66400 36.33500 37.33900
N  -12.99400 39.55700 42.65100
C  -12.13400 40.43000 42.04200
C  -12.63100 41.77500 42.11300
C  -13.86200 41.62400 42.78300
C  -14.15200 40.20300 42.91000
C  -11.90000 42.88200 41.44200
C  -14.66000 42.82100 43.27900
O  -14.26700 43.95400 43.09300
C  -15.89400 42.61800 44.08300
N  -14.62600 37.26800 43.61400
C  -15.58300 38.17300 43.68500
C  -16.93600 37.61000 44.16400
C  -16.55400 36.06000 44.42200
C  -15.10700 35.99100 43.84000
C  -17.66700 38.30600 45.34100
C  -17.52900 35.08200 43.77000
C  -17.73300 35.08000 42.16600
N  -12.34000 35.44100 42.89600
C  -13.13800 34.44100 43.42200
C  -12.43700 33.16700 43.27400
C  -11.26300 33.47900 42.59300
C  -11.25100 34.85600 42.39900
C  -12.86800 31.82800 43.63700
C  -10.06900 32.82700 41.99600
O  -9.58800 31.69000 42.06200
C  -9.41600 33.99000 41.20800
C  -7.95800 34.04800 41.64000
O  -7.44500 34.42300 42.68500
O  -7.25900 33.45300 40.65600
C  -5.79300 33.32900 40.93800
H  -10.29300 40.66100 40.97500
H  -16.10200 40.19900 43.58900
H  -14.99800 33.85100 44.19400
H  -7.84100 36.83100 40.99300
H  -9.05300 38.99100 39.64500
H  -8.43800 39.72200 42.31700
H  -7.60800 40.12500 40.75300
H  -7.04700 38.83700 41.80600
H  -8.64900 37.37600 38.29300
H  -9.63700 36.02400 38.82300
H  -7.48800 34.76200 38.34100
H  -6.57500 35.89000 39.32800
H  -11.44800 42.50000 40.52600
H  -11.21300 43.30200 42.17700
H  -12.67500 43.63200 41.28300
H  -16.25400 43.51300 44.59100
H  -15.70900 41.86300 44.84700
H  -16.73600 42.29000 43.47400
H  -17.61200 37.71700 43.31600
H  -16.42500 35.83000 45.48000
H  -17.67600 37.60200 46.17300
H  -18.69500 38.53600 45.06000
H  -17.13000 39.17800 45.71400
H  -18.53800 35.25100 44.14700
H  -17.20100 34.09600 44.09700
H  -17.27700 36.00200 41.80500
H  -18.80600 35.22500 42.04200
H  -17.35500 34.18700 41.67000
H  -13.41900 31.93500 44.57100
H  -11.93000 31.32500 43.87300
H  -13.40500 31.29700 42.85000
H  -9.41500 33.78500 40.13800
H  -5.38200 33.54300 41.92500
H  -5.19000 33.80600 40.16500
H  -5.58900 32.25900 40.93600

