158

Mg 0.37900 43.68600 26.43500
C  2.78700 43.69400 28.89800
C  -2.06300 43.59700 28.76500
C  -1.72500 43.26400 23.88200
C  3.02600 43.45700 24.00000
N  0.41200 43.53000 28.55400
C  1.48600 43.65000 29.38800
C  1.02600 43.60600 30.91600
C  -0.50900 43.30700 30.85800
C  -0.80000 43.47800 29.33700
C  -0.89900 41.86400 31.27100
C  1.40700 44.80800 31.81100
C  2.11600 44.49500 33.12100
H  1.49400 43.30200 33.83500
N  -1.68800 43.43500 26.34400
C  -2.49600 43.51300 27.43700
C  -3.88300 43.66600 26.92600
C  -3.82900 43.59000 25.54100
C  -2.39900 43.36300 25.17000
C  -5.06300 43.90600 27.86400
C  -4.90300 43.79600 24.52700
O  -4.66100 43.80100 23.28800
C  -6.46400 44.14900 24.96800
N  0.65900 43.27500 24.24100
C  -0.40300 43.29600 23.43600
C  -0.04700 43.03500 21.97500
C  1.52000 43.20300 21.95200
C  1.79400 43.28600 23.49000
C  -0.56600 41.62200 21.51700
C  2.11900 44.47000 21.27800
C  1.77700 45.80900 21.80200
N  2.52600 43.66300 26.40600
C  3.40000 43.57600 25.35800
C  4.74000 43.72500 25.91700
C  4.52600 43.67300 27.28600
C  3.17600 43.69000 27.57000
C  6.03000 43.77100 25.18600
C  5.18900 43.76800 28.60100
O  6.34000 43.96800 28.83500
C  4.04900 43.77800 29.70500
C  4.29700 42.74900 30.67700
O  3.80000 41.62300 30.75300
O  5.18000 43.25200 31.58400
C  5.40000 42.50100 32.86200
H  -2.77400 43.55100 29.59200
H  -2.45300 43.47000 23.09400
H  3.85500 43.41900 23.29000
H  1.52800 42.74900 31.36400
H  -1.15000 43.97300 31.43600
H  -0.02600 41.21700 31.35200
H  -1.59700 41.42000 30.56000
H  -1.35000 41.80600 32.26200
H  0.57900 45.48100 32.03400
H  2.09700 45.51700 31.35400
H  1.99700 45.33800 33.80100
H  3.17300 44.35000 32.89600
H  -5.44900 44.89800 27.62700
H  -4.78600 43.94100 28.91800
H  -5.68500 43.02400 27.71300
H  -6.86500 43.22600 25.38600
H  -7.02800 44.38400 24.06500
H  -6.45800 45.00400 25.64400
H  -0.41600 43.64000 21.14600
H  2.09800 42.35400 21.58600
H  0.19700 40.84700 21.59500
H  -0.96900 41.62000 20.50400
H  -1.41300 41.28700 22.11500
H  1.73500 44.47100 20.25700
H  3.20200 44.35300 21.31400
H  2.73800 46.23800 22.08600
H  1.17800 45.73700 22.71000
H  1.26500 46.42100 21.06000
H  6.73000 44.50400 25.58600
H  5.90500 44.01200 24.13000
H  6.39400 42.74800 25.28300
H  4.14000 44.69400 30.28900
H  6.44000 42.18000 32.80300
H  4.77500 41.61900 33.00600
H  5.17200 43.13900 33.71600
Mg -11.29200 16.89100 41.62100
C  -8.23200 15.32900 40.71900
C  -10.22000 19.64000 39.92900
C  -14.44900 18.10600 41.67600
C  -12.50100 13.74100 42.61900
N  -9.51600 17.35500 40.21800
C  -8.38300 16.55000 40.10200
C  -7.26100 17.26600 39.36900
C  -7.79500 18.76300 39.28300
C  -9.24600 18.63200 39.81700
C  -6.86300 19.80400 39.92900
C  -7.00500 16.48100 38.00000
C  -5.51400 16.27600 37.67900
H  -4.86600 17.10700 36.39600
N  -12.28300 18.62900 40.95000
C  -11.61300 19.65600 40.28700
C  -12.54300 20.78200 40.03500
C  -13.74400 20.35300 40.60100
C  -13.54500 18.96000 41.03600
C  -12.18700 22.08300 39.29600
C  -15.02300 21.23500 40.82300
O  -15.20000 22.31600 40.32000
C  -16.10600 20.72600 41.76700
N  -13.32700 15.99200 41.96000
C  -14.36200 16.82200 42.17300
C  -15.54900 15.92500 42.58200
C  -14.92400 14.54400 43.11600
C  -13.49300 14.74100 42.49500
C  -16.61600 16.47100 43.58000
C  -15.67200 13.22400 42.81200
C  -16.18200 12.53800 44.02000
N  -10.55900 14.94900 41.78000
C  -11.12600 13.79400 42.24200
C  -10.06900 12.82200 42.38000
C  -8.94200 13.41300 41.81600
C  -9.24900 14.70000 41.45700
C  -10.32900 11.39500 43.00100
C  -7.59600 13.14500 41.46100
O  -7.05300 12.03400 41.46700
C  -7.05400 14.39800 40.69600
C  -5.98900 14.94700 41.48000
O  -5.99300 15.30300 42.63700
O  -4.92200 15.07400 40.59600
C  -3.73300 15.58000 41.29700
H  -9.86000 20.57400 39.49400
H  -15.49000 18.43100 41.62400
H  -12.89800 12.85300 43.11500
H  -6.35800 17.29100 39.97800
H  -7.96800 18.97300 38.22800
H  -6.22900 19.43600 40.73600
H  -7.55300 20.47300 40.44400
H  -6.29600 20.42100 39.23200
H  -7.45200 17.04000 37.17900
H  -7.48600 15.50300 37.97100
H  -5.34300 15.22300 37.45600
H  -4.99400 16.60900 38.57800
H  -12.56100 22.07800 38.27200
H  -11.10200 22.17800 39.26000
H  -12.54600 22.90800 39.91100
H  -16.60800 21.59200 42.19700
H  -15.64100 20.24800 42.63000
H  -16.76700 20.02900 41.25100
H  -16.02100 15.86400 41.60100
H  -14.69700 14.69000 44.17200
H  -16.29500 16.13400 44.56600
H  -17.57400 15.99700 43.36700
H  -16.62300 17.56100 43.56900
H  -15.02900 12.58600 42.20600
H  -16.62900 13.41900 42.32900
H  -17.24400 12.29500 44.00500
H  -16.06400 13.05100 44.97400
H  -15.73800 11.56400 44.22300
H  -11.03600 11.65100 43.79000
H  -9.36000 11.07700 43.38400
H  -10.83400 10.81900 42.22500
H  -6.62100 14.06100 39.75300
H  -2.87500 15.74000 40.64400
H  -3.36900 14.80000 41.96600
H  -3.81500 16.46200 41.93200

