158

Mg -1.16000 17.45600 25.93200
C  -1.67900 15.04600 28.54900
C  -1.48800 19.96100 28.23100
C  -1.06900 19.51600 23.43300
C  -1.47400 14.68400 23.67000
N  -1.59000 17.46900 28.13100
C  -1.56700 16.39100 28.97500
C  -1.45600 16.91000 30.41500
C  -1.88200 18.37600 30.29000
C  -1.61200 18.64800 28.83000
C  -3.38700 18.60100 30.69000
C  -0.09200 16.65800 31.12500
C  -0.03800 15.83400 32.40600
H  0.81500 16.09500 33.63200
N  -1.24400 19.49700 25.82300
C  -1.36300 20.33100 26.89600
C  -1.39000 21.74400 26.32700
C  -1.13700 21.60000 24.92900
C  -1.27600 20.16700 24.65400
C  -1.68900 22.93500 27.10800
C  -1.03500 22.65600 23.89900
O  -1.21500 22.43800 22.70300
C  -0.80600 24.06300 24.32000
N  -1.42700 17.19500 23.83000
C  -1.22500 18.14300 23.01200
C  -1.40500 17.79300 21.55100
C  -1.17900 16.21500 21.61800
C  -1.33800 15.97100 23.10200
C  -2.78100 18.21200 20.90400
C  0.08200 15.77100 20.84600
C  1.43400 16.38800 21.26900
N  -1.35000 15.31900 26.05000
C  -1.55100 14.35300 25.02400
C  -1.66500 13.07900 25.63500
C  -1.77500 13.29900 26.96400
C  -1.56700 14.67800 27.21100
C  -1.79100 11.80100 24.87500
C  -1.93800 12.67600 28.29400
O  -2.00700 11.52000 28.57100
C  -2.00700 13.80100 29.32100
C  -1.04600 13.38600 30.40900
O  0.16700 13.29700 30.36600
O  -1.78300 13.10800 31.45600
C  -1.19500 12.43700 32.60900
H  -1.59700 20.74900 28.97800
H  -0.82900 20.20600 22.62100
H  -1.41500 13.85200 22.96500
H  -2.27300 16.38300 30.90900
H  -1.28400 19.04100 30.91300
H  -3.46700 19.15300 31.62700
H  -3.93200 17.67100 30.85700
H  -3.93100 19.04400 29.85600
H  0.42900 17.58800 31.35500
H  0.52400 16.12700 30.39900
H  0.24400 14.80200 32.19800
H  -1.01100 15.97300 32.87700
H  -2.53200 23.37800 26.57800
H  -0.83800 23.61200 27.03100
H  -2.05400 22.74700 28.11800
H  -1.64800 24.47800 24.87400
H  -0.49300 24.74000 23.52500
H  0.08000 24.09600 24.95300
H  -0.72500 18.30800 20.87200
H  -2.08800 15.68300 21.34000
H  -3.18700 18.70400 21.78800
H  -3.44400 17.43800 20.51600
H  -2.57300 18.98600 20.16600
H  -0.08000 16.08100 19.81400
H  0.13900 14.68300 20.83700
H  1.80900 16.88200 20.37200
H  2.12900 15.74300 21.80600
H  1.16700 17.16200 21.98900
H  -1.06100 11.12600 25.32200
H  -1.74400 11.83800 23.78700
H  -2.75500 11.33100 25.07100
H  -3.02800 13.76700 29.70100
H  -1.03300 11.42300 32.24200
H  -1.88400 12.57800 33.44200
H  -0.26800 12.92100 32.91600
Mg 36.01100 49.29700 25.52300
C  36.01800 47.31200 28.43400
C  34.96800 51.92700 27.33900
C  35.59000 50.93300 22.62200
C  36.77800 46.45100 23.71900
N  35.31300 49.47700 27.68200
C  35.58600 48.64000 28.69900
C  35.50100 49.34500 30.02800
C  34.92500 50.79000 29.69800
C  35.04300 50.73400 28.13100
C  33.48400 51.18300 30.26600
C  36.80700 49.36500 30.84700
C  36.67000 48.92600 32.36300
H  36.76000 50.07500 33.35000
N  35.47600 51.20200 25.05100
C  34.98300 52.17700 25.93200
C  34.95100 53.46200 25.28500
C  35.08300 53.17500 23.89100
C  35.35000 51.70600 23.78500
C  34.74800 54.68000 26.08500
C  35.06700 54.09600 22.69100
O  35.00800 53.85100 21.47100
C  34.92300 55.59500 22.98900
N  36.03400 48.72500 23.44300
C  35.90900 49.60500 22.47900
C  35.98400 49.02400 21.10900
C  36.42500 47.57500 21.40400
C  36.40900 47.56500 22.95600
C  34.69900 49.00400 20.14400
C  37.76200 47.31600 20.69500
C  39.11100 47.40200 21.51700
N  36.26300 47.32400 25.90700
C  36.60300 46.28700 25.05300
C  36.85300 45.04900 25.87200
C  36.60000 45.42700 27.19100
C  36.25500 46.82200 27.13300
C  37.37700 43.84000 25.40100
C  36.67000 44.97600 28.50600
O  36.80100 43.83800 28.94600
C  36.42600 46.25700 29.37400
C  35.23400 46.05700 30.22400
O  34.04000 46.02700 29.86100
O  35.71900 45.70700 31.51400
C  34.69400 45.41400 32.50500
H  34.84700 52.75500 28.04100
H  35.47000 51.53500 21.71900
H  37.16100 45.60800 23.14000
H  34.76500 48.92700 30.71500
H  35.57200 51.61000 30.01300
H  33.07900 50.27000 30.70100
H  32.91700 51.51800 29.39700
H  33.51500 52.09500 30.86300
H  37.26300 50.35300 30.78100
H  37.57500 48.70400 30.44400
H  37.53400 48.29300 32.56200
H  35.76300 48.32900 32.45900
H  35.39100 55.55500 25.99300
H  34.62800 54.51500 27.15500
H  33.80500 55.04000 25.67400
H  35.80400 55.98900 23.49500
H  34.03400 55.84400 23.56800
H  34.65700 56.06000 22.04000
H  36.81100 49.57800 20.66500
H  35.72900 46.74800 21.26000
H  33.88900 49.63700 20.50800
H  34.31700 47.99600 19.98600
H  35.01200 49.30200 19.14300
H  37.87400 48.00500 19.85800
H  37.74800 46.30200 20.29700
H  39.82600 46.67800 21.12400
H  38.93900 47.27100 22.58500
H  39.56900 48.37500 21.33800
H  37.95900 43.40900 26.21600
H  37.92300 43.79700 24.45900
H  36.55500 43.15200 25.20500
H  37.29900 46.33400 30.02200
H  34.03100 44.57400 32.29500
H  33.99700 46.25200 32.52800
H  35.21500 45.29600 33.45500

