158

Mg 17.47600 -1.36600 27.56500
C  16.35700 0.77900 30.00400
C  19.54000 -2.90200 30.03500
C  18.57300 -3.55500 25.16400
C  15.59800 0.31100 25.24400
N  17.93500 -0.98400 29.70600
C  17.27100 -0.23000 30.54300
C  17.52700 -0.45400 32.01200
C  18.63500 -1.59100 31.96000
C  18.76700 -1.85200 30.46400
C  19.93300 -1.29300 32.64100
C  16.25300 -0.77400 32.93900
C  16.02800 0.15600 34.21400
H  17.22100 0.55200 34.93400
N  18.92900 -2.89300 27.58200
C  19.63000 -3.39600 28.68500
C  20.45800 -4.47700 28.25500
C  20.21200 -4.69900 26.83500
C  19.21700 -3.65700 26.46200
C  21.53500 -5.03700 29.13300
C  20.86300 -5.57100 25.82500
O  20.71300 -5.41100 24.64300
C  21.84200 -6.65500 26.20400
N  17.25300 -1.53500 25.47100
C  17.77300 -2.50700 24.76200
C  17.01900 -2.53600 23.32500
C  15.90200 -1.45100 23.55000
C  16.28500 -0.81900 24.82300
C  18.02300 -2.36100 22.16300
C  14.42500 -1.94000 23.46700
C  13.60300 -1.12600 22.47300
N  16.30700 0.30300 27.56000
C  15.54200 0.88700 26.53800
C  14.73700 1.92300 27.07900
C  15.00900 1.93800 28.41500
C  15.98500 0.93800 28.66200
C  13.87200 2.83800 26.25000
C  14.75500 2.67000 29.64400
O  13.91300 3.59900 29.82000
C  15.51500 1.91600 30.70900
C  16.43800 2.84600 31.38600
O  17.54800 3.02700 30.98800
O  15.78200 3.48500 32.46300
C  16.60300 4.63100 32.93800
H  20.15700 -3.49200 30.71600
H  18.58700 -4.47400 24.57400
H  14.85400 0.72900 24.56200
H  17.99400 0.41100 32.48300
H  18.19900 -2.52100 32.32600
H  20.69700 -1.30500 31.86400
H  20.07500 -2.04100 33.42000
H  19.97300 -0.28100 33.04300
H  16.16300 -1.81200 33.25900
H  15.41100 -0.51100 32.29900
H  15.44200 -0.36200 34.97300
H  15.48400 1.07300 33.98800
H  20.86700 -5.68800 29.69800
H  22.05500 -4.42700 29.87100
H  22.33000 -5.48000 28.53300
H  21.97000 -7.38000 25.40000
H  21.31600 -7.16000 27.01500
H  22.77900 -6.32400 26.65000
H  16.59100 -3.52700 23.16800
H  16.05900 -0.67800 22.79800
H  18.34300 -3.34400 21.81700
H  18.92900 -1.78000 22.33500
H  17.33200 -1.96600 21.41800
H  14.01900 -1.93700 24.47800
H  14.32600 -2.97400 23.13700
H  14.14800 -0.22400 22.19600
H  12.71200 -0.78800 23.00200
H  13.20800 -1.56500 21.55600
H  12.83300 2.51000 26.28000
H  14.24400 2.83500 25.22500
H  13.81800 3.86200 26.62000
H  14.82500 1.50700 31.44700
H  15.92100 4.99400 33.70700
H  16.78900 5.42600 32.21600
H  17.48600 4.27500 33.46800
Mg 48.51800 44.83800 42.64500
C  44.94700 44.38500 42.32100
C  48.93600 41.52000 42.12900
C  51.93200 45.49400 42.36900
C  47.91200 48.31800 42.44100
N  47.03900 43.18000 42.39500
C  45.70900 43.21800 42.12200
C  45.16000 41.88500 41.89100
C  46.43400 40.86800 42.14400
C  47.60300 41.89700 42.22500
C  46.46200 40.03200 43.44100
C  44.35600 41.76700 40.57800
C  44.62900 42.76000 39.38700
H  44.77600 41.99900 38.01800
N  50.17300 43.65000 42.33400
C  50.16000 42.31800 42.09300
C  51.50300 41.88400 41.84900
C  52.38800 42.97400 41.92300
C  51.48000 44.14000 42.24000
C  51.70900 40.44400 41.52000
C  53.88400 42.81700 41.61700
O  54.29300 41.69600 41.46800
C  54.75400 44.02700 41.45600
N  49.79700 46.56000 42.54200
C  51.13900 46.60600 42.50200
C  51.63400 48.06900 42.52400
C  50.34000 48.92700 42.19800
C  49.25700 47.85100 42.51100
C  52.48100 48.46900 43.79800
C  50.26200 49.65900 40.83100
C  50.35700 51.21100 40.94600
N  46.84300 46.13000 42.48100
C  46.75800 47.52700 42.42100
C  45.37500 47.91500 42.32100
C  44.65600 46.72800 42.36900
C  45.59000 45.69200 42.34500
C  44.82100 49.32600 42.17700
C  43.33100 46.14300 42.36000
O  42.22400 46.75000 42.35900
C  43.47400 44.51300 42.32200
C  42.93500 43.95800 43.54400
O  42.09800 43.05200 43.59800
O  43.69600 44.33800 44.65500
C  43.36800 43.48300 45.82700
H  49.13400 40.46200 41.94600
H  52.97200 45.71200 42.11900
H  47.79700 49.40200 42.50300
H  44.50900 41.66900 42.73800
H  46.49200 40.21800 41.27100
H  45.64200 40.42600 44.04200
H  47.42500 40.18100 43.92800
H  46.34400 38.95500 43.32300
H  43.31700 41.77800 40.90600
H  44.57800 40.74300 40.27500
H  45.59200 43.26700 39.43900
H  43.72500 43.36700 39.33600
H  52.22600 40.24000 40.58300
H  50.86300 39.75700 41.54000
H  52.24300 39.84000 42.25500
H  54.69300 44.60300 42.38000
H  54.36000 44.66100 40.66200
H  55.78200 43.67400 41.37300
H  52.28200 48.26000 41.66900
H  50.23000 49.62200 43.03000
H  51.93500 48.82100 44.67300
H  53.21400 49.19300 43.44200
H  52.87700 47.49100 44.07200
H  49.33700 49.45400 40.29200
H  51.12400 49.34700 40.24000
H  51.11500 51.60700 40.27000
H  50.41500 51.65900 41.93800
H  49.46700 51.61300 40.46100
H  44.48000 49.83600 43.07800
H  43.99500 49.08400 41.50800
H  45.48800 49.97000 41.60400
H  43.01300 44.04200 41.45400
H  42.31100 43.65400 46.02900
H  44.05900 43.67800 46.64700
H  43.50600 42.44700 45.51800

