158

Mg 53.50600 23.99700 45.24700
C  50.87700 26.36900 44.73000
C  51.32700 21.56800 44.61900
C  56.18300 22.20500 44.54100
C  55.64000 26.96400 45.39700
N  51.39300 23.99800 44.69200
C  50.52800 25.04800 44.45200
C  49.16100 24.56000 43.96900
C  49.18300 23.16700 44.65700
C  50.72100 22.82400 44.59800
C  48.64000 23.03400 46.15200
C  49.04800 24.52300 42.37900
C  47.67800 24.09300 41.79000
H  47.51600 24.06600 40.24800
N  53.78200 22.09700 44.70000
C  52.72200 21.21500 44.63500
C  53.25800 19.90900 44.40000
C  54.73400 19.99000 44.39000
C  54.99100 21.43700 44.53900
C  52.43300 18.64800 44.25000
C  55.68300 18.86800 44.36400
O  55.28100 17.74400 44.31900
C  57.13900 19.04000 44.30400
N  55.56600 24.54600 44.91200
C  56.47300 23.53300 44.71300
C  57.89200 24.12000 44.88700
C  57.68500 25.65800 44.72600
C  56.17800 25.76300 45.05000
C  58.58000 23.72900 46.21800
C  58.00800 26.33200 43.32300
C  56.78500 26.64600 42.40200
N  53.28200 26.21700 45.40600
C  54.23400 27.18000 45.58000
C  53.52600 28.47100 45.58800
C  52.22000 28.20700 45.25000
C  52.12500 26.80500 45.12600
C  54.24800 29.76600 45.70600
C  50.95600 28.77500 44.85800
O  50.57800 29.93300 44.82300
C  50.04800 27.61400 44.57100
C  49.39800 27.79000 43.18800
O  50.01900 27.76500 42.13200
O  48.03200 27.94500 43.36200
C  47.36300 28.04500 42.08400
H  50.68300 20.69100 44.70600
H  57.07900 21.60600 44.36600
H  56.25200 27.86300 45.48900
H  48.39000 25.22400 44.36100
H  48.73700 22.37200 44.05700
H  49.26000 22.45400 46.83600
H  47.59400 22.72900 46.12900
H  48.62500 24.00600 46.64600
H  49.72900 23.74200 42.04100
H  49.45900 25.41800 41.91000
H  46.87800 24.74000 42.14800
H  47.40600 23.10300 42.15900
H  51.41500 18.76000 44.62300
H  52.86600 17.80100 44.78300
H  52.35400 18.42900 43.18500
H  57.67600 18.19400 44.73400
H  57.25300 19.81800 45.05800
H  57.54600 19.24300 43.31300
H  58.56100 23.85600 44.06900
H  58.34800 26.08900 45.47600
H  59.03700 24.59200 46.70300
H  59.44300 23.09100 46.02900
H  57.86800 23.23900 46.88100
H  58.72800 25.72000 42.78100
H  58.65400 27.20000 43.45000
H  55.82000 26.14800 42.49300
H  56.95500 26.71600 41.32800
H  56.54400 27.67600 42.66500
H  54.51400 30.14400 44.71900
H  55.16200 29.71500 46.29700
H  53.51600 30.40800 46.19600
H  49.33000 27.56100 45.38900
H  46.39500 28.41000 42.42800
H  47.17800 27.11900 41.54000
H  47.73800 28.73200 41.32600
Mg -5.24000 24.95000 26.41200
C  -3.75600 26.40500 29.19700
C  -6.94300 22.78000 28.49800
C  -5.96400 22.89900 23.75600
C  -3.11400 26.85900 24.33400
N  -5.32400 24.64800 28.57600
C  -4.66100 25.37300 29.56500
C  -5.09800 24.96100 30.99100
C  -6.14800 23.73200 30.74200
C  -6.10800 23.69700 29.19500
C  -5.71500 22.40000 31.37700
C  -5.64000 26.10800 31.88300
C  -5.52800 26.11800 33.40700
H  -5.17000 24.80000 34.08400
N  -6.45400 23.29800 26.14800
C  -7.14100 22.60700 27.09600
C  -8.09400 21.67800 26.46900
C  -7.76100 21.64300 25.10000
C  -6.69800 22.65800 24.92300
C  -9.33400 21.04500 27.19700
C  -8.40300 20.82300 24.01400
O  -8.08100 21.00600 22.87200
C  -9.39000 19.71200 24.35700
N  -4.54500 24.81500 24.34800
C  -5.02400 23.87500 23.49400
C  -4.40900 24.08800 22.05300
C  -3.62700 25.42800 22.32000
C  -3.80400 25.76000 23.73600
C  -3.61400 22.81600 21.63800
C  -4.12500 26.64600 21.33200
C  -3.05600 27.44500 20.59700
N  -3.79900 26.42000 26.70900
C  -3.03900 27.14700 25.74300
C  -2.08400 27.95300 26.42900
C  -2.33800 27.76300 27.79100
C  -3.41700 26.78100 27.88600
C  -1.00000 28.75300 25.81700
C  -1.94100 28.02700 29.13700
O  -1.10500 28.88700 29.55600
C  -2.83600 27.14300 30.11000
C  -1.95000 26.13400 30.84700
O  -1.53600 25.08700 30.40700
O  -1.73200 26.52400 32.20000
C  -0.86000 25.66700 32.93800
H  -7.53600 22.12300 29.13800
H  -6.06100 22.15900 22.95800
H  -2.50800 27.52400 23.71600
H  -4.22200 24.59000 31.52300
H  -7.18200 23.93900 31.01800
H  -6.60500 21.80700 31.58900
H  -5.13800 22.54800 32.28900
H  -5.16400 21.78300 30.66700
H  -6.69600 25.89400 31.72100
H  -5.12600 27.00100 31.52900
H  -6.48000 26.45100 33.82000
H  -4.86300 26.87100 33.82900
H  -10.14400 21.18800 26.48200
H  -9.64900 21.71400 27.99900
H  -9.24600 20.01900 27.55200
H  -9.16400 19.23800 25.31200
H  -9.47500 19.03400 23.50800
H  -10.37100 20.18500 24.39400
H  -5.32800 24.19500 21.47700
H  -2.55700 25.26200 22.19400
H  -2.68100 22.96500 21.09400
H  -4.27900 22.24200 20.99300
H  -3.35200 22.26700 22.54300
H  -4.80000 27.28500 21.90200
H  -4.73300 26.09000 20.61800
H  -2.04300 27.05200 20.68000
H  -3.06300 28.43400 21.05400
H  -3.28100 27.40300 19.53200
H  -0.15500 28.09900 25.60400
H  -0.72100 29.46400 26.59500
H  -1.18700 29.18600 24.83400
H  -3.35700 27.79600 30.81000
H  0.15900 26.04100 33.04200
H  -0.88100 24.65500 32.53400
H  -1.19300 25.53200 33.96800

