158

Mg 26.43200 -0.10800 28.60700
C  27.88300 -0.61200 31.78900
C  23.44100 0.01200 30.30400
C  25.04500 0.26300 25.71500
C  29.50700 -1.11000 27.09700
N  25.69000 -0.47800 30.85700
C  26.53100 -0.42900 31.93700
C  25.78800 -0.21300 33.28200
C  24.32400 -0.19000 32.77800
C  24.42700 -0.29100 31.22600
C  23.41600 -1.33400 33.28300
C  26.33600 1.01600 34.11700
C  26.77300 0.75300 35.58000
H  26.57600 1.87500 36.62400
N  24.55400 0.13100 28.05900
C  23.43200 0.21900 28.90500
C  22.26100 0.59700 28.11000
C  22.70600 0.68100 26.78200
C  24.14200 0.41900 26.79800
C  20.84800 0.72700 28.65700
C  21.85900 0.93300 25.47200
O  22.44200 0.99900 24.39500
C  20.36100 1.03300 25.52100
N  27.16200 -0.23000 26.63900
C  26.36700 -0.05800 25.61400
C  27.17900 -0.04200 24.32000
C  28.45300 -0.80700 24.75400
C  28.41700 -0.72300 26.26300
C  26.40300 -0.76500 23.15900
C  29.71300 -0.09600 24.17000
C  30.93300 -1.00500 23.84800
N  28.31300 -0.66400 29.24600
C  29.41500 -1.05700 28.53200
C  30.48900 -1.21600 29.42600
C  29.99900 -1.00200 30.69400
C  28.60700 -0.78800 30.57400
C  31.99000 -1.55900 29.14200
C  30.35200 -1.01400 32.12800
O  31.40400 -1.29600 32.67800
C  29.00900 -0.72800 32.84600
C  28.81900 -1.84700 33.83100
O  28.14200 -2.88800 33.63900
O  29.45500 -1.48700 35.01500
C  29.11500 -2.25200 36.21000
H  22.53400 0.08800 30.90800
H  24.51100 0.32400 24.76400
H  30.41700 -1.45200 26.60100
H  26.16400 -1.10400 33.78400
H  23.90400 0.80100 32.95000
H  22.55100 -0.95800 33.82900
H  23.92000 -1.99600 33.98800
H  23.00200 -1.90900 32.45400
H  25.54600 1.76700 34.13300
H  27.20700 1.59500 33.80900
H  27.83600 0.52900 35.67100
H  26.26800 -0.09100 36.04900
H  20.10500 0.09700 28.16800
H  20.47500 1.73100 28.45500
H  20.69800 0.51200 29.71500
H  20.02300 1.87400 26.12600
H  20.10400 0.06300 25.94800
H  20.06400 1.22900 24.49100
H  27.40500 0.98600 24.03900
H  28.45100 -1.85700 24.45800
H  26.95900 -1.67400 22.93200
H  26.34900 -0.07700 22.31500
H  25.39500 -1.07600 23.43500
H  30.11800 0.61800 24.88700
H  29.51800 0.40500 23.22200
H  31.04600 -1.71900 24.66400
H  31.87900 -0.48900 23.68500
H  30.78700 -1.56500 22.92500
H  32.06300 -1.77900 28.07700
H  32.26000 -2.41700 29.75800
H  32.58700 -0.73500 29.53300
H  29.06700 0.19100 33.42900
H  28.91700 -3.29400 35.95700
H  28.24600 -1.74900 36.63500
H  29.94200 -2.14900 36.91200
Mg 47.11400 16.02900 28.45200
C  44.88300 15.65900 31.15500
C  48.54400 18.64700 30.12500
C  49.14900 16.41000 25.73100
C  44.96200 13.98900 26.43700
N  46.87900 16.88500 30.51100
C  45.92200 16.54600 31.38900
C  46.20100 17.30200 32.70300
C  47.31900 18.35600 32.37400
C  47.55900 18.00200 30.91200
C  46.72300 19.77600 32.56000
C  46.62300 16.29500 33.78900
C  46.76700 16.95600 35.20500
H  48.11900 16.87800 35.93900
N  48.61000 17.36200 28.03200
C  49.07800 18.32600 28.83900
C  50.17100 18.98200 28.18400
C  50.40100 18.35400 26.96200
C  49.39200 17.27600 26.86800
C  50.85500 20.21100 28.77400
C  51.41300 18.63900 25.85900
O  51.42200 17.95100 24.85500
C  52.46800 19.73200 25.96800
N  47.05000 15.28300 26.37200
C  48.06200 15.52500 25.44900
C  47.87000 14.62600 24.19300
C  46.54300 13.80400 24.53900
C  46.12000 14.41400 25.83900
C  47.79000 15.55500 22.98500
C  46.82400 12.25900 24.64000
C  47.32700 11.52600 23.37500
N  45.32900 15.07100 28.73100
C  44.58100 14.27600 27.85300
C  43.40500 13.80400 28.48900
C  43.48400 14.37800 29.77000
C  44.70100 15.13500 29.85900
C  42.28000 12.90300 27.91700
C  42.80600 14.43100 31.05800
O  41.74500 13.99500 31.37300
C  43.70400 15.21000 31.97600
C  42.88100 16.35200 32.51700
O  42.36900 17.25300 31.88700
O  42.72300 16.22400 33.88900
C  42.00900 17.41900 34.48700
H  48.88300 19.55900 30.62100
H  49.78600 16.33700 24.84700
H  44.25800 13.42800 25.81900
H  45.22000 17.72000 32.93200
H  48.14600 18.19800 33.06600
H  47.00800 20.45400 31.75600
H  47.27800 20.00000 33.47100
H  45.66600 19.89100 32.79800
H  47.55300 15.80200 33.51000
H  45.91600 15.49100 33.99600
H  46.06200 16.47600 35.88300
H  46.50900 18.01400 35.14200
H  50.46000 21.08300 28.25200
H  51.91900 20.43900 28.71200
H  50.59400 20.40900 29.81300
H  52.81000 19.94900 24.95600
H  53.25100 19.33900 26.61700
H  52.02100 20.66000 26.32400
H  48.64400 13.85900 24.17900
H  45.79300 13.83900 23.74800
H  46.82800 15.55000 22.47300
H  48.59100 15.40500 22.26100
H  47.71500 16.58000 23.34800
H  45.95300 11.72100 25.01200
H  47.63800 12.14600 25.35700
H  48.41100 11.46200 23.28000
H  46.90500 12.14800 22.58500
H  46.93500 10.51000 23.32500
H  41.43100 12.77000 28.58800
H  42.76500 11.94700 27.71900
H  41.91500 13.25600 26.95200
H  43.97400 14.54500 32.79600
H  41.56600 17.06300 35.41800
H  41.23500 17.91900 33.90500
H  42.80000 18.14600 34.67400

