158

Mg 45.06800 3.03000 46.96300
C  42.67900 5.81800 46.60700
C  42.42900 0.90200 46.69600
C  47.28300 0.65900 46.97400
C  47.61100 5.50600 46.91600
N  42.88600 3.41100 46.81200
C  42.18700 4.55000 46.45000
C  40.75600 4.12900 46.11800
C  40.64700 2.66800 46.69100
C  42.08400 2.29300 46.81000
C  39.87200 2.56400 48.03000
C  40.38700 4.28500 44.56500
C  39.25400 5.21600 44.15400
H  39.62600 6.13100 43.02300
N  44.84100 1.01000 46.83700
C  43.66800 0.34800 46.70300
C  44.04000 -1.07600 46.53600
C  45.45600 -1.18100 46.63200
C  45.88100 0.17700 46.82800
C  42.98700 -2.15400 46.28700
C  46.25900 -2.48200 46.58800
O  45.66000 -3.51200 46.31900
C  47.75000 -2.66700 46.87500
N  47.16100 3.04500 46.65600
C  47.83300 1.91900 47.06800
C  49.30700 2.19200 47.42400
C  49.46000 3.74700 47.14200
C  47.96600 4.13500 46.93400
C  49.73000 1.60500 48.81800
C  50.35400 4.08900 45.87700
C  51.63100 4.90700 46.20300
N  45.13300 5.24500 46.79800
C  46.26900 6.07200 46.90800
C  45.93500 7.46700 46.87100
C  44.48200 7.44700 46.81600
C  44.05800 6.05000 46.80000
C  46.90900 8.64300 46.79400
C  43.28800 8.25200 46.77600
O  43.18000 9.44400 46.64000
C  42.05700 7.23600 46.69900
C  41.39800 7.32500 48.01500
O  41.61900 6.70700 49.04500
O  40.46200 8.36800 47.77100
C  39.53900 8.58100 48.92400
H  41.53500 0.27500 46.67900
H  47.90600 -0.20100 47.22900
H  48.45400 6.15600 47.15800
H  40.13300 4.83500 46.66600
H  40.03600 2.00200 46.08100
H  40.51200 2.20300 48.83500
H  39.09100 1.81700 47.88800
H  39.30200 3.43200 48.36000
H  40.13300 3.27800 44.23400
H  41.26100 4.59200 43.99100
H  38.97500 5.66900 45.10500
H  38.42200 4.58800 43.83700
H  42.08000 -1.75500 45.83400
H  42.70200 -2.72500 47.17000
H  43.34600 -2.88500 45.56200
H  47.97500 -3.73000 46.95600
H  48.15000 -2.27500 47.81000
H  48.34900 -2.20800 46.08800
H  49.96900 1.72400 46.69500
H  49.85100 4.25300 48.02500
H  50.41900 0.76600 48.72700
H  48.81800 1.37500 49.36800
H  50.26600 2.33900 49.42000
H  49.86400 4.66100 45.08900
H  50.54400 3.16800 45.32500
H  52.41300 4.45500 45.59300
H  51.96500 4.77300 47.23200
H  51.62000 5.97400 45.97900
H  47.49200 8.42500 47.68900
H  46.45700 9.63200 46.86900
H  47.70300 8.60400 46.04900
H  41.31700 7.42900 45.92300
H  38.79900 7.78400 48.86400
H  38.95800 9.49700 48.80900
H  40.11200 8.49200 49.84700
Mg 41.11400 41.02300 26.43500
C  40.19200 43.18100 29.09300
C  42.50500 39.00600 28.83000
C  42.01700 38.94200 23.95800
C  40.36200 43.56700 24.16500
N  41.50400 41.21000 28.80300
C  40.76700 42.02400 29.62900
C  40.83600 41.59900 31.08200
C  41.89400 40.45200 30.88200
C  41.99500 40.15400 29.40900
C  43.22700 40.58800 31.67400
C  39.38600 41.23800 31.61200
C  38.93100 41.94900 32.92500
H  38.50800 41.05900 34.12900
N  41.90900 39.14300 26.41800
C  42.44600 38.47100 27.49000
C  42.82900 37.12300 27.03600
C  42.51700 37.06400 25.60200
C  42.16900 38.42000 25.26600
C  43.28100 36.01800 27.91400
C  42.63100 35.92000 24.53500
O  42.31300 36.01300 23.41800
C  43.20800 34.63300 24.98100
N  41.13500 41.23800 24.36800
C  41.50400 40.16400 23.59800
C  41.37300 40.52300 22.09900
C  40.62000 41.90600 22.16500
C  40.71000 42.29200 23.64400
C  42.64500 40.33200 21.21500
C  39.01800 41.92600 21.85200
C  38.09600 41.01200 22.75900
N  40.43000 42.87800 26.61300
C  40.19600 43.87200 25.53900
C  39.61100 45.07200 26.15700
C  39.59300 44.74600 27.55400
C  40.07900 43.46000 27.75200
C  39.05200 46.33500 25.52400
C  39.26300 45.36100 28.79200
O  38.99700 46.55400 29.04900
C  39.47100 44.23500 29.86500
C  40.15100 44.88000 30.92400
O  41.32400 45.26500 30.86500
O  39.32200 45.05100 32.00700
C  39.88700 45.65200 33.23800
H  43.06600 38.27800 29.41900
H  42.24300 38.32200 23.08800
H  39.91400 44.21400 23.40800
H  41.34700 42.41900 31.58800
H  41.64400 39.52700 31.40100
H  43.31500 41.59400 32.08500
H  44.11800 40.41100 31.07100
H  43.19300 39.81900 32.44500
H  39.35900 40.15500 31.73400
H  38.72500 41.49500 30.78400
H  38.00200 42.38900 32.56300
H  39.58500 42.74200 33.28700
H  42.49900 35.25900 27.88300
H  43.53500 36.30400 28.93400
H  44.13000 35.50900 27.45600
H  44.27900 34.80500 25.09300
H  43.05900 33.79100 24.30500
H  42.68700 34.45100 25.92100
H  40.61100 39.83400 21.73500
H  41.04100 42.78900 21.68400
H  42.68600 41.24500 20.62100
H  42.52000 39.51900 20.50000
H  43.47500 40.24400 21.91600
H  38.86300 41.61100 20.82000
H  38.67000 42.95900 21.83500
H  37.94400 41.67000 23.61500
H  38.77500 40.23900 23.12000
H  37.30700 40.66700 22.09100
H  38.43900 46.82700 26.27900
H  38.53100 46.15400 24.58400
H  39.88500 46.99100 25.27100
H  38.50000 43.84700 30.17000
H  40.22900 44.87000 33.91600
H  39.16200 46.31900 33.70400
H  40.75600 46.22800 32.91700

