158

Mg 44.92000 4.60200 47.00500
C  42.71600 7.26900 46.35700
C  42.32800 2.36700 46.44100
C  47.09000 2.07000 47.15400
C  47.64100 6.89100 46.64400
N  42.70000 4.82700 46.45500
C  42.05600 6.00300 46.22000
C  40.58100 5.64500 45.92500
C  40.42600 4.13400 46.32700
C  41.87600 3.73400 46.40400
C  39.62500 3.71200 47.49500
C  40.27000 6.01400 44.41700
C  38.88900 6.78100 44.29200
H  38.91400 8.00900 43.38000
N  44.77100 2.48600 46.81400
C  43.66200 1.78500 46.64000
C  43.91800 0.32700 46.77400
C  45.30000 0.22100 46.79400
C  45.77800 1.63400 47.02400
C  42.84600 -0.81200 46.76200
C  46.00300 -0.97500 46.50300
O  45.35500 -2.03900 46.33500
C  47.50800 -1.08900 46.37500
N  47.08600 4.50000 46.94000
C  47.72500 3.31900 47.15800
C  49.13600 3.59200 47.65000
C  49.36500 5.09600 47.27900
C  47.96000 5.53900 46.90900
C  49.33300 3.45800 49.16400
C  50.16400 5.16100 45.91600
C  51.75600 4.93700 46.00900
N  45.17100 6.64900 46.61700
C  46.32800 7.40800 46.54300
C  46.02300 8.82800 46.41500
C  44.57700 8.79900 46.36300
C  44.13100 7.44700 46.46300
C  47.04800 9.93800 46.20400
C  43.40800 9.57700 46.10200
O  43.35000 10.80200 45.85200
C  42.18700 8.65600 46.13600
C  41.15700 8.98000 47.17700
O  41.17000 8.60000 48.37500
O  40.23000 9.87600 46.61900
C  39.20000 10.34700 47.62100
H  41.47800 1.68600 46.35300
H  47.84000 1.30600 47.36600
H  48.43600 7.63900 46.66000
H  39.90400 6.25200 46.52600
H  40.00400 3.56700 45.49700
H  40.04700 2.85800 48.02600
H  38.61200 3.37700 47.27300
H  39.46400 4.51700 48.21200
H  40.13500 5.10600 43.82900
H  41.00600 6.56900 43.83700
H  38.21700 6.77200 45.15000
H  38.31000 6.06300 43.71100
H  41.89000 -0.46000 47.14800
H  43.07900 -1.64000 47.43300
H  42.72500 -1.22500 45.76100
H  48.03900 -0.90800 47.31000
H  47.79500 -0.36200 45.61600
H  47.72100 -2.10600 46.04900
H  49.80200 2.88200 47.16000
H  49.86800 5.73400 48.00500
H  50.11900 2.72100 49.32600
H  48.44000 3.00800 49.59800
H  49.58600 4.31200 49.79300
H  50.06800 6.18700 45.56000
H  49.71800 4.63500 45.07200
H  51.95500 3.86700 45.94800
H  52.13800 5.37100 46.93300
H  52.21200 5.39100 45.12800
H  47.63000 9.99300 47.12400
H  46.44500 10.84300 46.28200
H  47.66400 9.82200 45.31200
H  41.69800 8.65700 45.16200
H  38.75300 11.21100 47.12900
H  39.46800 10.73700 48.60300
H  38.46700 9.54900 47.74300
Mg 17.10200 52.36200 25.94400
C  19.04900 51.17400 28.53000
C  14.60900 52.97700 28.19400
C  15.41700 53.61900 23.39400
C  19.65900 51.38500 23.74800
N  16.83300 52.07900 28.10100
C  17.84600 51.72800 28.95800
C  17.39100 51.95000 30.44300
C  15.81800 52.12300 30.18900
C  15.70200 52.35300 28.71400
C  14.92100 51.07600 30.70100
C  17.90600 53.30100 30.99300
C  17.89500 53.55400 32.49300
H  16.70100 53.11100 33.41700
N  15.28500 53.20000 25.79300
C  14.40700 53.32500 26.82000
C  13.26700 54.10100 26.31600
C  13.46600 54.25500 24.94900
C  14.75400 53.66600 24.63900
C  12.16100 54.49900 27.20000
C  12.51800 54.86400 23.91600
O  12.84200 54.98400 22.73500
C  11.20300 55.35500 24.33600
N  17.39300 52.33000 23.83600
C  16.60700 52.98800 22.94200
C  17.11100 52.95800 21.53400
C  18.50500 52.22100 21.71800
C  18.58700 52.05600 23.24800
C  16.09900 52.31400 20.57100
C  19.68300 52.93900 21.03000
C  20.09800 54.22800 21.72600
N  18.81800 51.37100 26.02000
C  19.82600 51.02900 25.06100
C  20.92300 50.33800 25.65500
C  20.64700 50.39300 27.00000
C  19.38100 51.01400 27.18700
C  22.03800 49.63800 24.93500
C  21.26200 49.98000 28.23400
O  22.28900 49.36000 28.55800
C  20.30600 50.59500 29.31200
C  19.80400 49.60400 30.25300
O  19.24400 48.57600 29.93100
O  20.03100 50.04800 31.51700
C  19.49500 49.22600 32.57600
H  13.87300 53.35000 28.90900
H  14.95100 54.02700 22.49500
H  20.45400 51.10700 23.05300
H  17.57000 51.08800 31.08600
H  15.42900 53.01200 30.68400
H  15.46500 50.42500 31.38600
H  14.63800 50.48200 29.83200
H  14.04800 51.40800 31.26400
H  17.32000 54.14200 30.62300
H  18.94600 53.33500 30.66700
H  18.21300 54.55000 32.80100
H  18.64700 52.90400 32.94100
H  12.30600 54.16700 28.22800
H  11.19600 54.19400 26.79500
H  12.18200 55.56400 27.43000
H  10.58500 55.51300 23.45200
H  11.22800 56.33900 24.80400
H  10.64400 54.54300 24.80100
H  17.32600 53.95700 21.15700
H  18.60400 51.21600 21.30800
H  15.57100 53.15000 20.11300
H  15.39200 51.65400 21.07300
H  16.64400 51.71000 19.84500
H  19.28700 53.24700 20.06300
H  20.50400 52.25300 20.82000
H  21.18000 54.33200 21.81100
H  19.66900 54.23000 22.72800
H  19.54400 54.99500 21.18500
H  22.06300 48.56600 24.74000
H  22.90200 49.66600 25.59900
H  22.12600 50.06500 23.93600
H  20.82700 51.33500 29.92000
H  19.11100 49.79600 33.42200
H  20.42000 48.76200 32.91700
H  18.78500 48.41800 32.39700

