158

Mg 1.18200 -1.23400 44.15200
C  4.44800 -0.65600 43.59000
C  0.32500 1.48300 42.21400
C  -2.10100 -2.20100 44.20200
C  2.08500 -4.41300 45.48200
N  2.26500 0.25300 42.99200
C  3.62900 0.30000 42.92900
C  4.05800 1.55600 42.13000
C  2.67700 2.30500 41.93700
C  1.67200 1.30100 42.36000
C  2.51100 3.67100 42.75600
C  4.81600 1.12400 40.79600
C  6.06500 1.92300 40.35500
H  5.86100 2.98500 39.28300
N  -0.61700 -0.37600 43.45500
C  -0.74700 0.73700 42.71300
C  -2.15700 1.08700 42.62700
C  -2.99200 0.08400 43.30800
C  -1.90000 -0.87600 43.74200
C  -2.61700 2.40600 41.92600
C  -4.49100 0.02300 43.38900
O  -5.19100 0.91400 42.97400
C  -5.14400 -1.02000 44.18300
N  0.10600 -3.08300 44.64200
C  -1.21500 -3.22900 44.63600
C  -1.68500 -4.66500 44.90300
C  -0.42800 -5.17100 45.70800
C  0.68100 -4.22500 45.21500
C  -3.04000 -4.95300 45.67400
C  -0.27800 -6.73000 45.65800
C  -0.41400 -7.50200 47.01700
N  2.89400 -2.33600 44.54400
C  3.14800 -3.56000 45.14700
C  4.55400 -3.75900 45.26000
C  5.11200 -2.61000 44.69600
C  4.00800 -1.82600 44.24100
C  5.27500 -4.91100 45.94800
C  6.37800 -1.91900 44.32800
O  7.54700 -2.14600 44.43000
C  5.96700 -0.57900 43.65200
C  6.37100 0.46800 44.52100
O  6.00400 0.42400 45.67000
O  7.36700 1.35300 44.03300
C  7.88300 2.33100 44.99800
H  0.15800 2.43800 41.71200
H  -3.13700 -2.47300 43.98700
H  2.38100 -5.40600 45.82800
H  4.69300 2.21300 42.72400
H  2.59100 2.60500 40.89200
H  2.23000 4.44300 42.03900
H  3.45400 3.83600 43.27500
H  1.69800 3.61700 43.47900
H  4.03700 1.28900 40.05100
H  5.04100 0.05900 40.83800
H  6.80900 1.19700 40.02800
H  6.39800 2.41000 41.27200
H  -2.67600 2.28200 40.84500
H  -1.95000 3.25200 42.09200
H  -3.57700 2.70600 42.34800
H  -5.99700 -0.66000 44.75900
H  -4.51500 -1.17500 45.06000
H  -5.39800 -1.89800 43.59000
H  -1.71200 -5.12100 43.91300
H  -0.70100 -4.97200 46.74400
H  -3.57400 -5.66800 45.04900
H  -3.77800 -4.15100 45.63900
H  -2.78800 -5.33000 46.66500
H  0.75400 -6.91500 45.35900
H  -1.02200 -7.12500 44.96600
H  -1.04000 -8.34900 46.73600
H  -1.01000 -6.95800 47.75000
H  0.58500 -7.71200 47.39800
H  6.34200 -4.83100 46.15900
H  5.17200 -5.82400 45.36200
H  4.73600 -5.07500 46.88100
H  6.40500 -0.37100 42.67600
H  8.33900 1.76500 45.81000
H  6.98200 2.86600 45.30000
H  8.60200 2.98300 44.50300
Mg 16.15300 52.44100 26.05100
C  18.13200 51.03000 28.71100
C  13.77300 53.18700 28.30200
C  14.16200 53.32300 23.47100
C  18.34400 50.68600 23.87100
N  15.98100 52.09200 28.28800
C  16.93600 51.66400 29.13600
C  16.45900 51.84900 30.56400
C  15.01200 52.43600 30.48900
C  14.85700 52.54400 28.94600
C  13.86000 51.59000 31.19500
C  17.37800 52.88100 31.39800
C  17.29300 52.76900 32.92100
H  16.21300 51.98800 33.62400
N  14.34600 53.35400 25.89500
C  13.49100 53.64800 26.95600
C  12.44800 54.52100 26.49200
C  12.48200 54.46700 25.03500
C  13.66700 53.69100 24.73200
C  11.31900 55.06600 27.39000
C  11.53500 55.11700 24.08400
O  11.63700 54.95100 22.88100
C  10.42900 56.02800 24.55400
N  16.22600 51.99900 23.99300
C  15.33100 52.52800 23.15400
C  15.67800 52.02900 21.66800
C  17.19400 51.66800 21.78200
C  17.29500 51.40200 23.31200
C  14.67600 50.84300 21.36100
C  18.13900 52.78200 21.27500
C  19.53200 52.37000 20.64900
N  17.94600 51.15600 26.17000
C  18.71900 50.58200 25.20300
C  19.82400 49.90800 25.79100
C  19.70900 50.13200 27.15400
C  18.47800 50.84500 27.39000
C  20.91800 49.24600 24.99500
C  20.39400 49.97600 28.51000
O  21.54200 49.53900 28.73700
C  19.37500 50.58200 29.57300
C  18.90400 49.50700 30.50900
O  18.26400 48.54600 30.13800
O  19.25700 49.78800 31.83200
C  18.85000 48.82700 32.88100
H  12.99300 53.47200 29.01100
H  13.58100 53.55500 22.57500
H  18.90000 50.13200 23.11200
H  16.40700 50.88400 31.06900
H  15.10300 53.45500 30.86600
H  13.44900 51.92900 32.14600
H  14.26500 50.63000 31.51400
H  12.98500 51.46100 30.55800
H  17.09900 53.85700 31.00000
H  18.42400 52.77800 31.11000
H  17.18800 53.77900 33.31800
H  18.24300 52.30700 33.18700
H  11.35400 54.58200 28.36600
H  10.37600 54.83000 26.89800
H  11.28400 56.13600 27.59900
H  10.10600 56.60600 23.68900
H  10.68700 56.75400 25.32500
H  9.57900 55.44600 24.91100
H  15.56900 52.87600 20.99000
H  17.30000 50.69700 21.30000
H  13.99400 50.70700 22.20100
H  15.20200 49.90100 21.20700
H  14.17400 51.05500 20.41700
H  18.36900 53.57200 21.99000
H  17.51200 53.24100 20.51000
H  20.29600 52.96500 21.15100
H  19.55800 52.52000 19.57000
H  19.72100 51.32500 20.89200
H  21.72100 49.17700 25.72900
H  21.06500 49.71000 24.02000
H  20.57200 48.23800 24.76400
H  19.93200 51.35100 30.10900
H  18.32300 47.95500 32.49300
H  18.19500 49.34400 33.58200
H  19.71100 48.42500 33.41600

