158

Mg 1.56900 -1.62400 44.33300
C  4.93400 -0.86000 43.48100
C  0.57700 1.20000 42.53500
C  -1.63000 -2.75900 44.35600
C  2.73700 -4.83500 45.50100
N  2.51300 -0.10700 43.28400
C  3.94200 0.04000 43.00900
C  4.22200 1.22300 42.11400
C  2.85400 2.06500 42.27000
C  1.88700 0.98700 42.73500
C  2.88900 3.18900 43.38100
C  4.46800 0.84700 40.60400
C  5.75600 1.24000 40.03100
H  5.69200 2.00300 38.65700
N  -0.32800 -0.86700 43.59000
C  -0.47900 0.32900 42.79600
C  -1.82600 0.43000 42.37300
C  -2.47400 -0.76900 42.81500
C  -1.55200 -1.53700 43.63000
C  -2.43100 1.59800 41.66500
C  -3.82000 -1.21700 42.36400
O  -4.48200 -0.47400 41.72900
C  -4.37500 -2.48900 42.78100
N  0.70700 -3.52300 44.77300
C  -0.68800 -3.71700 44.83300
C  -0.95900 -5.13300 45.23400
C  0.40800 -5.72000 45.77700
C  1.35300 -4.62100 45.28600
C  -2.19500 -5.37000 46.10000
C  0.72500 -7.16200 45.16600
C  1.38000 -8.13200 46.13800
N  3.45600 -2.66500 44.69600
C  3.78000 -3.92700 45.19600
C  5.22300 -4.07100 45.16500
C  5.69200 -2.87100 44.53400
C  4.61200 -2.09300 44.21400
C  6.04400 -5.27100 45.70600
C  6.88800 -2.14600 44.12600
O  8.09100 -2.33700 44.29200
C  6.37800 -0.84500 43.38900
C  6.88100 0.33200 44.09800
O  6.76900 0.52200 45.28200
O  7.69300 1.03500 43.23300
C  8.48900 2.17100 43.84900
H  0.29200 2.09900 41.98400
H  -2.65400 -3.06600 44.57700
H  3.12000 -5.80700 45.81900
H  5.12800 1.62900 42.56400
H  2.43400 2.56200 41.39600
H  3.87700 3.51900 43.70200
H  2.47300 2.74500 44.28500
H  2.26100 3.99800 43.00800
H  3.72700 1.29100 39.94000
H  4.39900 -0.23600 40.49600
H  6.32400 0.32300 39.87800
H  6.33700 1.86400 40.71000
H  -2.64000 1.41400 40.61100
H  -1.82100 2.49900 41.72900
H  -3.34900 1.87100 42.18500
H  -5.07700 -2.75000 41.98900
H  -4.77300 -2.33500 43.78400
H  -3.58500 -3.23900 42.74500
H  -1.11500 -5.61300 44.26800
H  0.44400 -5.86300 46.85700
H  -2.73600 -4.43000 46.21200
H  -1.85700 -5.64600 47.09800
H  -2.91000 -6.03700 45.61800
H  1.50000 -6.88800 44.44900
H  -0.17800 -7.53000 44.67900
H  1.71700 -7.58300 47.01800
H  2.26900 -8.53200 45.64900
H  0.63200 -8.90500 46.31300
H  6.84000 -5.00600 46.40100
H  6.45000 -5.65000 44.76800
H  5.35100 -5.98800 46.14700
H  6.75000 -0.83300 42.36400
H  9.01200 1.77300 44.71900
H  7.89600 2.99400 44.24800
H  9.26900 2.56800 43.19900
Mg 47.17800 24.67600 28.21000
C  48.39500 26.86700 30.60000
C  46.66100 22.38000 30.83100
C  46.04900 22.40400 25.91600
C  48.11800 26.76200 25.77600
N  47.48900 24.60000 30.48500
C  47.89200 25.69500 31.18900
C  47.64900 25.44700 32.66100
C  47.39400 23.92900 32.80900
C  47.23400 23.56600 31.28700
C  48.54200 23.14700 33.46800
C  46.57100 26.43900 33.13600
C  46.90500 27.19800 34.51300
H  45.87900 27.14900 35.59200
N  46.31100 22.75900 28.37800
C  46.30600 21.97100 29.54300
C  45.88300 20.69000 29.19300
C  45.58900 20.67000 27.75800
C  45.95200 22.00100 27.28100
C  45.65400 19.56300 30.19400
C  45.08800 19.56400 26.95300
O  44.79300 19.68100 25.80900
C  44.78100 18.18800 27.59700
N  47.31500 24.44900 26.10700
C  46.75800 23.48000 25.35000
C  46.98400 23.83900 23.84000
C  47.41100 25.32700 23.89300
C  47.63400 25.52400 25.37000
C  47.91500 22.93300 22.90000
C  46.45000 26.33700 23.17900
C  46.81100 26.90300 21.69800
N  48.01700 26.44000 28.20000
C  48.33800 27.22600 27.08900
C  48.95700 28.45200 27.51300
C  48.99600 28.31900 28.89900
C  48.42200 27.11700 29.22500
C  49.45500 29.56300 26.65200
C  49.39400 29.02100 30.12300
O  49.97600 30.03400 30.30300
C  48.77800 28.16000 31.26900
C  49.73900 28.07500 32.37900
O  50.77200 27.44000 32.36400
O  49.22400 28.80700 33.45800
C  49.97800 28.82500 34.70600
H  46.42800 21.66300 31.62200
H  45.53400 21.81800 25.15200
H  48.35800 27.45700 24.96800
H  48.65200 25.67200 33.02200
H  46.50000 23.68500 33.38400
H  49.47200 23.71100 33.54100
H  48.86800 22.36500 32.78300
H  48.20500 22.58700 34.34100
H  45.59600 26.00500 33.35900
H  46.27200 27.14200 32.35900
H  46.96800 28.24800 34.22900
H  47.87700 26.77600 34.77000
H  44.59700 19.29700 30.19100
H  46.02400 19.70700 31.20900
H  46.08900 18.69200 29.70400
H  45.76400 17.86900 27.94400
H  44.54400 17.51200 26.77600
H  43.92300 18.18700 28.26900
H  45.98200 23.80500 23.41100
H  48.35000 25.67900 23.46600
H  48.79400 23.45100 22.51700
H  47.32900 22.63700 22.02900
H  48.27800 22.14700 23.56100
H  46.31500 27.21900 23.80500
H  45.44200 25.92500 23.13100
H  47.67900 26.38900 21.28500
H  47.02400 27.96400 21.82700
H  45.99100 27.00600 20.98700
H  49.63900 29.18400 25.64600
H  50.30600 30.05400 27.12300
H  48.62700 30.26800 26.58500
H  47.84600 28.61700 31.60100
H  51.04900 28.66100 34.59000
H  49.62200 28.06000 35.39600
H  49.93900 29.86700 35.02400

