158

Mg 36.57700 49.41600 24.59800
C  36.97000 47.81600 27.76400
C  35.23800 52.09200 26.36300
C  35.86900 50.74400 21.71800
C  37.84700 46.41700 23.07300
N  36.22400 49.83900 26.85100
C  36.48000 49.05400 27.92100
C  36.31600 49.78800 29.22300
C  35.66800 51.12900 28.73900
C  35.69500 51.03200 27.23400
C  34.27900 51.47600 29.24100
C  37.65900 50.02500 29.99900
C  37.77300 49.76900 31.55500
H  36.52300 49.69500 32.47200
N  35.69500 51.16000 24.08400
C  35.21700 52.09800 24.90600
C  34.63100 53.10700 24.08900
C  34.78100 52.78800 22.68300
C  35.47700 51.50100 22.79700
C  33.88300 54.31700 24.65900
C  34.37000 53.56600 21.37100
O  34.73400 53.14900 20.25400
C  33.54000 54.80200 21.43100
N  36.66300 48.56400 22.63400
C  36.37800 49.40800 21.63300
C  36.83800 48.76900 20.27400
C  37.45900 47.37000 20.71800
C  37.35900 47.41900 22.23100
C  35.68500 48.56400 19.22500
C  38.90300 47.19400 20.27200
C  40.03600 48.12100 20.84300
N  37.31800 47.49100 25.23800
C  37.81000 46.42500 24.50500
C  38.24300 45.35300 25.37300
C  37.91300 45.84800 26.66600
C  37.37400 47.19700 26.53100
C  38.95900 44.05300 25.02300
C  37.84700 45.49400 28.05100
O  38.20900 44.52200 28.67400
C  37.31000 46.76100 28.81800
C  36.07000 46.38600 29.66300
O  35.04400 46.02200 29.20800
O  36.31000 46.38200 31.02900
C  35.24300 45.83100 31.93400
H  34.91500 53.00900 26.86000
H  35.75300 51.22300 20.74400
H  38.33200 45.50000 22.73400
H  35.55900 49.27400 29.81400
H  36.27700 51.95600 29.10300
H  33.92200 51.03600 30.17200
H  33.57600 51.11700 28.48900
H  34.27000 52.56200 29.33300
H  38.02100 51.04200 29.84900
H  38.37000 49.36800 29.49800
H  38.48500 50.46700 31.99700
H  38.23900 48.78400 31.53900
H  34.55900 55.17100 24.60400
H  33.59100 54.08700 25.68400
H  32.86800 54.48200 24.29700
H  32.76400 54.45400 22.11300
H  33.17100 54.92900 20.41300
H  34.00500 55.69200 21.85500
H  37.59400 49.41500 19.82600
H  36.81300 46.56100 20.37500
H  35.76400 49.44700 18.59100
H  34.70300 48.67100 19.68400
H  35.70100 47.63000 18.66200
H  38.95100 47.40300 19.20300
H  39.21200 46.15000 20.33500
H  39.55500 48.81100 21.53700
H  40.62100 48.55500 20.03200
H  40.78600 47.60300 21.44000
H  39.43000 43.92500 24.04800
H  38.29100 43.22500 25.25700
H  39.70700 44.16200 25.80800
H  38.06100 47.10900 29.52700
H  34.85300 44.88800 31.55000
H  34.39500 46.51400 31.97200
H  35.57000 45.64800 32.95700
Mg -12.54300 17.12100 41.88600
C  -9.68800 15.01100 41.47600
C  -10.62600 19.71600 40.51200
C  -15.33300 18.74000 41.44800
C  -14.30700 14.10800 42.66800
N  -10.42600 17.33300 40.86300
C  -9.43700 16.35000 40.97600
C  -8.12800 16.89900 40.50100
C  -8.34600 18.47900 40.59800
C  -9.89300 18.54500 40.61500
C  -7.73000 19.27200 41.79400
C  -7.75600 16.29200 39.13700
C  -6.23700 15.94900 38.85600
H  -5.64700 16.40100 37.43400
N  -12.91000 19.00900 41.13900
C  -12.00700 19.94300 40.66900
C  -12.71200 21.13500 40.25200
C  -14.08900 20.77400 40.41300
C  -14.18300 19.51100 40.98700
C  -12.01900 22.36900 39.64100
C  -15.22300 21.57900 39.81100
O  -14.89100 22.62300 39.15200
C  -16.63700 21.19700 39.97200
N  -14.58500 16.40700 41.83400
C  -15.50700 17.41000 41.88000
C  -16.86500 16.92000 42.25400
C  -16.60600 15.42400 42.63600
C  -15.07100 15.22600 42.39100
C  -17.45300 17.70500 43.50800
C  -17.52000 14.48500 41.78100
C  -18.87100 14.12600 42.38800
N  -12.14100 14.98800 42.08000
C  -12.93300 13.96900 42.31000
C  -12.09700 12.77800 42.62800
C  -10.84000 13.19400 42.34600
C  -10.86300 14.51300 41.95800
C  -12.59200 11.46000 43.30900
C  -9.47000 12.75300 42.26700
O  -9.02200 11.61500 42.53400
C  -8.67100 13.89500 41.68700
C  -7.46400 14.24100 42.49300
O  -7.59200 14.55800 43.66400
O  -6.30900 14.22400 41.77400
C  -5.19300 14.73800 42.60500
H  -9.99000 20.54000 40.18400
H  -16.23100 19.35800 41.51100
H  -14.76500 13.40700 43.36900
H  -7.26200 16.69300 41.13100
H  -7.87900 19.01400 39.77000
H  -7.04600 18.57800 42.28400
H  -8.49000 19.53700 42.53000
H  -7.22900 20.19600 41.50700
H  -8.19400 16.95800 38.39300
H  -8.20600 15.30100 39.08500
H  -6.09000 14.88000 39.00800
H  -5.55100 16.41200 39.56600
H  -12.35900 23.15600 40.31300
H  -12.34100 22.74500 38.67000
H  -10.92900 22.36600 39.59800
H  -16.76700 21.29900 41.04900
H  -16.82000 20.18400 39.61500
H  -17.21600 21.92900 39.40900
H  -17.59400 17.04700 41.45300
H  -16.77400 15.19000 43.68700
H  -17.76000 16.93700 44.21800
H  -18.34100 18.30600 43.31400
H  -16.76800 18.35500 44.05200
H  -16.99600 13.56600 41.51900
H  -17.66800 15.06800 40.87100
H  -19.64000 14.61600 41.79100
H  -18.99900 14.47500 43.41300
H  -19.10700 13.06700 42.27800
H  -11.97200 11.32900 44.19600
H  -12.57900 10.62800 42.60500
H  -13.54600 11.69900 43.77700
H  -8.35600 13.52400 40.71200
H  -4.22500 14.65600 42.11100
H  -5.05600 14.21700 43.55200
H  -5.23800 15.78300 42.91200

