158

Mg 26.37200 51.20300 25.42300
C  23.87700 52.02400 27.86800
C  28.56900 50.42700 27.80500
C  28.60900 50.79300 22.91100
C  24.21800 52.53700 23.06800
N  26.25100 51.41800 27.59500
C  25.09400 51.54800 28.38000
C  25.51400 51.38200 29.84600
C  27.03700 50.97500 29.80700
C  27.34900 50.95800 28.32300
C  27.99300 51.84100 30.73000
C  24.55600 50.45100 30.63400
C  24.12500 50.93400 32.04000
H  24.02200 49.99500 33.23000
N  28.21400 50.54100 25.33400
C  28.96500 50.27100 26.41100
C  30.25500 49.89500 26.01300
C  30.32300 49.87200 24.57800
C  29.00100 50.37200 24.17100
C  31.38800 49.59900 27.03200
C  31.52400 49.76900 23.68300
O  31.41000 49.85600 22.49800
C  32.84600 49.46200 24.43100
N  26.47500 51.83500 23.39000
C  27.43600 51.44900 22.54000
C  27.18600 51.73700 21.02700
C  25.72600 52.21100 21.08500
C  25.45200 52.19100 22.63000
C  28.16100 52.78400 20.41700
C  24.73500 51.14500 20.51300
C  23.81700 51.71300 19.45500
N  24.42800 52.05100 25.36100
C  23.67100 52.44700 24.36600
C  22.29000 52.75200 24.78000
C  22.40500 52.64700 26.17200
C  23.68600 52.22600 26.50900
C  21.20200 53.17600 23.89400
C  21.68200 52.87300 27.38700
O  20.53200 53.28200 27.55100
C  22.65600 52.53400 28.59300
C  22.94300 53.68500 29.51800
O  23.65000 54.63000 29.30300
O  22.31400 53.38300 30.74600
C  22.45000 54.46500 31.77700
H  29.15800 49.95900 28.59600
H  29.29200 50.62900 22.07400
H  23.61900 52.91300 22.23700
H  25.54700 52.36500 30.31600
H  27.10700 49.92400 30.08500
H  28.51200 52.66700 30.24300
H  28.69500 51.23700 31.30600
H  27.41100 52.21000 31.57500
H  25.06500 49.48800 30.67600
H  23.64400 50.25200 30.07100
H  23.11500 51.31100 31.88000
H  24.80800 51.76100 32.23500
H  32.30100 50.19500 27.02200
H  31.75900 48.57400 27.00600
H  31.08000 49.72100 28.07100
H  33.28500 50.31600 24.94700
H  33.40900 49.31100 23.51000
H  32.75100 48.49700 24.92900
H  27.39800 50.89200 20.37200
H  25.63800 53.14700 20.53300
H  28.52100 52.53400 19.41900
H  29.02100 52.85800 21.08300
H  27.66800 53.75600 20.42600
H  24.11300 50.60000 21.22200
H  25.42400 50.45000 20.03300
H  23.74900 50.94900 18.68100
H  24.15200 52.64900 19.00900
H  22.82300 51.87100 19.87300
H  21.64500 53.90700 23.22000
H  20.32400 53.50800 24.44800
H  20.86400 52.31800 23.31300
H  22.13800 51.78900 29.19700
H  22.75500 53.88500 32.64800
H  21.49100 54.96200 31.92200
H  23.32400 55.10500 31.65900
Mg 9.70500 47.24000 27.68400
C  8.05400 46.77600 30.73100
C  12.71800 47.57500 29.48700
C  11.12200 48.32500 24.88800
C  6.52600 47.79400 26.19200
N  10.27700 46.97000 29.76300
C  9.43500 46.80500 30.86700
C  10.25600 46.88800 32.20100
C  11.63300 47.37300 31.68300
C  11.52800 47.38700 30.22400
C  12.19700 48.76000 32.21800
C  10.29000 45.62100 33.16900
C  9.98900 45.89700 34.65200
H  10.64600 44.86100 35.64200
N  11.67100 47.68800 27.19200
C  12.72500 47.71400 28.02300
C  13.92100 47.96600 27.22600
C  13.49900 48.20000 25.85300
C  12.07000 48.09400 25.90700
C  15.24800 48.13700 27.83300
C  14.25600 48.54300 24.59900
O  13.66200 48.57500 23.50400
C  15.75800 48.52900 24.64400
N  8.88700 47.77000 25.75500
C  9.73300 48.20900 24.75500
C  8.94500 48.60000 23.46800
C  7.51000 48.31500 23.90400
C  7.61500 47.87500 25.31100
C  9.22300 49.99600 22.86800
C  6.61300 47.44900 23.00300
C  6.75800 47.51600 21.42800
N  7.74600 47.22900 28.29700
C  6.58900 47.52300 27.60700
C  5.44700 47.42400 28.50300
C  5.97900 47.12400 29.77000
C  7.35700 47.02600 29.55200
C  3.97100 47.52500 28.18300
C  5.68100 46.95600 31.13400
O  4.60500 47.00300 31.72100
C  7.02500 46.70400 31.81600
C  6.84300 45.28500 32.37000
O  6.70500 44.30100 31.66900
O  6.81700 45.19100 33.73000
C  6.86400 43.84400 34.26200
H  13.66100 47.66700 30.03000
H  11.48800 48.58600 23.89300
H  5.57600 48.07700 25.73400
H  9.90700 47.69900 32.84000
H  12.35100 46.56700 31.83600
H  12.31500 49.38700 31.33400
H  13.17400 48.68600 32.69600
H  11.44000 49.25400 32.82700
H  11.14100 44.93900 33.15100
H  9.50700 44.92300 32.87300
H  8.93700 46.09900 34.85300
H  10.42800 46.88900 34.76100
H  16.01400 47.55500 27.31900
H  15.26200 47.83900 28.88200
H  15.51600 49.19300 27.82400
H  15.98000 47.52700 25.01000
H  16.19900 49.25300 25.32800
H  16.13500 48.74300 23.64300
H  9.28600 47.78600 22.82800
H  6.95100 49.24600 24.00000
H  9.92400 50.59500 23.45000
H  8.26300 50.51200 22.91500
H  9.67700 50.00600 21.87800
H  5.58500 47.78000 23.15100
H  6.65500 46.41600 23.34700
H  7.49000 48.23900 21.06600
H  5.74700 47.77000 21.10900
H  7.13200 46.59200 20.98500
H  3.53600 46.53300 28.30600
H  3.75800 47.89100 27.17800
H  3.42700 48.08400 28.94400
H  7.07300 47.38900 32.66300
H  6.26400 43.19400 33.62600
H  6.60700 43.69500 35.31100
H  7.89300 43.52000 34.10700

