158

Mg 40.48300 9.72000 30.55900
C  42.07700 11.18800 33.20600
C  37.91000 8.76000 32.77900
C  38.87100 8.39500 27.96100
C  43.34100 10.03600 28.54600
N  39.91200 10.13700 32.72500
C  40.74000 10.70500 33.59900
C  40.18300 10.65000 35.11000
C  38.95300 9.72700 34.96800
C  38.87300 9.53400 33.39100
C  39.04400 8.42100 35.88600
C  39.87500 12.10100 35.69300
C  40.69900 12.57100 36.99100
H  39.87200 13.08400 38.15700
N  38.61100 8.64500 30.35600
C  37.72600 8.38200 31.42800
C  36.56600 7.69300 30.81700
C  36.83700 7.43900 29.44400
C  38.15000 8.14100 29.15000
C  35.42600 7.24400 31.75800
C  35.98900 6.75100 28.30900
O  36.15300 6.84700 27.12700
C  34.83600 5.93200 28.79900
N  41.06200 9.35600 28.54000
C  40.13200 8.91300 27.65500
C  40.73700 8.82200 26.21300
C  42.25300 9.01500 26.48800
C  42.23200 9.52300 27.87500
C  40.41300 7.56500 25.29600
C  42.96400 9.83000 25.38900
C  42.87400 11.33700 25.59600
N  42.32700 10.45800 30.78300
C  43.39000 10.50700 29.85100
C  44.37300 11.28300 30.49500
C  43.92500 11.58600 31.78700
C  42.66500 11.03500 31.94200
C  45.71300 11.67600 29.84300
C  44.30700 12.21000 33.10200
O  45.39300 12.74700 33.36200
C  43.11600 11.88700 34.08400
C  43.80100 11.09700 35.15800
O  44.35500 9.99500 35.09100
O  43.94400 11.89600 36.31700
C  44.32500 11.15900 37.51400
H  37.24300 8.31900 33.52300
H  38.27600 8.00500 27.13200
H  44.13400 10.20700 27.81500
H  40.84200 10.14000 35.81300
H  38.05300 10.18400 35.38000
H  39.75700 7.72300 35.44700
H  38.11500 7.85300 35.84200
H  39.24000 8.57300 36.94700
H  38.84400 12.16500 36.04100
H  39.97800 12.81800 34.87800
H  41.35700 13.37500 36.66000
H  41.27400 11.68400 37.25500
H  35.16200 8.05500 32.43600
H  35.72400 6.41700 32.40300
H  34.53000 7.03300 31.17400
H  35.31900 5.21900 29.46800
H  34.43500 5.46100 27.90200
H  34.07400 6.62200 29.16100
H  40.25200 9.59800 25.62000
H  42.76400 8.05900 26.60000
H  39.92300 7.70300 24.33300
H  39.93500 6.82400 25.93700
H  41.38800 7.23700 24.93400
H  42.54600 9.55700 24.41900
H  44.02000 9.58200 25.28600
H  42.05300 11.69800 26.21600
H  42.74300 11.77700 24.60700
H  43.84000 11.68300 25.96200
H  45.51600 12.25000 28.93800
H  46.38700 10.84600 29.63300
H  46.14900 12.39900 30.53300
H  42.73500 12.79500 34.55000
H  43.95600 11.81500 38.30300
H  45.39400 10.97100 37.61300
H  43.77400 10.22000 37.55600
Mg 29.88200 58.02900 40.98300
C  27.00600 56.28300 40.08300
C  31.72400 55.68700 39.42500
C  32.49600 60.22300 41.21700
C  27.70300 60.74200 41.94300
N  29.34200 56.26800 39.85100
C  28.17300 55.63800 39.65500
C  28.25400 54.37600 38.69400
C  29.79600 54.08000 38.90400
C  30.33800 55.44100 39.36200
C  30.17900 52.88600 39.75900
C  27.84100 54.77300 37.24000
C  26.95100 53.67400 36.69200
H  26.96900 53.49300 35.12300
N  31.92200 57.86600 40.64300
C  32.44100 56.83200 39.92400
C  33.79500 57.13100 39.69200
C  34.04200 58.40200 40.18600
C  32.76800 58.90700 40.73300
C  34.75800 56.27800 38.88100
C  35.46300 58.98600 40.15200
O  36.41300 58.37300 39.69400
C  35.90800 60.19100 40.92600
N  30.11700 60.16900 41.53300
C  31.28600 60.80900 41.53200
C  31.12500 62.31400 42.02300
C  29.65700 62.38100 42.50400
C  29.12300 61.05700 41.97500
C  32.19500 62.69500 43.03300
C  28.95500 63.70300 42.09800
C  27.89300 64.17100 43.13000
N  27.84400 58.46700 41.14900
C  27.11200 59.54900 41.64200
C  25.69300 59.25400 41.57200
C  25.64000 57.99400 40.97500
C  26.95500 57.54500 40.75600
C  24.51800 60.11500 42.02700
C  24.70500 57.11400 40.39400
O  23.53800 57.29800 40.16800
C  25.51900 55.80400 39.96600
C  25.11700 54.64700 40.78800
O  25.71300 54.22300 41.73700
O  23.97100 54.12600 40.23800
C  23.57500 52.82000 40.63100
H  32.26500 54.82700 39.02600
H  33.41800 60.80300 41.29600
H  27.15300 61.62800 42.26500
H  27.50400 53.63300 38.96500
H  30.21500 54.01400 37.90000
H  29.33000 52.21700 39.61400
H  30.48300 53.10600 40.78300
H  31.00000 52.34000 39.29400
H  28.71200 54.87200 36.59100
H  27.30900 55.72400 37.26000
H  25.94400 53.66800 37.10800
H  27.42400 52.77600 37.09000
H  34.24500 55.51800 38.29100
H  35.46400 55.70600 39.48300
H  35.19800 56.96600 38.16000
H  35.48000 60.22600 41.92800
H  35.68900 61.11300 40.38700
H  36.93500 60.06500 41.27100
H  31.14400 62.91900 41.11600
H  29.64000 62.23500 43.58400
H  31.97300 63.53700 43.68800
H  33.22100 62.86800 42.70700
H  32.38500 61.84000 43.68100
H  28.51100 63.72100 41.10300
H  29.74700 64.44500 42.20000
H  28.32400 64.96200 43.74400
H  27.60800 63.29900 43.71900
H  27.05300 64.61500 42.59600
H  24.64500 61.17800 41.82400
H  24.32400 60.19500 43.09600
H  23.61800 59.70400 41.56900
H  25.30200 55.48300 38.94700
H  24.48700 52.23100 40.73700
H  22.83100 52.32400 40.00800
H  23.19000 52.84000 41.65000

