158

Mg 50.02600 45.86000 41.94600
C  47.02300 47.54800 40.87200
C  48.88800 43.10000 40.26900
C  53.18400 44.73800 42.15000
C  51.23700 49.10500 42.69600
N  48.12400 45.38700 40.71300
C  47.02000 46.16200 40.52900
C  45.94900 45.37300 39.66600
C  46.58000 43.93200 39.69300
C  47.93100 44.09500 40.33000
C  45.66500 42.90800 40.39200
C  45.65500 45.85900 38.24400
C  44.19100 45.73800 37.81600
H  43.84400 45.43600 36.29800
N  50.87300 44.14800 41.43300
C  50.26800 43.10700 40.67100
C  51.16900 41.97600 40.55000
C  52.40800 42.41400 41.09200
C  52.21000 43.84000 41.65800
C  50.87100 40.60400 39.89700
C  53.69100 41.61800 41.02300
O  53.69800 40.50600 40.53200
C  55.11400 42.20700 41.26500
N  51.94600 46.82800 42.24400
C  53.03200 46.08200 42.46000
C  54.23500 46.88000 43.04200
C  53.57100 48.28600 43.01700
C  52.16600 48.00900 42.72600
C  54.73800 46.24700 44.35200
C  54.15500 49.39800 42.04700
C  55.25300 50.26800 42.59300
N  49.22800 47.84800 42.08000
C  49.88300 49.06000 42.37200
C  48.92600 50.18800 42.30800
C  47.71900 49.61800 41.76800
C  48.04800 48.25300 41.55700
C  49.23200 51.58300 42.55800
C  46.38700 49.92000 41.32200
O  45.77100 50.97700 41.32500
C  45.82900 48.55800 40.65700
C  44.58500 48.11400 41.19500
O  44.51700 47.46200 42.21000
O  43.56800 48.48400 40.33500
C  42.22100 48.13400 40.81900
H  48.46400 42.16400 39.89900
H  54.23500 44.44500 42.17800
H  51.54600 50.08600 43.06400
H  45.02600 45.40400 40.24400
H  46.64400 43.51100 38.69000
H  45.96800 42.66700 41.41100
H  45.72400 41.88900 40.00700
H  44.66100 43.33200 40.38400
H  46.26900 45.40100 37.46900
H  45.94300 46.91000 38.27900
H  43.65700 46.63400 38.13400
H  43.80300 44.85600 38.32400
H  51.39400 40.58700 38.94100
H  49.84800 40.51900 39.52900
H  51.28200 39.80100 40.51000
H  55.08900 42.40900 42.33600
H  55.24000 43.14900 40.73100
H  55.88200 41.48400 40.98900
H  54.97100 46.60100 42.28700
H  53.54400 48.77300 43.99200
H  54.65800 46.95600 45.17500
H  55.76200 45.89800 44.21700
H  54.22100 45.29300 44.46100
H  53.45600 50.12500 41.63300
H  54.43800 48.89900 41.12000
H  55.01300 51.32500 42.70800
H  56.20500 50.29100 42.06200
H  55.46400 49.97800 43.62200
H  49.92200 51.92800 41.78700
H  49.74000 51.72700 43.51100
H  48.31500 52.15200 42.70300
H  45.68400 48.63000 39.57900
H  42.04500 47.06000 40.75300
H  41.42500 48.72100 40.36100
H  42.15600 48.50400 41.84200
Mg 28.55700 58.42600 42.33400
C  25.85700 56.75100 40.84400
C  30.65000 56.64500 40.19100
C  31.06400 60.72900 42.69800
C  26.34600 60.47200 43.88100
N  28.23700 57.01700 40.62700
C  27.04800 56.38500 40.24800
C  27.27900 55.31800 39.18200
C  28.79700 55.06900 39.29800
C  29.31200 56.35600 40.03000
C  29.29800 53.72700 40.07200
C  26.90000 55.73500 37.74700
C  26.04700 54.72100 37.09000
H  26.43800 54.31100 35.62500
N  30.71700 58.48000 41.87600
C  31.33700 57.63200 40.97900
C  32.74900 57.89300 40.94500
C  32.85900 59.11400 41.67900
C  31.49700 59.51000 42.09100
C  33.76100 57.04200 40.20000
C  34.17900 59.83500 41.90600
O  35.24900 59.48700 41.32600
C  34.19900 60.98700 42.86400
N  28.66400 60.33100 43.18400
C  29.77000 61.07600 43.22100
C  29.52200 62.39000 44.04700
C  28.07600 62.12600 44.68900
C  27.63100 60.96000 43.82200
C  30.64000 62.81400 45.02300
C  27.11900 63.30100 44.50400
C  26.20300 63.64200 45.70500
N  26.44800 58.49200 42.48400
C  25.68500 59.46700 43.06500
C  24.28900 59.17500 42.91500
C  24.29000 57.99000 42.15000
C  25.64800 57.71800 41.83100
C  23.06800 59.89100 43.46900
C  23.48900 56.93300 41.56900
O  22.28000 56.63000 41.67300
C  24.48300 56.14600 40.58700
C  24.44500 54.67100 40.89900
O  24.89400 54.19800 41.97000
O  23.88800 53.99400 39.88100
C  23.74000 52.52600 40.27300
H  31.27200 55.91400 39.67000
H  31.75700 61.57000 42.77800
H  25.64500 61.07700 44.46000
H  26.75400 54.41200 39.48400
H  29.35700 55.14900 38.36600
H  30.04000 53.99500 40.82400
H  29.80400 53.17800 39.27800
H  28.53000 53.14500 40.58100
H  27.75000 55.93200 37.09400
H  26.29700 56.63500 37.87600
H  25.03400 55.12100 37.05700
H  26.07100 53.79400 37.66400
H  34.57200 56.68000 40.83100
H  34.20100 57.62300 39.39000
H  33.26300 56.15400 39.81000
H  33.79300 61.88300 42.39500
H  35.22900 61.12000 43.19600
H  33.57300 60.69200 43.70600
H  29.39500 63.22300 43.35500
H  28.19400 61.98900 45.76400
H  30.18400 62.83000 46.01200
H  30.93800 63.81000 44.69400
H  31.38500 62.02200 44.95200
H  26.46000 63.25100 43.63700
H  27.75300 64.18000 44.38800
H  26.81000 64.28800 46.34000
H  25.79800 62.86000 46.34800
H  25.25000 64.01900 45.33300
H  22.72900 59.38400 44.37200
H  22.31000 59.88300 42.68600
H  23.27400 60.91700 43.77300
H  24.23500 56.16900 39.52600
H  24.66900 51.99700 40.05600
H  23.01800 52.04800 39.61000
H  23.35900 52.42200 41.28900

