158

Mg 15.76400 -2.11500 27.64300
C  14.60600 0.13700 30.19400
C  17.78500 -3.42100 30.04000
C  17.08700 -3.93800 25.19400
C  13.81500 -0.25900 25.39000
N  16.33800 -1.50200 29.79100
C  15.60800 -0.74200 30.64000
C  16.10900 -0.85400 32.04900
C  17.22700 -1.90000 31.96900
C  17.19200 -2.24900 30.49600
C  18.62800 -1.55000 32.53400
C  15.08200 -1.26500 33.16900
C  15.15100 -0.64700 34.56000
H  16.43200 0.09900 34.99700
N  17.11800 -3.56600 27.65400
C  17.73900 -4.06200 28.78200
C  18.50400 -5.19300 28.41200
C  18.27100 -5.39400 27.00700
C  17.41200 -4.29200 26.56000
C  19.33200 -5.89800 29.43600
C  18.98500 -6.36300 26.01700
O  18.84000 -6.29000 24.79300
C  19.93500 -7.49100 26.47200
N  15.68500 -1.95900 25.52600
C  16.32500 -2.81800 24.72600
C  16.11800 -2.53200 23.30000
C  14.86400 -1.54100 23.36700
C  14.70100 -1.23900 24.83200
C  17.27500 -2.11500 22.39300
C  13.51900 -2.07500 22.76600
C  13.02600 -1.32100 21.44200
N  14.50000 -0.42500 27.70700
C  13.71900 0.11600 26.72600
C  12.90300 1.24300 27.31300
C  13.22300 1.21800 28.63400
C  14.13900 0.20400 28.85900
C  11.96500 2.08600 26.54700
C  13.04100 1.91500 29.88800
O  12.36500 2.85400 30.21500
C  13.84200 1.17100 31.01400
C  14.83900 2.07300 31.76300
O  15.98600 2.37400 31.44900
O  14.17800 2.65200 32.85700
C  14.96300 3.60800 33.66100
H  18.09500 -3.95800 30.93900
H  17.40400 -4.58400 24.37300
H  13.10700 0.21900 24.70900
H  16.58300 0.12000 32.17200
H  16.89100 -2.81600 32.45500
H  18.87100 -2.14300 33.41500
H  18.69600 -0.48100 32.73900
H  19.42800 -1.79200 31.83400
H  15.05500 -2.34800 33.29100
H  14.09600 -0.93800 32.83900
H  14.93100 -1.45200 35.26200
H  14.34000 0.08000 34.50900
H  18.74200 -6.18100 30.30700
H  20.05600 -5.19000 29.83900
H  19.82800 -6.82500 29.14300
H  20.31700 -7.89400 25.53500
H  19.65600 -8.29100 27.15800
H  20.80400 -7.04600 26.95800
H  15.73400 -3.43600 22.82700
H  15.11900 -0.58800 22.90300
H  17.14900 -1.06100 22.14700
H  17.50300 -2.79400 21.57100
H  18.02800 -2.23400 23.17200
H  12.74900 -1.96100 23.52800
H  13.65800 -3.14800 22.63300
H  12.59600 -2.04900 20.75400
H  13.84700 -0.73000 21.03700
H  12.26900 -0.57200 21.67500
H  11.01600 1.91900 27.05800
H  11.81200 1.61900 25.57400
H  12.19000 3.14100 26.39200
H  13.05400 0.89100 31.71300
H  15.89600 4.04800 33.30800
H  15.12500 3.20200 34.66000
H  14.42200 4.53700 33.84100
Mg -12.07400 37.67800 41.71300
C  -9.71300 35.24900 40.93100
C  -10.12700 40.08000 40.19600
C  -14.83900 39.76400 41.76200
C  -14.13400 35.11700 43.10200
N  -10.26800 37.59900 40.49400
C  -9.38900 36.52000 40.36400
C  -8.06300 36.95100 39.70500
C  -8.19400 38.52500 39.61300
C  -9.62100 38.71500 40.08300
C  -7.13700 39.16000 40.72500
C  -7.90800 36.36900 38.25400
C  -6.50200 35.82300 37.94100
H  -5.77100 36.39100 36.73800
N  -12.44400 39.66300 41.03600
C  -11.46300 40.51000 40.46500
C  -12.07700 41.78600 40.24600
C  -13.41800 41.77900 40.79100
C  -13.63700 40.39600 41.22100
C  -11.19900 42.88400 39.64400
C  -14.37900 42.92900 40.85900
O  -13.99400 44.05700 40.42400
C  -15.81300 42.85500 41.17600
N  -14.23900 37.39700 42.20000
C  -15.08900 38.45100 42.19500
C  -16.41800 38.01000 42.69300
C  -16.24400 36.48700 43.11900
C  -14.77700 36.30900 42.77600
C  -16.89800 38.89100 43.86700
C  -17.15400 35.51800 42.29700
C  -17.96400 34.61000 43.21400
N  -11.92100 35.63600 42.04100
C  -12.80700 34.76200 42.70100
C  -12.16800 33.49200 42.77000
C  -10.95800 33.56600 42.08700
C  -10.85600 34.92200 41.69400
C  -12.81500 32.34500 43.42200
C  -9.77100 32.86800 41.59600
O  -9.38400 31.72400 41.74000
C  -8.97100 33.93100 40.78800
C  -7.52900 34.05000 41.25100
O  -6.56900 33.88300 40.52700
O  -7.46400 34.37900 42.54800
C  -6.19900 34.74200 43.17300
H  -9.47900 40.93700 40.00500
H  -15.71000 40.41800 41.83600
H  -14.78500 34.38300 43.58200
H  -7.16000 36.70700 40.26400
H  -8.12500 38.86700 38.58000
H  -7.57200 40.12100 41.00000
H  -6.20600 39.26100 40.16700
H  -6.97100 38.52800 41.59800
H  -8.30800 36.89600 37.38700
H  -8.47300 35.43800 38.21300
H  -6.68100 34.75900 37.79000
H  -5.81000 35.77000 38.78100
H  -11.79500 43.62100 39.10700
H  -10.38900 42.46300 39.04900
H  -10.58000 43.40300 40.37700
H  -16.28500 43.79000 40.87300
H  -15.83400 42.61200 42.23800
H  -16.33400 42.06800 40.63000
H  -17.11500 38.14500 41.86600
H  -16.33500 36.31200 44.19100
H  -17.38600 39.76000 43.42500
H  -15.98200 39.26600 44.32500
H  -17.60200 38.36900 44.51500
H  -16.56600 34.91500 41.60600
H  -17.80300 36.09000 41.63300
H  -17.27700 33.98100 43.77900
H  -18.56100 33.96100 42.57300
H  -18.61800 35.26300 43.79100
H  -12.10400 31.53800 43.59800
H  -13.60100 31.91500 42.80100
H  -13.28300 32.59800 44.37300
H  -8.85300 33.71200 39.72700
H  -5.51100 35.30300 42.54000
H  -5.76800 33.78900 43.48000
H  -6.47500 35.35500 44.03100

