158

Mg 48.29500 14.32700 28.53700
C  46.20300 14.44800 31.20300
C  50.58400 16.29700 30.36800
C  50.23000 14.49700 25.93500
C  45.74400 12.85200 26.63000
N  48.23600 15.41000 30.51900
C  47.34100 15.14600 31.52100
C  47.73400 15.90800 32.79900
C  49.02000 16.65800 32.39300
C  49.36400 16.08700 31.01800
C  49.03000 18.27300 32.57500
C  47.95400 14.95200 34.02400
C  47.07100 15.20500 35.25200
H  47.71300 15.51500 36.62900
N  50.22000 15.19100 28.19200
C  50.99000 15.97600 29.06300
C  52.19100 16.43500 28.31400
C  52.08800 15.89700 27.04400
C  50.81900 15.11600 27.01200
C  53.23300 17.22600 28.99200
C  52.94000 16.08100 25.86800
O  52.73700 15.56300 24.79700
C  54.19800 16.86700 25.96400
N  47.94000 13.97900 26.42000
C  48.92800 14.09800 25.53700
C  48.59000 13.40800 24.18400
C  47.16000 12.76000 24.52900
C  46.93900 13.19700 25.93900
C  48.51300 14.42400 23.02800
C  47.10300 11.20900 24.18700
C  48.02400 10.33300 25.07500
N  46.41400 13.72900 28.79200
C  45.50700 13.01600 27.97800
C  44.37700 12.57900 28.78400
C  44.62500 13.08000 30.08000
C  45.88300 13.75500 30.01500
C  43.20100 11.84200 28.29300
C  44.10100 13.20800 31.38500
O  43.07600 12.82800 31.87400
C  45.11600 14.02500 32.22500
C  44.30100 15.18500 32.83600
O  43.78400 16.12500 32.24400
O  44.14800 14.98700 34.17700
C  43.34500 15.81500 35.04700
H  51.31000 16.87400 30.94500
H  50.75100 14.47900 24.97500
H  45.05600 12.23300 26.05100
H  47.05000 16.69400 33.11900
H  49.90300 16.23700 32.87300
H  50.04300 18.67700 32.56000
H  48.61300 18.34900 33.57900
H  48.44000 18.82900 31.84600
H  48.96600 15.01600 34.42500
H  47.87900 13.93200 33.64800
H  46.52200 14.28900 35.46900
H  46.35800 15.99100 35.00200
H  54.16700 16.66300 29.01500
H  53.13100 17.41600 30.06000
H  53.47900 18.15100 28.47100
H  55.02200 16.24200 26.30900
H  54.09000 17.86200 26.39600
H  54.41700 17.05800 24.91400
H  49.36000 12.65100 24.03300
H  46.44800 13.35200 23.95500
H  49.17200 15.28500 23.13900
H  47.47400 14.64300 22.78400
H  48.88800 13.87900 22.16100
H  47.56000 10.96900 23.22800
H  46.06500 10.88000 24.22200
H  48.34900 10.71400 26.04400
H  48.95200 10.10200 24.55300
H  47.59000 9.36500 25.32300
H  42.85700 12.53200 27.52300
H  42.49700 11.70800 29.11500
H  43.39500 10.90300 27.77500
H  45.39800 13.35600 33.03800
H  43.01600 16.63400 34.40700
H  44.01500 16.18300 35.82400
H  42.43700 15.33800 35.41500
Mg -0.96900 44.01500 26.54800
C  1.34000 43.65700 29.18000
C  -3.34200 42.71000 28.56500
C  -3.12200 43.88800 23.92600
C  1.74200 44.73300 24.30400
N  -1.02600 43.47600 28.69200
C  0.02800 43.46700 29.60800
C  -0.47100 43.12700 30.98400
C  -1.91700 42.56900 30.71700
C  -2.10900 42.91400 29.21900
C  -2.05800 41.08400 31.02600
C  -0.53300 44.43200 31.89500
C  -0.86800 44.44800 33.38100
H  -0.83800 43.14100 34.09700
N  -2.95900 43.54500 26.30200
C  -3.80400 43.05500 27.29200
C  -5.08600 42.94100 26.76100
C  -5.13600 43.23700 25.38600
C  -3.70600 43.60900 25.18200
C  -6.31300 42.53600 27.65200
C  -6.21000 43.02200 24.32800
O  -5.97400 43.25100 23.14900
C  -7.58400 42.71500 24.81500
N  -0.67200 44.29400 24.45500
C  -1.80500 44.23200 23.60200
C  -1.34800 44.45200 22.14500
C  0.21200 44.90000 22.27200
C  0.47000 44.65400 23.74500
C  -1.54900 43.25200 21.13300
C  0.52300 46.36800 21.85100
C  1.81600 46.64600 21.09000
N  1.16700 44.13400 26.62100
C  2.08100 44.46200 25.68100
C  3.30500 44.53700 26.39500
C  3.09300 44.19900 27.69200
C  1.73400 44.01800 27.80100
C  4.59900 45.03000 25.72000
C  3.77300 44.18900 29.02200
O  4.93500 44.30500 29.40300
C  2.65000 43.82300 30.03400
C  2.92500 42.45500 30.59700
O  2.32300 41.43400 30.23800
O  3.96000 42.47500 31.47700
C  4.03400 41.28200 32.36500
H  -4.03500 42.14700 29.19500
H  -3.68600 43.86800 22.99100
H  2.63400 45.01200 23.74000
H  0.11400 42.38200 31.52200
H  -2.54600 43.12800 31.41000
H  -2.99900 40.93500 31.55700
H  -1.22400 40.85900 31.69000
H  -2.02700 40.61200 30.04400
H  -0.94400 45.30000 31.37900
H  0.52600 44.68200 31.84700
H  -1.81000 44.98800 33.48100
H  -0.14100 45.12600 33.82500
H  -7.15300 43.18900 27.42000
H  -6.14200 42.74900 28.70700
H  -6.62900 41.49500 27.58000
H  -7.52200 41.68300 25.16200
H  -8.20100 42.91000 23.93800
H  -7.90200 43.40900 25.59300
H  -1.82900 45.26200 21.59600
H  0.92300 44.24000 21.77400
H  -1.62900 42.27100 21.60100
H  -0.78000 43.29200 20.36200
H  -2.47500 43.42500 20.58500
H  0.53600 46.91800 22.79200
H  -0.24700 46.76600 21.19000
H  2.66300 46.28500 21.67400
H  1.81800 47.72600 20.94300
H  1.77800 46.14000 20.12600
H  4.96200 45.84600 26.34500
H  4.33800 45.31600 24.70100
H  5.45600 44.35900 25.67600
H  2.57000 44.48700 30.89400
H  3.02100 40.88700 32.44900
H  4.44500 41.52800 33.34400
H  4.76200 40.60300 31.92200

