158

Mg 16.50300 51.97300 24.33600
C  18.37200 50.78900 27.35600
C  14.01100 52.82900 26.72000
C  14.74000 52.74000 21.85100
C  19.00900 50.58300 22.47700
N  16.20500 51.57600 26.83800
C  17.15000 51.35600 27.76400
C  16.64600 51.55200 29.17500
C  15.16900 52.09900 28.91800
C  15.12900 52.18300 27.39100
C  14.08700 51.08500 29.44200
C  17.53500 52.52200 29.94700
C  17.82300 52.26700 31.41400
H  16.91200 51.35300 32.25700
N  14.69200 52.77500 24.23800
C  13.73200 53.02600 25.29600
C  12.57400 53.61800 24.74700
C  12.73100 53.53400 23.30700
C  14.09700 52.98000 23.10500
C  11.46800 54.21400 25.58600
C  11.77600 54.01600 22.20800
O  11.97900 53.90900 20.99400
C  10.42200 54.57100 22.64900
N  16.67300 51.47100 22.41200
C  15.92200 52.02900 21.51300
C  16.36300 51.74700 20.01700
C  17.79600 51.17600 20.26700
C  17.90000 51.21300 21.79700
C  15.32600 50.84800 19.25500
C  18.95900 51.94100 19.57300
C  19.04100 51.81900 18.09100
N  18.35300 50.95900 24.79600
C  19.18400 50.40200 23.83400
C  20.41900 49.96400 24.50600
C  20.08200 50.01700 25.88100
C  18.79900 50.59400 25.99100
C  21.69700 49.45200 23.94100
C  20.58000 49.70100 27.21400
O  21.62400 49.25100 27.58200
C  19.44200 50.12700 28.21000
C  18.97700 48.96100 29.02300
O  18.21600 48.09200 28.69300
O  19.71400 48.99600 30.23800
C  19.33000 47.94200 31.15700
H  13.28600 53.16300 27.46500
H  14.18800 53.06800 20.96800
H  19.72000 50.13100 21.78300
H  16.67000 50.58100 29.67000
H  15.01800 53.10900 29.29900
H  13.54400 50.58400 28.64100
H  13.40400 51.67000 30.05800
H  14.51300 50.30500 30.07300
H  17.15200 53.54200 29.90500
H  18.49900 52.59000 29.44400
H  18.04300 53.23600 31.86200
H  18.77700 51.74500 31.48000
H  11.57100 53.99400 26.64900
H  10.46200 53.96600 25.24800
H  11.63400 55.27600 25.40700
H  10.59200 55.35200 23.39000
H  9.83300 53.75000 23.05600
H  10.10400 54.98100 21.69100
H  16.37400 52.67500 19.44500
H  17.75100 50.11300 20.03000
H  15.01700 51.24200 18.28700
H  14.41600 50.82000 19.85400
H  15.80300 49.88100 19.10100
H  19.82700 51.47000 20.03300
H  19.07500 52.97200 19.90700
H  18.00100 51.65100 17.80800
H  19.67400 50.97100 17.83000
H  19.43800 52.72700 17.63800
H  21.47100 49.26200 22.89100
H  21.91200 48.46500 24.35000
H  22.57200 50.09500 24.03700
H  19.74000 50.94400 28.86700
H  19.94800 48.03700 32.05000
H  19.55700 46.93800 30.79800
H  18.33900 48.13900 31.56600
Mg -1.76400 34.81600 26.86700
C  -3.04100 32.84500 29.53200
C  -0.23400 36.76500 29.07100
C  -0.97500 36.73600 24.23500
C  -3.40600 32.53800 24.59500
N  -1.81500 34.86700 29.11400
C  -2.19200 33.82600 29.99300
C  -1.72100 34.09600 31.41500
C  -0.76600 35.41200 31.19100
C  -0.97200 35.77200 29.69000
C  -1.02500 36.55600 32.18700
C  -0.98400 32.91800 32.04400
C  -1.67200 32.27800 33.25200
H  -0.82200 32.29700 34.53200
N  -0.72700 36.56500 26.69000
C  -0.13700 37.18600 27.73700
C  0.59200 38.22900 27.19900
C  0.44600 38.23400 25.76900
C  -0.46700 37.12700 25.48400
C  1.38700 39.18900 28.07900
C  1.02600 39.22200 24.72000
O  0.72900 39.25600 23.51700
C  2.02900 40.18500 25.14200
N  -2.53100 34.90300 24.68900
C  -1.80300 35.69100 23.87100
C  -1.84600 35.24300 22.40200
C  -2.35300 33.73800 22.62100
C  -2.85300 33.70300 24.02400
C  -2.85300 36.10100 21.55300
C  -1.21100 32.64000 22.35600
C  -1.74600 31.28300 21.92100
N  -3.03900 33.09100 26.95100
C  -3.55000 32.28000 25.97800
C  -4.12700 31.18000 26.64200
C  -4.08400 31.38000 28.04300
C  -3.32100 32.56000 28.16400
C  -4.88300 30.08800 25.98200
C  -4.50500 30.91700 29.31000
O  -5.27200 29.98000 29.59700
C  -3.79200 31.80800 30.33900
C  -4.93800 32.38100 31.10500
O  -5.60000 33.35600 30.81700
O  -5.13400 31.70600 32.33800
C  -5.99600 32.24700 33.36500
H  0.39500 37.28700 29.79400
H  -0.44400 37.19500 23.39800
H  -3.65700 31.76200 23.86900
H  -2.61600 34.33900 31.98800
H  0.26000 35.05800 31.29400
H  -1.55500 37.42400 31.79500
H  -0.00900 36.89500 32.38400
H  -1.45600 36.15600 33.10500
H  -0.00200 33.24400 32.38600
H  -0.85100 32.13900 31.29400
H  -1.85500 31.22500 33.04000
H  -2.68000 32.61100 33.50000
H  2.31700 39.50800 27.60800
H  1.67400 38.65700 28.98600
H  0.69000 40.02300 28.15400
H  1.65500 40.86300 25.90800
H  2.29800 40.65200 24.19400
H  2.90300 39.69700 25.57500
H  -0.81600 35.35500 22.06400
H  -3.10900 33.40600 21.91000
H  -3.15800 36.91600 22.20900
H  -3.74500 35.57000 21.22000
H  -2.48600 36.55000 20.63000
H  -0.64800 32.39100 23.25600
H  -0.55800 33.16500 21.66000
H  -1.29500 30.50000 22.53000
H  -1.44900 31.14900 20.88100
H  -2.83600 31.29100 21.94600
H  -5.07400 29.25900 26.66300
H  -4.37500 29.55400 25.17900
H  -5.83100 30.41300 25.55400
H  -3.16600 31.18900 30.98200
H  -6.73300 32.98500 33.04700
H  -5.39000 32.63200 34.18500
H  -6.45500 31.34200 33.76200

