158

Mg 40.98200 9.99400 29.51600
C  42.70700 11.13300 32.45100
C  38.96100 8.09800 31.61100
C  39.43500 8.77600 26.79900
C  43.60800 11.14800 27.68800
N  40.80700 9.78500 31.84700
C  41.59600 10.36000 32.83200
C  40.99900 10.06200 34.20300
C  39.99500 8.89200 33.83800
C  39.96100 8.79400 32.31300
C  40.12200 7.59400 34.63400
C  40.45200 11.33200 34.86700
C  39.93900 11.15000 36.36100
H  40.49500 12.09200 37.45100
N  39.30600 8.75200 29.27500
C  38.65800 8.06900 30.26100
C  37.59100 7.28900 29.60800
C  37.63500 7.56100 28.19100
C  38.81300 8.36300 28.02400
C  36.75200 6.27400 30.36300
C  36.79300 7.03600 27.13200
O  36.93100 7.24400 25.95900
C  35.52800 6.28300 27.49500
N  41.38000 10.09900 27.54600
C  40.67700 9.45100 26.58900
C  41.38700 9.45200 25.18900
C  42.65800 10.28400 25.50300
C  42.57400 10.53700 27.02700
C  41.61600 8.11800 24.52000
C  42.79700 11.45500 24.55900
C  42.16900 12.81500 24.89900
N  42.79200 10.99300 29.92500
C  43.67600 11.48100 29.06000
C  44.74700 12.02900 29.77600
C  44.38400 12.00800 31.19200
C  43.18200 11.32700 31.13600
C  46.08500 12.35800 29.15100
C  44.83500 12.32800 32.52600
O  45.76300 12.95300 33.00100
C  43.69100 11.77400 33.42500
C  44.30000 10.88800 34.47200
O  44.97100 9.88600 34.17700
O  44.00400 11.31500 35.73900
C  44.76900 10.62000 36.81000
H  38.43700 7.56600 32.40800
H  39.17900 8.36100 25.82200
H  44.36000 11.57300 27.02000
H  41.91100 9.70100 34.67800
H  39.01400 9.13600 34.24400
H  40.20100 6.79300 33.89800
H  39.21200 7.53400 35.23100
H  40.96300 7.45600 35.31300
H  39.88600 11.97500 34.19400
H  41.28500 11.97500 35.15300
H  40.34900 10.16100 36.56400
H  38.85100 11.11300 36.29600
H  36.75600 5.38400 29.73300
H  35.73400 6.63500 30.51000
H  37.34900 6.14800 31.26700
H  34.78900 6.85400 28.05900
H  35.83000 5.34800 27.96700
H  34.96600 6.02300 26.59800
H  40.74500 10.03400 24.52800
H  43.53200 9.66000 25.31700
H  41.34500 7.32700 25.21900
H  42.65800 7.99300 24.22500
H  40.88800 8.07200 23.71000
H  42.51400 11.18600 23.54100
H  43.85100 11.73000 24.51700
H  41.47100 13.13800 24.12700
H  43.00500 13.51000 24.96900
H  41.64400 12.95100 25.84500
H  46.70200 12.60400 30.01500
H  46.11400 13.20500 28.46500
H  46.26600 11.44800 28.57900
H  43.30400 12.65800 33.93300
H  44.70300 11.20200 37.72900
H  45.81800 10.40700 36.60400
H  44.38900 9.60900 36.95500
Mg 49.88300 46.31600 43.48700
C  46.68500 47.03700 42.15200
C  49.69600 43.27500 42.06300
C  53.08300 45.97300 44.04800
C  50.12800 49.85200 44.19600
N  48.32700 45.32800 42.23800
C  47.10900 45.77000 41.87200
C  46.35100 44.68300 41.04400
C  47.21500 43.42900 41.31200
C  48.46300 44.02500 41.97600
C  46.62500 42.25500 42.16700
C  46.29200 45.13900 39.57000
C  45.09000 44.80100 38.66200
H  45.32400 43.71900 37.59500
N  51.17300 44.80200 43.14200
C  50.95100 43.60300 42.59400
C  52.09100 42.78400 42.57700
C  53.10800 43.55200 43.27000
C  52.44800 44.86100 43.47900
C  52.03600 41.43600 41.93800
C  54.53300 42.99100 43.53200
O  54.84000 41.78600 43.31600
C  55.60300 43.84900 44.18800
N  51.40200 47.72700 43.96600
C  52.69100 47.31400 44.19000
C  53.63400 48.45000 44.51000
C  52.59600 49.58900 44.83800
C  51.26700 49.07300 44.26400
C  54.58100 48.20000 45.69700
C  53.03100 50.94100 44.26800
C  52.81500 52.22100 45.13900
N  48.66300 48.11500 43.31600
C  48.87400 49.41900 43.70700
C  47.75400 50.25300 43.33300
C  46.85400 49.35200 42.81200
C  47.52500 48.04200 42.70800
C  47.55500 51.74600 43.43700
C  45.55400 49.23900 42.28700
O  44.75300 50.15700 42.07000
C  45.49000 47.76000 41.76600
C  44.32000 47.13600 42.48500
O  44.06200 47.24200 43.70500
O  43.70800 46.20700 41.71000
C  42.55100 45.51100 42.25700
H  49.57800 42.28100 41.62800
H  54.13500 45.76400 44.25000
H  50.32000 50.91000 44.38500
H  45.35300 44.44500 41.41400
H  47.39500 43.06800 40.29900
H  46.47200 41.32200 41.62500
H  45.72400 42.62500 42.65700
H  47.35600 41.97600 42.92600
H  47.16800 44.76700 39.03800
H  46.41700 46.22200 39.55000
H  44.79200 45.81400 38.38800
H  44.24400 44.47000 39.26400
H  51.26400 40.81900 42.39800
H  52.88200 40.80800 42.21700
H  51.93200 41.46800 40.85300
H  55.91600 44.70800 43.59400
H  56.47000 43.21500 44.37400
H  55.27800 44.20300 45.16700
H  54.18900 48.69400 43.60500
H  52.37900 49.56400 45.90600
H  54.55200 47.12100 45.84900
H  54.23000 48.56300 46.66300
H  55.60800 48.50300 45.49100
H  52.36500 51.19200 43.44200
H  54.05500 50.88800 43.89600
H  52.86400 51.98800 46.20300
H  51.86500 52.72900 44.97700
H  53.58300 52.94300 44.85800
H  46.61400 52.06300 43.88600
H  47.62600 52.14300 42.42400
H  48.28300 52.25200 44.07100
H  45.26900 47.74900 40.69800
H  42.25900 45.93000 43.22000
H  42.85200 44.46600 42.33500
H  41.70800 45.61700 41.57500

