158

Mg 48.99900 46.69300 43.45700
C  45.75000 46.96200 42.03500
C  49.21900 43.70000 41.80200
C  52.28200 46.81400 44.01500
C  48.66200 49.96800 44.61000
N  47.67000 45.48900 41.99900
C  46.37000 45.77700 41.54300
C  45.79000 44.74000 40.58100
C  46.91300 43.66200 40.72600
C  48.02900 44.33700 41.58500
C  46.43200 42.15300 41.15700
C  45.29900 45.25400 39.17400
C  44.09000 44.64400 38.43000
H  44.30900 43.78900 37.14600
N  50.52100 45.38200 43.06200
C  50.37500 44.13400 42.45300
C  51.74500 43.49900 42.49000
C  52.57000 44.36800 43.25300
C  51.80800 45.60500 43.47400
C  51.95200 42.06100 42.04100
C  53.97200 43.91600 43.68900
O  54.48500 42.84600 43.35800
C  54.85000 44.91500 44.57000
N  50.21700 48.15800 44.36400
C  51.58200 47.96300 44.42200
C  52.32900 49.27500 44.98100
C  51.09700 50.16800 45.37600
C  49.86100 49.39400 44.71700
C  53.36300 48.96300 46.02400
C  51.20300 51.66300 44.85800
C  50.97100 52.72300 45.93000
N  47.58300 48.24000 43.27100
C  47.55500 49.42900 43.96200
C  46.19600 49.92900 44.02000
C  45.42000 49.00900 43.18700
C  46.35100 48.05400 42.75500
C  45.70500 51.17100 44.69200
C  44.10600 48.67300 42.72500
O  43.03500 49.17400 42.98600
C  44.41800 47.55700 41.66000
C  43.30700 46.54700 41.59100
O  43.09100 45.78700 42.46500
O  42.40800 46.78500 40.63100
C  41.15900 46.01500 40.57300
H  49.32500 42.69000 41.40100
H  53.36700 46.94000 44.03900
H  48.55000 50.96900 45.03100
H  44.83700 44.45400 41.02600
H  47.37200 43.54800 39.74400
H  47.00900 41.86400 42.03600
H  46.76800 41.52200 40.33400
H  45.38100 41.89200 41.27700
H  46.12300 44.98900 38.51200
H  45.26400 46.34400 39.15300
H  43.58700 45.53800 38.06000
H  43.36200 44.17200 39.08900
H  52.47800 42.09300 41.08700
H  51.07700 41.41000 42.03900
H  52.52200 41.51300 42.79100
H  54.18000 45.33400 45.32100
H  55.42300 45.55000 43.89400
H  55.49200 44.29500 45.19500
H  52.80100 49.69200 44.09100
H  51.02400 50.13000 46.46300
H  53.63200 47.90700 46.02200
H  53.02600 49.09400 47.05200
H  54.28200 49.50300 45.79400
H  50.38800 51.68700 44.13300
H  52.06600 51.87600 44.22700
H  49.90000 52.91400 45.86000
H  51.50400 53.67100 46.00600
H  51.08600 52.14100 46.84500
H  44.63600 51.17800 44.90600
H  46.01000 52.00000 44.05300
H  46.26100 51.25500 45.62600
H  44.43300 47.87300 40.61700
H  40.87500 45.60500 41.54200
H  41.11600 45.17000 39.88500
H  40.37000 46.70400 40.27300
Mg -4.89400 25.57400 26.29800
C  -4.23900 27.20600 29.34700
C  -6.56300 23.15800 28.07800
C  -5.88300 24.29200 23.42200
C  -3.01100 27.95000 24.69700
N  -5.22900 25.17500 28.51400
C  -5.00800 26.03300 29.54300
C  -5.62500 25.62200 30.83600
C  -6.19600 24.21200 30.43900
C  -5.91000 24.04900 28.93200
C  -5.63400 22.93500 31.20200
C  -6.72200 26.64800 31.38500
C  -6.83600 26.72900 32.92400
H  -6.09400 25.68700 33.77900
N  -5.97000 23.96500 25.86100
C  -6.59700 23.06200 26.69300
C  -7.45000 22.14500 26.00400
C  -7.39200 22.53600 24.62700
C  -6.45100 23.62500 24.52700
C  -8.26500 21.10600 26.70900
C  -8.14000 21.91200 23.57700
O  -8.06500 22.35400 22.45500
C  -8.89700 20.67300 23.72700
N  -4.22300 25.93900 24.34300
C  -4.89900 25.32500 23.31800
C  -4.32600 25.85300 21.97700
C  -3.66600 27.23800 22.37900
C  -3.71100 27.05100 23.91500
C  -3.40000 24.80000 21.35500
C  -4.25600 28.55800 21.77900
C  -3.62700 29.15700 20.52800
N  -3.81800 27.23200 26.85600
C  -3.08300 28.11800 26.08900
C  -2.49400 29.15600 26.90400
C  -2.93500 28.82300 28.14100
C  -3.78200 27.66300 28.09200
C  -1.63800 30.27800 26.56000
C  -2.88000 29.25900 29.60200
O  -2.34600 30.19200 30.17600
C  -3.79300 28.19800 30.41200
C  -2.83900 27.57900 31.39400
O  -2.25700 26.51400 31.26100
O  -2.75600 28.36400 32.46200
C  -1.92600 27.77500 33.51400
H  -7.04900 22.42300 28.72400
H  -6.13700 23.82500 22.46800
H  -2.50900 28.75300 24.15300
H  -4.83600 25.45600 31.57000
H  -7.26400 24.27700 30.64800
H  -6.42300 22.66700 31.90400
H  -4.79200 23.21700 31.83400
H  -5.25300 22.17100 30.52500
H  -7.73100 26.46400 31.01700
H  -6.50700 27.66100 31.04400
H  -7.87400 26.80200 33.24900
H  -6.47800 27.72100 33.19700
H  -7.79100 20.14700 26.49600
H  -9.27100 21.02400 26.29700
H  -8.48900 21.22100 27.76900
H  -9.11500 20.21300 22.76300
H  -9.87400 20.87300 24.16700
H  -8.24300 20.01200 24.29500
H  -5.10000 26.00100 21.22500
H  -2.60800 27.25000 22.12100
H  -2.38100 25.18300 21.41100
H  -3.55600 24.58100 20.29800
H  -3.28800 23.96500 22.04700
H  -4.09000 29.23200 22.62000
H  -5.33400 28.41700 21.70600
H  -3.17500 30.12700 20.73500
H  -4.27000 29.37400 19.67500
H  -2.85500 28.46300 20.19700
H  -1.63300 30.36000 25.47300
H  -0.67300 30.04000 27.00800
H  -2.08700 31.16400 27.00900
H  -4.64600 28.71600 30.84900
H  -1.77000 28.59000 34.22000
H  -0.92300 27.55500 33.15000
H  -2.46000 26.89300 33.86800

