158

Mg 25.88000 0.02700 29.00300
C  27.91400 -0.23300 31.83900
C  23.23100 0.26300 31.01900
C  23.87600 0.43700 26.16900
C  28.50900 -0.60400 26.88100
N  25.64000 0.05400 31.21400
C  26.58600 0.04200 32.17500
C  26.00100 0.37600 33.55500
C  24.47200 0.51600 33.26300
C  24.40600 0.30400 31.74900
C  23.35000 -0.13700 34.10500
C  26.72800 1.55400 34.26000
C  26.82400 1.39200 35.79400
H  26.37200 2.41400 36.78000
N  23.85200 0.24700 28.68200
C  22.91000 0.28700 29.66700
C  21.62000 0.40600 29.06300
C  21.80000 0.59200 27.65200
C  23.23000 0.44400 27.43900
C  20.33700 0.47400 29.94900
C  20.76700 0.85300 26.61600
O  20.92600 0.84800 25.38700
C  19.37800 1.24500 26.97600
N  26.16500 0.05500 26.88800
C  25.18600 0.22300 25.92800
C  25.84800 0.14300 24.53800
C  27.29000 -0.30500 24.80200
C  27.31700 -0.25400 26.30600
C  25.04800 -0.77800 23.51100
C  28.32300 0.53200 24.07100
C  28.77900 1.83600 24.74000
N  27.72100 -0.51200 29.27500
C  28.76200 -0.72200 28.30000
C  30.03300 -0.91600 28.98300
C  29.74100 -0.79500 30.37800
C  28.35800 -0.47500 30.50400
C  31.33700 -1.21100 28.38900
C  30.32300 -0.75600 31.70200
O  31.49100 -0.83400 32.05200
C  29.18100 -0.27300 32.66300
C  29.02300 -1.24500 33.83600
O  28.28300 -2.17000 33.81200
O  29.71700 -0.85400 34.99100
C  29.37600 -1.48800 36.25500
H  22.31900 0.44200 31.59200
H  23.13000 0.31200 25.38200
H  29.34100 -0.84100 26.21500
H  26.21600 -0.46700 34.21200
H  24.14000 1.54300 33.41700
H  22.77800 -0.89000 33.56300
H  22.69100 0.59400 34.57300
H  23.70000 -0.68600 34.97900
H  26.23800 2.51000 34.07400
H  27.65400 1.85200 33.76700
H  27.88600 1.15800 35.86800
H  26.33200 0.46200 36.07700
H  19.42700 0.05800 29.51800
H  20.12400 1.51200 30.20700
H  20.40700 0.04100 30.94700
H  19.24500 1.88000 27.85200
H  18.85800 0.29700 27.10900
H  18.91700 1.67900 26.08900
H  25.88600 1.14500 24.11100
H  27.50900 -1.33400 24.52000
H  24.04100 -0.96400 23.88400
H  25.54900 -1.73700 23.37900
H  25.05300 -0.28300 22.53900
H  27.81500 0.88000 23.17100
H  29.19600 -0.07200 23.82300
H  28.46800 1.99500 25.77300
H  28.27800 2.64000 24.20000
H  29.85300 2.02200 24.74200
H  32.00200 -0.38400 28.63900
H  31.23200 -1.32000 27.30900
H  31.69600 -2.17900 28.73800
H  29.50400 0.71200 33.00000
H  30.29700 -1.76300 36.76900
H  28.68600 -2.33200 36.27500
H  28.80600 -0.73800 36.80400
Mg 29.59500 59.10800 38.43400
C  26.72300 56.99200 37.80000
C  31.57600 56.37100 37.43500
C  32.39000 61.12100 38.37500
C  27.56500 61.78000 38.72000
N  29.14200 56.98800 37.77100
C  27.94000 56.35200 37.59800
C  28.10600 54.82900 37.27400
C  29.67800 54.68900 37.42900
C  30.16700 56.16900 37.47800
C  30.28200 53.90300 38.57400
C  27.73900 54.51200 35.76100
C  26.33500 53.88400 35.53800
H  25.39100 54.59200 34.52000
N  31.77500 58.73000 37.99600
C  32.31100 57.56500 37.69400
C  33.77100 57.63600 37.78000
C  34.03500 58.99200 38.13700
C  32.76200 59.72400 38.21300
C  34.67900 56.48900 37.34000
C  35.42200 59.58300 38.47100
O  36.44400 58.86800 38.44600
C  35.73300 61.06400 38.79500
N  29.96600 61.14100 38.15900
C  31.14900 61.75700 38.32800
C  30.97300 63.26600 38.58000
C  29.40700 63.45700 38.48200
C  28.91100 62.06000 38.49300
C  31.59700 64.00600 39.78700
C  28.90500 64.21200 37.26300
C  27.97000 65.37700 37.65300
N  27.61700 59.37800 38.49800
C  26.88400 60.50900 38.67600
C  25.48200 60.33400 38.56500
C  25.41000 58.93600 38.31100
C  26.67600 58.45000 38.18900
C  24.47300 61.33300 38.55100
C  24.43600 57.87400 38.10100
O  23.20800 57.89500 37.94300
C  25.22700 56.61100 37.74600
C  24.92400 55.61100 38.78700
O  25.58400 55.48300 39.78300
O  23.71700 54.98100 38.48800
C  23.55100 53.83000 39.39900
H  32.12600 55.51800 37.03300
H  33.34400 61.63200 38.52100
H  27.00800 62.71800 38.77300
H  27.57600 54.23400 38.01800
H  30.13900 54.32900 36.51000
H  29.53300 53.25700 39.03400
H  30.68100 54.50500 39.39000
H  31.00400 53.16700 38.21800
H  28.51400 54.01100 35.18200
H  27.58700 55.50900 35.34700
H  25.78300 53.79500 36.47400
H  26.49300 52.87300 35.16100
H  35.08100 56.80000 36.37600
H  34.10200 55.57700 37.18500
H  35.42900 56.13400 38.04700
H  36.77400 61.15800 39.10600
H  35.06200 61.45700 39.55900
H  35.65000 61.60500 37.85300
H  31.45800 63.73900 37.72500
H  29.02000 63.93000 39.38500
H  32.47800 63.50100 40.18200
H  30.89400 63.95600 40.61900
H  31.83400 65.01800 39.46100
H  28.42400 63.55300 36.54000
H  29.80500 64.59600 36.78200
H  28.56800 66.23900 37.95100
H  27.26800 65.16500 38.46000
H  27.51100 65.78000 36.75000
H  24.22100 61.56800 37.51700
H  24.93300 62.22900 38.96700
H  23.60300 61.00000 39.11700
H  24.80300 56.45500 36.75500
H  22.63200 53.30800 39.13300
H  23.46800 54.14700 40.43900
H  24.43000 53.21400 39.20900

