158

Mg 44.99700 4.76600 47.80200
C  43.03200 7.65300 46.96600
C  42.21300 2.85700 47.25100
C  46.93000 2.05000 47.82400
C  47.81100 6.91000 47.38800
N  42.94600 5.21500 47.12000
C  42.40000 6.42900 46.81300
C  40.90500 6.26700 46.52600
C  40.49100 4.82800 47.04800
C  41.96400 4.22500 47.23400
C  39.69400 4.84100 48.34600
C  40.53500 6.54400 45.00800
C  39.76000 7.79700 44.68200
H  39.98900 8.44600 43.37000
N  44.57800 2.72300 47.56400
C  43.40200 2.09100 47.38700
C  43.54600 0.62500 47.39300
C  44.93400 0.39800 47.59200
C  45.54100 1.72300 47.67100
C  42.35300 -0.26300 47.00200
C  45.60000 -0.92900 47.63700
O  44.97000 -1.91300 47.34100
C  47.10300 -1.09300 47.99300
N  47.03000 4.51100 47.40500
C  47.64100 3.33600 47.70500
C  49.18700 3.49200 47.86600
C  49.40200 4.93800 47.36600
C  47.98300 5.52200 47.39300
C  49.77100 3.20200 49.25500
C  50.04400 5.02700 45.93900
C  51.58800 5.44300 45.80400
N  45.34800 6.86000 47.52700
C  46.55100 7.56200 47.43900
C  46.18700 9.00600 47.49400
C  44.82800 9.10400 47.33600
C  44.37800 7.76200 47.28700
C  47.11300 10.08800 47.68200
C  43.75500 10.05400 47.22300
O  43.71800 11.30100 47.38600
C  42.49400 9.16800 46.89100
C  41.45800 9.36100 47.93400
O  41.30100 8.59200 48.89200
O  40.73500 10.50300 47.75000
C  39.80600 11.04500 48.77600
H  41.28600 2.29700 47.11100
H  47.67200 1.26300 47.97300
H  48.70700 7.53100 47.43900
H  40.43000 6.97200 47.20800
H  39.84400 4.37800 46.29500
H  39.38300 5.86700 48.54400
H  40.25900 4.34600 49.13600
H  38.75200 4.33400 48.14000
H  39.96700 5.66200 44.71100
H  41.46100 6.49300 44.43500
H  39.83200 8.44000 45.55900
H  38.71200 7.51500 44.78900
H  42.37200 -0.26900 45.91200
H  41.34300 0.12800 47.13100
H  42.42900 -1.28800 47.36500
H  47.65500 -0.81700 47.09500
H  47.30100 -2.16000 48.09200
H  47.24400 -0.59100 48.95000
H  49.63500 2.73600 47.22200
H  50.05300 5.56300 47.97700
H  50.12900 4.12700 49.70700
H  50.65300 2.56100 49.25400
H  48.96200 2.77000 49.84400
H  49.52100 5.81500 45.39600
H  50.18900 4.12400 45.34600
H  51.55100 6.38200 45.25300
H  52.20800 4.62200 45.44500
H  51.93000 5.60800 46.82600
H  46.51900 10.74200 48.32000
H  47.27700 10.65800 46.76700
H  48.09700 9.87500 48.10100
H  42.12000 9.50800 45.92500
H  38.81200 10.93300 48.34200
H  39.98100 12.09700 49.00100
H  39.87800 10.61900 49.77700
Mg -11.36500 39.01400 41.43200
C  -9.17900 36.15000 40.73000
C  -9.16500 40.88200 39.53000
C  -13.72100 41.22300 41.43800
C  -13.65300 36.48100 42.72100
N  -9.46600 38.53000 40.14200
C  -8.77500 37.28100 39.99600
C  -7.68400 37.38300 38.99700
C  -7.57900 38.97900 38.82300
C  -8.76600 39.53600 39.53000
C  -6.16200 39.57200 39.21000
C  -7.92600 36.58800 37.70600
C  -6.80400 35.59100 37.38000
H  -5.49200 36.11100 36.74600
N  -11.40300 40.93400 40.74400
C  -10.37200 41.51900 40.07300
C  -10.71700 42.93200 39.96300
C  -12.05800 43.05700 40.46100
C  -12.51800 41.71200 40.88700
C  -9.82400 43.88100 39.35500
C  -12.88500 44.28700 40.59200
O  -12.38000 45.40700 40.22300
C  -14.27700 44.29800 40.92600
N  -13.36600 38.79600 41.92600
C  -14.10000 39.94400 41.95900
C  -15.50400 39.73100 42.52500
C  -15.55100 38.21300 42.67400
C  -14.09600 37.75700 42.49600
C  -15.86100 40.57100 43.79600
C  -16.63300 37.56000 41.83600
C  -17.98000 37.81900 42.40000
N  -11.40800 36.90900 41.76900
C  -12.36200 36.03800 42.32000
C  -11.82300 34.67400 42.58200
C  -10.57700 34.68600 41.93400
C  -10.37100 36.06000 41.49500
C  -12.50900 33.59200 43.28700
C  -9.46600 33.84800 41.58200
O  -9.38600 32.62000 41.79200
C  -8.50500 34.86000 40.83600
C  -7.22400 34.82200 41.61200
O  -6.43000 33.92700 41.53000
O  -7.15700 35.85300 42.46300
C  -6.02200 35.78600 43.33600
H  -8.42100 41.54900 39.09100
H  -14.56500 41.88600 41.64200
H  -14.41700 35.83800 43.16300
H  -6.81900 36.98900 39.53100
H  -7.71100 39.26100 37.77800
H  -5.47000 38.78100 39.50200
H  -6.31700 40.32500 39.98200
H  -5.68700 40.04700 38.35200
H  -7.87900 37.30200 36.88400
H  -8.87900 36.06300 37.75700
H  -7.17800 34.81500 36.71300
H  -6.44500 35.06300 38.26400
H  -9.25200 44.23400 40.21300
H  -10.49500 44.56300 38.83400
H  -9.16100 43.55600 38.55200
H  -14.76800 43.62300 40.22500
H  -14.67000 45.28600 40.68400
H  -14.55600 44.01000 41.93900
H  -16.26500 40.02900 41.80500
H  -15.74600 38.06800 43.73600
H  -16.22400 41.52800 43.42200
H  -14.86700 40.71800 44.22000
H  -16.60200 40.11800 44.45400
H  -16.41900 36.49300 41.76500
H  -16.59900 37.99500 40.83700
H  -18.43300 36.95400 42.88400
H  -18.69800 37.99900 41.60000
H  -18.03000 38.65700 43.09500
H  -11.75700 32.87200 43.60800
H  -13.20700 33.14400 42.58000
H  -13.06900 33.87000 44.18000
H  -8.21400 34.35000 39.91800
H  -6.16600 36.70200 43.90800
H  -5.15200 35.83200 42.68100
H  -6.12900 34.91400 43.98100

