158

Mg 26.23300 1.63000 29.68600
C  28.23900 1.17200 32.58200
C  23.51400 2.34500 31.69100
C  24.27700 1.74900 26.94700
C  28.95100 0.48900 27.81200
N  26.00000 1.84700 31.90100
C  26.93600 1.65300 32.86700
C  26.29600 1.90900 34.23000
C  24.77100 2.18300 33.84900
C  24.76400 2.07700 32.38300
C  23.72700 1.28300 34.54700
C  26.88000 2.96800 35.20000
C  26.09400 3.21700 36.50700
H  27.02200 3.34300 37.81400
N  24.18400 1.80000 29.34400
C  23.26900 2.27000 30.32300
C  21.93500 2.40300 29.71200
C  22.13000 2.05200 28.33500
C  23.58800 1.85900 28.16200
C  20.76700 2.74200 30.61400
C  21.14800 1.90300 27.20800
O  21.49100 1.58000 26.07700
C  19.74200 2.19700 27.43000
N  26.60200 1.29700 27.57500
C  25.62200 1.46000 26.67500
C  26.04700 0.90800 25.34500
C  27.55600 0.57000 25.55900
C  27.74600 0.77100 27.06900
C  25.08800 -0.16700 24.68900
C  28.62200 1.36200 24.69900
C  29.18500 0.59500 23.57400
N  28.17100 1.03500 30.03300
C  29.18500 0.69400 29.17600
C  30.41000 0.41700 29.92200
C  30.08700 0.63600 31.27200
C  28.67300 0.95300 31.30200
C  31.81600 0.02300 29.31600
C  30.58900 0.71200 32.60600
O  31.78100 0.57100 33.01100
C  29.43100 1.03300 33.49400
C  29.31600 -0.22800 34.39300
O  28.56000 -1.22300 34.13200
O  30.14400 -0.15800 35.43100
C  30.07200 -1.21200 36.43800
H  22.68100 2.68000 32.31200
H  23.86800 1.86900 25.94100
H  29.76400 -0.01400 27.28400
H  26.24400 0.94800 34.74200
H  24.66600 3.18600 34.26100
H  24.14000 1.12800 35.54400
H  23.63500 0.30100 34.08200
H  22.80900 1.80600 34.81600
H  27.12000 3.80000 34.53900
H  27.84700 2.59500 35.53900
H  25.32200 2.49500 36.77500
H  25.58500 4.17100 36.36900
H  20.37400 3.61100 30.08500
H  20.81900 3.02500 31.66600
H  20.03200 1.97000 30.38900
H  19.20500 1.91700 26.52400
H  19.57800 3.26400 27.57600
H  19.36700 1.61800 28.27500
H  26.03500 1.77700 24.68700
H  27.71500 -0.49400 25.38400
H  24.39900 0.36300 24.03100
H  24.61200 -0.73700 25.48700
H  25.72500 -0.90200 24.19700
H  29.28000 1.81700 25.43900
H  28.16900 2.14800 24.09500
H  30.23700 0.35100 23.72600
H  29.26800 1.13300 22.63000
H  28.72700 -0.37400 23.37700
H  32.33300 0.86500 28.85700
H  31.62200 -0.77700 28.60200
H  32.46300 -0.32200 30.12300
H  29.56700 1.87300 34.17500
H  30.20800 -2.16300 35.92300
H  29.17200 -1.07300 37.03700
H  30.96900 -1.06800 37.04000
Mg -10.93600 17.16100 40.54300
C  -7.41500 16.78600 40.59700
C  -10.46700 20.50200 40.12700
C  -14.25200 17.39200 40.06400
C  -11.21900 13.68400 40.84900
N  -9.10200 18.46800 40.26900
C  -7.77200 18.12500 40.39100
C  -6.92400 19.35100 40.34600
C  -7.96600 20.54500 40.61100
C  -9.25100 19.82400 40.20900
C  -7.97900 21.00500 42.05900
C  -6.30900 19.50600 38.90100
C  -4.79000 19.18000 38.79900
H  -4.33900 18.33500 37.56900
N  -12.18900 18.76400 40.04100
C  -11.82300 20.08600 40.04100
C  -12.93500 20.89800 39.85700
C  -14.08600 20.06800 39.82400
C  -13.56300 18.69000 39.98200
C  -12.81300 22.35900 39.68400
C  -15.55700 20.48600 39.79900
O  -15.90900 21.67700 39.81500
C  -16.66500 19.50600 39.62100
N  -12.45200 15.69400 40.41200
C  -13.75600 16.07600 40.37400
C  -14.70600 14.86700 40.38400
C  -13.74400 13.71200 40.74000
C  -12.38600 14.40300 40.70500
C  -15.85400 15.16000 41.46100
C  -13.90800 12.53400 39.83000
C  -14.02800 11.23200 40.48600
N  -9.63400 15.50200 40.57300
C  -9.87000 14.15600 40.74700
C  -8.65000 13.37600 40.81700
C  -7.71700 14.40000 40.83500
C  -8.29000 15.65700 40.67700
C  -8.46800 11.91400 41.02300
C  -6.24500 14.61900 40.91700
O  -5.27100 13.83300 41.02700
C  -6.00100 16.16600 40.82200
C  -5.29600 16.63300 42.01100
O  -4.15300 17.07900 42.02400
O  -6.09900 16.40400 43.14600
C  -5.49900 16.86400 44.36900
H  -10.39000 21.58200 40.26900
H  -15.33400 17.32400 39.93100
H  -11.35500 12.64600 41.15800
H  -6.11600 19.30100 41.07600
H  -7.76100 21.40700 39.97600
H  -8.90400 20.66900 42.52500
H  -8.03500 22.09100 42.13800
H  -7.07300 20.68900 42.57700
H  -6.57700 20.49900 38.54000
H  -6.88200 18.90200 38.19800
H  -4.52400 18.74200 39.76100
H  -4.26100 20.12600 38.68100
H  -12.60700 22.58100 38.63600
H  -12.08600 22.77300 40.38300
H  -13.76500 22.85600 39.86700
H  -16.66500 18.85700 38.74500
H  -17.58900 20.08400 39.60800
H  -16.86700 18.92000 40.51800
H  -15.22600 14.80800 39.42800
H  -13.77500 13.55900 41.81900
H  -16.66600 15.35900 40.76200
H  -15.67600 16.03700 42.08400
H  -16.00900 14.26400 42.06300
H  -13.08700 12.30400 39.15200
H  -14.78000 12.70700 39.20000
H  -13.38900 10.46000 40.05700
H  -14.99600 10.73000 40.50300
H  -13.72300 11.35300 41.52600
H  -7.98900 11.51900 40.12700
H  -9.43800 11.43500 41.16100
H  -7.91800 11.71800 41.94300
H  -5.42300 16.25200 39.90200
H  -4.77500 16.14100 44.74600
H  -6.31400 17.05500 45.06700
H  -4.95000 17.80500 44.35600

