158

Mg -1.71300 17.90200 27.42400
C  -1.94900 15.50900 29.92800
C  -2.20300 20.32100 29.78600
C  -1.41700 20.11900 25.01600
C  -1.11100 15.20900 25.02900
N  -1.93000 17.86700 29.67100
C  -1.98400 16.78600 30.47300
C  -1.87400 17.24300 31.98700
C  -2.30400 18.79400 31.87900
C  -2.12200 19.05000 30.33600
C  -3.76100 19.14300 32.37600
C  -0.46400 16.93000 32.56100
C  0.02700 17.75100 33.81200
H  0.06400 17.13600 35.16400
N  -1.86500 19.96300 27.36300
C  -2.03500 20.81100 28.40100
C  -2.15100 22.19400 27.96400
C  -2.04800 22.06100 26.55900
C  -1.72700 20.68500 26.23600
C  -2.20800 23.40800 28.90300
C  -2.17600 23.20500 25.59400
O  -1.84000 23.10000 24.43300
C  -2.72500 24.56000 26.03500
N  -1.50700 17.61700 25.31500
C  -1.27600 18.77900 24.58900
C  -1.00400 18.47300 23.11200
C  -0.68900 16.98100 23.14000
C  -1.14000 16.54600 24.59400
C  -2.28400 18.85700 22.26800
C  0.71900 16.61000 22.73200
C  1.83500 17.40600 23.37800
N  -1.60400 15.79100 27.41100
C  -1.40000 14.86300 26.40400
C  -1.53800 13.55800 26.94800
C  -1.78600 13.77200 28.36300
C  -1.79100 15.14200 28.53400
C  -1.31700 12.19600 26.17400
C  -2.05400 13.07900 29.56900
O  -2.11300 11.89900 29.88800
C  -2.21000 14.17200 30.62500
C  -1.22400 13.75900 31.62200
O  -0.00400 13.97700 31.61700
O  -1.95600 13.16800 32.64900
C  -1.24500 12.79200 33.83300
H  -2.42200 21.14900 30.46400
H  -1.34400 20.85200 24.21000
H  -0.95300 14.39700 24.31600
H  -2.67300 16.69900 32.49000
H  -1.70400 19.54500 32.39300
H  -4.33000 19.81900 31.73900
H  -3.73800 19.64700 33.34200
H  -4.36200 18.23900 32.47300
H  0.38800 16.97600 31.88300
H  -0.50900 15.93000 32.99300
H  -0.68000 18.56500 33.97300
H  1.03500 18.08800 33.56800
H  -1.82600 23.13200 29.88600
H  -3.21500 23.82200 28.96000
H  -1.49200 24.16300 28.58000
H  -2.78600 25.23000 25.17800
H  -2.11400 25.06200 26.78500
H  -3.68900 24.40700 26.52100
H  -0.22900 19.17700 22.80700
H  -1.25600 16.44600 22.37800
H  -2.71200 18.04400 21.68200
H  -2.01100 19.70700 21.64200
H  -3.07000 19.18500 22.94800
H  0.65200 16.73800 21.65100
H  0.82700 15.53200 22.84900
H  2.50600 16.70000 23.86600
H  1.54700 18.20800 24.05700
H  2.40700 17.83400 22.55400
H  -0.98600 11.36000 26.79100
H  -0.85200 12.27700 25.19100
H  -2.34000 11.93900 25.90100
H  -3.23600 14.06400 30.97800
H  -0.59000 11.98200 33.51200
H  -1.91700 12.30800 34.54200
H  -0.56600 13.55800 34.20800
Mg 0.98700 8.06600 26.80800
C  1.46700 9.89600 29.83800
C  0.30700 5.31900 28.64100
C  0.42700 6.64900 23.95000
C  1.82500 11.17900 25.05600
N  0.91800 7.67100 28.98000
C  0.99800 8.51400 30.01300
C  0.59100 7.85800 31.32300
C  0.86700 6.35600 30.98700
C  0.75700 6.40900 29.43300
C  2.23600 5.82200 31.42600
C  -0.84600 8.11700 31.77600
C  -1.20500 8.49100 33.31800
H  -0.03500 8.48200 34.28600
N  0.47400 6.24900 26.39700
C  0.11600 5.25500 27.23800
C  -0.46500 4.14000 26.52200
C  -0.43500 4.50100 25.21000
C  0.12300 5.84200 25.15300
C  -0.92600 2.79200 27.05000
C  -0.89600 3.70100 23.95000
O  -0.70600 4.19800 22.89600
C  -1.61400 2.36800 24.04400
N  1.25200 8.79300 24.77800
C  0.95500 7.95900 23.78800
C  1.44400 8.50300 22.43200
C  1.45100 10.02300 22.78400
C  1.57700 10.00500 24.31300
C  2.90300 7.83700 22.09000
C  0.14600 10.69200 22.45400
C  0.20100 12.23100 22.10900
N  1.75500 10.06600 27.23000
C  2.06200 11.12500 26.47700
C  2.47700 12.29300 27.28200
C  2.17400 11.84300 28.62200
C  1.82800 10.50600 28.52400
C  2.86900 13.69000 26.68600
C  2.21500 12.27200 29.96400
O  2.53400 13.36000 30.35500
C  1.61300 11.01400 30.83200
C  2.63600 10.81300 31.92800
O  3.68400 10.20400 31.85000
O  2.17400 11.41900 33.07300
C  3.19600 11.52800 34.12600
H  0.20500 4.42600 29.26100
H  0.48600 6.17300 22.96900
H  1.96300 12.12800 24.53300
H  1.20000 8.28000 32.12200
H  0.04100 5.78300 31.40900
H  2.96900 6.58100 31.70000
H  2.57500 5.35400 30.50200
H  2.19600 5.14100 32.27600
H  -1.43300 7.22300 31.56200
H  -1.22500 8.82000 31.03400
H  -2.05400 7.85400 33.56600
H  -1.49800 9.52900 33.16200
H  -1.86600 2.42000 26.64100
H  -0.98100 2.74800 28.13700
H  -0.23900 1.98100 26.80500
H  -1.09100 1.74100 24.76500
H  -1.73400 1.87100 23.08100
H  -2.53300 2.66800 24.54800
H  0.81100 8.19700 21.59800
H  2.28200 10.44700 22.21900
H  3.51600 8.12700 22.94300
H  3.27200 8.46800 21.28100
H  2.66700 6.80200 21.84200
H  -0.50200 10.54400 23.31800
H  -0.25000 10.23500 21.54700
H  1.16500 12.60200 21.76200
H  0.01500 12.83300 22.99800
H  -0.49100 12.53000 21.32100
H  2.11000 14.05300 25.99300
H  3.77800 13.63200 26.08700
H  3.09700 14.39100 27.48900
H  0.62300 11.19200 31.25000
H  3.45600 12.58700 34.14800
H  4.13100 11.03700 33.85800
H  2.84000 11.09500 35.06100

