158

Mg 24.31500 -5.19300 46.08800
C  26.24100 -2.77900 44.10200
C  21.60000 -4.41500 44.07200
C  22.84600 -7.84500 47.20400
C  27.43200 -6.06100 47.47400
N  24.02400 -3.81800 44.27800
C  24.91700 -2.89800 43.67700
C  24.19900 -1.99400 42.71600
C  22.69300 -2.39300 42.84900
C  22.75200 -3.65300 43.79000
C  21.71900 -1.35900 43.35500
C  24.71300 -2.10800 41.21800
C  24.82300 -0.87500 40.35000
H  24.61400 -1.04900 38.79000
N  22.40100 -5.99500 45.71300
C  21.44900 -5.54100 44.89800
C  20.35100 -6.41100 44.98200
C  20.75700 -7.50500 45.75900
C  22.05800 -7.17400 46.28000
C  19.00700 -6.12100 44.35200
C  19.80000 -8.70300 45.99500
O  18.68300 -8.71900 45.53100
C  20.31600 -9.78600 46.82900
N  25.08900 -6.78100 47.11100
C  24.21900 -7.65100 47.62000
C  25.01700 -8.58700 48.61300
C  26.39500 -7.89900 48.82300
C  26.34800 -6.90800 47.69000
C  24.28400 -9.02000 49.87600
C  27.71100 -8.86900 48.94900
C  28.40700 -9.27400 47.63100
N  26.34700 -4.44200 45.94300
C  27.47400 -4.96100 46.58900
C  28.63400 -4.14400 46.18500
C  28.20800 -3.28900 45.23300
C  26.83400 -3.54600 45.10600
C  30.03100 -4.22600 46.80800
C  28.61800 -2.15100 44.40200
O  29.66900 -1.46500 44.33400
C  27.27400 -1.75400 43.65300
C  26.88600 -0.34100 44.08400
O  26.30900 -0.01600 45.08800
O  27.42000 0.53800 43.19700
C  27.31700 2.02100 43.22500
H  20.83800 -4.11400 43.35000
H  22.39700 -8.64500 47.79700
H  28.33900 -6.30400 48.03000
H  24.30100 -1.04500 43.24100
H  22.29300 -2.76000 41.90400
H  21.11700 -0.83700 42.61000
H  22.19200 -0.53100 43.88300
H  21.04200 -1.75900 44.10900
H  24.08300 -2.81500 40.67800
H  25.66200 -2.64200 41.25000
H  25.89000 -0.65500 40.40100
H  24.16000 -0.11100 40.75500
H  18.93700 -6.72700 43.44800
H  18.82300 -5.12300 43.95400
H  18.10700 -6.40900 44.89500
H  20.29800 -9.21300 47.75600
H  21.31500 -10.14700 46.58300
H  19.66500 -10.65100 46.95400
H  25.24200 -9.48200 48.03200
H  26.27400 -7.19400 49.64500
H  24.46400 -10.08700 50.00800
H  23.24400 -8.71100 49.77300
H  24.77000 -8.51200 50.70900
H  27.51800 -9.81700 49.45100
H  28.41700 -8.17400 49.40400
H  28.05500 -10.29000 47.45200
H  29.48300 -9.10400 47.66900
H  28.04500 -8.72500 46.76200
H  30.59600 -3.33500 46.53500
H  30.62300 -5.05600 46.42200
H  30.15900 -4.27700 47.89000
H  27.36000 -1.82400 42.56800
H  26.55000 2.30500 42.50400
H  28.24500 2.49200 42.90200
H  27.13100 2.39200 44.23300
Mg -12.35900 16.01500 41.87000
C  -9.44600 14.10500 41.40500
C  -11.11200 18.65900 40.27900
C  -15.60100 17.18700 41.72600
C  -14.00600 12.75200 42.50400
N  -10.49000 16.32100 40.95100
C  -9.33900 15.50500 40.92600
C  -8.13400 16.25200 40.30900
C  -8.73800 17.64600 40.03400
C  -10.16800 17.61000 40.54000
C  -7.93100 18.93100 40.43700
C  -7.39300 15.62200 39.12000
C  -5.85900 15.54300 39.07000
H  -5.18500 16.36300 37.93700
N  -13.19500 17.76300 41.22600
C  -12.50500 18.73200 40.57100
C  -13.29900 19.88200 40.34300
C  -14.66200 19.43200 40.63600
C  -14.53900 18.07800 41.23000
C  -12.79900 21.31200 39.89300
C  -15.93800 20.17200 40.39800
O  -15.89700 21.25200 39.87500
C  -17.27500 19.65300 40.79800
N  -14.47700 15.06400 42.04400
C  -15.54500 15.88300 42.13800
C  -16.84800 15.12500 42.49800
C  -16.32900 13.61500 42.76200
C  -14.86100 13.80200 42.29200
C  -17.63000 15.65700 43.70400
C  -17.04000 12.42700 41.97600
C  -17.10000 12.45900 40.41500
N  -11.83200 13.87600 42.16300
C  -12.62000 12.75500 42.41900
C  -11.69400 11.57900 42.57700
C  -10.43000 12.10500 42.15300
C  -10.59800 13.46400 41.91400
C  -12.02100 10.18800 42.84700
C  -9.02800 11.74700 41.87000
O  -8.41100 10.75300 42.16000
C  -8.36100 13.03300 41.27500
C  -7.14500 13.28600 42.09400
O  -7.18400 13.55400 43.30000
O  -5.98400 13.17800 41.31700
C  -4.90000 13.66600 42.15400
H  -10.68100 19.56900 39.85700
H  -16.65500 17.45900 41.64400
H  -14.54800 11.81200 42.62500
H  -7.47800 16.37300 41.17100
H  -8.98100 17.80300 38.98300
H  -6.95000 18.49500 40.62700
H  -8.28000 19.27300 41.41100
H  -7.86000 19.79800 39.77900
H  -7.63700 16.09400 38.16900
H  -7.73200 14.58800 39.06300
H  -5.64400 14.48900 38.88900
H  -5.27300 15.68800 39.97800
H  -12.70700 21.35800 38.80700
H  -11.78300 21.42000 40.27300
H  -13.41600 22.10600 40.31300
H  -17.51100 18.76100 40.21700
H  -17.99900 20.41500 40.50800
H  -17.25500 19.47100 41.87200
H  -17.55400 15.08700 41.66900
H  -16.40700 13.31700 43.80800
H  -18.68400 15.58100 43.43800
H  -17.32100 16.68300 43.90700
H  -17.49700 15.05200 44.60000
H  -18.04000 12.32000 42.39700
H  -16.73900 11.39100 42.12800
H  -16.48300 13.31800 40.15000
H  -18.06000 12.68700 39.95100
H  -16.65700 11.53900 40.03200
H  -12.55300 9.75300 42.00100
H  -12.61100 10.29700 43.75800
H  -11.09400 9.61700 42.88300
H  -8.23500 12.90400 40.20000
H  -4.89400 14.70400 42.48900
H  -4.04200 13.59800 41.48500
H  -4.74400 13.08900 43.06500

