158

Mg -12.12800 37.86800 42.10400
C  -9.87700 35.33200 41.23500
C  -10.15900 40.06400 40.12700
C  -14.61400 40.19800 41.96100
C  -14.29900 35.56000 43.38200
N  -10.38100 37.62700 40.68200
C  -9.57900 36.51600 40.55100
C  -8.38500 36.69800 39.62400
C  -8.51600 38.24400 39.29400
C  -9.75200 38.71900 40.03500
C  -7.26400 39.02400 39.57000
C  -8.62500 35.63000 38.45200
C  -7.44500 34.84900 37.93500
H  -6.77000 35.61400 36.81300
N  -12.28600 39.89600 41.42400
C  -11.32600 40.59100 40.67300
C  -11.71400 41.93600 40.46700
C  -13.04100 42.03200 40.93800
C  -13.42900 40.67300 41.43000
C  -10.85200 43.00100 39.74200
C  -13.87300 43.20500 40.86800
O  -13.43600 44.23100 40.40900
C  -15.30800 43.32100 41.31800
N  -14.24100 37.89900 42.55000
C  -15.02000 38.95000 42.45500
C  -16.50900 38.59000 42.80300
C  -16.30800 37.17900 43.37400
C  -14.91000 36.80000 42.96300
C  -17.04100 39.72700 43.79400
C  -17.33300 36.13900 42.78500
C  -17.94200 35.16700 43.84400
N  -12.14300 35.85000 42.33400
C  -13.00100 35.05600 42.96600
C  -12.47900 33.73000 43.14000
C  -11.30000 33.82500 42.43000
C  -11.08200 35.14300 42.00000
C  -13.22100 32.53400 43.79600
C  -10.07100 33.09900 42.08100
O  -9.77900 31.94200 42.29100
C  -9.04700 34.09400 41.35600
C  -7.91200 34.22500 42.33700
O  -7.04500 33.40100 42.63800
O  -7.94600 35.54800 42.89800
C  -6.71200 35.90600 43.60400
H  -9.46400 40.73700 39.61900
H  -15.48200 40.85900 41.92300
H  -14.94800 34.90200 43.96300
H  -7.41800 36.50600 40.08900
H  -8.79500 38.33900 38.24400
H  -6.35000 38.49200 39.30700
H  -7.15600 39.24900 40.63100
H  -7.37500 39.89600 38.92500
H  -8.95500 36.21100 37.59100
H  -9.32100 34.86100 38.78500
H  -8.00300 33.96300 37.63000
H  -6.82100 34.60700 38.79600
H  -11.00100 44.03200 40.06600
H  -11.02700 42.90800 38.67000
H  -9.79700 42.82900 39.95700
H  -15.94600 42.70900 40.68000
H  -15.67000 44.34200 41.43900
H  -15.32700 42.95700 42.34500
H  -17.05100 38.57600 41.85800
H  -16.41000 37.22900 44.45800
H  -17.91600 40.26800 43.43200
H  -16.22100 40.41200 44.01000
H  -17.25300 39.23600 44.74400
H  -17.05500 35.46800 41.97200
H  -18.10900 36.72100 42.28800
H  -18.87600 35.65700 44.12100
H  -17.17900 35.02800 44.61000
H  -18.16300 34.21800 43.35500
H  -12.77700 32.35700 44.77500
H  -13.18500 31.68700 43.11000
H  -14.26100 32.82400 43.94700
H  -8.70300 33.59000 40.45200
H  -6.42100 35.33100 44.48300
H  -6.90200 36.92600 43.93900
H  -5.85800 35.86600 42.92800
Mg -6.00700 24.97700 26.84700
C  -4.59900 26.38500 29.68100
C  -7.87600 22.88900 28.76900
C  -7.08000 23.43500 23.92000
C  -3.79200 26.91400 24.84900
N  -6.15700 24.68000 29.07900
C  -5.56400 25.42100 30.00500
C  -6.10000 24.99600 31.37500
C  -7.04900 23.75400 31.09800
C  -7.12800 23.77600 29.51800
C  -6.61900 22.36300 31.69600
C  -6.84700 26.19000 32.10200
C  -7.07400 26.04600 33.61200
H  -6.35600 24.95600 34.41600
N  -7.29400 23.47800 26.41100
C  -7.97900 22.72900 27.36300
C  -8.83300 21.86800 26.67200
C  -8.64900 21.98900 25.29000
C  -7.62400 23.00600 25.16900
C  -9.72000 20.89600 27.40300
C  -9.36200 21.24400 24.10900
O  -9.21400 21.63400 22.97600
C  -10.37800 20.09200 24.41200
N  -5.30800 24.95500 24.69000
C  -6.04900 24.36400 23.72000
C  -5.41700 24.66200 22.35800
C  -4.41700 25.85900 22.62800
C  -4.52900 25.96200 24.14900
C  -4.77300 23.43000 21.67200
C  -4.67200 27.21100 21.83100
C  -3.62900 27.69600 20.88000
N  -4.51200 26.31800 27.11500
C  -3.71400 27.04400 26.26600
C  -2.84200 27.95900 27.03400
C  -3.25000 27.71200 28.38300
C  -4.20000 26.73700 28.38600
C  -1.71300 28.84800 26.56200
C  -2.98700 28.13600 29.72700
O  -2.20800 29.02700 30.18900
C  -3.85900 27.26900 30.62600
C  -2.98000 26.44600 31.44500
O  -2.58100 25.31800 31.23400
O  -2.58300 27.17100 32.58800
C  -1.80600 26.35100 33.56100
H  -8.60800 22.29100 29.31500
H  -7.43300 22.98100 22.99200
H  -3.05700 27.48500 24.27800
H  -5.22300 24.74200 31.97000
H  -8.05300 24.02400 31.42600
H  -5.72600 22.43200 32.31700
H  -6.42700 21.81100 30.77600
H  -7.40200 21.84500 32.25000
H  -7.84100 26.13800 31.65800
H  -6.39500 27.14100 31.82200
H  -8.13800 25.93500 33.81900
H  -6.86900 27.01700 34.06300
H  -9.87500 19.95900 26.86800
H  -10.71100 21.29400 27.61900
H  -9.27000 20.62300 28.35800
H  -11.11100 19.97000 23.61500
H  -11.00800 20.42900 25.23500
H  -9.81100 19.19900 24.67600
H  -6.22800 25.02500 21.72700
H  -3.42600 25.47600 22.38300
H  -3.69200 23.51600 21.77600
H  -5.01100 23.48000 20.60900
H  -5.06800 22.50100 22.15800
H  -4.96700 28.05300 22.45800
H  -5.54600 26.93400 21.24100
H  -2.74100 27.07100 20.96900
H  -3.43600 28.75800 21.03100
H  -3.90600 27.49200 19.84600
H  -1.88800 29.78300 27.09600
H  -1.88400 29.07000 25.50900
H  -0.66700 28.59800 26.74300
H  -4.39600 27.92100 31.31600
H  -0.75400 26.42600 33.28700
H  -2.15100 25.31900 33.50100
H  -1.85700 26.73000 34.58200

