158

Mg 40.83100 9.36800 29.07500
C  42.47300 10.53100 32.00300
C  38.50400 7.75900 31.27900
C  39.45800 8.05000 26.41300
C  43.40900 10.73600 27.17700
N  40.52700 9.15100 31.47800
C  41.26000 9.88200 32.39700
C  40.65700 9.73100 33.76900
C  39.56200 8.63500 33.60000
C  39.50900 8.48600 32.04400
C  39.76200 7.28100 34.42000
C  40.15500 11.01700 34.48000
C  39.68500 11.02600 36.09400
H  40.48100 11.97300 37.02600
N  39.23500 8.08600 28.83900
C  38.40000 7.59500 29.83000
C  37.34600 6.85500 29.21500
C  37.44600 7.04300 27.82900
C  38.76700 7.73400 27.61600
C  36.37000 5.95700 29.92000
C  36.58800 6.59700 26.64000
O  36.85100 6.90900 25.49400
C  35.32400 5.88900 26.93300
N  41.32500 9.41900 27.10100
C  40.53400 8.81800 26.17500
C  41.22000 8.91700 24.81900
C  42.37600 10.04600 24.98900
C  42.38000 10.13700 26.49200
C  41.58600 7.53700 24.08600
C  42.03900 11.41600 24.36500
C  40.86200 12.22600 24.83300
N  42.59000 10.42100 29.49700
C  43.55100 10.86200 28.59000
C  44.63600 11.48700 29.32500
C  44.15700 11.48700 30.64800
C  42.95100 10.72200 30.69500
C  45.89300 12.04800 28.69600
C  44.53300 11.86700 31.99400
O  45.44700 12.60500 32.36300
C  43.33200 11.40600 32.87400
C  43.84600 10.75200 34.11400
O  44.53200 9.73000 34.04200
O  43.34900 11.43600 35.24300
C  43.71300 10.72900 36.48500
H  37.70800 7.40000 31.93500
H  39.09100 7.73000 25.43600
H  44.22300 11.04600 26.51900
H  41.41200 9.24300 34.38600
H  38.56800 8.99300 33.86900
H  38.91600 7.08200 35.07800
H  40.50800 7.39700 35.20600
H  39.96700 6.32100 33.94800
H  39.27200 11.36000 33.94100
H  40.99900 11.69400 34.35200
H  39.72900 10.05800 36.59200
H  38.62000 11.25700 36.11800
H  35.34300 6.32100 29.93500
H  36.55000 5.82700 30.98700
H  36.23200 5.00500 29.40700
H  34.71400 6.43100 27.65500
H  35.59000 4.87500 27.23100
H  34.72300 5.88300 26.02400
H  40.46300 9.40700 24.20700
H  43.25800 9.55400 24.57800
H  41.70500 6.78800 24.86800
H  42.45900 7.48100 23.43600
H  40.72500 7.14700 23.54400
H  41.94800 11.19600 23.30200
H  42.92400 12.02300 24.55500
H  40.11200 12.22300 24.04200
H  41.24300 13.23300 25.00000
H  40.40800 11.87300 25.75900
H  46.25400 11.39000 27.90500
H  46.63400 12.08600 29.49400
H  45.87400 13.07200 28.32300
H  42.80500 12.32100 33.14600
H  43.76700 11.49800 37.25500
H  44.58900 10.09100 36.36400
H  42.88400 10.06200 36.71900
Mg 46.99300 25.07200 27.59500
C  47.99500 27.27100 30.21600
C  45.82100 23.02500 30.07000
C  46.47500 22.85200 25.17500
C  48.63600 27.10700 25.38800
N  46.92700 25.17400 29.91700
C  47.31400 26.15700 30.72300
C  47.01700 25.96700 32.20900
C  46.31100 24.58300 32.09100
C  46.33900 24.18300 30.60200
C  47.07600 23.54200 32.92900
C  46.07100 27.13100 32.74800
C  46.43700 27.71300 34.15400
H  45.37700 27.70400 35.31500
N  46.15200 23.23700 27.65200
C  45.72300 22.57700 28.74900
C  45.16000 21.30100 28.32900
C  45.46900 21.17900 26.92700
C  46.10100 22.44600 26.49100
C  44.49300 20.36500 29.24000
C  45.15800 20.08100 25.93800
O  45.45000 20.15200 24.74600
C  44.34000 18.89300 26.42400
N  47.42400 24.95300 25.48800
C  46.99400 24.00500 24.68300
C  47.57500 24.10000 23.26400
C  48.07600 25.68800 23.30400
C  48.04800 26.01200 24.84900
C  48.69000 22.99900 23.15400
C  47.16200 26.74700 22.46700
C  47.88200 27.88700 21.77200
N  48.18700 26.75700 27.71000
C  48.74900 27.52500 26.75300
C  49.22200 28.81300 27.19800
C  48.98100 28.70700 28.59500
C  48.38200 27.43400 28.83000
C  49.75800 29.88700 26.38600
C  49.13100 29.38600 29.83900
O  49.64000 30.49500 30.06200
C  48.48500 28.52900 30.90600
C  49.47300 28.30800 31.99600
O  50.47900 27.61400 31.95100
O  49.08700 29.04800 33.10200
C  49.91600 28.91400 34.28500
H  45.40500 22.44100 30.89400
H  46.31900 22.18700 24.32300
H  49.14200 27.81700 24.73100
H  47.97500 25.92600 32.72700
H  45.29300 24.70900 32.46000
H  46.68300 22.54000 32.75700
H  46.79300 23.80200 33.95000
H  48.13200 23.62100 32.67200
H  45.05500 26.73600 32.75300
H  46.15200 27.87700 31.95700
H  46.67700 28.74900 33.91400
H  47.27200 27.14400 34.56400
H  43.59700 19.92300 28.80300
H  44.08600 20.83800 30.13300
H  45.19600 19.63300 29.63800
H  44.64100 18.61900 27.43500
H  44.75800 18.20900 25.68500
H  43.30100 19.13200 26.20000
H  46.71600 23.92700 22.61600
H  49.08400 25.58600 22.90400
H  48.43900 22.19900 22.45700
H  48.97000 22.52200 24.09300
H  49.61600 23.43900 22.78200
H  46.39900 27.05400 23.18200
H  46.62000 26.20800 21.69000
H  48.00300 28.65000 22.54000
H  47.37000 28.25000 20.88100
H  48.88000 27.58300 21.45700
H  50.44300 29.40600 25.68700
H  50.30900 30.63800 26.95200
H  48.99900 30.31100 25.73000
H  47.76300 29.18200 31.39500
H  50.11100 29.94400 34.58400
H  50.86400 28.38100 34.21200
H  49.38000 28.32800 35.03200

