158

Mg -10.24000 38.80300 42.20300
C  -8.51900 35.73000 41.61600
C  -7.85100 40.34300 40.43900
C  -12.51100 41.32300 41.88100
C  -12.84400 36.76300 43.50100
N  -8.49000 38.04100 40.95900
C  -7.95000 36.79500 40.87100
C  -6.66900 36.75800 40.04400
C  -6.38800 38.25200 39.98000
C  -7.61600 38.95100 40.52900
C  -5.10200 38.83900 40.69500
C  -6.80400 36.03700 38.63300
C  -5.67300 35.07900 38.27400
H  -4.70600 35.42700 37.16600
N  -10.14600 40.71600 41.32400
C  -9.06200 41.20200 40.68100
C  -9.29300 42.58800 40.44400
C  -10.63300 42.92900 40.82500
C  -11.18700 41.66800 41.43600
C  -8.31900 43.40500 39.58900
C  -11.31100 44.28200 40.66900
O  -10.73400 45.21700 40.10900
C  -12.64200 44.57200 41.32000
N  -12.25700 39.05600 42.67000
C  -12.99100 40.16800 42.45900
C  -14.46900 40.08100 42.91200
C  -14.57300 38.53000 43.34300
C  -13.12500 38.04800 43.13200
C  -14.69600 41.08800 44.04000
C  -15.55800 37.54900 42.52900
C  -16.46700 36.73500 43.49600
N  -10.57700 36.73000 42.64600
C  -11.63600 36.07600 43.29500
C  -11.24600 34.68600 43.50100
C  -9.99800 34.47100 42.84500
C  -9.69100 35.77100 42.34800
C  -12.00600 33.67300 44.25600
C  -9.00500 33.53400 42.52800
O  -8.91600 32.38100 42.73800
C  -7.94900 34.32900 41.69900
C  -6.59500 34.18100 42.36200
O  -5.90300 33.17100 42.42800
O  -6.19100 35.40900 42.78800
C  -4.96300 35.46700 43.60400
H  -7.05600 40.86300 39.90100
H  -13.29000 42.07300 41.72300
H  -13.73100 36.24400 43.87000
H  -5.85700 36.30500 40.61400
H  -6.34800 38.49600 38.91800
H  -5.38900 39.74200 41.23300
H  -4.37000 39.10600 39.93300
H  -4.59100 38.18000 41.39800
H  -6.70100 36.80900 37.87100
H  -7.72900 35.46000 38.61900
H  -6.09300 34.11700 37.97900
H  -5.02100 34.76400 39.08800
H  -8.91100 44.07700 38.96700
H  -7.73600 42.86000 38.84600
H  -7.75100 44.12800 40.17400
H  -12.81900 44.18100 42.32200
H  -13.19800 44.02400 40.55900
H  -12.90500 45.62200 41.19300
H  -15.13500 40.30300 42.07800
H  -14.77200 38.39600 44.40600
H  -14.84000 42.13100 43.75900
H  -13.88200 40.91800 44.74400
H  -15.65000 40.85700 44.51400
H  -15.04500 36.87600 41.84100
H  -16.14800 38.38600 42.15700
H  -16.52400 35.69500 43.17400
H  -17.45600 37.16300 43.66000
H  -16.00000 36.77900 44.48000
H  -11.50300 32.71000 44.33900
H  -12.99200 33.70200 43.79300
H  -12.11000 34.01200 45.28700
H  -8.00900 33.85100 40.72100
H  -4.58600 34.49900 43.93600
H  -5.14900 35.95400 44.56100
H  -4.15600 36.01700 43.12000
Mg -5.46200 25.05000 26.59900
C  -4.06600 26.50200 29.47700
C  -7.63400 23.16200 28.53900
C  -6.44600 23.51900 23.88800
C  -3.13000 26.86300 24.74000
N  -5.77200 24.88600 28.75000
C  -5.08400 25.53100 29.74300
C  -5.47800 24.92600 31.04800
C  -6.53100 23.83000 30.77600
C  -6.67100 24.00100 29.25900
C  -6.15400 22.45500 31.34800
C  -5.94900 26.02700 32.03900
C  -5.64800 25.70700 33.50100
H  -5.08000 24.38200 33.88800
N  -6.90100 23.66300 26.30300
C  -7.65000 22.94100 27.20200
C  -8.59000 21.98700 26.51500
C  -8.30300 22.16000 25.15600
C  -7.16400 23.16800 25.06200
C  -9.45900 21.13600 27.24000
C  -9.04700 21.58600 23.98400
O  -8.66500 21.71800 22.82700
C  -10.27300 20.64000 24.20400
N  -4.88100 25.22600 24.63300
C  -5.42100 24.41800 23.68600
C  -4.70400 24.51900 22.31200
C  -3.86600 25.84200 22.58000
C  -3.97900 26.06300 24.06800
C  -3.91100 23.22800 21.77700
C  -4.40500 27.10400 21.84300
C  -3.51500 27.71000 20.78800
N  -3.92500 26.53000 26.96900
C  -3.06900 27.17700 26.13000
C  -2.13900 28.03700 26.82600
C  -2.44100 27.77600 28.17800
C  -3.58100 26.80200 28.17600
C  -1.04900 28.81700 26.16100
C  -2.09000 28.02800 29.57900
O  -1.35300 28.74500 30.20500
C  -3.13200 27.22700 30.40000
C  -2.41200 26.38800 31.33900
O  -2.05500 25.19900 31.09400
O  -1.99700 27.09900 32.47000
C  -1.38800 26.32100 33.50100
H  -8.42900 22.70600 29.13300
H  -6.70400 22.95700 22.98800
H  -2.38500 27.35100 24.10800
H  -4.51300 24.49600 31.31400
H  -7.48300 24.18600 31.17000
H  -6.16800 21.69100 30.57100
H  -6.86800 22.13200 32.10600
H  -5.17400 22.39100 31.82100
H  -7.02300 26.21600 32.06600
H  -5.53600 27.00100 31.77800
H  -6.50700 25.92500 34.13700
H  -4.93400 26.43200 33.89000
H  -9.18600 20.18300 26.78700
H  -10.48300 21.35200 26.93500
H  -9.34800 21.06200 28.32200
H  -10.02000 19.73200 24.75300
H  -10.50700 20.23400 23.22000
H  -11.10600 21.19600 24.63300
H  -5.47500 24.68500 21.56000
H  -2.82100 25.61900 22.36500
H  -2.83700 23.36400 21.65000
H  -4.28000 22.84400 20.82600
H  -3.99900 22.40600 22.48800
H  -4.68800 27.88600 22.54800
H  -5.34500 26.82900 21.36500
H  -4.15300 27.84600 19.91500
H  -2.61500 27.10300 20.68200
H  -3.22300 28.69600 21.14800
H  -0.48600 29.36300 26.91800
H  -1.26100 29.48800 25.32900
H  -0.29100 28.14400 25.76100
H  -3.63900 28.00200 30.97400
H  -2.10200 26.28100 34.32400
H  -0.53900 26.94600 33.77900
H  -1.09100 25.32600 33.16900

