158

Mg 44.09200 4.19300 46.93300
C  42.10200 7.08700 46.78000
C  41.33400 2.25400 46.95800
C  46.12300 1.71000 46.67500
C  46.98500 6.47100 46.85500
N  41.95800 4.73200 46.84700
C  41.35200 5.94900 46.79400
C  39.79900 5.79900 46.88300
C  39.63300 4.25100 46.99200
C  41.08300 3.68700 46.84400
C  38.99800 3.88000 48.31000
C  38.98200 6.48100 45.80800
C  39.53200 6.30300 44.33800
H  38.52200 6.03700 43.18400
N  43.75900 2.22100 46.77000
C  42.58900 1.58900 46.82900
C  42.76600 0.19300 46.62500
C  44.17000 -0.10900 46.55800
C  44.77800 1.27400 46.72000
C  41.66600 -0.79800 46.45100
C  44.79200 -1.45800 46.41700
O  44.04600 -2.41300 46.18900
C  46.31000 -1.78300 46.44100
N  46.32000 4.15200 46.57000
C  46.80200 2.90700 46.67500
C  48.39900 2.98000 46.73700
C  48.69400 4.54300 46.75000
C  47.30800 5.11700 46.71300
C  49.15400 2.08000 47.80000
C  49.46400 5.04300 45.49100
C  51.02800 4.86400 45.48900
N  44.52800 6.36300 46.71200
C  45.69400 7.07400 46.77000
C  45.42000 8.50600 46.81800
C  43.99300 8.55300 46.85600
C  43.49000 7.24200 46.76200
C  46.40700 9.57800 46.89500
C  42.83400 9.42500 46.83200
O  42.81600 10.64100 46.67300
C  41.55800 8.54100 46.82000
C  40.77400 8.83600 48.12500
O  40.92500 8.19500 49.16600
O  39.96900 9.91900 48.06300
C  39.09400 10.00300 49.24200
H  40.40700 1.68000 46.91500
H  46.82200 0.87000 46.67600
H  47.91700 6.99100 47.08800
H  39.43800 6.16900 47.84200
H  39.01100 3.81800 46.20900
H  38.30100 4.63600 48.67000
H  39.73200 3.61100 49.07000
H  38.53700 2.91400 48.10700
H  38.69700 7.50200 46.06200
H  38.07100 5.88500 45.76700
H  40.28400 5.52400 44.21500
H  40.02400 7.25300 44.13000
H  41.85800 -1.55500 45.69000
H  40.71500 -0.26500 46.45700
H  41.63500 -1.42300 47.34300
H  46.83100 -1.21000 45.67400
H  46.51100 -2.84200 46.27400
H  46.60600 -1.65200 47.48200
H  48.63600 2.47400 45.80100
H  49.32300 4.81900 47.59700
H  48.29800 1.77400 48.40200
H  49.85600 2.72000 48.33300
H  49.55600 1.18500 47.32500
H  49.19500 6.05600 45.19100
H  49.09600 4.37300 44.71400
H  51.34500 4.19500 44.68900
H  51.31700 4.45700 46.45800
H  51.52900 5.81300 45.29800
H  47.40100 9.19300 46.66800
H  46.51800 9.88200 47.93600
H  46.16500 10.43000 46.26000
H  40.97800 8.79500 45.93300
H  39.59000 10.63100 49.98200
H  38.69200 9.18500 49.84000
H  38.20100 10.46300 48.81700
Mg 29.97600 58.47300 40.13900
C  27.21500 56.65300 39.06300
C  31.98300 55.92300 39.30100
C  32.52000 60.54900 40.27400
C  27.73500 61.38300 40.54400
N  29.58700 56.49300 39.31100
C  28.46100 55.94800 39.02700
C  28.59800 54.47600 38.59000
C  30.04400 54.22700 39.13300
C  30.61000 55.65800 39.33300
C  30.11800 53.40100 40.49200
C  28.46600 54.17300 37.03400
C  27.34500 53.26100 36.49800
H  26.61300 53.81200 35.30000
N  32.03800 58.25100 39.85200
C  32.69800 57.11900 39.52200
C  34.12200 57.27600 39.59700
C  34.32600 58.64100 39.87100
C  32.92100 59.21200 40.08400
C  35.11900 56.14600 39.34400
C  35.72000 59.31000 39.88600
O  36.68500 58.74700 39.49900
C  35.87100 60.75800 40.26000
N  30.07400 60.69100 40.53700
C  31.36400 61.26500 40.48900
C  31.22900 62.80200 40.62300
C  29.67300 63.05300 40.85700
C  29.11800 61.66000 40.73900
C  32.13100 63.49300 41.67900
C  29.22500 64.11500 39.82400
C  29.42200 65.57200 40.27200
N  27.85700 58.95600 39.89300
C  27.12000 60.15400 40.04900
C  25.71700 59.91200 39.67900
C  25.65300 58.52000 39.37200
C  26.99200 58.04300 39.39300
C  24.64700 60.94000 39.57300
C  24.86000 57.39100 38.90100
O  23.65400 57.35200 38.58400
C  25.79300 56.16800 38.75400
C  25.43200 54.98400 39.57400
O  25.88500 54.73400 40.70600
O  24.36100 54.30000 39.00300
C  23.80700 53.29400 39.84800
H  32.50600 54.97600 39.14900
H  33.28200 61.32300 40.15900
H  26.99600 62.18000 40.65700
H  27.89300 53.81700 39.09700
H  30.54400 53.58000 38.41300
H  30.38200 54.00200 41.36200
H  30.98500 52.74400 40.42000
H  29.18200 52.84800 40.57300
H  29.39200 53.86200 36.55100
H  28.28500 55.12400 36.53300
H  26.59100 53.07900 37.26300
H  27.73900 52.28600 36.20800
H  35.93800 56.52200 38.73100
H  34.67900 55.28700 38.83800
H  35.53200 55.86500 40.31200
H  36.88200 61.07100 40.52300
H  35.24200 60.99200 41.11900
H  35.56600 61.33900 39.38900
H  31.50400 63.09900 39.61100
H  29.50600 63.47300 41.84900
H  32.69000 62.73900 42.23300
H  31.48700 63.98800 42.40500
H  32.90600 64.18200 41.34300
H  28.15800 64.07700 39.60200
H  29.74700 63.94100 38.88300
H  28.43000 66.02400 40.25800
H  30.00500 66.07100 39.49900
H  29.80700 65.72000 41.28100
H  24.81000 61.53600 38.67600
H  24.86400 61.63600 40.38400
H  23.71200 60.38200 39.62200
H  25.78800 55.77600 37.73700
H  24.64600 52.65700 40.12700
H  23.03500 52.69600 39.36200
H  23.33500 53.76700 40.70900

