158

Mg 2.72500 -2.78700 43.96100
C  5.89000 -0.98200 43.22400
C  1.09900 -0.29600 42.11900
C  0.02300 -4.59100 44.15200
C  4.58700 -5.10300 45.49200
N  3.46600 -0.83100 42.80800
C  4.77200 -0.33200 42.68700
C  4.77800 0.91200 41.80100
C  3.21600 1.25400 41.80600
C  2.50000 -0.02700 42.25900
C  2.69600 2.62100 42.35900
C  5.44000 0.64800 40.45400
C  6.43900 1.67400 39.89800
H  6.16300 2.17100 38.53000
N  0.87200 -2.51000 43.12300
C  0.36100 -1.42500 42.47800
C  -1.02600 -1.69900 42.21500
C  -1.31400 -2.99600 42.68900
C  -0.15300 -3.43400 43.36100
C  -1.93600 -0.73400 41.45000
C  -2.64100 -3.76100 42.54800
O  -3.60400 -3.29400 41.98300
C  -2.79600 -5.26500 42.98700
N  2.34800 -4.85700 44.34800
C  1.07000 -5.20800 44.63800
C  1.01800 -6.46800 45.44600
C  2.49400 -6.66900 45.90800
C  3.15900 -5.44300 45.26200
C  -0.00100 -6.53600 46.68400
C  3.13400 -8.08900 45.72600
C  3.47400 -8.35200 44.25900
N  4.75200 -2.98400 44.47300
C  5.35100 -4.03300 45.10300
C  6.75200 -3.78900 45.31800
C  6.99500 -2.61600 44.61800
C  5.72300 -2.16900 44.08000
C  7.67000 -4.79300 45.96100
C  8.03600 -1.69500 44.13700
O  9.23100 -1.75000 44.25600
C  7.39000 -0.58700 43.28000
C  7.49600 0.74900 43.95800
O  6.84800 1.07800 44.95600
O  8.48400 1.53000 43.39000
C  8.87300 2.63300 44.27800
H  0.64900 0.49000 41.50900
H  -0.91300 -5.08800 44.41400
H  5.22800 -5.79900 46.03600
H  5.22200 1.73400 42.36200
H  2.95800 1.36500 40.75300
H  2.35100 3.22800 41.52300
H  3.46300 3.20700 42.86500
H  1.88400 2.43900 43.06300
H  4.68600 0.43300 39.69700
H  5.98900 -0.28600 40.56900
H  7.40800 1.17700 39.91800
H  6.33700 2.56100 40.52400
H  -2.51700 -0.07000 42.09000
H  -2.51600 -1.28000 40.70600
H  -1.32100 -0.06200 40.85000
H  -1.92100 -5.73600 42.53900
H  -3.68900 -5.65300 42.49600
H  -2.99800 -5.38800 44.05100
H  0.72400 -7.19200 44.68600
H  2.60600 -6.46200 46.97200
H  -0.78200 -7.27700 46.51700
H  -0.43600 -5.55500 46.87600
H  0.46200 -6.82500 47.62800
H  2.37300 -8.81000 46.02500
H  4.05200 -8.21100 46.30100
H  4.52000 -8.10700 44.07700
H  2.85600 -7.79000 43.55900
H  3.30300 -9.39600 43.99600
H  7.39400 -5.79600 45.63700
H  7.58300 -4.62800 47.03500
H  8.71900 -4.56300 45.77400
H  7.73400 -0.52500 42.24800
H  9.11300 2.17300 45.23700
H  8.17200 3.46700 44.26300
H  9.82800 3.00600 43.90800
Mg 36.54200 48.64700 24.51400
C  36.82400 46.81300 27.47000
C  35.49100 51.42600 26.33400
C  36.01600 50.30300 21.67000
C  37.73000 45.98800 22.78800
N  36.04100 48.97300 26.61400
C  36.37400 48.16000 27.71400
C  36.17000 48.89400 29.05200
C  35.81100 50.32400 28.63000
C  35.78000 50.27200 27.08400
C  34.40700 50.82300 29.18200
C  37.36400 48.74400 30.00100
C  37.08600 48.14400 31.36600
H  35.76500 48.27200 32.08700
N  35.80100 50.60700 24.07000
C  35.43800 51.57500 24.91500
C  34.86800 52.67600 24.23600
C  35.07200 52.45100 22.85000
C  35.65300 51.09700 22.81700
C  34.46900 53.92500 24.94500
C  34.66200 53.28400 21.57100
O  34.92500 52.88900 20.42800
C  33.90100 54.60500 21.69700
N  36.70300 48.11300 22.54700
C  36.46700 48.95900 21.55400
C  36.90400 48.44100 20.19600
C  37.48200 47.07200 20.50300
C  37.28400 47.03300 22.04600
C  35.96100 48.33600 19.05700
C  38.92700 46.92000 19.97500
C  40.15500 47.14800 20.98500
N  37.21000 46.72900 25.01800
C  37.65000 45.74900 24.19200
C  37.95800 44.54200 24.92600
C  37.62300 44.91200 26.23400
C  37.21600 46.26500 26.20100
C  38.45100 43.13700 24.38100
C  37.58400 44.42700 27.58600
O  37.96700 43.38200 28.08900
C  37.14900 45.63400 28.47000
C  36.04800 45.26700 29.32900
O  34.92100 45.23700 28.86700
O  36.48900 44.89100 30.57900
C  35.48100 44.31700 31.49100
H  35.17300 52.18300 27.05400
H  35.95400 50.85100 20.72800
H  38.17200 45.19400 22.18200
H  35.28500 48.45700 29.51400
H  36.55600 51.06600 28.91500
H  34.65700 51.53600 29.96700
H  33.84200 50.03500 29.68000
H  33.76500 51.20700 28.38900
H  37.84300 49.68400 30.27600
H  38.06100 48.16400 29.39600
H  37.84700 48.66400 31.94900
H  37.43900 47.11300 31.37800
H  35.21200 54.66600 24.65100
H  34.32600 53.75300 26.01200
H  33.49400 54.25000 24.58100
H  34.39900 55.28900 22.38400
H  32.91700 54.42200 22.12700
H  33.71500 55.04600 20.71700
H  37.63300 49.21900 19.96800
H  36.97300 46.17500 20.14800
H  35.88900 49.31500 18.58300
H  35.00900 48.08000 19.52200
H  36.26800 47.59500 18.31900
H  39.05900 47.57800 19.11600
H  39.07100 45.87800 19.68800
H  40.42100 46.13900 21.30300
H  39.96500 47.85400 21.79400
H  40.98300 47.64800 20.48200
H  37.79900 42.33300 24.71900
H  39.49600 42.97700 24.64500
H  38.46200 43.12200 23.29100
H  37.94000 45.91000 29.16700
H  35.80600 44.47100 32.52000
H  35.36300 43.25900 31.25600
H  34.53300 44.84900 31.41900

