158

Mg -1.60500 17.78300 27.48400
C  -1.84900 15.75400 30.33000
C  -1.93600 20.53800 29.64900
C  -1.95100 19.79200 24.81100
C  -1.71700 14.89100 25.50200
N  -1.78000 18.14100 29.79800
C  -1.80400 17.09000 30.67100
C  -1.93000 17.70700 32.07900
C  -1.95100 19.26000 31.85000
C  -1.77000 19.33900 30.32600
C  -3.19700 19.89600 32.51500
C  -0.85400 17.21100 33.12300
C  -0.17600 18.20500 34.07800
H  0.05700 17.66900 35.53600
N  -1.86800 19.87100 27.24800
C  -1.97200 20.82700 28.24900
C  -1.98000 22.12700 27.59300
C  -2.18100 21.93800 26.14900
C  -1.99400 20.45500 26.05800
C  -2.02200 23.45300 28.34800
C  -2.41500 22.93500 24.99000
O  -2.51000 22.58000 23.78500
C  -2.35100 24.46400 25.33200
N  -1.69600 17.40100 25.44400
C  -1.89500 18.36500 24.57400
C  -1.77600 17.76600 23.13800
C  -1.61100 16.23600 23.34700
C  -1.75100 16.14800 24.91500
C  -2.89400 18.21100 22.11400
C  -0.39500 15.55200 22.58700
C  0.99700 16.23100 22.84600
N  -1.84200 15.76800 27.83800
C  -1.84600 14.68200 26.94000
C  -2.00400 13.43700 27.61200
C  -2.01300 13.78900 28.96100
C  -1.83200 15.22000 29.02200
C  -2.04900 12.05600 27.02000
C  -2.26500 13.35700 30.39300
O  -2.44100 12.26600 30.84900
C  -1.91900 14.55500 31.26700
C  -0.61300 14.20100 31.95200
O  0.42000 13.87000 31.42900
O  -0.84100 14.02700 33.31200
C  0.27900 13.45700 34.13600
H  -1.95300 21.39900 30.32000
H  -2.07100 20.31100 23.85700
H  -1.65000 14.08200 24.77200
H  -2.83400 17.26500 32.49800
H  -1.07500 19.75100 32.27300
H  -3.73600 20.36700 31.69300
H  -2.78200 20.55300 33.27900
H  -3.77700 19.12400 33.02300
H  -0.03200 16.69100 32.63100
H  -1.22300 16.44300 33.80300
H  -0.71200 19.15300 34.13400
H  0.84800 18.28900 33.71400
H  -1.61400 23.28300 29.34400
H  -3.03800 23.84000 28.42900
H  -1.39800 24.18000 27.82800
H  -2.57000 25.06400 24.44800
H  -1.34400 24.68300 25.68800
H  -3.08600 24.86400 26.03000
H  -0.84100 18.21800 22.80800
H  -2.54900 15.86200 22.93800
H  -2.38800 18.68800 21.27400
H  -3.67000 18.82200 22.57400
H  -3.49800 17.43300 21.64600
H  -0.63500 15.77400 21.54700
H  -0.47500 14.46900 22.68500
H  0.89000 17.21600 23.30000
H  1.63700 16.21700 21.96300
H  1.50400 15.60900 23.58400
H  -1.16400 12.07200 26.38400
H  -2.98000 11.95100 26.46200
H  -1.77000 11.30500 27.75800
H  -2.60200 14.69900 32.10400
H  1.26400 13.69900 33.73700
H  0.05400 12.39000 34.15600
H  0.23700 13.81200 35.16600
Mg 43.89300 3.01200 46.96300
C  42.04700 6.04200 46.82800
C  40.78400 1.31100 46.96400
C  45.62700 0.15900 46.64800
C  46.91700 4.85900 46.70900
N  41.72400 3.55900 46.81300
C  41.25800 4.84500 46.76700
C  39.77900 4.87500 47.19800
C  39.35800 3.36400 47.30300
C  40.69400 2.69500 47.04200
C  38.84300 2.96100 48.69700
C  38.77000 5.74800 46.23000
C  39.15000 6.25100 44.80900
H  38.24300 5.90600 43.60300
N  43.33200 1.04400 46.67500
C  42.03700 0.57600 46.69300
C  42.03200 -0.87900 46.57500
C  43.37900 -1.24300 46.34100
C  44.20500 -0.03500 46.57700
C  40.69100 -1.81900 46.61400
C  43.74200 -2.68600 45.97600
O  42.84600 -3.57600 45.83500
C  45.16100 -3.04300 45.70400
N  46.01600 2.63900 46.59300
C  46.46100 1.33500 46.63900
C  47.99300 1.27700 46.60400
C  48.43700 2.81400 46.65200
C  47.04900 3.48900 46.69900
C  48.53200 0.27300 47.59800
C  49.28700 3.34500 45.45700
C  50.40700 4.33700 45.74900
N  44.39200 5.04800 46.81800
C  45.66900 5.63500 46.72100
C  45.51900 7.12500 46.72800
C  44.09200 7.30200 46.88600
C  43.44100 6.00300 46.87600
C  46.60200 8.06400 46.67600
C  43.02000 8.30000 47.09700
O  42.93900 9.51900 47.17800
C  41.71500 7.44500 46.98700
C  40.98700 7.78900 48.26200
O  41.17000 7.31300 49.37300
O  39.93100 8.63000 47.92000
C  38.97800 8.93200 48.98400
H  39.86000 0.74700 47.10600
H  46.28000 -0.71200 46.73300
H  47.90700 5.30800 46.81600
H  39.66000 5.30800 48.19100
H  38.65300 3.06500 46.52800
H  38.39500 3.70000 49.36100
H  39.75400 2.58500 49.16300
H  38.17000 2.10500 48.73900
H  38.54100 6.59800 46.87200
H  37.82000 5.21600 46.27800
H  40.08300 5.72800 44.60200
H  39.27500 7.33100 44.88100
H  40.84800 -2.69800 47.23800
H  40.38700 -2.15000 45.62100
H  39.84700 -1.41700 47.17500
H  45.72400 -3.05300 46.63700
H  45.75900 -2.49700 44.97500
H  45.10200 -4.03500 45.25500
H  48.32500 0.99500 45.60500
H  48.95600 2.99100 47.59400
H  48.72000 -0.58000 46.94600
H  47.77900 0.03600 48.35000
H  49.43500 0.64300 48.08400
H  48.61400 3.70200 44.67700
H  49.83100 2.44900 45.15900
H  51.33300 3.89100 45.38700
H  50.42700 4.54000 46.82000
H  50.32300 5.28800 45.22300
H  46.73200 8.33000 47.72500
H  46.37600 8.89000 46.00000
H  47.58200 7.67500 46.40000
H  41.17600 7.90900 46.16200
H  38.43500 9.83100 48.69100
H  39.48500 9.14700 49.92400
H  38.30100 8.10300 49.19200

