158

Mg 0.85500 7.78900 26.19900
C  1.17700 9.25400 29.35800
C  0.47300 4.79100 27.64400
C  1.13700 6.39700 23.13500
C  1.64900 10.87300 24.82500
N  0.93600 7.06900 28.25000
C  0.77400 7.84200 29.39900
C  0.52800 7.00000 30.66300
C  0.48400 5.54500 30.06900
C  0.57500 5.85400 28.57000
C  1.57600 4.61000 30.67000
C  -0.81400 7.47700 31.40400
C  -0.77700 7.81000 32.91400
H  0.24500 7.23700 33.79100
N  0.72700 5.84400 25.50400
C  0.53500 4.76700 26.26100
C  0.54000 3.59800 25.42800
C  0.73500 4.00800 24.11300
C  0.86400 5.45700 24.19500
C  0.28000 2.15900 25.99500
C  0.77100 3.03800 22.81500
O  0.94300 3.52400 21.71200
C  0.61600 1.57700 22.79400
N  1.12600 8.58900 24.20800
C  1.29800 7.80700 23.14600
C  1.66600 8.62100 21.87400
C  1.80700 10.08500 22.45400
C  1.57200 9.81600 23.90900
C  2.98200 8.12100 21.14100
C  0.84100 11.13500 21.90400
C  -0.71000 11.02300 22.13500
N  1.32300 9.69600 26.89700
C  1.55100 10.82800 26.22800
C  1.66000 11.93300 27.10800
C  1.53200 11.39000 28.38000
C  1.34200 10.05200 28.19800
C  2.09300 13.31100 26.74100
C  1.74000 11.59300 29.78200
O  2.08500 12.55900 30.38700
C  1.17700 10.30300 30.49700
C  2.10500 10.08200 31.66500
O  3.29600 9.68600 31.71200
O  1.53300 10.71500 32.71900
C  2.30500 11.10300 33.92800
H  0.41000 3.88400 28.24900
H  1.27000 5.99100 22.13000
H  1.90900 11.88500 24.50800
H  1.44700 7.25400 31.19200
H  -0.48400 5.13500 30.35500
H  2.48600 4.36500 30.12200
H  1.03800 3.75700 31.08400
H  1.87700 4.93900 31.66500
H  -1.57100 6.69100 31.41300
H  -1.18500 8.32300 30.82600
H  -1.77000 7.52600 33.26400
H  -0.56000 8.87800 32.92500
H  0.94900 1.56000 25.37800
H  -0.77000 1.93200 25.81300
H  0.62300 2.15800 27.03000
H  1.39100 0.97400 23.26800
H  0.58900 1.37300 21.72400
H  -0.35400 1.37500 23.24800
H  0.83500 8.56700 21.17100
H  2.78200 10.56700 22.37900
H  3.61100 7.71700 21.93400
H  3.57000 8.90800 20.66800
H  2.73800 7.42300 20.34100
H  0.99700 11.26900 20.83300
H  1.17400 12.11200 22.25400
H  -0.88500 10.08800 22.66700
H  -1.18400 10.96500 21.15500
H  -1.15400 11.87800 22.64400
H  2.80100 13.59200 27.52100
H  1.11200 13.75000 26.56100
H  2.67300 13.48400 25.83500
H  0.12200 10.43900 30.73300
H  2.22200 12.13600 34.26500
H  3.37700 10.91200 33.89400
H  1.86000 10.47500 34.70000
Mg 35.47800 2.61000 30.09100
C  33.09700 3.73200 32.38000
C  37.80600 2.47000 32.64500
C  37.67800 1.69700 27.89600
C  33.09000 3.29600 27.53400
N  35.42900 3.12700 32.25300
C  34.34700 3.51200 32.95600
C  34.71100 3.57500 34.44900
C  36.20100 3.23400 34.53800
C  36.52300 2.99600 33.03600
C  37.06600 4.43800 35.01000
C  33.89300 2.63500 35.40400
C  33.55900 3.13400 36.81900
H  34.35400 4.18900 37.66000
N  37.45200 2.13900 30.25700
C  38.22100 2.01300 31.35900
C  39.48100 1.39800 31.10900
C  39.49700 1.25600 29.67700
C  38.14900 1.68900 29.20700
C  40.56000 1.11600 32.10200
C  40.56400 0.66700 28.81900
O  40.47900 0.47900 27.60900
C  41.90900 0.27900 29.46200
N  35.50700 2.80600 27.90600
C  36.44400 2.03800 27.32500
C  35.98700 1.78600 25.86400
C  34.57200 2.34200 25.69100
C  34.36700 2.80600 27.14700
C  36.98300 2.38200 24.74500
C  33.43700 1.37200 25.18200
C  33.30100 -0.09000 25.79700
N  33.48700 3.38300 29.87500
C  32.70100 3.55600 28.84500
C  31.37300 3.92200 29.32100
C  31.53000 3.94800 30.68500
C  32.84500 3.66700 30.97600
C  30.15200 3.94100 28.41200
C  30.75500 4.09900 31.91300
O  29.51000 4.32000 32.09300
C  31.78900 4.05600 33.04200
C  31.80700 5.40800 33.64700
O  32.50700 6.34600 33.27400
O  31.02400 5.34200 34.74000
C  31.18500 6.54000 35.63600
H  38.40300 2.44300 33.55900
H  38.26400 1.25900 27.08500
H  32.41000 3.50300 26.70600
H  34.50600 4.59200 34.78200
H  36.55600 2.39200 35.13200
H  36.63900 4.84900 35.92500
H  37.04200 5.08500 34.13300
H  38.06800 4.07200 35.23200
H  34.44800 1.69700 35.44000
H  32.93200 2.26800 35.04500
H  33.42500 2.28700 37.49200
H  32.59300 3.63800 36.79600
H  40.06600 1.25100 33.06400
H  41.43800 1.73500 31.92200
H  40.75400 0.06300 31.89700
H  42.31000 1.18900 29.90900
H  42.62200 0.00800 28.68300
H  41.83400 -0.58400 30.12300
H  36.00700 0.72200 25.62600
H  34.34500 3.19900 25.05700
H  36.37800 2.89500 23.99700
H  37.64200 1.64600 24.28600
H  37.57800 3.19500 25.16200
H  33.79200 1.16200 24.17300
H  32.49900 1.92100 25.26600
H  33.92100 -0.04600 26.69200
H  33.65700 -0.94900 25.23000
H  32.28000 -0.27200 26.13400
H  30.19700 3.20200 27.61200
H  29.90900 4.93200 28.03000
H  29.32700 3.59900 29.03700
H  31.34600 3.35100 33.74600
H  32.26000 6.63900 35.78700
H  30.70300 6.44000 36.60900
H  30.87600 7.47600 35.16900

