158

Mg 44.25300 5.06400 48.88400
C  42.41900 8.05700 48.09600
C  41.52500 3.19000 47.83900
C  46.19600 2.42500 48.68500
C  47.15300 7.13200 49.04200
N  42.29200 5.56400 47.94600
C  41.70800 6.83200 47.76900
C  40.27900 6.65300 47.32700
C  39.99500 5.11800 47.47900
C  41.37700 4.57900 47.71700
C  39.04900 4.90400 48.68900
C  40.02700 7.07200 45.82500
C  38.56500 7.37600 45.47900
H  38.14300 7.09100 44.03200
N  43.86900 3.04500 48.59000
C  42.67800 2.41800 48.19000
C  42.85100 0.99400 48.23700
C  44.23400 0.73900 48.43600
C  44.84200 2.07900 48.67500
C  41.79900 0.06800 47.67900
C  44.95200 -0.62000 48.48000
O  44.42000 -1.73000 48.31600
C  46.38000 -0.65600 48.83500
N  46.37300 4.81900 48.88200
C  46.90000 3.60200 48.87300
C  48.41100 3.63400 48.92700
C  48.72500 5.16200 49.08400
C  47.31600 5.75500 49.03900
C  48.91900 2.62500 50.05600
C  49.77700 5.63100 48.06500
C  51.32400 5.28900 48.35800
N  44.72300 7.14800 48.83600
C  45.94400 7.83000 48.91700
C  45.69500 9.29100 48.94400
C  44.29400 9.38400 48.66200
C  43.79500 8.06800 48.51900
C  46.69500 10.38500 49.03600
C  43.20900 10.35400 48.32300
O  43.33300 11.54800 48.38500
C  42.01300 9.51800 47.82200
C  40.81900 9.76000 48.67800
O  40.76700 9.62600 49.88700
O  39.77100 10.15700 47.79300
C  38.47900 10.39100 48.44000
H  40.56000 2.73000 47.61000
H  46.94300 1.65500 48.48300
H  48.05200 7.69300 49.30400
H  39.67300 7.31500 47.94600
H  39.49900 4.70100 46.60200
H  38.31400 5.70400 48.78300
H  39.62200 4.94600 49.61500
H  38.68600 3.87700 48.69900
H  40.38000 6.31100 45.12800
H  40.62000 7.97600 45.69400
H  38.34700 8.41200 45.73800
H  37.99400 6.74600 46.16200
H  41.72900 -0.72700 48.42200
H  42.04500 -0.46000 46.75800
H  40.87600 0.59400 47.43700
H  46.65800 -1.68000 49.08600
H  46.55000 -0.10900 49.76300
H  47.00800 -0.24900 48.04300
H  48.68000 3.20900 47.96000
H  49.05900 5.19500 50.12100
H  49.64800 3.18400 50.64300
H  49.33900 1.78200 49.50800
H  48.13400 2.28100 50.73000
H  49.71800 6.71400 47.95700
H  49.50300 5.27900 47.07000
H  51.76800 5.02100 47.39900
H  51.47200 4.62300 49.20800
H  51.73100 6.26600 48.61900
H  47.31000 10.21600 48.15200
H  47.37800 10.27100 49.87800
H  46.31100 11.40500 49.00300
H  41.85500 9.55800 46.74400
H  37.89300 11.04100 47.79000
H  38.48900 10.78900 49.45400
H  37.98200 9.42500 48.53100
Mg 27.04400 49.74900 26.46000
C  25.12600 50.92000 29.00100
C  29.35200 48.59100 28.55000
C  28.96800 49.06800 23.66300
C  24.68900 51.21500 24.22800
N  27.18600 49.70600 28.49600
C  26.26200 50.16000 29.38000
C  26.61900 49.82600 30.84000
C  28.15800 49.32700 30.70600
C  28.23900 49.12600 29.18200
C  29.20200 50.23000 31.31100
C  25.69800 48.71600 31.33700
C  25.85400 48.10700 32.67900
H  26.25800 49.19300 33.75300
N  28.87200 48.97300 26.16300
C  29.70400 48.57700 27.15800
C  30.93000 48.07000 26.66100
C  30.85900 48.18200 25.24700
C  29.55900 48.83000 24.91300
C  32.21300 47.64700 27.50100
C  31.82100 47.67300 24.14400
O  31.68100 47.73500 22.95800
C  33.16300 47.12700 24.47100
N  26.79000 49.91800 24.25900
C  27.70100 49.53100 23.33000
C  27.08900 49.58600 21.87200
C  25.68900 50.21100 22.12700
C  25.68600 50.42200 23.61700
C  28.02200 50.48200 20.91000
C  24.46100 49.34900 21.57400
C  23.28700 50.01400 20.83800
N  25.20900 50.82200 26.55300
C  24.40300 51.40600 25.61200
C  23.21600 52.06400 26.26500
C  23.45300 51.88000 27.61700
C  24.65000 51.15300 27.68800
C  22.00600 52.64900 25.57800
C  23.00400 52.14700 28.98200
O  21.97000 52.70300 29.40000
C  24.10800 51.53700 29.99800
C  24.74600 52.64100 30.77400
O  25.52100 53.50900 30.36600
O  24.30000 52.69900 32.10400
C  24.64700 53.93600 32.85700
H  30.07000 48.12200 29.22500
H  29.57900 48.80400 22.79700
H  24.10700 51.77400 23.49300
H  26.64500 50.80500 31.31700
H  28.15900 48.31400 31.10800
H  29.71700 50.87200 30.59600
H  30.00100 49.70800 31.83700
H  28.69800 50.88400 32.02100
H  25.87300 47.83900 30.71300
H  24.71600 49.17800 31.44200
H  26.59800 47.31400 32.59600
H  24.89300 47.66600 32.94000
H  32.11300 48.12400 28.47600
H  33.11300 48.15300 27.15300
H  32.33600 46.58100 27.69200
H  33.00300 46.30600 25.16900
H  33.71400 48.00300 24.81500
H  33.51700 46.72300 23.52300
H  27.02600 48.58000 21.45800
H  25.55700 51.21600 21.72400
H  28.97300 50.70100 21.39600
H  27.56000 51.44300 20.68100
H  28.26200 49.99100 19.96700
H  24.14200 48.61500 22.31400
H  24.79900 48.62700 20.83200
H  22.35600 50.04600 21.40400
H  23.08500 49.63100 19.83700
H  23.61500 51.03100 20.62400
H  21.89700 52.39600 24.52300
H  22.15900 53.72800 25.55300
H  21.11100 52.45500 26.17000
H  23.61300 50.85900 30.69400
H  24.95900 54.79400 32.26000
H  25.47900 53.58700 33.46800
H  23.96000 54.37500 33.58000

