158

Mg -10.62200 37.80500 42.44700
C  -9.01300 34.97800 40.92400
C  -8.49100 39.74200 40.92400
C  -12.92400 40.38500 42.65100
C  -13.06300 35.58100 43.70700
N  -9.05100 37.36100 40.90100
C  -8.51000 36.21700 40.51900
C  -7.21200 36.38200 39.70200
C  -6.92800 37.90100 40.01700
C  -8.21800 38.33500 40.69400
C  -5.64900 38.31400 40.78200
C  -7.44300 35.94000 38.26200
C  -6.47500 35.01300 37.56700
H  -5.47700 35.76600 36.61300
N  -10.60900 39.85500 41.96400
C  -9.49400 40.50700 41.51700
C  -9.66400 41.88900 41.58000
C  -11.02700 42.09400 41.96300
C  -11.62800 40.72600 42.27800
C  -8.51100 42.80600 41.32000
C  -11.59000 43.48800 42.28200
O  -10.95700 44.45100 41.93000
C  -12.92700 43.72700 43.07200
N  -12.66800 37.95200 43.07500
C  -13.42200 39.12400 43.03000
C  -14.88000 38.88900 43.51900
C  -14.84200 37.37600 43.79500
C  -13.44400 36.90800 43.45300
C  -15.19700 39.80500 44.78200
C  -15.84900 36.54800 43.07600
C  -16.87700 35.81300 43.96800
N  -10.84500 35.73200 42.56900
C  -11.84200 34.98500 43.16700
C  -11.52100 33.53600 43.10200
C  -10.36900 33.56500 42.27000
C  -10.04700 34.85200 41.86900
C  -12.27900 32.31200 43.66100
C  -9.24800 32.69700 41.66600
O  -8.95600 31.51700 41.88500
C  -8.34200 33.65800 40.81500
C  -7.02300 33.46800 41.46600
O  -6.16700 32.67200 41.12500
O  -6.82600 34.38500 42.44300
C  -5.60700 34.14100 43.19500
H  -7.62300 40.32300 40.60700
H  -13.64300 41.20500 42.70800
H  -13.87900 34.97100 44.09900
H  -6.33100 35.86800 40.08300
H  -6.81700 38.51200 39.12100
H  -5.07500 37.39900 40.92600
H  -5.91200 38.72100 41.75800
H  -5.09800 39.04700 40.19200
H  -7.52100 36.83100 37.63900
H  -8.43800 35.49600 38.22200
H  -6.88300 34.26500 36.88800
H  -5.76800 34.50500 38.22200
H  -8.63000 43.88400 41.42800
H  -8.22100 42.57300 40.29500
H  -7.68200 42.43000 41.91900
H  -13.80000 43.36600 42.52900
H  -12.99300 44.78700 43.31700
H  -12.85200 43.29400 44.06900
H  -15.59300 39.23800 42.77200
H  -15.06600 37.18400 44.84400
H  -14.36300 40.50000 44.88400
H  -15.24300 39.30800 45.75100
H  -16.13600 40.29800 44.53200
H  -15.33700 35.77500 42.50200
H  -16.46100 37.17100 42.42500
H  -17.85300 36.12600 43.59800
H  -16.90000 36.16600 44.99900
H  -16.82300 34.73400 43.82500
H  -13.11200 32.03400 43.01500
H  -12.68800 32.62600 44.62100
H  -11.62900 31.44000 43.73300
H  -8.28300 33.40200 39.75700
H  -5.42800 34.88900 43.96800
H  -4.71100 34.25600 42.58500
H  -5.59000 33.23100 43.79400
Mg -5.24000 24.95000 26.41200
C  -3.75600 26.40500 29.19700
C  -6.94300 22.78000 28.49800
C  -5.96400 22.89900 23.75600
C  -3.11400 26.85900 24.33400
N  -5.32400 24.64800 28.57600
C  -4.66100 25.37300 29.56500
C  -5.09800 24.96100 30.99100
C  -6.14800 23.73200 30.74200
C  -6.10800 23.69700 29.19500
C  -5.71500 22.40000 31.37700
C  -5.64000 26.10800 31.88300
C  -5.52800 26.11800 33.40700
H  -5.17000 24.80000 34.08400
N  -6.45400 23.29800 26.14800
C  -7.14100 22.60700 27.09600
C  -8.09400 21.67800 26.46900
C  -7.76100 21.64300 25.10000
C  -6.69800 22.65800 24.92300
C  -9.33400 21.04500 27.19700
C  -8.40300 20.82300 24.01400
O  -8.08100 21.00600 22.87200
C  -9.39000 19.71200 24.35700
N  -4.54500 24.81500 24.34800
C  -5.02400 23.87500 23.49400
C  -4.40900 24.08800 22.05300
C  -3.62700 25.42800 22.32000
C  -3.80400 25.76000 23.73600
C  -3.61400 22.81600 21.63800
C  -4.12500 26.64600 21.33200
C  -3.05600 27.44500 20.59700
N  -3.79900 26.42000 26.70900
C  -3.03900 27.14700 25.74300
C  -2.08400 27.95300 26.42900
C  -2.33800 27.76300 27.79100
C  -3.41700 26.78100 27.88600
C  -1.00000 28.75300 25.81700
C  -1.94100 28.02700 29.13700
O  -1.10500 28.88700 29.55600
C  -2.83600 27.14300 30.11000
C  -1.95000 26.13400 30.84700
O  -1.53600 25.08700 30.40700
O  -1.73200 26.52400 32.20000
C  -0.86000 25.66700 32.93800
H  -7.53600 22.12300 29.13800
H  -6.06100 22.15900 22.95800
H  -2.50800 27.52400 23.71600
H  -4.22200 24.59000 31.52300
H  -7.18200 23.93900 31.01800
H  -6.60500 21.80700 31.58900
H  -5.13800 22.54800 32.28900
H  -5.16400 21.78300 30.66700
H  -6.69600 25.89400 31.72100
H  -5.12600 27.00100 31.52900
H  -6.48000 26.45100 33.82000
H  -4.86300 26.87100 33.82900
H  -10.14400 21.18800 26.48200
H  -9.64900 21.71400 27.99900
H  -9.24600 20.01900 27.55200
H  -9.16400 19.23800 25.31200
H  -9.47500 19.03400 23.50800
H  -10.37100 20.18500 24.39400
H  -5.32800 24.19500 21.47700
H  -2.55700 25.26200 22.19400
H  -2.68100 22.96500 21.09400
H  -4.27900 22.24200 20.99300
H  -3.35200 22.26700 22.54300
H  -4.80000 27.28500 21.90200
H  -4.73300 26.09000 20.61800
H  -2.04300 27.05200 20.68000
H  -3.06300 28.43400 21.05400
H  -3.28100 27.40300 19.53200
H  -0.15500 28.09900 25.60400
H  -0.72100 29.46400 26.59500
H  -1.18700 29.18600 24.83400
H  -3.35700 27.79600 30.81000
H  0.15900 26.04100 33.04200
H  -0.88100 24.65500 32.53400
H  -1.19300 25.53200 33.96800

