158

Mg 25.30000 1.51500 29.63000
C  27.61100 1.42900 32.27200
C  22.87500 1.50000 31.83400
C  23.21100 1.27500 27.00100
C  28.00500 0.73100 27.47500
N  25.29900 1.29900 31.91600
C  26.31400 1.60100 32.73500
C  25.82100 1.95200 34.16300
C  24.32500 2.06600 33.92900
C  24.10500 1.51600 32.50600
C  23.44200 1.36600 34.99000
C  26.31600 3.26000 34.86700
C  26.61400 3.18300 36.37200
H  26.04300 4.18200 37.36700
N  23.27700 1.30600 29.44100
C  22.39400 1.39600 30.48000
C  21.05100 1.44600 29.92400
C  21.15000 1.50300 28.56700
C  22.60400 1.36800 28.27300
C  19.82600 1.40800 30.89100
C  20.07400 1.56600 27.55400
O  20.35000 1.41200 26.34300
C  18.64000 1.73900 27.98300
N  25.58000 0.99500 27.54500
C  24.59300 1.13100 26.66500
C  25.06600 1.13500 25.26300
C  26.60800 1.09900 25.40200
C  26.75900 0.97400 26.91500
C  24.40900 0.03700 24.37600
C  27.30800 2.38700 24.79900
C  27.11000 3.64800 25.67100
N  27.40500 1.12500 29.80200
C  28.36300 0.78800 28.88300
C  29.67400 0.66000 29.42200
C  29.44000 0.93500 30.78400
C  28.04400 1.16700 30.94700
C  30.96800 0.30900 28.76000
C  30.03000 1.06200 32.12000
O  31.21300 0.94400 32.52200
C  28.85700 1.51300 33.13600
C  28.86700 0.59400 34.22700
O  28.72400 -0.62500 34.20000
O  29.14600 1.33200 35.38000
C  29.35000 0.59100 36.61200
H  22.11200 1.75900 32.57100
H  22.60000 1.34200 26.09900
H  28.87100 0.68000 26.81100
H  25.97200 1.07400 34.79100
H  24.08800 3.13000 33.91400
H  23.97600 1.38700 35.94000
H  23.15000 0.33500 34.79200
H  22.51900 1.90000 35.21600
H  25.65300 4.11400 34.73200
H  27.20400 3.57500 34.31900
H  27.68100 3.31100 36.55900
H  26.42000 2.20000 36.80200
H  19.10300 2.20400 30.71000
H  20.07100 1.37700 31.95200
H  19.43700 0.42500 30.62500
H  18.43800 0.81700 28.52700
H  18.06200 1.91400 27.07500
H  18.56000 2.55300 28.70300
H  24.83800 2.07500 24.76200
H  26.99200 0.18300 24.95200
H  23.59200 -0.42700 24.92800
H  25.13200 -0.75200 24.17000
H  23.98200 0.47000 23.47200
H  26.79500 2.49600 23.84300
H  28.36000 2.12900 24.67600
H  28.06300 4.06200 25.99900
H  26.51400 3.54800 26.57800
H  26.59100 4.45100 25.14800
H  31.01800 0.44900 27.68000
H  31.12200 -0.73900 29.01900
H  31.74200 0.88800 29.26400
H  29.08500 2.49700 33.54600
H  30.07800 1.21400 37.13200
H  29.49200 -0.48200 36.48300
H  28.40200 0.74100 37.13000
Mg 35.97800 48.99200 24.88500
C  36.14200 46.96000 27.67000
C  34.40300 51.38200 26.81700
C  34.89700 50.63600 22.06000
C  36.91000 46.25900 22.96000
N  35.34400 49.13300 26.96200
C  35.62300 48.19300 27.90900
C  35.36800 48.77300 29.29000
C  34.44000 49.96100 28.99300
C  34.71800 50.18200 27.50900
C  32.86800 49.81800 29.23000
C  36.74900 49.30800 29.93600
C  36.71500 49.15300 31.46800
H  35.37700 48.91800 32.15600
N  35.03100 50.79400 24.47600
C  34.52600 51.62000 25.43200
C  34.20400 52.88400 24.87700
C  34.34100 52.78000 23.44400
C  34.71600 51.28800 23.25100
C  33.77100 54.09300 25.68000
C  34.27200 53.78600 22.30000
O  34.79500 53.60400 21.23200
C  33.83600 55.18800 22.57500
N  35.84700 48.45600 22.78300
C  35.46800 49.35800 21.85600
C  35.86100 48.85000 20.42900
C  36.77500 47.64200 20.72500
C  36.54800 47.44600 22.24900
C  34.52000 48.56100 19.62400
C  38.25100 47.82700 20.30000
C  39.36500 47.62300 21.41600
N  36.54000 47.00600 25.17900
C  36.95300 46.04400 24.31100
C  37.42400 44.86900 25.03700
C  37.13300 45.15700 26.40100
C  36.52000 46.43500 26.36900
C  38.05300 43.66100 24.53200
C  37.08000 44.68000 27.81400
O  37.39300 43.62400 28.36100
C  36.57400 45.90900 28.63100
C  35.56100 45.43200 29.52900
O  34.37400 45.42300 29.26100
O  36.14300 45.10400 30.72100
C  35.18500 44.55100 31.73300
H  34.03900 52.17000 27.47900
H  34.75400 51.18000 21.12400
H  37.41000 45.46600 22.40000
H  34.87900 48.00000 29.88300
H  34.70000 50.76500 29.68100
H  32.29200 49.66100 28.31800
H  32.52600 50.74400 29.69200
H  32.64300 48.96100 29.86500
H  36.93000 50.35100 29.67400
H  37.48600 48.59000 29.57500
H  37.06600 50.14600 31.74900
H  37.33600 48.31500 31.78500
H  33.49900 53.74700 26.67700
H  32.90100 54.56100 25.21900
H  34.60000 54.79900 25.71800
H  32.99800 55.15100 23.27200
H  33.39600 55.60500 21.66900
H  34.65000 55.80100 22.96100
H  36.45800 49.65300 19.99700
H  36.39000 46.72100 20.28700
H  33.63900 48.75600 20.23600
H  34.44900 47.53900 19.25100
H  34.53700 49.36600 18.88800
H  38.34800 48.89600 20.10700
H  38.48200 47.19300 19.44400
H  39.19900 46.69300 21.96000
H  39.37100 48.36600 22.21400
H  40.34900 47.55700 20.95100
H  38.08700 42.86100 25.27200
H  39.05500 43.99300 24.26200
H  37.54200 43.23500 23.66900
H  37.35400 46.22500 29.32300
H  34.23600 44.15700 31.36800
H  34.92600 45.34600 32.43200
H  35.60300 43.71700 32.29700

