158

Mg 41.07400 41.78500 27.50000
C  40.54300 44.14300 30.04000
C  41.92100 39.59700 29.92700
C  42.00900 39.58400 25.10500
C  40.73200 44.17400 25.14300
N  41.11900 41.88300 29.70700
C  40.79500 42.89300 30.57300
C  40.83900 42.46800 32.05300
C  41.48700 41.07400 31.90900
C  41.57400 40.84100 30.36800
C  42.94500 40.84500 32.61600
C  39.38800 42.41600 32.72000
C  39.31400 41.45000 33.95500
H  38.61700 42.03800 35.14900
N  41.71900 39.82200 27.47700
C  41.99200 39.07500 28.55800
C  42.27500 37.70800 28.17800
C  42.30300 37.67000 26.76300
C  42.02600 39.06200 26.39400
C  42.43200 36.65000 29.16800
C  42.52100 36.51600 25.83300
O  42.52300 36.64800 24.63100
C  42.75800 35.08400 26.28600
N  41.51700 41.84000 25.44900
C  41.77700 40.86600 24.65400
C  41.59000 41.15300 23.17800
C  40.98500 42.59500 23.17900
C  41.04600 42.88800 24.66800
C  42.94700 41.06600 22.41800
C  39.58800 42.58600 22.45200
C  38.43400 41.77000 23.09400
N  40.84100 43.73900 27.53900
C  40.72500 44.61600 26.46000
C  40.59800 46.03400 26.96100
C  40.46600 45.87500 28.40200
C  40.61800 44.46800 28.67700
C  40.56800 47.23700 26.07700
C  40.23300 46.59400 29.58900
O  40.03500 47.73400 29.84700
C  40.23600 45.48100 30.73700
C  41.27900 45.82600 31.65700
O  42.48800 45.82800 31.49000
O  40.72200 46.27600 32.78600
C  41.61600 46.84800 33.81900
H  42.19900 38.88700 30.70900
H  42.10800 38.82200 24.33000
H  40.62300 44.85900 24.30000
H  41.46900 43.18100 32.58400
H  40.82700 40.30100 32.30300
H  43.07400 41.74500 33.21700
H  43.66000 40.69400 31.80700
H  42.81600 39.97900 33.26600
H  38.60700 42.35300 31.96300
H  39.41600 43.43200 33.11400
H  40.27700 41.01500 34.22200
H  38.69300 40.60600 33.65500
H  41.83700 36.92900 30.03800
H  43.45700 36.48100 29.49900
H  42.20500 35.63800 28.83300
H  41.73900 34.85000 26.59500
H  43.47400 35.13400 27.10700
H  43.08900 34.33300 25.56800
H  40.86200 40.47400 22.73500
H  41.63000 43.34600 22.72300
H  43.48000 40.20900 22.82900
H  43.53200 41.98600 22.44100
H  42.66300 40.87300 21.38300
H  39.79100 42.04100 21.53000
H  39.26000 43.59800 22.21200
H  37.58600 42.45200 23.04000
H  38.73200 41.33600 24.04800
H  38.19400 40.95000 22.41600
H  41.40000 47.91300 26.27400
H  39.72500 47.82400 26.44000
H  40.51700 47.05900 25.00300
H  39.32600 45.30200 31.31000
H  42.39100 47.39500 33.28200
H  41.99400 46.07100 34.48400
H  41.14700 47.69800 34.31500
Mg -9.11500 18.43400 42.37000
C  -5.61800 18.14600 42.48400
C  -8.81400 21.75000 41.60200
C  -12.36100 18.58800 41.89800
C  -9.23500 14.86600 42.12200
N  -7.45700 19.78200 42.08500
C  -6.07400 19.47400 42.16900
C  -5.22100 20.71300 42.03700
C  -6.30200 21.86200 42.02600
C  -7.64000 21.08500 41.89600
C  -6.13900 22.84700 43.23100
C  -4.11900 20.75700 40.95100
C  -4.49300 20.13400 39.62200
H  -4.56400 21.01300 38.37000
N  -10.47800 19.96000 41.90100
C  -10.08700 21.23500 41.66800
C  -11.26800 22.00400 41.33900
C  -12.39600 21.20100 41.56800
C  -11.78300 19.88700 41.85000
C  -11.23000 23.42100 40.89900
C  -13.82700 21.53700 41.42100
O  -14.13800 22.60300 40.91200
C  -14.84100 20.54400 41.80000
N  -10.62000 16.95800 42.09200
C  -11.91800 17.27800 42.07700
C  -12.83100 16.05200 42.11800
C  -11.81500 14.87700 42.10700
C  -10.43900 15.58600 42.02400
C  -13.72800 15.96500 43.35700
C  -12.00700 14.02500 40.84900
C  -12.99100 12.85600 41.00000
N  -7.74800 16.82400 42.47400
C  -7.99000 15.48300 42.29900
C  -6.75900 14.77300 42.33600
C  -5.78700 15.82600 42.53300
C  -6.46400 17.02400 42.55900
C  -6.56400 13.24100 42.12500
C  -4.32300 16.07700 42.58500
O  -3.43500 15.24800 42.62700
C  -4.13000 17.66300 42.55300
C  -3.25900 18.23100 43.66800
O  -2.26500 18.93400 43.57200
O  -3.84900 17.75900 44.88300
C  -3.38100 18.18400 46.23900
H  -8.67600 22.81900 41.42500
H  -13.40800 18.55700 41.58700
H  -9.04000 13.79300 42.18300
H  -4.79000 20.74900 43.03800
H  -6.27300 22.49300 41.13800
H  -5.13800 22.85200 43.66200
H  -6.71100 22.53000 44.10300
H  -6.36200 23.87200 42.93700
H  -3.21100 20.25600 41.28400
H  -3.77700 21.77800 40.78100
H  -5.38500 19.52100 39.75500
H  -3.73600 19.37600 39.42200
H  -10.90200 24.07700 41.70400
H  -12.10500 23.81000 40.37800
H  -10.43300 23.45000 40.15500
H  -14.48200 20.15500 42.75300
H  -14.90300 19.74000 41.06600
H  -15.80900 21.00400 42.00300
H  -13.44300 16.13600 41.22000
H  -11.79500 14.33400 43.05100
H  -13.32700 16.58200 44.16100
H  -13.85900 14.92900 43.66900
H  -14.73300 16.34400 43.16800
H  -10.99500 13.73500 40.56600
H  -12.39200 14.75200 40.13400
H  -13.79800 13.06400 40.29700
H  -13.48500 12.62600 41.94400
H  -12.47400 11.95000 40.68500
H  -6.78900 12.90600 41.11300
H  -7.10900 12.67500 42.88100
H  -5.48200 13.18000 42.24600
H  -3.63000 17.87800 41.60800
H  -2.50300 18.82600 46.17200
H  -3.21000 17.28400 46.83000
H  -4.26600 18.72200 46.57900

