158

Mg 17.39600 -1.13100 28.11300
C  16.20000 0.81100 30.80700
C  19.18000 -2.95200 30.38100
C  18.85900 -2.73900 25.57400
C  15.82800 1.06300 25.91300
N  17.61800 -0.98600 30.24700
C  17.02000 -0.25800 31.18400
C  17.52500 -0.50100 32.61600
C  18.60300 -1.54300 32.33700
C  18.44800 -1.85700 30.86300
C  20.10400 -1.31800 32.74000
C  16.43100 -0.98800 33.55500
C  16.72200 -0.52100 35.00600
H  18.09400 0.10400 35.39400
N  18.67500 -2.68600 28.00000
C  19.22500 -3.35000 29.01000
C  19.87700 -4.49100 28.53300
C  19.72100 -4.52100 27.09800
C  19.02100 -3.26600 26.83200
C  20.56400 -5.58500 29.51500
C  20.24100 -5.52500 26.08500
O  20.09500 -5.38200 24.88200
C  21.01300 -6.81600 26.61000
N  17.53100 -0.78300 26.02000
C  18.07600 -1.68100 25.17100
C  17.82800 -1.28100 23.71000
C  16.80300 -0.06400 23.82300
C  16.82300 0.18400 25.36400
C  19.10100 -1.03200 22.90700
C  15.43100 -0.24400 23.11300
C  14.13700 -0.79700 23.80400
N  16.18300 0.58700 28.27800
C  15.58200 1.31800 27.26700
C  14.83200 2.36500 27.89200
C  14.97100 2.22800 29.23600
C  15.86700 1.15200 29.45200
C  14.14800 3.49800 27.23400
C  14.58900 2.78200 30.54800
O  13.84900 3.73900 30.87000
C  15.55200 1.95600 31.62200
C  16.54900 2.80400 32.30500
O  17.73500 2.60100 32.15100
O  15.99600 3.71400 33.23800
C  16.97400 4.45600 34.06100
H  19.69800 -3.60200 31.08900
H  19.27000 -3.27900 24.71800
H  15.22300 1.58800 25.17100
H  17.99400 0.42100 32.95700
H  18.36800 -2.48400 32.83500
H  20.44600 -2.23200 33.22700
H  20.14400 -0.39500 33.31700
H  20.66400 -1.23700 31.80800
H  16.43700 -2.07700 33.49800
H  15.50000 -0.56000 33.18300
H  16.39900 -1.30100 35.69500
H  15.94300 0.23400 35.11700
H  20.02800 -5.68900 30.45800
H  21.63100 -5.38600 29.61800
H  20.40100 -6.55500 29.04600
H  21.39100 -7.26400 25.69100
H  20.22100 -7.44300 27.01900
H  21.86700 -6.61300 27.25700
H  17.31000 -2.06300 23.15500
H  17.29000 0.80600 23.38200
H  19.36800 0.02400 22.94100
H  18.92500 -1.44100 21.91200
H  19.97400 -1.52100 23.34100
H  15.46400 -0.85000 22.20800
H  15.22600 0.77400 22.78000
H  13.69300 -1.50000 23.10000
H  13.30400 -0.12200 24.00200
H  14.37300 -1.37300 24.69900
H  13.08400 3.27900 27.13500
H  14.60800 3.81600 26.29900
H  14.35400 4.27900 27.96600
H  14.85500 1.63800 32.39700
H  17.78100 4.95700 33.52600
H  17.48400 3.90800 34.85300
H  16.40500 5.21400 34.59900
Mg -10.70400 17.20600 40.95400
C  -7.16900 17.16300 41.04600
C  -10.57800 20.56500 40.48500
C  -14.04500 17.14500 40.29600
C  -10.56000 13.71300 41.11800
N  -9.03800 18.65000 40.59000
C  -7.68900 18.42900 40.71000
C  -6.85600 19.65600 40.48900
C  -7.99300 20.75600 40.70900
C  -9.30900 19.96600 40.61700
C  -7.93000 21.63400 42.03600
C  -6.34300 19.67100 39.01700
C  -4.84100 19.46900 38.88000
H  -4.35000 18.48500 37.80900
N  -12.11400 18.66000 40.53800
C  -11.83800 19.93700 40.32300
C  -12.97000 20.66200 39.99800
C  -14.11200 19.80500 39.93300
C  -13.49700 18.46300 40.30700
C  -12.92000 22.21800 39.58200
C  -15.58500 20.16800 39.67600
O  -15.90600 21.32300 39.53500
C  -16.63600 19.20400 39.62800
N  -12.08500 15.66300 40.62700
C  -13.36500 15.87200 40.44800
C  -14.17300 14.55500 40.47600
C  -13.07200 13.49200 40.64800
C  -11.79200 14.34300 40.74100
C  -15.35700 14.53000 41.48400
C  -13.06000 12.33500 39.55700
C  -12.78900 12.74200 38.09000
N  -9.17400 15.67500 41.02300
C  -9.30400 14.32900 41.23700
C  -8.06900 13.75500 41.60400
C  -7.20200 14.86900 41.50800
C  -7.96400 15.98900 41.12700
C  -7.73100 12.30700 41.88400
C  -5.79800 15.27500 41.68400
O  -4.78000 14.67000 41.93800
C  -5.75400 16.78400 41.38100
C  -5.06100 17.50900 42.53400
O  -3.88000 17.83600 42.53600
O  -5.97100 17.74100 43.49900
C  -5.33300 18.05900 44.79400
H  -10.51600 21.65200 40.56800
H  -15.07400 17.05000 39.94200
H  -10.63200 12.64600 41.33800
H  -6.14600 19.79900 41.30400
H  -8.06300 21.47900 39.89600
H  -7.98800 22.68200 41.74100
H  -6.97400 21.49700 42.54200
H  -8.75400 21.44400 42.72400
H  -6.61500 20.64100 38.60000
H  -6.77800 18.97100 38.30400
H  -4.44000 19.21300 39.86000
H  -4.46400 20.42900 38.52800
H  -12.65600 22.23200 38.52400
H  -12.19200 22.71700 40.22100
H  -13.88700 22.70900 39.69400
H  -16.48000 18.43200 38.87500
H  -17.57800 19.71300 39.42100
H  -16.69600 18.72200 40.60400
H  -14.64200 14.33400 39.51700
H  -13.16900 13.19200 41.69200
H  -15.26700 15.25200 42.29600
H  -15.58800 13.47300 41.61700
H  -16.13000 14.81500 40.76900
H  -14.07600 11.95800 39.43600
H  -12.34900 11.65000 40.01800
H  -11.76100 12.45200 37.87000
H  -12.86700 13.82700 38.02700
H  -13.43600 12.27700 37.34700
H  -8.38100 11.89600 42.65600
H  -6.65800 12.31200 42.07500
H  -7.99400 11.74300 40.98900
H  -5.10200 16.89300 40.51300
H  -6.03100 18.48900 45.51300
H  -4.53900 18.80500 44.73600
H  -4.93900 17.15400 45.25600

