158

Mg 40.74700 8.27300 29.02600
C  41.95900 9.77500 31.94300
C  38.55500 6.46200 31.09800
C  39.46900 6.64600 26.33100
C  43.26900 9.70300 27.18400
N  40.23700 8.28200 31.22300
C  40.84200 9.03800 32.17300
C  40.22200 8.76000 33.57800
C  39.27400 7.50300 33.31200
C  39.37700 7.34900 31.74500
C  39.60800 6.18000 33.90000
C  39.66400 10.07600 34.26700
C  39.76100 10.23400 35.82900
H  40.45200 11.38400 36.48500
N  39.17000 6.82100 28.73600
C  38.46100 6.22700 29.70900
C  37.47300 5.30800 29.12100
C  37.58800 5.47200 27.74200
C  38.74900 6.33400 27.50100
C  36.57800 4.31700 29.84900
C  36.75000 5.11800 26.58400
O  37.08500 5.31000 25.40400
C  35.44300 4.56500 26.84200
N  41.22500 8.10800 27.07700
C  40.62900 7.31900 26.11300
C  41.32600 7.50500 24.77600
C  42.33800 8.63600 25.07200
C  42.30300 8.82300 26.56700
C  42.09300 6.25500 24.20100
C  42.14900 9.97000 24.31100
C  41.17900 10.98100 24.91600
N  42.42300 9.33800 29.43500
C  43.33400 9.98000 28.56300
C  44.31000 10.74500 29.36700
C  43.84000 10.69200 30.70600
C  42.68700 9.85700 30.66200
C  45.43600 11.49900 28.76200
C  44.09200 11.06400 32.07700
O  44.97400 11.73600 32.61100
C  42.91800 10.45500 32.87900
C  43.35500 9.52100 33.94000
O  43.88600 8.41600 33.71600
O  43.10000 9.94700 35.20200
C  43.58800 8.96900 36.20800
H  37.90000 5.86300 31.73500
H  39.14800 6.08000 25.45400
H  44.07700 10.06700 26.54500
H  41.06400 8.40700 34.17300
H  38.25600 7.72200 33.63200
H  38.70700 5.87900 34.43500
H  40.41400 6.37500 34.60800
H  40.03800 5.45100 33.21400
H  38.59300 10.12300 34.06900
H  40.14100 10.96800 33.86100
H  40.24900 9.30400 36.11900
H  38.76000 10.14800 36.25200
H  36.74100 4.03900 30.89000
H  36.61700 3.37500 29.30200
H  35.54900 4.66400 29.75200
H  35.57900 3.60900 27.34900
H  34.74700 4.35200 26.03000
H  34.87100 5.17900 27.53700
H  40.59300 7.78500 24.01900
H  43.31400 8.21600 24.83000
H  41.74100 5.36400 24.72000
H  43.17400 6.30900 24.06700
H  41.68800 6.16600 23.19200
H  41.77000 9.78400 23.30600
H  43.17700 10.32800 24.25900
H  41.66900 11.77600 25.47800
H  40.57000 10.62800 25.74800
H  40.55200 11.40500 24.13200
H  45.63000 12.46900 29.22000
H  45.29000 11.81100 27.72800
H  46.31300 10.85700 28.84400
H  42.38100 11.27000 33.36500
H  44.65900 8.85300 36.04000
H  43.13000 8.00100 36.00300
H  43.26900 9.40900 37.15200
Mg 47.05100 16.05600 27.82300
C  45.20800 15.94900 30.81200
C  49.05800 18.43300 29.28000
C  48.45300 16.52200 24.74400
C  44.54700 14.25100 26.30800
N  47.06000 17.05600 29.84500
C  46.31900 16.74100 30.96800
C  46.84000 17.39400 32.19000
C  47.92100 18.45000 31.62000
C  48.09900 17.89600 30.16900
C  47.57900 19.93400 31.74200
C  47.43400 16.32300 33.19300
C  47.03200 16.52100 34.69900
H  48.15000 16.14000 35.68100
N  48.51900 17.29500 27.10900
C  49.28200 18.14800 27.93000
C  50.24700 18.78900 27.07500
C  50.13400 18.28300 25.71300
C  48.97500 17.32700 25.80200
C  51.07800 19.96900 27.60700
C  50.97100 18.57200 24.42800
O  50.66100 18.06600 23.34800
C  52.17000 19.57500 24.53100
N  46.69200 15.36200 25.86700
C  47.42800 15.60400 24.76700
C  46.98400 14.84200 23.54100
C  45.77200 14.11000 24.07900
C  45.62100 14.62000 25.50300
C  46.63300 15.75600 22.23600
C  45.91300 12.51800 23.85100
C  46.51900 11.72700 24.89200
N  45.30400 15.20700 28.39800
C  44.39700 14.47900 27.64700
C  43.26600 13.95100 28.47400
C  43.57400 14.52800 29.72600
C  44.78300 15.30500 29.65200
C  42.00100 13.20700 28.03900
C  43.06600 14.59700 31.03100
O  42.07600 14.12300 31.50500
C  44.17200 15.44600 31.86000
C  43.46500 16.43100 32.59100
O  42.80800 17.37100 32.09400
O  43.49300 16.15200 33.91600
C  42.70700 17.14100 34.75800
H  49.70100 19.16200 29.77600
H  48.93000 16.46900 23.76400
H  43.75200 13.56400 26.00900
H  46.02300 17.97200 32.62200
H  48.67700 18.25000 32.38000
H  46.58800 20.07400 32.17300
H  47.73400 20.40000 30.76900
H  48.26200 20.20400 32.54800
H  48.52200 16.40000 33.19600
H  47.09900 15.36800 32.78800
H  46.19500 15.89300 35.00400
H  46.74700 17.57000 34.78800
H  50.66800 20.43700 28.50200
H  51.07100 20.74200 26.83900
H  52.12200 19.71300 27.78900
H  51.68100 20.53200 24.35100
H  52.89400 19.32100 23.75700
H  52.73100 19.61300 25.46500
H  47.78000 14.15500 23.25400
H  44.90500 14.37700 23.47500
H  46.08200 15.15100 21.51600
H  47.52300 16.10400 21.71100
H  46.01000 16.61500 22.48700
H  46.38800 12.20200 22.92100
H  44.88900 12.16100 23.74100
H  46.74500 12.29900 25.79200
H  47.53400 11.42600 24.63200
H  46.02800 10.76500 25.03800
H  41.45900 13.77400 27.28200
H  41.33400 12.91000 28.84800
H  42.39100 12.32900 27.52300
H  44.68600 14.76600 32.53900
H  43.21400 18.10400 34.69700
H  42.72200 16.87000 35.81400
H  41.71900 17.37700 34.36300

