158

Mg 47.22700 15.68600 28.06400
C  45.24300 15.44200 30.93000
C  49.24900 17.82200 29.78200
C  48.87200 16.14800 25.22400
C  44.74000 14.11200 26.25000
N  47.19200 16.57500 30.13700
C  46.35000 16.29100 31.11800
C  46.88100 16.93200 32.45300
C  47.98900 17.88600 32.01200
C  48.19200 17.46400 30.55400
C  47.76600 19.43900 32.07200
C  47.27200 15.82700 33.44900
C  47.99200 16.25200 34.71900
H  47.63900 17.76200 35.26900
N  48.91600 16.76000 27.60800
C  49.66300 17.51700 28.46600
C  50.92000 17.92300 27.72300
C  50.78700 17.53500 26.34900
C  49.49100 16.77600 26.31400
C  52.01200 18.69700 28.30100
C  51.77300 17.68400 25.17100
O  51.44900 17.33100 24.01600
C  53.07900 18.41300 25.31100
N  46.78300 15.31900 25.97200
C  47.70700 15.48500 25.00400
C  47.32400 14.88400 23.67500
C  46.02000 14.14100 24.03900
C  45.82000 14.49100 25.51100
C  47.03200 15.93800 22.58500
C  45.83900 12.69900 23.61500
C  46.29500 11.58700 24.52100
N  45.48700 14.83400 28.48500
C  44.52300 14.21800 27.65700
C  43.43600 13.81100 28.42100
C  43.72000 14.14900 29.70700
C  44.95300 14.83700 29.73700
C  42.07100 13.16200 27.83000
C  43.04500 14.20700 31.00400
O  41.96400 13.75800 31.34800
C  44.14600 15.00100 31.87300
C  43.44000 16.20000 32.54100
O  43.08100 17.21300 32.05000
O  43.27300 15.89700 33.87000
C  42.60500 16.89000 34.73900
H  49.93800 18.43400 30.36800
H  49.51100 16.10500 24.33900
H  44.01200 13.52800 25.68300
H  46.02900 17.46700 32.87200
H  48.88300 17.59500 32.56300
H  46.69100 19.60700 32.14000
H  48.04700 19.99500 31.17800
H  48.31300 19.77100 32.95500
H  47.92600 15.19000 32.85400
H  46.33200 15.35900 33.74100
H  49.07300 16.17600 34.59700
H  47.73500 15.47200 35.43600
H  52.96900 18.18500 28.19900
H  52.00400 18.78500 29.38800
H  52.10700 19.61200 27.71700
H  53.73300 18.02100 26.08900
H  52.81400 19.38700 25.72300
H  53.58400 18.53000 24.35200
H  48.06200 14.14200 23.36800
H  45.15800 14.53200 23.49700
H  47.57500 16.82400 22.91400
H  45.96900 16.16600 22.50700
H  47.37700 15.51200 21.64300
H  46.33600 12.59100 22.65100
H  44.79000 12.43400 23.48000
H  45.43600 11.11700 24.99700
H  46.92000 11.98200 25.32200
H  46.87900 10.85300 23.96500
H  41.24400 13.22300 28.53800
H  42.12500 12.12300 27.50400
H  41.79000 13.74200 26.95000
H  44.46800 14.47200 32.77100
H  43.10900 17.85600 34.69800
H  42.56100 16.40300 35.71300
H  41.57500 17.06800 34.42900
Mg 6.86700 53.84800 41.29500
C  6.64300 50.31000 41.04600
C  10.23000 53.59900 40.16800
C  6.85200 57.10200 40.97400
C  3.43500 53.85700 42.02100
N  8.28100 52.09400 40.74200
C  7.92800 50.80200 40.55500
C  9.03000 49.90400 40.11200
C  10.27900 50.92200 40.14100
C  9.57500 52.32400 40.27400
C  11.21800 50.59100 41.35700
C  8.83300 49.16900 38.75300
C  8.23000 50.03100 37.57000
H  7.25400 49.28900 36.56300
N  8.35000 55.18900 40.79400
C  9.63900 54.92500 40.37900
C  10.32500 56.08600 40.07600
C  9.38600 57.20600 40.29200
C  8.08900 56.54200 40.65700
C  11.77100 56.08300 39.49600
C  9.65600 58.70300 40.15200
O  10.79900 59.11800 40.03200
C  8.49300 59.64200 40.09000
N  5.28900 55.16200 41.32000
C  5.61900 56.53600 41.39800
C  4.53300 57.40300 41.96800
C  3.43600 56.32400 42.32000
C  4.13400 54.99200 41.93100
C  4.98200 58.23200 43.22900
C  1.90200 56.51400 41.79500
C  0.72900 56.76600 42.78400
N  5.24900 52.37800 41.52100
C  3.95100 52.57300 41.85600
C  3.35900 51.18400 42.05100
C  4.36900 50.30500 41.78100
C  5.51900 51.10200 41.43200
C  1.94700 50.98000 42.51800
C  4.71100 48.89600 41.85600
O  4.07800 47.89900 42.26500
C  6.11600 48.93200 41.11700
C  5.84200 48.15200 39.78300
O  5.39000 48.52100 38.71300
O  6.40600 46.87900 39.91100
C  6.36200 46.05800 38.66800
H  11.31500 53.59700 40.04000
H  6.97700 58.15300 41.24400
H  2.40900 53.95700 42.38200
H  9.12900 49.18600 40.92600
H  10.75600 51.03800 39.16800
H  12.25100 50.68600 41.02200
H  11.02000 49.55300 41.62500
H  10.90700 51.21000 42.19900
H  8.24700 48.25300 38.81800
H  9.81200 48.82100 38.42400
H  9.09100 50.26900 36.94400
H  7.68900 50.91100 37.91800
H  12.32000 56.91700 39.93300
H  11.67300 56.07500 38.41100
H  12.36900 55.21200 39.76100
H  8.09800 59.81900 41.09100
H  7.87800 59.11900 39.35800
H  8.81800 60.59200 39.66700
H  4.20100 58.07500 41.17700
H  3.39700 56.21600 43.40400
H  4.26600 58.37800 44.03700
H  5.07100 59.25600 42.86400
H  5.93600 57.92500 43.65600
H  1.63400 55.59500 41.27400
H  1.77900 57.34600 41.10100
H  0.15200 55.85100 42.91200
H  0.10400 57.60500 42.47900
H  1.15500 56.92700 43.77500
H  1.49800 50.12900 42.00700
H  1.42800 51.90400 42.26200
H  2.01500 50.82000 43.59400
H  6.75200 48.21300 41.63300
H  6.81200 45.09000 38.88500
H  6.92700 46.55700 37.88100
H  5.32800 45.83800 38.39900

