158

Mg 26.71300 50.88500 26.33100
C  25.09000 52.21100 29.11100
C  29.23200 50.17800 28.41000
C  28.51600 50.06900 23.70100
C  24.37300 52.53100 24.24000
N  26.97700 50.95500 28.63300
C  26.19300 51.46200 29.56000
C  26.80500 51.21400 30.94000
C  28.25700 50.76700 30.65200
C  28.16500 50.63300 29.15400
C  29.31600 51.85800 31.16700
C  26.10600 50.07900 31.76000
C  25.48600 50.49900 33.07100
H  26.21500 51.18800 34.19500
N  28.64000 50.04200 26.08000
C  29.51900 49.85400 27.09100
C  30.65400 49.14900 26.55800
C  30.40400 48.90800 25.14300
C  29.18900 49.74500 24.90400
C  31.69700 48.43100 27.46500
C  31.20000 48.14900 24.06400
O  30.85500 48.09500 22.89300
C  32.51300 47.51700 24.51600
N  26.55800 51.41000 24.23500
C  27.38400 50.80200 23.35600
C  26.98800 51.11600 21.87500
C  25.47500 51.68400 22.05800
C  25.40600 51.81700 23.59400
C  27.95100 51.84900 20.94000
C  24.37300 50.76300 21.39500
C  23.68400 51.29600 20.11500
N  25.07600 52.17900 26.49700
C  24.13100 52.70900 25.61100
C  23.09800 53.28000 26.34500
C  23.44000 53.09000 27.68200
C  24.65200 52.42600 27.75600
C  21.91100 53.99100 25.76100
C  23.02400 53.42000 29.08000
O  22.03600 54.08700 29.49300
C  24.00000 52.82100 29.99400
C  24.53200 53.95800 30.86800
O  25.54200 54.56300 30.71200
O  23.71800 53.99500 31.99500
C  24.24000 54.68500 33.18500
H  30.07600 50.01200 29.08400
H  29.09500 49.71100 22.84700
H  23.50900 52.84400 23.65000
H  26.70600 52.11000 31.55300
H  28.60200 49.92400 31.25100
H  29.82300 52.33900 30.33000
H  30.07100 51.33900 31.75800
H  28.89200 52.57500 31.87100
H  26.80400 49.31700 32.10700
H  25.29600 49.61100 31.20200
H  25.15300 49.52700 33.43400
H  24.58100 51.06400 32.84700
H  32.61100 48.95900 27.19400
H  31.86300 47.38500 27.20400
H  31.42700 48.65800 28.49600
H  33.04600 48.29300 25.06500
H  33.00300 47.27000 23.57400
H  32.38700 46.62200 25.12500
H  26.86500 50.14700 21.39200
H  25.29900 52.67300 21.63700
H  28.70900 52.28200 21.59300
H  27.42800 52.71500 20.53600
H  28.41300 51.14800 20.24400
H  23.58300 50.64800 22.13700
H  24.80500 49.78400 21.18700
H  23.99300 50.65000 19.29300
H  23.96200 52.32300 19.87900
H  22.59800 51.20600 20.15900
H  21.15800 53.98100 26.54900
H  21.54300 53.55200 24.83400
H  22.31200 55.00200 25.69200
H  23.53200 52.01100 30.55300
H  24.30400 55.74500 32.93700
H  25.22500 54.23800 33.31400
H  23.70300 54.45100 34.10400
Mg -10.62600 16.66200 41.03100
C  -7.20800 16.80100 41.58200
C  -10.58500 19.94500 40.19500
C  -13.97400 16.41000 40.31400
C  -10.54100 13.13700 41.40900
N  -9.07800 18.09400 40.85800
C  -7.75900 17.96200 41.06000
C  -7.01600 19.27300 40.59600
C  -8.14900 20.28500 40.76500
C  -9.40000 19.38700 40.64300
C  -8.25300 21.07300 42.10500
C  -6.47600 19.16400 39.19400
C  -5.00300 18.87700 39.04700
H  -4.65000 17.85900 38.04800
N  -12.07500 18.00700 40.30400
C  -11.87000 19.31800 40.04500
C  -13.10000 19.91100 39.73400
C  -14.02400 18.85600 39.65900
C  -13.37800 17.64300 40.04500
C  -13.30000 21.42400 39.43500
C  -15.41300 19.05300 39.15400
O  -15.76800 20.22200 38.93100
C  -16.45200 17.95700 38.87600
N  -12.00300 14.91700 40.57000
C  -13.34000 15.13600 40.56200
C  -14.16800 13.86200 40.91200
C  -12.99800 12.75900 41.02800
C  -11.73900 13.62500 40.98700
C  -14.98000 14.05700 42.26000
C  -13.07000 11.59800 39.94200
C  -12.31800 11.83600 38.57700
N  -9.18800 15.20200 41.45000
C  -9.26500 13.81500 41.61200
C  -7.95400 13.29100 42.08700
C  -7.10200 14.48300 42.08500
C  -7.86300 15.53500 41.64300
C  -7.56900 11.84100 42.26700
C  -5.79900 15.00500 42.39800
O  -4.80800 14.42800 42.77000
C  -5.89700 16.55900 42.15500
C  -5.72200 17.40500 43.40400
O  -4.95700 18.35900 43.49500
O  -6.52600 16.95800 44.40800
C  -6.15900 17.39300 45.78900
H  -10.49900 21.01600 40.00100
H  -15.06500 16.36500 40.35300
H  -10.57200 12.07300 41.65300
H  -6.09400 19.40600 41.16100
H  -8.24800 21.05600 40.00200
H  -7.30600 20.81900 42.58200
H  -9.03400 20.82400 42.82300
H  -8.24900 22.14500 41.91100
H  -6.57800 20.15700 38.75700
H  -7.01200 18.38000 38.65900
H  -4.64800 18.40700 39.96400
H  -4.54300 19.83000 38.78500
H  -13.74000 21.47700 38.43900
H  -12.33800 21.93600 39.47200
H  -13.94000 21.87100 40.19600
H  -15.94500 17.22500 38.24700
H  -17.20600 18.40400 38.22800
H  -16.93900 17.50500 39.74000
H  -14.88700 13.63800 40.12500
H  -12.84600 12.31900 42.01400
H  -14.69000 14.96000 42.79800
H  -14.96700 13.11900 42.81500
H  -16.01900 14.21800 41.97300
H  -14.13900 11.50500 39.75300
H  -12.67500 10.76900 40.52900
H  -13.06000 11.98600 37.79400
H  -11.72200 10.94300 38.38900
H  -11.67000 12.71200 38.60600
H  -7.83400 11.28200 41.37000
H  -8.13200 11.40600 43.09300
H  -6.49800 11.87200 42.46900
H  -5.06200 16.73200 41.47600
H  -6.80300 18.20200 46.13300
H  -5.19100 17.89500 45.80000
H  -5.95300 16.57600 46.48100

