158

Mg 27.29900 49.67400 26.92000
C  25.33800 50.70100 29.54400
C  29.82300 49.06300 29.13900
C  29.23200 48.89800 24.33100
C  24.74500 50.64500 24.69400
N  27.56400 50.01400 29.14100
C  26.60000 50.33400 30.03600
C  27.03200 50.06400 31.50300
C  28.56000 49.79100 31.29400
C  28.68200 49.67000 29.77600
C  29.59600 50.75400 31.93700
C  26.24100 48.86000 32.22300
C  25.49000 49.21100 33.44600
H  26.29400 49.49300 34.75900
N  29.29800 49.04800 26.73600
C  30.15200 48.82600 27.78500
C  31.42500 48.41200 27.24900
C  31.29900 48.58600 25.84900
C  29.91600 48.87200 25.55500
C  32.58300 47.94200 28.09000
C  32.40000 48.45100 24.75800
O  32.24600 48.58800 23.54300
C  33.71700 47.99800 25.16700
N  26.97200 49.84900 24.80700
C  27.97300 49.40200 23.97800
C  27.51600 49.33100 22.54000
C  26.00600 49.65300 22.68700
C  25.95100 50.20800 24.07200
C  28.21600 50.32800 21.60100
C  25.01300 48.49600 22.44400
C  25.14800 47.17100 23.29700
N  25.46100 50.48500 27.06000
C  24.47500 50.74100 26.07800
C  23.32700 51.36700 26.70700
C  23.61200 51.34900 28.08100
C  24.91300 50.79600 28.20600
C  22.03700 51.81800 26.00900
C  23.07900 51.69900 29.36600
O  22.11000 52.36700 29.63900
C  24.15300 51.13400 30.41100
C  24.36500 52.17700 31.50600
O  25.22000 53.06200 31.49400
O  23.61800 51.90500 32.61000
C  23.86500 52.77300 33.76600
H  30.66900 48.75900 29.76000
H  29.81400 48.50200 23.49600
H  24.04100 50.94800 23.91600
H  26.92000 50.98300 32.07900
H  28.87700 48.86500 31.77300
H  30.33300 50.24500 32.55800
H  29.00100 51.36400 32.61700
H  30.13100 51.34100 31.19100
H  26.99500 48.20200 32.65400
H  25.72000 48.10200 31.63700
H  24.70100 48.46400 33.54000
H  24.98900 50.15400 33.22800
H  33.44400 48.58500 27.90300
H  32.77200 46.90400 27.81800
H  32.34200 47.79900 29.14400
H  34.24500 48.69900 25.81300
H  34.30500 47.79200 24.27200
H  33.73600 47.07500 25.74700
H  27.69100 48.30300 22.22300
H  25.63800 50.42900 22.01500
H  27.41700 50.86200 21.08800
H  28.99600 49.91800 20.96000
H  28.66600 51.01400 22.31900
H  25.10100 48.28900 21.37800
H  24.00800 48.85200 22.66900
H  26.16900 46.81600 23.43700
H  24.52000 46.43200 22.79900
H  24.75000 47.39800 24.28700
H  22.03000 52.90500 25.93800
H  21.08300 51.61000 26.49300
H  21.91800 51.35100 25.03100
H  23.59300 50.32000 30.87100
H  23.00600 53.41500 33.95600
H  24.82200 53.29100 33.82300
H  23.96600 52.11900 34.63200
Mg -5.84000 24.80800 25.98400
C  -4.49900 26.33300 28.64300
C  -8.00000 23.07500 28.26700
C  -7.10400 23.07100 23.47900
C  -3.56600 26.44900 23.86300
N  -5.99300 24.41900 28.18100
C  -5.48000 25.38700 29.02200
C  -5.97700 25.17400 30.47100
C  -6.96800 23.99100 30.33400
C  -7.03600 23.84000 28.82600
C  -6.60800 22.64700 30.91700
C  -6.65500 26.43900 31.10500
C  -6.65300 26.52700 32.59500
H  -5.98700 25.47800 33.49400
N  -7.36500 23.25400 25.88600
C  -8.12300 22.75000 26.91000
C  -9.20300 21.97400 26.33000
C  -8.98600 21.91500 24.93500
C  -7.80800 22.77400 24.71300
C  -10.37200 21.48400 27.09500
C  -9.72700 21.16100 23.93000
O  -9.45600 21.16000 22.74800
C  -10.74100 20.08700 24.43300
N  -5.28200 24.66200 23.97900
C  -5.93900 23.83900 23.14500
C  -5.38900 23.88600 21.63200
C  -4.51600 25.20300 21.73900
C  -4.45700 25.51700 23.27200
C  -4.63200 22.56900 21.21100
C  -5.07700 26.46600 21.05900
C  -4.50100 26.96900 19.67000
N  -4.21700 26.05200 26.12600
C  -3.43400 26.72500 25.25000
C  -2.54600 27.72500 25.95500
C  -2.93800 27.47400 27.31900
C  -3.91700 26.50800 27.33700
C  -1.61700 28.72800 25.31600
C  -2.76600 28.04200 28.56800
O  -2.05400 28.93100 28.89000
C  -3.71200 27.28100 29.48900
C  -2.83300 26.55000 30.39100
O  -2.60700 25.38300 30.47000
O  -2.47100 27.42100 31.39200
C  -1.75200 26.97900 32.59900
H  -8.59800 22.53100 29.00100
H  -7.45200 22.43900 22.65900
H  -2.89600 27.00900 23.20800
H  -5.19100 24.84400 31.15000
H  -7.94600 24.19900 30.76600
H  -7.20200 22.53900 31.82400
H  -5.55500 22.56700 31.18700
H  -6.69800 21.71800 30.35400
H  -7.71200 26.53900 30.85900
H  -6.31300 27.35500 30.62400
H  -7.71500 26.60500 32.82900
H  -6.20000 27.49900 32.79300
H  -10.31200 21.88200 28.10800
H  -10.28800 20.39800 27.05800
H  -11.28200 21.94800 26.71600
H  -11.53100 20.66400 24.91400
H  -10.18000 19.37000 25.03300
H  -11.17200 19.51000 23.61500
H  -6.19900 24.00300 20.91200
H  -3.53400 25.01000 21.30700
H  -3.57900 22.78200 21.02500
H  -5.11400 22.07600 20.36700
H  -4.59200 21.84400 22.02400
H  -5.00000 27.30100 21.75600
H  -6.14800 26.28800 20.96400
H  -4.08000 27.95800 19.84800
H  -5.27000 26.93700 18.89800
H  -3.67300 26.35900 19.30800
H  -1.91700 29.75300 25.53700
H  -1.64600 28.80800 24.22900
H  -0.56400 28.50000 25.48100
H  -4.37600 27.98700 29.98700
H  -1.11300 26.11700 32.40400
H  -2.34000 26.74000 33.48500
H  -1.05600 27.78600 32.82500

