158

Mg 54.66500 24.66100 44.46500
C  51.89300 26.59600 44.00100
C  52.69500 21.73800 43.91800
C  57.42100 22.67600 44.21100
C  56.64500 27.44000 44.38900
N  52.47800 24.21600 43.92800
C  51.58500 25.18500 43.89300
C  50.21300 24.47100 43.79600
C  50.43600 22.96800 44.28900
C  51.93400 22.92700 43.99100
C  50.09400 22.71900 45.76100
C  49.32300 24.57400 42.58200
C  49.94000 24.01000 41.33300
H  49.45800 24.59500 39.98800
N  55.00100 22.59900 44.05100
C  54.03600 21.55700 43.85700
C  54.70000 20.30900 43.84600
C  56.04700 20.45700 44.05600
C  56.22200 21.94500 44.15000
C  53.78700 19.02900 43.65100
C  57.11300 19.42200 44.01000
O  56.76900 18.29500 43.59600
C  58.60700 19.60900 44.37000
N  56.77200 25.00000 44.39500
C  57.72600 24.04300 44.33100
C  59.11800 24.62100 44.21000
C  58.80300 26.17200 44.18800
C  57.30900 26.27400 44.42300
C  60.10700 24.19100 45.38200
C  59.34600 26.92700 42.93500
C  58.45500 26.75400 41.64800
N  54.40800 26.67600 44.29700
C  55.29500 27.75700 44.29000
C  54.53500 28.98500 44.32700
C  53.18300 28.58600 44.12200
C  53.21800 27.15800 44.11900
C  55.05600 30.33600 44.61400
C  51.88000 29.10900 44.02300
O  51.54300 30.24000 43.99900
C  50.99800 27.84600 43.86200
C  50.42300 28.02400 42.53500
O  51.02400 27.87600 41.48100
O  49.04100 28.16400 42.55600
C  48.27600 28.15500 41.28000
H  52.03700 20.86600 43.92300
H  58.28700 22.01600 44.12900
H  57.27800 28.31500 44.22600
H  49.67000 24.99600 44.58300
H  49.95500 22.25400 43.62000
H  50.96600 22.25600 46.22300
H  49.24300 22.03800 45.75800
H  49.78600 23.61000 46.30700
H  48.94700 25.57600 42.37400
H  48.42500 23.99000 42.77800
H  49.84400 22.92800 41.24400
H  51.00600 24.23900 41.34400
H  54.23700 18.06300 43.42200
H  52.97900 19.28600 42.96700
H  53.36700 18.99000 44.65600
H  59.19000 20.21100 43.67400
H  59.02200 18.60200 44.41200
H  58.70600 20.03600 45.36800
H  59.48100 24.41500 43.20300
H  59.22200 26.73300 45.02300
H  60.89300 23.54800 44.98500
H  59.57500 23.44200 45.96800
H  60.55100 25.06600 45.85700
H  60.37000 26.59700 42.76000
H  59.40300 28.00500 43.08200
H  57.98200 27.71000 41.42200
H  57.67800 25.99000 41.67000
H  59.14900 26.46400 40.85900
H  54.85100 30.94500 43.73300
H  56.13500 30.26900 44.75800
H  54.53900 30.74800 45.48000
H  50.20500 27.84900 44.61000
H  48.10300 29.15700 40.88800
H  47.34600 27.65200 41.54600
H  48.78100 27.57100 40.51000
Mg -1.02900 34.50100 26.78700
C  -2.87600 32.78300 29.24800
C  0.54100 36.32800 29.42400
C  0.22500 36.57100 24.60000
C  -2.78400 32.87900 24.28100
N  -1.30900 34.66400 29.10500
C  -2.06200 33.81400 29.87400
C  -1.84400 34.07800 31.38800
C  -0.86300 35.27700 31.32100
C  -0.48200 35.43500 29.88200
C  -1.36000 36.53400 31.98700
C  -1.25700 32.76900 32.09800
C  -1.94300 32.29800 33.34700
H  -1.10800 32.17400 34.58300
N  0.47300 36.01900 27.01500
C  0.96000 36.68800 28.14800
C  1.97800 37.65900 27.67100
C  1.89800 37.69500 26.27900
C  0.83700 36.69000 25.92000
C  2.82100 38.50700 28.60200
C  2.80100 38.51000 25.37700
O  2.57300 38.53900 24.19400
C  3.93700 39.37100 25.86700
N  -1.12800 34.60200 24.70300
C  -0.58400 35.57400 24.02500
C  -0.97400 35.58200 22.56400
C  -1.80900 34.26800 22.42500
C  -1.91400 33.89900 23.87500
C  -1.51800 36.94700 21.96200
C  -1.28000 33.05400 21.65300
C  -0.94100 33.11200 20.18000
N  -2.49800 33.14900 26.72000
C  -3.03600 32.49400 25.65200
C  -4.02700 31.47100 26.07300
C  -3.92000 31.55200 27.49200
C  -2.97000 32.52000 27.80300
C  -5.02300 30.68000 25.37000
C  -4.51500 31.04600 28.76700
O  -5.37900 30.28100 29.05000
C  -3.74500 31.83800 29.93500
C  -4.78800 32.47600 30.85800
O  -5.44800 33.45000 30.47900
O  -4.84800 31.84700 32.15200
C  -5.87700 32.48400 33.04200
H  1.18400 36.64100 30.25000
H  0.52500 37.30200 23.84600
H  -3.43200 32.43600 23.52200
H  -2.80900 34.37100 31.80300
H  0.10000 34.97600 31.73500
H  -1.97800 36.25400 32.84000
H  -1.92400 37.10800 31.25200
H  -0.57100 37.15700 32.40800
H  -0.25300 32.97400 32.46800
H  -1.18900 31.94500 31.38900
H  -2.30300 31.27300 33.25100
H  -2.86000 32.83800 33.58500
H  3.85000 38.25200 28.34800
H  2.46500 38.37000 29.62300
H  2.65600 39.56400 28.39100
H  4.66200 38.79200 26.43800
H  3.63300 40.17600 26.53600
H  4.47000 39.84000 25.04000
H  -0.10200 35.22400 22.01700
H  -2.70900 34.72500 22.01300
H  -1.48100 37.71600 22.73300
H  -2.58000 36.78600 21.77300
H  -1.10600 37.23600 20.99500
H  -1.85000 32.13900 21.81200
H  -0.34500 32.80500 22.15500
H  0.12800 33.25400 20.01600
H  -1.44400 33.88700 19.60200
H  -1.27000 32.17000 19.74100
H  -5.08700 30.95400 24.31700
H  -5.97100 30.76300 25.90000
H  -4.60800 29.67200 25.33500
H  -3.12400 31.20700 30.57100
H  -5.24800 32.90800 33.82400
H  -6.59400 31.80200 33.49900
H  -6.45300 33.24800 32.52000

