158

Mg 44.53500 4.66100 47.49400
C  42.57900 7.49000 47.00500
C  41.70600 2.80700 46.87900
C  46.44600 1.94900 47.40000
C  47.43600 6.69200 47.73900
N  42.40100 5.13300 46.97900
C  41.82900 6.35300 46.93900
C  40.46600 6.16800 46.41200
C  40.09800 4.69600 46.76500
C  41.50500 4.14900 46.86700
C  39.07000 4.48900 47.90600
C  40.28000 6.55100 44.94200
C  38.99700 7.31200 44.58700
H  39.30400 8.39600 43.57600
N  44.13500 2.58600 47.22100
C  42.84600 2.06000 46.92700
C  43.00600 0.61300 46.72600
C  44.43500 0.33100 46.88400
C  45.06100 1.64400 47.21700
C  41.84800 -0.26400 46.27000
C  44.98900 -1.01200 46.53000
O  44.13100 -1.84400 46.14500
C  46.39200 -1.33000 46.55600
N  46.67000 4.40700 47.24100
C  47.20000 3.13300 47.33900
C  48.69700 3.08700 47.38200
C  49.04200 4.60800 47.63900
C  47.66000 5.29100 47.55700
C  49.22800 2.12000 48.48300
C  49.99500 5.18000 46.57700
C  51.38800 5.55900 46.93500
N  44.95200 6.66400 47.36100
C  46.15600 7.35900 47.51200
C  45.90200 8.81700 47.24100
C  44.46900 8.88600 47.29100
C  43.93200 7.54900 47.29400
C  46.98200 9.90400 47.16200
C  43.38200 9.80200 47.07300
O  43.42400 11.02300 46.93300
C  42.10000 8.93700 47.01100
C  41.23700 9.26600 48.17000
O  41.37800 8.75600 49.29000
O  40.20800 10.13900 47.78500
C  39.19300 10.48600 48.76900
H  40.76500 2.30200 46.64900
H  47.01400 1.01800 47.33600
H  48.31600 7.32700 47.85600
H  39.76500 6.71100 47.04600
H  39.57900 4.22800 45.92900
H  38.81700 5.46500 48.32200
H  39.40700 3.90700 48.76300
H  38.18600 3.99300 47.50500
H  40.35500 5.56300 44.48600
H  41.14400 7.07300 44.53200
H  38.50200 7.68000 45.48500
H  38.39000 6.56800 44.07100
H  41.91400 -0.20800 45.18300
H  40.93100 0.12900 46.70700
H  41.86700 -1.32300 46.52900
H  46.81100 -0.70600 45.76700
H  46.50400 -2.39900 46.37100
H  46.69100 -1.12000 47.58300
H  49.01000 2.76600 46.38800
H  49.48200 4.84000 48.60900
H  48.55400 1.34600 48.85100
H  49.63300 2.68900 49.32000
H  50.02200 1.53400 48.02000
H  49.57300 6.06700 46.10400
H  50.16100 4.46900 45.76800
H  51.52000 5.71000 48.00600
H  51.77000 6.48100 46.49700
H  52.11700 4.85400 46.53500
H  47.85500 9.75100 47.79600
H  46.51900 10.84900 47.44700
H  47.18500 9.92600 46.09100
H  41.49900 9.19500 46.13900
H  38.36900 11.00700 48.28200
H  39.44400 11.09500 49.63700
H  38.85600 9.51300 49.12900
Mg -12.50800 38.18000 40.75100
C  -10.73200 35.41800 39.85100
C  -10.25300 40.08800 38.80300
C  -14.60600 40.90700 40.86700
C  -14.98300 36.20400 41.99300
N  -10.71900 37.79300 39.43900
C  -10.14300 36.56700 39.33300
C  -8.87200 36.57800 38.49600
C  -8.51600 38.09700 38.50700
C  -9.87900 38.76800 38.95400
C  -7.39200 38.63100 39.50900
C  -9.09100 36.12400 37.04800
C  -7.90800 35.35000 36.51100
H  -6.91800 36.17000 35.62000
N  -12.37300 40.26300 40.10800
C  -11.37900 40.77600 39.32400
C  -11.61800 42.21700 39.12300
C  -12.92900 42.51400 39.73200
C  -13.35100 41.19800 40.28200
C  -10.63900 43.14700 38.22800
C  -13.59900 43.84600 39.73900
O  -13.02600 44.77400 39.17800
C  -14.85300 44.19700 40.43000
N  -14.55700 38.53700 41.31500
C  -15.17700 39.72100 41.32000
C  -16.59400 39.63400 41.87000
C  -16.62900 38.18000 42.31800
C  -15.36500 37.54700 41.78000
C  -16.95900 40.61300 43.03800
C  -17.88500 37.39300 42.11800
C  -18.93700 37.64700 43.14200
N  -12.75400 36.23200 41.02100
C  -13.75900 35.56500 41.63600
C  -13.40200 34.13100 41.79900
C  -12.26000 34.04000 41.03700
C  -11.92200 35.33900 40.62200
C  -14.19500 33.05400 42.42300
C  -11.29000 33.14000 40.57700
O  -11.25100 31.94500 40.79200
C  -10.22300 33.89500 39.71000
C  -8.87100 33.67100 40.38800
O  -8.02600 32.88900 39.92700
O  -8.68200 34.50000 41.49000
C  -7.44400 34.39100 42.10900
H  -9.67100 40.67100 38.08500
H  -15.23200 41.79900 40.80100
H  -15.51300 35.59500 42.72800
H  -7.92900 36.19100 38.88300
H  -8.29200 38.50200 37.52100
H  -7.88300 39.03200 40.39500
H  -6.77800 39.36700 38.99000
H  -6.81500 37.76400 39.83300
H  -9.26600 36.92800 36.33400
H  -9.95900 35.46500 37.06900
H  -8.39800 34.64200 35.84300
H  -7.31100 34.74700 37.19500
H  -9.62100 42.75800 38.26400
H  -10.57800 44.19600 38.51900
H  -11.07500 43.19000 37.23000
H  -15.46400 43.61400 39.74000
H  -15.02700 45.27300 40.43800
H  -14.89200 43.98500 41.49800
H  -17.39400 39.81100 41.15000
H  -16.42600 38.13200 43.38800
H  -17.12500 40.12000 43.99600
H  -17.94900 41.00000 42.79500
H  -16.21900 41.41200 43.08300
H  -17.67500 36.34700 41.89600
H  -18.21900 37.71100 41.13000
H  -19.46000 36.69100 43.12000
H  -19.63000 38.45500 42.90700
H  -18.45800 37.80700 44.10800
H  -15.23400 33.29200 42.65200
H  -13.62700 32.73700 43.29700
H  -14.21400 32.16800 41.78800
H  -10.17700 33.57200 38.67000
H  -6.56300 34.49900 41.47600
H  -7.41900 33.46300 42.68000
H  -7.49400 35.26100 42.76200

