158

Mg 0.57200 7.44700 25.69900
C  1.25100 9.67400 28.27500
C  0.88400 4.89500 27.92700
C  0.01300 5.20300 23.09500
C  1.00700 9.96000 23.39300
N  1.18900 7.29600 27.82400
C  1.22000 8.35500 28.69900
C  1.35300 7.89900 30.12100
C  1.53300 6.33000 29.96800
C  1.14100 6.16200 28.49300
C  2.90900 5.69600 30.33400
C  0.01000 8.31500 30.84800
C  0.16700 8.61500 32.36000
H  1.29800 8.01600 33.08300
N  0.47000 5.38800 25.54300
C  0.57900 4.50700 26.59800
C  0.13300 3.22100 26.15900
C  -0.00500 3.17000 24.76600
C  0.21900 4.66800 24.40800
C  -0.03900 2.09800 27.11400
C  -0.31200 2.06400 23.86100
O  -0.54000 2.30900 22.67600
C  -0.34600 0.56900 24.47100
N  0.76300 7.56000 23.51400
C  0.33800 6.51700 22.70400
C  0.06200 7.05300 21.28900
C  0.41800 8.53900 21.43600
C  0.70300 8.71200 22.87800
C  0.76700 6.29700 20.10100
C  -0.46100 9.58400 20.74800
C  -1.80000 9.88600 21.47200
N  0.99100 9.48700 25.74600
C  1.16900 10.37200 24.74600
C  1.60600 11.66400 25.35600
C  1.60900 11.42000 26.75000
C  1.12900 10.11800 26.95900
C  1.84300 12.98100 24.54400
C  1.89900 11.99500 28.01300
O  2.24500 13.12700 28.29800
C  1.69500 10.87600 29.08600
C  2.93100 10.72400 29.89200
O  3.98600 10.17400 29.53600
O  2.67600 11.20400 31.15200
C  3.80700 11.15100 32.12100
H  1.01500 4.04800 28.60300
H  -0.15400 4.60100 22.19900
H  0.98400 10.82100 22.72200
H  2.22800 8.28700 30.64400
H  0.81600 5.81000 30.60200
H  3.54000 6.53800 30.61800
H  3.40400 5.17200 29.51600
H  2.71600 5.06200 31.19900
H  -0.82500 7.67500 30.56300
H  -0.36300 9.24400 30.41700
H  -0.76100 8.36200 32.87200
H  0.21300 9.70400 32.38300
H  -0.30800 2.42500 28.11800
H  0.84400 1.46100 27.14300
H  -0.88200 1.48400 26.79500
H  -1.21500 0.30600 25.07400
H  0.59100 0.41900 25.00600
H  -0.36000 -0.16500 23.66500
H  -1.01900 6.97100 21.18300
H  1.36100 8.74100 20.92800
H  1.36000 5.61800 20.71500
H  1.53700 6.78900 19.50700
H  0.01800 5.74900 19.52900
H  -0.71700 9.50700 19.69100
H  0.10600 10.50900 20.85100
H  -1.84400 10.74600 22.14000
H  -2.08700 9.04300 22.10100
H  -2.55400 10.09900 20.71400
H  1.50100 13.80600 25.17000
H  1.38200 13.14300 23.57000
H  2.92600 13.04700 24.44400
H  0.93300 11.13800 29.82000
H  3.71300 11.69600 33.06000
H  4.79700 11.28300 31.68500
H  4.00300 10.14900 32.50100
Mg 35.24700 0.44800 29.43300
C  33.05900 1.52200 31.68900
C  37.79300 0.62400 31.83800
C  37.71200 -0.09600 27.03300
C  32.88600 0.70500 26.90100
N  35.46000 1.06400 31.48100
C  34.35700 1.50100 32.19900
C  34.72400 1.68600 33.73800
C  36.34500 1.63900 33.65000
C  36.56200 1.04000 32.30300
C  37.10900 2.99200 33.88400
C  34.11400 0.62700 34.69900
C  33.97300 1.04900 36.10200
H  35.05900 2.03000 36.74500
N  37.39600 0.09300 29.43000
C  38.19500 0.13900 30.57200
C  39.55100 -0.26700 30.21700
C  39.54800 -0.44900 28.79600
C  38.18800 -0.07200 28.35600
C  40.73800 -0.40600 31.18000
C  40.79900 -0.80800 27.86200
O  40.83000 -0.77700 26.63000
C  42.05000 -1.21500 28.49800
N  35.28000 0.31700 27.23900
C  36.40100 0.06900 26.50300
C  36.09700 0.06000 25.01900
C  34.51300 0.17500 24.91500
C  34.16600 0.43400 26.42000
C  36.80100 1.39400 24.44400
C  33.79200 -1.15500 24.58400
C  32.40700 -1.02000 23.87600
N  33.29600 0.97100 29.25100
C  32.41400 0.96500 28.18500
C  31.05700 1.18800 28.64900
C  31.25400 1.52500 30.04000
C  32.67200 1.33400 30.33600
C  29.77900 1.22800 27.79200
C  30.69200 1.94400 31.29900
O  29.50400 2.14700 31.61100
C  31.79100 1.86600 32.38800
C  31.77600 3.24400 33.02800
O  31.62700 4.34500 32.53200
O  31.93700 3.14000 34.36500
C  31.97700 4.39100 35.19400
H  38.58600 0.62400 32.58800
H  38.41100 -0.25100 26.20900
H  32.25600 0.81300 26.01600
H  34.46200 2.71900 33.96600
H  36.78800 0.95900 34.37700
H  37.93300 2.81300 34.57500
H  36.42900 3.75500 34.26300
H  37.62400 3.35600 32.99500
H  34.68200 -0.29700 34.59300
H  33.17700 0.26900 34.27300
H  34.10700 0.11100 36.64100
H  32.96200 1.44200 36.20600
H  41.47300 0.38400 31.02500
H  41.14500 -1.39600 30.97000
H  40.44300 -0.48900 32.22600
H  41.80300 -1.93800 29.27600
H  42.27900 -0.38000 29.16000
H  42.84500 -1.54500 27.82900
H  36.50400 -0.88400 24.65600
H  34.22600 0.94900 24.20300
H  37.51700 1.84500 25.13000
H  36.07500 2.16500 24.18600
H  37.33400 1.11400 23.53500
H  33.59100 -1.78200 25.45300
H  34.52800 -1.73800 24.03100
H  31.62900 -1.54700 24.42800
H  32.67200 -1.46800 22.91800
H  32.13900 0.03700 23.85700
H  30.04400 0.62800 26.92200
H  29.29400 2.19000 27.62600
H  28.97500 0.70900 28.31300
H  31.42900 1.04400 33.00600
H  30.98600 4.84100 35.12500
H  32.74000 5.04500 34.77400
H  32.27400 4.29100 36.23800

