158

Mg -2.19100 16.90800 26.53500
C  -2.43800 14.61800 28.95900
C  -3.07500 19.44200 28.89500
C  -2.13400 19.24700 24.06300
C  -2.16900 14.36400 24.05800
N  -2.82300 17.03200 28.61000
C  -2.59800 15.92700 29.46300
C  -2.74900 16.33400 30.90400
C  -3.00100 17.87700 30.81800
C  -3.03300 18.15800 29.36100
C  -4.35100 18.30200 31.37900
C  -1.62100 15.93500 31.89900
C  -1.18500 16.95500 32.94800
H  -0.95200 16.32100 34.38600
N  -2.44700 19.02400 26.48600
C  -2.83600 19.85400 27.56100
C  -2.78900 21.22200 27.08100
C  -2.56000 21.15300 25.67100
C  -2.36300 19.76000 25.37800
C  -3.07900 22.44700 28.00600
C  -2.63500 22.25900 24.64600
O  -2.42500 22.12800 23.44800
C  -2.96700 23.63000 25.10000
N  -2.20400 16.87600 24.27200
C  -2.13600 17.97100 23.49100
C  -1.99300 17.60700 22.01100
C  -1.82000 15.98200 22.06700
C  -2.08000 15.69000 23.60400
C  -3.12700 18.14300 21.16700
C  -0.54500 15.33300 21.49000
C  0.70800 15.41300 22.41400
N  -2.28500 14.89600 26.40600
C  -2.27500 13.97200 25.42200
C  -2.15700 12.62700 25.96500
C  -2.24800 12.86300 27.31900
C  -2.29400 14.26400 27.54500
C  -2.20300 11.34900 25.27600
C  -2.26100 12.19000 28.56800
O  -2.34400 11.00800 28.80500
C  -2.46300 13.27400 29.67000
C  -1.38400 13.12500 30.66800
O  -0.22800 13.39500 30.44800
O  -1.89200 12.55600 31.84200
C  -0.77900 11.92200 32.58300
H  -3.28100 20.28400 29.55900
H  -2.04800 19.91700 23.20600
H  -2.24400 13.54000 23.34500
H  -3.58600 15.70900 31.21400
H  -2.24300 18.48100 31.31700
H  -4.13700 19.00700 32.18300
H  -4.89600 17.52800 31.91900
H  -5.03100 18.85500 30.73100
H  -0.75000 15.54200 31.37300
H  -1.96500 15.05200 32.43700
H  -1.84000 17.81400 33.09700
H  -0.23100 17.36600 32.61800
H  -2.30500 23.20200 27.87700
H  -3.16900 22.26700 29.07800
H  -4.04500 22.82200 27.66900
H  -3.88800 23.67700 25.68000
H  -3.13800 24.18300 24.17600
H  -2.26200 24.13400 25.76100
H  -0.99600 17.83700 21.63400
H  -2.71400 15.55900 21.61000
H  -2.66500 18.67900 20.33700
H  -3.66900 18.80400 21.84300
H  -3.79100 17.39500 20.73500
H  -0.31500 15.86200 20.56600
H  -0.77600 14.29800 21.23800
H  0.52700 15.56000 23.47900
H  1.27600 16.26500 22.03900
H  1.49600 14.66200 22.36100
H  -1.95300 11.41600 24.21700
H  -3.19800 10.97300 25.51600
H  -1.48500 10.64400 25.69500
H  -3.35400 13.18300 30.29100
H  -0.35800 11.17700 31.90900
H  -1.25800 11.47800 33.45600
H  -0.14800 12.73900 32.93300
Mg 0.30800 43.09200 26.53100
C  2.60700 43.09400 29.06300
C  -2.20400 42.51000 28.65200
C  -1.73400 42.33400 23.94600
C  3.02500 43.31500 24.22100
N  0.30300 42.75100 28.59800
C  1.30000 42.91800 29.53300
C  0.78100 42.89300 30.97100
C  -0.64500 42.36100 30.76600
C  -0.90800 42.47000 29.23300
C  -0.79400 40.89300 31.42700
C  0.75000 44.33100 31.61700
C  1.22100 44.26500 33.03800
H  0.87300 42.97100 33.77400
N  -1.70700 42.59400 26.30500
C  -2.61800 42.59300 27.33600
C  -3.93500 42.51000 26.75900
C  -3.80300 42.44100 25.37100
C  -2.34500 42.40000 25.14500
C  -5.20700 42.34500 27.53500
C  -4.81000 42.44200 24.22200
O  -4.52000 42.39500 23.01900
C  -6.23800 42.57300 24.51000
N  0.64300 42.56600 24.35300
C  -0.41100 42.31800 23.54900
C  0.04800 42.17900 22.13600
C  1.57500 42.65500 22.15500
C  1.77500 42.84400 23.65900
C  -0.07100 40.67200 21.62700
C  1.81800 44.06500 21.46800
C  1.26300 45.31100 22.20000
N  2.37400 43.32900 26.57600
C  3.38300 43.38100 25.57400
C  4.67200 43.54600 26.20900
C  4.39900 43.42900 27.62100
C  3.00600 43.34500 27.74600
C  5.96700 43.69200 25.53000
C  5.02000 43.36300 28.94900
O  6.19300 43.44000 29.26800
C  3.87700 43.26700 29.95300
C  4.10500 42.03300 30.81700
O  4.21700 40.90000 30.45600
O  4.05200 42.40000 32.16200
C  4.38700 41.36000 33.08400
H  -3.05700 42.26900 29.29000
H  -2.37100 41.91100 23.16600
H  3.90100 43.35800 23.57000
H  1.37400 42.14700 31.49900
H  -1.40200 43.03300 31.17100
H  -1.19800 40.19900 30.69000
H  -1.57900 41.05500 32.16500
H  0.10500 40.37100 31.75600
H  -0.27800 44.69000 31.66800
H  1.33500 45.03300 31.02200
H  0.77300 45.06300 33.63000
H  2.31000 44.30000 33.03700
H  -5.65200 41.36700 27.35500
H  -5.96400 43.06700 27.23000
H  -5.01200 42.35000 28.60800
H  -6.58900 42.06500 25.40900
H  -6.93400 42.25400 23.73400
H  -6.49400 43.62100 24.66400
H  -0.49700 42.70400 21.35200
H  2.26400 41.93600 21.71200
H  0.89500 40.24900 21.90300
H  -0.07500 40.83200 20.54900
H  -0.95600 40.17000 22.01800
H  1.32300 44.07100 20.49700
H  2.87200 44.31500 21.34800
H  0.95300 46.14400 21.56800
H  2.05300 45.56900 22.90500
H  0.49700 44.86900 22.83800
H  5.96300 43.55700 24.44800
H  6.69100 43.02600 25.99800
H  6.34300 44.70900 25.64600
H  3.82500 44.10800 30.64400
H  3.84000 40.41700 33.07200
H  4.27800 41.77600 34.08600
H  5.46400 41.30500 32.92400

