158

Mg 24.86400 -4.81000 45.87500
C  26.97100 -2.53000 44.54700
C  22.26500 -3.60300 43.80600
C  23.11000 -7.75200 46.19600
C  27.67700 -6.37800 47.46300
N  24.62700 -3.30500 44.38300
C  25.67500 -2.46900 43.95200
C  25.21300 -1.52600 42.81200
C  23.66100 -1.72100 42.69900
C  23.47900 -2.95600 43.67900
C  22.74600 -0.47900 43.20400
C  26.07600 -1.53700 41.43500
C  25.63600 -0.55800 40.30100
H  25.93400 -0.92600 38.82200
N  22.89000 -5.53900 45.23300
C  21.94900 -4.84500 44.44500
C  20.69800 -5.55900 44.48000
C  20.97100 -6.75800 45.20700
C  22.37600 -6.78200 45.54900
C  19.45600 -5.18600 43.69400
C  19.86900 -7.83200 45.49400
O  18.75700 -7.64200 45.06200
C  20.14300 -9.04200 46.28000
N  25.35100 -6.84100 46.66200
C  24.42400 -7.80500 46.67000
C  25.11100 -9.08500 47.39800
C  26.54500 -8.58900 47.80100
C  26.51100 -7.18500 47.25300
C  24.44200 -9.61700 48.65600
C  27.79300 -9.38700 47.38500
C  28.73700 -9.78300 48.51700
N  26.96800 -4.38100 46.11400
C  27.97100 -5.09100 46.81500
C  29.21800 -4.25000 46.76800
C  28.81600 -3.25000 45.82600
C  27.44900 -3.44100 45.49400
C  30.51200 -4.53200 47.39500
C  29.27000 -2.03600 45.17600
O  30.39000 -1.49200 45.34300
C  28.12100 -1.60000 44.19100
C  27.84000 -0.20600 44.41600
O  27.17800 0.22600 45.34300
O  28.53600 0.56000 43.48600
C  28.18600 1.93100 43.61400
H  21.41200 -3.25100 43.22000
H  22.53300 -8.66100 46.38000
H  28.49000 -6.84500 48.02300
H  25.42900 -0.55700 43.26400
H  23.49400 -2.10700 41.69300
H  22.21900 -0.17500 42.30000
H  23.44800 0.29200 43.52100
H  21.93000 -0.68500 43.89700
H  26.02800 -2.55500 41.04800
H  27.14600 -1.43200 41.61100
H  26.25300 0.28200 40.62100
H  24.58600 -0.30700 40.44900
H  19.12400 -5.77600 42.84000
H  19.64700 -4.14900 43.41600
H  18.55800 -5.04700 44.29600
H  19.28000 -9.68800 46.44400
H  20.65900 -8.68100 47.17000
H  20.88400 -9.60400 45.71200
H  25.14000 -9.82700 46.60000
H  26.53200 -8.46800 48.88400
H  23.75200 -8.81300 48.91200
H  25.03100 -9.79300 49.55500
H  23.92200 -10.55700 48.46700
H  28.42400 -8.84300 46.68100
H  27.46700 -10.32700 46.94000
H  28.29100 -9.58100 49.49100
H  29.64900 -9.19100 48.44100
H  28.96700 -10.84600 48.44200
H  31.00200 -3.56800 47.53300
H  31.17100 -5.13300 46.76900
H  30.44600 -5.09300 48.32700
H  28.50100 -1.72700 43.17700
H  27.10000 2.02000 43.61200
H  28.45000 2.37800 42.65600
H  28.76300 2.38100 44.42200
Mg 16.98500 53.08600 26.08900
C  19.11900 51.50900 28.46500
C  14.86200 53.87300 28.70800
C  15.03000 54.51900 23.91400
C  19.21300 52.13500 23.58300
N  16.94400 52.60500 28.28800
C  17.99100 52.11900 29.04600
C  17.76700 52.31400 30.55500
C  16.31400 52.88500 30.57900
C  16.00400 53.18500 29.09600
C  15.16800 51.99500 31.24400
C  18.75900 53.25900 31.25500
C  19.12900 53.07400 32.74700
H  18.13600 52.43800 33.71200
N  15.15900 54.01500 26.24000
C  14.52900 54.35900 27.37700
C  13.44000 55.27400 27.07400
C  13.40200 55.42100 25.69100
C  14.57300 54.58500 25.19900
C  12.43700 55.77100 28.13100
C  12.37500 56.19500 24.84100
O  12.44500 56.25800 23.63500
C  11.32800 56.85700 25.52700
N  17.01400 53.15200 23.95700
C  16.11700 53.92800 23.32000
C  16.50600 54.14900 21.84900
C  17.93600 53.42800 21.75400
C  18.05500 52.82100 23.14000
C  15.53500 53.52800 20.84000
C  19.17100 54.34700 21.43200
C  20.31300 53.82600 20.57800
N  18.70900 51.81600 25.96400
C  19.45900 51.54100 24.86000
C  20.56900 50.76100 25.32700
C  20.54300 50.71400 26.75100
C  19.35900 51.40200 27.04400
C  21.77600 50.24500 24.47400
C  21.22400 50.28900 27.92500
O  22.19800 49.61900 28.13100
C  20.22700 50.81000 29.10600
C  19.78200 49.68500 29.94200
O  19.42200 48.60200 29.50500
O  20.10700 49.86200 31.28700
C  19.65500 48.71000 32.11800
H  14.37100 54.38200 29.54000
H  14.39000 55.09500 23.24200
H  19.98100 51.99300 22.82000
H  17.70000 51.32800 31.01500
H  16.31100 53.91400 30.93700
H  14.40300 52.74800 31.43300
H  15.55500 51.52100 32.14700
H  14.86400 51.14100 30.63900
H  18.61100 54.30700 30.99200
H  19.71200 53.04100 30.77300
H  19.36800 54.08100 33.08700
H  20.04400 52.48200 32.72400
H  12.46500 56.86100 28.13400
H  12.77600 55.53800 29.14000
H  11.45800 55.30500 28.23900
H  10.72000 56.14500 26.08600
H  10.66200 57.47300 24.92300
H  11.80300 57.63900 26.11900
H  16.44400 55.20400 21.58000
H  17.85800 52.61600 21.03100
H  14.76100 54.24800 20.57700
H  15.17100 52.58400 21.24600
H  16.08500 53.26800 19.93500
H  19.54400 54.48200 22.44800
H  18.89200 55.31600 21.01900
H  20.33700 54.41100 19.65900
H  20.30100 52.81700 20.16600
H  21.27800 54.03300 21.04200
H  22.70200 50.34500 25.04000
H  21.91200 50.82400 23.56000
H  21.64500 49.19700 24.20400
H  20.89700 51.40200 29.72900
H  20.08600 47.75100 31.83000
H  18.57300 48.74700 31.98800
H  19.77000 48.85600 33.19200

