158

Mg 6.75900 54.72900 41.03800
C  5.57400 51.33500 40.57600
C  9.52800 53.75800 39.29600
C  7.70300 58.00800 41.07900
C  3.68100 55.54500 42.32200
N  7.30100 52.78700 39.76900
C  6.78300 51.56600 39.89700
C  7.61600 50.53900 39.12800
C  9.02300 51.24400 39.20700
C  8.61400 52.68100 39.49000
C  9.95400 50.76700 40.31700
C  6.98000 50.46400 37.66400
C  7.17200 49.17000 36.91200
H  6.48400 49.05700 35.53900
N  8.42800 55.70300 40.38200
C  9.50400 55.10900 39.68100
C  10.42200 56.14700 39.34500
C  10.00100 57.29800 39.93700
C  8.66900 57.04500 40.53200
C  11.73300 55.79800 38.52900
C  10.78500 58.62900 39.81700
O  11.65600 58.75800 38.94200
C  10.37700 59.85000 40.64600
N  5.86800 56.48100 41.66000
C  6.44900 57.66100 41.59700
C  5.48200 58.74700 42.17800
C  4.19500 57.96900 42.73400
C  4.55400 56.59900 42.09600
C  5.97100 59.83600 43.16300
C  2.85900 58.52000 42.26500
C  1.76500 58.69600 43.34200
N  4.98000 53.73300 41.37100
C  3.81500 54.22100 41.87900
C  2.95400 53.15000 42.19300
C  3.57600 51.99200 41.70700
C  4.82200 52.39700 41.17100
C  1.63500 53.23800 42.83900
C  3.39700 50.54100 41.44800
O  2.48800 49.80800 41.70400
C  4.74100 50.07400 40.89900
C  4.51800 49.06900 39.85600
O  3.67100 49.16700 38.91300
O  5.38300 47.98900 39.97500
C  4.96800 46.75800 39.23200
H  10.46000 53.38100 38.87000
H  7.82700 59.08500 40.94900
H  2.65800 55.66000 42.68600
H  7.58400 49.59600 39.67300
H  9.45900 51.17600 38.21100
H  9.35800 50.26200 41.07600
H  10.44500 51.66900 40.68200
H  10.74700 50.09800 39.98300
H  7.47400 51.25900 37.10600
H  5.90900 50.66400 37.62500
H  6.79400 48.33200 37.49700
H  8.24700 49.12000 36.74000
H  11.97300 54.75200 38.34000
H  12.59700 56.12900 39.10400
H  11.86600 56.18500 37.51900
H  11.19600 60.56600 40.58000
H  10.17400 59.62900 41.69400
H  9.59200 60.41000 40.13800
H  5.11500 59.28900 41.30700
H  4.22600 57.89900 43.82200
H  5.76600 60.81700 42.73200
H  7.05400 59.86300 43.28400
H  5.57300 59.74000 44.17300
H  2.43100 57.88500 41.48900
H  3.04600 59.50100 41.82900
H  1.62000 59.72900 43.65500
H  2.03400 58.13000 44.23400
H  0.74900 58.39300 43.08800
H  1.74200 53.41600 43.90900
H  1.10900 52.28900 42.73900
H  1.07500 54.10000 42.47500
H  5.20200 49.47200 41.68400
H  3.88800 46.66200 39.34100
H  5.47100 45.96800 39.79000
H  5.24800 46.76800 38.17900
Mg -0.67200 33.91000 27.22500
C  -2.56900 32.17600 29.68700
C  0.78400 35.69300 29.67700
C  0.78500 35.64100 24.76300
C  -2.69400 32.19800 24.77000
N  -1.03600 34.03900 29.36400
C  -1.68800 33.17200 30.18500
C  -1.44500 33.37700 31.64300
C  -0.39600 34.57800 31.64500
C  -0.21600 34.82600 30.10000
C  -0.81500 35.90600 32.34500
C  -0.92800 32.14300 32.39000
C  -1.97400 31.53000 33.42100
H  -1.28200 31.13900 34.73600
N  0.55500 35.46600 27.15900
C  1.07700 36.10600 28.28700
C  1.98400 37.20000 27.93500
C  1.86900 37.23800 26.50400
C  1.06300 36.02600 26.11100
C  2.72800 38.00800 29.02900
C  2.45900 38.23800 25.55100
O  2.35500 38.27900 24.29300
C  3.30400 39.27800 26.17300
N  -0.91300 33.87100 25.02500
C  -0.07300 34.64500 24.26900
C  -0.15300 34.23600 22.77900
C  -1.45700 33.27400 22.75200
C  -1.74700 33.06900 24.28500
C  -0.18900 35.45500 21.75800
C  -1.17300 31.90600 21.97900
C  -0.14600 30.92200 22.53500
N  -2.26900 32.48200 27.18100
C  -2.98900 31.85300 26.11700
C  -3.84600 30.90400 26.69000
C  -3.79600 31.06100 28.10000
C  -2.75900 31.96800 28.32900
C  -4.75800 30.03200 25.95400
C  -4.33700 30.54000 29.33300
O  -5.28200 29.77000 29.45600
C  -3.57600 31.26800 30.43400
C  -4.50000 31.99500 31.36600
O  -5.12500 33.02000 31.10600
O  -4.87900 31.09300 32.29200
C  -5.77900 31.60000 33.32100
H  1.35200 36.08400 30.52400
H  1.28800 36.26600 24.02200
H  -3.13500 31.65800 23.93000
H  -2.39700 33.68300 32.07600
H  0.53000 34.27600 32.13600
H  -1.77200 35.80800 32.85800
H  -0.89200 36.71500 31.61800
H  0.04600 36.13700 32.97200
H  0.02200 32.41100 32.85200
H  -0.75000 31.33900 31.67600
H  -2.46600 30.63400 33.04200
H  -2.78400 32.22700 33.63500
H  2.99200 37.37300 29.87400
H  2.11400 38.85900 29.32500
H  3.67700 38.39200 28.65500
H  2.83900 39.86900 26.96200
H  3.61000 39.93000 25.35400
H  4.19700 38.80600 26.58400
H  0.62000 33.58200 22.37600
H  -2.32400 33.80100 22.35200
H  0.78800 35.47400 21.27500
H  -0.52800 36.37400 22.23500
H  -0.97000 35.21700 21.03500
H  -0.68900 32.22300 21.05500
H  -2.09700 31.34900 21.82300
H  0.11800 31.23200 23.54600
H  0.78400 31.01200 21.97300
H  -0.68400 29.97400 22.50200
H  -4.67600 29.01600 26.33900
H  -4.61500 30.07300 24.87400
H  -5.77100 30.38600 26.14500
H  -3.06500 30.44600 30.93600
H  -6.67100 31.81200 32.73100
H  -5.24700 32.45600 33.73600
H  -5.96900 30.88800 34.12400

