158

Mg 16.91700 52.61300 25.70200
C  18.57500 51.24600 28.57400
C  14.44000 53.76500 27.66000
C  15.19300 53.08600 22.88600
C  19.38900 50.99000 23.73100
N  16.51300 52.39700 27.88300
C  17.35700 51.98900 28.84100
C  16.80600 52.31200 30.24000
C  15.46200 53.10000 29.91000
C  15.45900 53.10300 28.37400
C  14.14300 52.52300 30.49600
C  17.80200 52.96700 31.19700
C  17.91300 52.56400 32.68300
H  16.89700 51.66000 33.31600
N  15.03000 53.33300 25.25600
C  14.11400 53.75100 26.21500
C  12.88700 54.25100 25.55600
C  13.11800 54.10100 24.14300
C  14.50100 53.50600 24.03500
C  11.64300 54.68500 26.33100
C  12.16400 54.41700 22.94400
O  12.46500 54.07200 21.79500
C  10.81900 55.20600 23.14700
N  17.31000 52.21300 23.61700
C  16.40700 52.44600 22.65600
C  16.97600 51.99500 21.29300
C  18.50000 51.90700 21.50600
C  18.46800 51.73300 23.04500
C  16.37800 50.71200 20.74600
C  19.30800 53.11600 20.93500
C  20.24900 52.68400 19.88700
N  18.68500 51.50100 26.06800
C  19.49200 50.83800 25.13700
C  20.46200 50.05100 25.77100
C  20.18400 50.17400 27.14700
C  19.06100 51.08000 27.25700
C  21.37500 49.12900 25.17100
C  20.55600 49.65900 28.44100
O  21.47500 48.93400 28.74900
C  19.51400 50.41800 29.47900
C  18.79900 49.37800 30.27600
O  17.61900 49.09200 30.17700
O  19.63300 48.92100 31.26000
C  19.18400 47.95200 32.24100
H  13.72600 54.30000 28.28900
H  14.79400 53.26600 21.88500
H  20.12900 50.52000 23.08000
H  16.48900 51.38700 30.72200
H  15.62200 54.14100 30.19200
H  14.42000 51.53000 30.85100
H  13.35000 52.42900 29.75500
H  13.71800 53.23200 31.20700
H  17.46300 53.99700 31.30700
H  18.79100 52.94900 30.73900
H  18.25900 53.41500 33.27000
H  18.75000 51.87100 32.60000
H  11.62400 55.77100 26.42200
H  11.53500 54.10800 27.24900
H  10.78300 54.26500 25.81000
H  10.33800 55.43000 22.19600
H  11.02500 56.09800 23.73800
H  10.18600 54.58800 23.78500
H  16.68400 52.72800 20.54100
H  18.88300 50.96700 21.11000
H  15.31700 50.96200 20.72800
H  16.57700 49.94500 21.49500
H  16.84600 50.48200 19.78900
H  19.88400 53.58800 21.73100
H  18.65000 53.84100 20.45500
H  20.27000 53.12000 18.88800
H  20.19000 51.63400 19.60000
H  21.28500 52.72500 20.22100
H  22.19900 49.69800 24.74100
H  20.90900 48.57100 24.35900
H  21.80900 48.37700 25.83000
H  20.06900 51.14500 30.07200
H  19.93500 48.05300 33.02500
H  19.20500 46.89500 31.97300
H  18.22800 48.27100 32.65800
Mg -11.65800 38.40600 42.85300
C  -9.61900 35.80300 41.73900
C  -9.46100 40.60400 41.43600
C  -13.82000 40.99600 43.56300
C  -14.28700 36.11500 43.41300
N  -9.82800 38.11800 41.46900
C  -9.14100 36.96800 41.24800
C  -7.88500 37.18900 40.49100
C  -7.78400 38.77100 40.64700
C  -9.09500 39.20600 41.20300
C  -6.55600 39.31600 41.33400
C  -8.01300 36.80100 38.92900
C  -7.11600 35.65100 38.48600
H  -6.03000 35.82100 37.39400
N  -11.67500 40.53500 42.60400
C  -10.63600 41.21800 42.01500
C  -10.89200 42.64600 42.23200
C  -12.13000 42.84300 42.84900
C  -12.56800 41.43500 43.03200
C  -10.10100 43.74800 41.67100
C  -12.78600 44.15800 43.27000
O  -12.24500 45.25700 43.09400
C  -14.00300 44.13300 44.01200
N  -13.85200 38.49600 43.38000
C  -14.43800 39.74300 43.62300
C  -15.91700 39.57800 44.03600
C  -16.09400 37.95100 43.99200
C  -14.68000 37.45800 43.50800
C  -16.32200 40.04800 45.44200
C  -17.22500 37.57900 42.98800
C  -18.43600 36.92100 43.56900
N  -11.91200 36.34200 42.65700
C  -13.02000 35.55700 42.98300
C  -12.67500 34.20500 42.64200
C  -11.31100 34.27000 42.35100
C  -10.93800 35.59600 42.24900
C  -13.56700 33.05200 42.77100
C  -10.14900 33.44000 41.85500
O  -10.08400 32.27600 41.67400
C  -9.03700 34.44700 41.39800
C  -7.86600 34.17400 42.23400
O  -7.72800 34.42300 43.42400
O  -7.04000 33.33700 41.58900
C  -5.99000 32.60300 42.30500
H  -8.64200 41.27000 41.15700
H  -14.61400 41.69700 43.82800
H  -15.12900 35.45200 43.62200
H  -7.04900 36.71600 41.00500
H  -7.72300 39.19800 39.64600
H  -5.88900 39.91700 40.71600
H  -6.08300 38.47400 41.83900
H  -6.86800 39.95100 42.16400
H  -7.72800 37.69300 38.37000
H  -9.05800 36.58100 38.71500
H  -7.87800 34.95300 38.14000
H  -6.57200 35.33400 39.37600
H  -10.85900 44.20700 41.03600
H  -9.31300 43.46600 40.97200
H  -9.75100 44.51700 42.35900
H  -13.96400 43.46700 44.87400
H  -14.72300 43.82700 43.25400
H  -14.32500 45.14200 44.27100
H  -16.53200 40.16500 43.35300
H  -16.26800 37.47400 44.95600
H  -16.81800 39.41000 46.17400
H  -16.94500 40.93700 45.33900
H  -15.41200 40.33700 45.96700
H  -16.90000 36.89400 42.20600
H  -17.62500 38.50800 42.58300
H  -18.34200 35.83900 43.66000
H  -19.26600 37.15400 42.90200
H  -18.61100 37.34700 44.55700
H  -13.34400 32.54900 43.71200
H  -13.45700 32.30500 41.98500
H  -14.60300 33.38400 42.69600
H  -8.87600 34.33100 40.32600
H  -5.26100 33.25400 42.78700
H  -5.36200 32.24100 41.49100
H  -6.40600 31.91300 43.03900

