158

Mg 1.65600 -2.58100 44.28600
C  5.15500 -1.72200 43.76600
C  1.05800 0.43200 42.58000
C  -1.40400 -3.70100 43.75900
C  2.76000 -5.72800 45.38600
N  2.97900 -0.89200 43.16300
C  4.34000 -0.72700 43.23300
C  4.75900 0.57300 42.67500
C  3.42800 1.36000 42.52800
C  2.40100 0.28700 42.85700
C  3.42300 2.52800 43.54600
C  5.57000 0.28400 41.28300
C  6.95600 0.95500 41.22100
H  7.21000 2.01000 40.10800
N  0.04200 -1.69500 43.48600
C  -0.02800 -0.47900 42.86500
C  -1.39300 -0.21300 42.45300
C  -2.16900 -1.36500 42.89500
C  -1.14200 -2.34800 43.46100
C  -1.93100 1.03100 41.79700
C  -3.68200 -1.51600 42.84900
O  -4.41500 -0.66400 42.41600
C  -4.34800 -2.68900 43.55700
N  0.77600 -4.48500 44.47400
C  -0.52000 -4.73300 44.21400
C  -0.91700 -6.23300 44.46800
C  0.34200 -6.70000 45.25500
C  1.40300 -5.60300 45.02500
C  -2.28300 -6.55600 45.22900
C  0.81000 -8.11000 44.92500
C  1.21800 -8.25900 43.46000
N  3.52800 -3.57700 44.49200
C  3.75300 -4.80200 45.07800
C  5.20300 -4.89200 45.38700
C  5.72900 -3.68600 44.88700
C  4.74700 -2.95000 44.23900
C  5.98600 -6.02500 45.98900
C  7.00200 -2.92700 44.86500
O  8.10000 -3.14800 45.34500
C  6.70100 -1.58800 44.10700
C  6.99000 -0.46100 45.04600
O  6.46000 -0.27700 46.16100
O  7.79200 0.37300 44.35100
C  8.13000 1.62500 45.04100
H  0.77400 1.41700 42.20400
H  -2.37500 -4.19800 43.72100
H  3.09700 -6.62600 45.90800
H  5.40300 1.11600 43.36800
H  3.27800 1.82000 41.55100
H  3.39400 2.04500 44.52300
H  2.69000 3.32800 43.44300
H  4.40800 2.99600 43.54900
H  4.96800 0.62900 40.44300
H  5.67900 -0.78700 41.10900
H  7.60000 0.07900 41.30400
H  7.17800 1.54100 42.11300
H  -1.40100 1.22000 40.86400
H  -1.75400 1.95500 42.34700
H  -2.95900 1.02500 41.43600
H  -5.37700 -2.38700 43.75300
H  -3.87200 -2.87400 44.52000
H  -4.40000 -3.64500 43.03600
H  -0.94200 -6.61500 43.44800
H  0.24900 -6.73700 46.34100
H  -3.13700 -6.66600 44.56100
H  -2.58900 -5.71600 45.85300
H  -2.24900 -7.53700 45.70200
H  -0.07400 -8.72300 45.10100
H  1.55800 -8.49400 45.61800
H  1.34100 -7.31200 42.93300
H  0.49800 -8.86000 42.90600
H  2.15000 -8.82400 43.47200
H  6.76200 -5.66300 46.66400
H  6.47800 -6.54400 45.16700
H  5.46300 -6.70800 46.65800
H  7.43100 -1.54700 43.29800
H  9.19800 1.63500 45.26200
H  7.60000 1.77800 45.98100
H  7.81900 2.43300 44.38000
Mg 6.22800 53.85600 39.74800
C  5.84400 50.38500 39.55300
C  9.43000 53.52800 38.48300
C  6.27500 57.09300 39.17500
C  2.78100 54.05700 40.60300
N  7.48200 52.18000 39.07800
C  7.12500 50.83100 39.16000
C  8.30500 49.97900 38.53200
C  9.52100 51.00700 38.66300
C  8.77400 52.29700 38.79100
C  10.40400 50.74400 39.95500
C  8.31300 49.49600 37.05000
C  7.30900 50.24700 36.12500
H  7.87000 51.32300 35.25400
N  7.70600 55.19100 39.02400
C  8.94600 54.84500 38.54400
C  9.59000 56.02700 38.02100
C  8.69700 57.11400 38.33900
C  7.54100 56.49500 38.89500
C  10.86800 56.08500 37.27400
C  9.02700 58.54300 38.15500
O  10.14400 58.85700 37.70900
C  8.13100 59.70200 38.51600
N  4.60600 55.42900 39.72700
C  4.98400 56.68800 39.67800
C  3.78300 57.59000 40.15800
C  2.70700 56.62100 40.69600
C  3.42700 55.27200 40.36300
C  4.19900 58.75600 41.21700
C  1.24800 56.76500 40.21100
C  0.19100 56.61300 41.34200
N  4.63900 52.54500 40.15100
C  3.26100 52.74700 40.51200
C  2.68800 51.44800 40.84300
C  3.53600 50.52600 40.39000
C  4.76400 51.22500 40.03500
C  1.39800 51.14400 41.46900
C  3.78300 49.14500 40.26700
O  3.15000 48.17000 40.48900
C  5.26500 49.04700 39.72500
C  5.34100 48.27300 38.42700
O  4.77100 48.60200 37.40200
O  6.24900 47.24500 38.57100
C  6.31300 46.40900 37.34100
H  10.43600 53.39600 38.07900
H  6.19200 58.16900 39.00900
H  1.76600 54.14500 40.99500
H  8.41800 49.08200 39.14100
H  10.28000 50.98300 37.88100
H  11.40400 50.41300 39.67300
H  9.82500 50.12300 40.63800
H  10.61600 51.68800 40.45800
H  8.11600 48.42400 37.00800
H  9.24200 49.44800 36.48100
H  6.50100 50.68000 36.71500
H  6.94700 49.48900 35.43100
H  10.65600 56.57100 36.32100
H  11.29000 55.11200 37.02500
H  11.68300 56.60800 37.77400
H  8.76000 60.57000 38.31900
H  7.89900 59.61900 39.57800
H  7.22800 59.73500 37.90700
H  3.33100 58.04700 39.27700
H  2.69700 56.71400 41.78200
H  5.26300 58.93800 41.07100
H  4.14000 58.36300 42.23200
H  3.62400 59.67500 41.10800
H  0.98800 56.00100 39.47900
H  1.15600 57.64900 39.58100
H  0.65300 56.43300 42.31200
H  -0.45400 55.74400 41.21400
H  -0.44800 57.49300 41.42000
H  0.98800 50.14000 41.36100
H  0.63200 51.85200 41.15300
H  1.58200 51.30600 42.53100
H  5.80800 48.59200 40.55400
H  6.89200 45.50500 37.52800
H  6.71200 46.96500 36.49200
H  5.34900 45.98400 37.06200

