158

Mg -0.59400 7.24700 25.79800
C  0.18700 9.19400 28.66500
C  -0.62700 4.52600 27.87000
C  -0.77600 5.34200 23.07300
C  0.13000 10.06800 23.81700
N  -0.29300 6.94600 28.01600
C  -0.09300 7.85100 28.98400
C  -0.26700 7.26000 30.33500
C  -0.10100 5.77300 30.11100
C  -0.39000 5.73700 28.58800
C  1.26000 5.23800 30.43500
C  -1.69900 7.57700 30.95600
C  -1.67800 8.24400 32.35500
H  -0.62800 7.96800 33.46800
N  -0.73900 5.19600 25.57000
C  -0.81000 4.25000 26.48100
C  -1.08100 3.01200 25.86500
C  -1.15600 3.18900 24.46500
C  -0.82800 4.63100 24.29300
C  -1.19700 1.71500 26.66300
C  -1.43000 2.14100 23.37300
O  -1.35800 2.33200 22.12600
C  -1.80600 0.69300 23.71100
N  -0.45400 7.66200 23.75600
C  -0.66500 6.76400 22.86600
C  -0.58800 7.33800 21.45400
C  -0.59100 8.83200 21.75700
C  -0.19200 8.85300 23.17600
C  0.78200 6.86100 20.73100
C  -2.01600 9.46300 21.34000
C  -2.13900 10.13900 20.03800
N  -0.01700 9.24300 26.10600
C  0.27200 10.24200 25.22500
C  0.55300 11.44300 25.89600
C  0.58700 11.12300 27.28800
C  0.19200 9.78300 27.37000
C  0.68200 12.78100 25.41100
C  0.77600 11.61400 28.64900
O  1.14600 12.73200 28.99100
C  0.46600 10.38000 29.54800
C  1.61000 10.23000 30.56600
O  2.59000 9.49100 30.42300
O  1.36000 11.05600 31.66700
C  2.33900 10.82400 32.71900
H  -0.63800 3.58900 28.43000
H  -0.80800 4.91100 22.07100
H  0.22800 10.96400 23.20000
H  0.60100 7.54800 30.92900
H  -0.84400 5.23400 30.69900
H  1.78500 6.00700 31.00000
H  1.84700 5.02700 29.54100
H  1.18500 4.31800 31.01500
H  -2.20300 6.62700 31.13200
H  -2.13800 8.23100 30.20300
H  -2.59800 7.81300 32.75000
H  -1.84500 9.30800 32.18700
H  -2.20900 1.49400 27.00200
H  -0.59500 1.71900 27.57100
H  -0.81200 0.89800 26.05200
H  -0.99800 0.12000 24.16500
H  -2.13000 0.22000 22.78400
H  -2.71800 0.63700 24.30600
H  -1.45600 7.12200 20.83200
H  0.21200 9.31500 21.20000
H  0.88600 5.81300 21.01300
H  1.63900 7.46300 21.03000
H  0.61900 6.89000 19.65300
H  -2.26800 10.25500 22.04400
H  -2.82800 8.74900 21.47900
H  -3.05200 9.74900 19.58900
H  -1.29500 9.88600 19.39600
H  -2.21900 11.21400 20.19600
H  -0.12400 12.95200 24.69700
H  1.59200 13.04300 24.87100
H  0.66900 13.51100 26.22100
H  -0.45600 10.62700 30.07500
H  3.29300 10.38800 32.42200
H  1.81300 10.35300 33.54900
H  2.57900 11.85100 32.99400
Mg 36.57700 49.41600 24.59800
C  36.97000 47.81600 27.76400
C  35.23800 52.09200 26.36300
C  35.86900 50.74400 21.71800
C  37.84700 46.41700 23.07300
N  36.22400 49.83900 26.85100
C  36.48000 49.05400 27.92100
C  36.31600 49.78800 29.22300
C  35.66800 51.12900 28.73900
C  35.69500 51.03200 27.23400
C  34.27900 51.47600 29.24100
C  37.65900 50.02500 29.99900
C  37.77300 49.76900 31.55500
H  36.52300 49.69500 32.47200
N  35.69500 51.16000 24.08400
C  35.21700 52.09800 24.90600
C  34.63100 53.10700 24.08900
C  34.78100 52.78800 22.68300
C  35.47700 51.50100 22.79700
C  33.88300 54.31700 24.65900
C  34.37000 53.56600 21.37100
O  34.73400 53.14900 20.25400
C  33.54000 54.80200 21.43100
N  36.66300 48.56400 22.63400
C  36.37800 49.40800 21.63300
C  36.83800 48.76900 20.27400
C  37.45900 47.37000 20.71800
C  37.35900 47.41900 22.23100
C  35.68500 48.56400 19.22500
C  38.90300 47.19400 20.27200
C  40.03600 48.12100 20.84300
N  37.31800 47.49100 25.23800
C  37.81000 46.42500 24.50500
C  38.24300 45.35300 25.37300
C  37.91300 45.84800 26.66600
C  37.37400 47.19700 26.53100
C  38.95900 44.05300 25.02300
C  37.84700 45.49400 28.05100
O  38.20900 44.52200 28.67400
C  37.31000 46.76100 28.81800
C  36.07000 46.38600 29.66300
O  35.04400 46.02200 29.20800
O  36.31000 46.38200 31.02900
C  35.24300 45.83100 31.93400
H  34.91500 53.00900 26.86000
H  35.75300 51.22300 20.74400
H  38.33200 45.50000 22.73400
H  35.55900 49.27400 29.81400
H  36.27700 51.95600 29.10300
H  33.92200 51.03600 30.17200
H  33.57600 51.11700 28.48900
H  34.27000 52.56200 29.33300
H  38.02100 51.04200 29.84900
H  38.37000 49.36800 29.49800
H  38.48500 50.46700 31.99700
H  38.23900 48.78400 31.53900
H  34.55900 55.17100 24.60400
H  33.59100 54.08700 25.68400
H  32.86800 54.48200 24.29700
H  32.76400 54.45400 22.11300
H  33.17100 54.92900 20.41300
H  34.00500 55.69200 21.85500
H  37.59400 49.41500 19.82600
H  36.81300 46.56100 20.37500
H  35.76400 49.44700 18.59100
H  34.70300 48.67100 19.68400
H  35.70100 47.63000 18.66200
H  38.95100 47.40300 19.20300
H  39.21200 46.15000 20.33500
H  39.55500 48.81100 21.53700
H  40.62100 48.55500 20.03200
H  40.78600 47.60300 21.44000
H  39.43000 43.92500 24.04800
H  38.29100 43.22500 25.25700
H  39.70700 44.16200 25.80800
H  38.06100 47.10900 29.52700
H  34.85300 44.88800 31.55000
H  34.39500 46.51400 31.97200
H  35.57000 45.64800 32.95700

