158

Mg 8.59800 3.89000 27.73500
C  9.90900 2.22100 30.53700
C  6.91400 5.98100 29.78100
C  7.08900 5.04300 25.09400
C  10.24800 1.44800 25.77300
N  8.30900 4.02500 29.88700
C  9.06000 3.31000 30.82800
C  8.76300 3.76500 32.29500
C  7.70500 4.90600 32.08500
C  7.54400 4.94400 30.54700
C  6.35200 4.90500 32.84100
C  10.06000 4.05800 33.20400
C  9.85700 5.15900 34.30300
H  10.19200 4.78800 35.74500
N  7.20700 5.31400 27.46300
C  6.62900 6.11600 28.43500
C  5.58200 6.95600 27.82200
C  5.60700 6.68800 26.43400
C  6.64100 5.63600 26.28000
C  4.84900 7.95500 28.58100
C  4.74300 7.23200 25.37200
O  4.60800 6.77400 24.24100
C  3.90300 8.39900 25.60400
N  8.75800 3.29300 25.68400
C  8.05200 4.06200 24.76200
C  8.36700 3.59600 23.30900
C  9.23800 2.20700 23.60200
C  9.45700 2.34400 25.10300
C  7.17400 3.38500 22.37200
C  10.55800 2.10500 22.81300
C  10.73800 0.66200 22.16800
N  9.82000 2.10700 28.07500
C  10.47900 1.31600 27.16700
C  11.36700 0.43700 27.93000
C  11.07700 0.68900 29.26400
C  10.23300 1.80400 29.28100
C  12.32400 -0.56500 27.36600
C  11.38000 0.31700 30.62900
O  12.17700 -0.44700 31.08700
C  10.59400 1.30300 31.57100
C  9.74900 0.38100 32.34500
O  9.02400 -0.50800 31.83800
O  9.81300 0.60900 33.69600
C  8.85100 -0.27300 34.49100
H  6.46900 6.69800 30.47400
H  6.55800 5.44900 24.23000
H  10.91400 0.78600 25.21700
H  8.23100 2.95600 32.79700
H  8.19600 5.86300 32.26000
H  6.29200 5.84600 33.38900
H  6.19600 4.08000 33.53600
H  5.61400 5.05800 32.05400
H  10.84500 4.44900 32.55700
H  10.45700 3.18600 33.72400
H  8.78500 5.35500 34.30500
H  10.42900 6.02900 33.98100
H  4.80000 7.59400 29.60800
H  3.82000 7.80900 28.25200
H  5.27300 8.95700 28.52200
H  4.40700 8.89700 26.43200
H  2.90400 8.03600 25.84700
H  3.87600 9.00200 24.69600
H  8.98600 4.35000 22.82400
H  8.57400 1.36500 23.40900
H  6.22600 3.44100 22.90800
H  7.24900 2.40300 21.90500
H  7.23900 4.09700 21.54900
H  11.37000 2.23200 23.52900
H  10.58400 2.89400 22.06300
H  11.16800 0.70500 21.16800
H  9.75500 0.19700 22.09100
H  11.37600 0.20400 22.92400
H  11.88500 -1.53500 27.13300
H  13.14300 -0.71200 28.07000
H  12.68100 -0.12200 26.43700
H  11.33700 1.88100 32.11900
H  8.88400 -1.29500 34.11200
H  7.84700 0.14300 34.41000
H  9.20900 -0.18100 35.51600
Mg 30.38900 57.96900 40.09300
C  27.67800 55.78200 39.29400
C  32.57600 55.39800 38.96900
C  32.93900 60.07500 40.22000
C  28.08300 60.39100 40.66700
N  30.13700 55.88600 39.13300
C  28.95400 55.20700 39.00700
C  29.23300 53.81700 38.48000
C  30.80800 53.72000 38.54100
C  31.19500 55.09700 38.94500
C  31.39800 52.66700 39.53900
C  28.69400 53.51900 37.05800
C  28.92200 54.56500 35.92000
H  27.71700 54.82600 34.93200
N  32.47000 57.67000 39.76800
C  33.12800 56.62700 39.28500
C  34.53200 56.95800 39.10500
C  34.69100 58.26000 39.62900
C  33.29700 58.73700 39.88800
C  35.62100 56.01400 38.63700
C  36.06300 59.00700 39.89400
O  37.13800 58.41000 39.91400
C  36.01000 60.50900 40.30500
N  30.47800 60.02400 40.35100
C  31.66200 60.73500 40.32300
C  31.40500 62.28800 40.48500
C  29.91900 62.34800 40.76100
C  29.42100 60.84000 40.56900
C  32.22500 62.90600 41.67800
C  29.15400 63.42900 39.97000
C  28.75500 64.64000 40.76300
N  28.28200 58.09500 40.17900
C  27.49700 59.14600 40.49100
C  26.09000 58.84900 40.35300
C  26.10800 57.50400 39.87800
C  27.47400 57.11000 39.80500
C  24.89900 59.79000 40.54000
C  25.29600 56.39600 39.38700
O  24.07700 56.33100 39.23900
C  26.22000 55.21400 39.09100
C  26.00800 54.08600 40.08000
O  26.76900 53.66900 40.87100
O  24.71400 53.60200 39.86500
C  24.33700 52.51700 40.79600
H  33.23800 54.58500 38.66400
H  33.65400 60.88200 40.39700
H  27.36900 61.20100 40.83200
H  28.88800 53.14300 39.26500
H  31.36200 53.61200 37.60800
H  32.03900 51.91200 39.08300
H  30.62400 52.03300 39.97300
H  31.86500 53.22400 40.35200
H  27.64100 53.23600 37.09300
H  29.25300 52.69700 36.61000
H  29.79800 54.19800 35.38500
H  29.20400 55.54300 36.30800
H  36.44200 56.46500 38.07900
H  35.34600 55.26600 37.89400
H  35.98200 55.42400 39.47900
H  35.46200 61.12700 39.59400
H  37.00000 60.87600 40.57300
H  35.44700 60.48500 41.23800
H  31.59400 62.80500 39.54400
H  29.69800 62.44700 41.82400
H  32.85500 63.69300 41.26400
H  32.80900 62.16900 42.22900
H  31.53500 63.35800 42.39100
H  28.25000 63.11000 39.45300
H  29.69200 63.69800 39.06100
H  29.55600 65.35300 40.95800
H  28.50100 64.23900 41.74400
H  27.95400 65.26500 40.36900
H  24.45000 59.96900 39.56400
H  25.24700 60.68700 41.05300
H  24.15200 59.28700 41.15400
H  26.07100 54.83700 38.07900
H  23.26000 52.35000 40.79300
H  24.60300 52.82700 41.80700
H  24.89300 51.63500 40.48000

