158

Mg 3.45600 0.69500 44.44300
C  6.25500 2.77800 44.25500
C  1.55300 3.20300 42.98100
C  0.89900 -1.55500 43.90900
C  5.64400 -1.95800 45.28900
N  3.87800 2.67300 43.70000
C  5.11400 3.30700 43.66400
C  4.97300 4.77500 43.28200
C  3.36000 4.95100 43.20600
C  2.86400 3.55500 43.33500
C  2.69900 5.89700 44.26000
C  5.74500 5.11700 41.89700
C  6.08800 3.97000 40.93300
H  6.51600 4.25300 39.50100
N  1.43100 0.79000 43.70400
C  0.88400 1.91400 43.13400
C  -0.42300 1.59600 42.66300
C  -0.64600 0.22400 42.97600
C  0.55700 -0.26200 43.59000
C  -1.41800 2.62800 42.03100
C  -1.92300 -0.64700 42.56000
O  -2.83200 -0.09000 41.98100
C  -2.20400 -2.06700 43.02300
N  3.32400 -1.46900 44.37800
C  2.11600 -2.12700 44.28900
C  2.36000 -3.59500 44.51300
C  3.78000 -3.73400 45.18400
C  4.30800 -2.32000 44.92600
C  1.30000 -4.42100 45.16700
C  4.68900 -4.98300 44.71800
C  5.35000 -5.73400 45.82300
N  5.50100 0.35200 44.67300
C  6.23600 -0.70900 45.16800
C  7.55900 -0.31000 45.49900
C  7.69100 1.00500 45.07900
C  6.39800 1.37700 44.65500
C  8.64200 -1.20200 45.98200
C  8.54600 2.20400 44.97300
O  9.73700 2.32000 45.14100
C  7.60400 3.35300 44.49500
C  7.61500 4.55600 45.35500
O  8.38700 5.47700 45.14800
O  6.69600 4.58300 46.34500
C  6.62000 5.81900 47.16300
H  1.01000 4.08300 42.63100
H  0.13500 -2.32500 43.78100
H  6.27300 -2.73600 45.72700
H  5.38200 5.31400 44.13700
H  3.11100 5.38000 42.23600
H  3.02400 5.48600 45.21600
H  1.64700 5.79900 43.99100
H  3.02000 6.93400 44.16400
H  6.64300 5.54600 42.34400
H  5.17800 5.89800 41.38900
H  5.40100 3.12500 40.96300
H  7.02500 3.52500 41.26500
H  -1.41400 2.38600 40.96800
H  -1.06200 3.65400 42.11900
H  -2.43200 2.42800 42.37700
H  -1.94600 -2.18700 44.07500
H  -1.55900 -2.59300 42.31900
H  -3.27000 -2.29100 42.97900
H  2.31200 -3.87000 43.45900
H  3.58100 -3.70300 46.25600
H  0.64400 -3.82600 45.80100
H  1.80500 -5.22900 45.69600
H  0.83500 -4.92400 44.31900
H  5.33500 -4.59100 43.93300
H  4.09200 -5.73100 44.19600
H  4.91600 -5.43000 46.77600
H  6.41200 -5.50200 45.75300
H  5.13100 -6.80100 45.82700
H  8.88800 -2.02800 45.31500
H  8.37500 -1.53300 46.98500
H  9.61600 -0.71400 46.01000
H  8.24700 3.59300 43.64800
H  5.84600 6.47500 46.76600
H  7.57600 6.34200 47.17700
H  6.32000 5.54500 48.17400
Mg 47.32900 16.53100 28.28600
C  45.47300 15.44700 31.01000
C  48.92900 18.71300 30.36500
C  49.01500 17.59800 25.52800
C  45.24800 14.58600 26.22600
N  47.39600 16.84500 30.47100
C  46.57400 16.27600 31.35900
C  46.98300 16.64400 32.81300
C  47.85300 17.89900 32.54300
C  48.12100 17.80700 31.04300
C  47.35400 19.32500 33.17600
C  47.53200 15.40400 33.63800
C  47.21500 15.28800 35.09700
H  48.29600 15.08600 36.15100
N  48.77000 17.92900 28.03100
C  49.25200 18.80900 29.02900
C  50.07900 19.81200 28.38100
C  50.13900 19.48800 26.99800
C  49.32200 18.26500 26.77600
C  50.73700 20.88100 29.23200
C  50.83000 20.22500 25.86600
O  50.59200 19.94600 24.72300
C  51.88400 21.26200 26.11400
N  47.12300 16.21200 26.15400
C  48.14700 16.58600 25.25600
C  48.08400 15.63300 23.98300
C  46.81700 14.72800 24.22100
C  46.38700 15.17600 25.63400
C  48.10300 16.24700 22.60200
C  47.10600 13.16000 24.09700
C  46.27900 12.36700 23.18600
N  45.62900 15.33500 28.52500
C  44.90500 14.61300 27.60200
C  43.81500 13.95400 28.28300
C  43.95400 14.27000 29.61000
C  45.10300 15.06800 29.72100
C  42.86300 13.14900 27.59900
C  43.46200 14.16100 31.01300
O  42.43800 13.54100 31.38600
C  44.44800 14.88100 31.89300
C  43.66500 15.96900 32.59700
O  43.26000 17.02100 32.19000
O  43.41100 15.49500 33.87000
C  42.86300 16.44200 34.81900
H  49.45300 19.43800 30.99000
H  49.53000 17.83400 24.59500
H  44.74000 13.88300 25.56200
H  46.08500 16.96500 33.34000
H  48.75000 17.63700 33.10300
H  46.67000 19.00600 33.96200
H  46.90200 19.87600 32.35100
H  48.29700 19.81400 33.42000
H  48.62100 15.43200 33.66700
H  47.20800 14.45400 33.21200
H  46.56000 14.42800 35.23700
H  46.57200 16.14100 35.31200
H  51.53400 20.44100 29.83300
H  49.92500 21.27300 29.84400
H  51.10100 21.67200 28.57700
H  52.52900 21.50800 25.27100
H  52.54000 20.83800 26.87400
H  51.46100 22.21100 26.44500
H  48.97700 15.02800 24.13300
H  46.02200 14.87200 23.48900
H  48.83900 15.74700 21.97100
H  48.53500 17.24700 22.56900
H  47.18000 16.08200 22.04600
H  47.18700 12.68500 25.07500
H  48.13500 13.12800 23.73900
H  46.76300 12.12800 22.23900
H  45.34000 12.84500 22.90400
H  45.99000 11.38700 23.56400
H  42.50400 12.34400 28.24000
H  43.46700 12.76800 26.77600
H  41.96400 13.69500 27.31400
H  44.65300 14.13700 32.66300
H  41.90200 16.76400 34.41900
H  43.48400 17.31700 35.01500
H  42.57200 15.89900 35.71800

