158

Mg 35.98700 49.34400 24.71800
C  36.46900 47.66800 27.85700
C  35.08000 52.11000 26.45900
C  35.44700 50.82500 21.77300
C  37.33900 46.50900 23.11700
N  35.68700 49.76000 26.96700
C  35.91900 48.91100 28.05100
C  35.65400 49.71000 29.40000
C  35.25600 51.16000 28.89000
C  35.33800 51.01500 27.36500
C  33.90500 51.72600 29.41000
C  36.78100 49.75000 30.56000
C  36.58900 49.06100 31.90500
H  35.13700 48.99400 32.48000
N  35.23300 51.19500 24.17300
C  35.03700 52.19100 25.06800
C  34.68800 53.42800 24.28200
C  34.54800 52.99000 22.90200
C  35.06300 51.59000 22.89100
C  34.24800 54.85600 24.97700
C  34.17600 53.70100 21.62700
O  33.95500 53.09000 20.55200
C  33.93100 55.24100 21.65700
N  36.37700 48.74400 22.70300
C  36.02700 49.56700 21.71100
C  36.41400 49.01300 20.33300
C  37.29200 47.72600 20.88600
C  36.92700 47.62700 22.28500
C  35.23800 48.64800 19.43300
C  38.85400 47.81800 20.64300
C  39.52300 49.20000 20.77200
N  36.63400 47.41900 25.29800
C  37.23300 46.39800 24.52900
C  37.64500 45.33900 25.44700
C  37.37300 45.81300 26.72600
C  36.78100 47.05500 26.62100
C  38.30000 44.07900 25.09100
C  37.32400 45.39200 28.12300
O  37.61100 44.26500 28.62800
C  36.88700 46.67000 28.98600
C  35.62900 46.16900 29.76200
O  34.44400 46.42600 29.45600
O  35.97500 45.43600 30.83600
C  34.93400 44.96400 31.69800
H  34.86800 53.09900 26.87200
H  35.11500 51.20500 20.80400
H  37.84200 45.67600 22.62300
H  34.83100 49.29400 29.98100
H  36.04400 51.87600 29.12600
H  33.74300 52.63400 28.82800
H  33.87900 52.04500 30.45200
H  33.03200 51.07700 29.33300
H  36.91400 50.77500 30.90500
H  37.71100 49.36200 30.14400
H  37.17800 49.51500 32.70100
H  37.01600 48.06200 31.81600
H  33.90800 54.72700 26.00500
H  33.41700 55.34200 24.46700
H  35.03600 55.59000 24.81000
H  34.86400 55.72300 21.95000
H  33.10800 55.46100 22.33800
H  33.62900 55.50500 20.64300
H  36.97200 49.80400 19.83200
H  37.07500 46.81800 20.32400
H  35.39000 49.17100 18.48800
H  34.32900 49.07100 19.86000
H  34.99600 47.60200 19.24900
H  39.08200 47.43300 19.64900
H  39.34200 47.11300 21.31700
H  39.02900 49.83700 21.50500
H  39.63100 49.78200 19.85600
H  40.51400 48.94600 21.15000
H  37.47300 43.37100 25.13800
H  39.06200 43.65100 25.74200
H  38.70400 44.06800 24.07800
H  37.71200 46.96600 29.63400
H  34.57700 44.00000 31.33400
H  34.08300 45.63300 31.82900
H  35.36500 44.93100 32.69800
Mg 26.63700 50.52500 27.07600
C  24.80300 51.90400 29.65800
C  28.98900 49.52900 29.35800
C  28.64100 49.74600 24.55000
C  24.15600 51.59900 24.75000
N  26.92600 50.81100 29.15200
C  25.98400 51.28300 30.04300
C  26.22000 50.87600 31.50300
C  27.66500 50.23900 31.39100
C  27.82800 50.14800 29.91100
C  28.74900 51.24800 31.93900
C  25.15100 49.84800 32.03000
C  24.63900 50.31200 33.41400
H  24.78100 49.17400 34.49400
N  28.56400 49.79700 26.98500
C  29.32300 49.29700 28.04000
C  30.41700 48.63800 27.50100
C  30.48000 48.78300 26.09700
C  29.18900 49.46200 25.84600
C  31.34800 47.97700 28.43200
C  31.52100 48.38400 25.10100
O  31.31900 48.60900 23.88200
C  32.70100 47.53100 25.51700
N  26.41500 50.58300 24.94100
C  27.36800 50.16400 24.11800
C  27.04600 50.34300 22.59700
C  25.54200 50.82800 22.66300
C  25.32700 51.03100 24.20100
C  27.99300 51.32200 21.81000
C  24.37000 49.97600 22.11200
C  23.53600 50.49800 20.92100
N  24.83400 51.49100 27.13100
C  23.95200 51.91000 26.15200
C  22.84900 52.56100 26.72900
C  23.15500 52.60700 28.10100
C  24.36900 51.95700 28.30600
C  21.81000 53.10000 25.99900
C  22.63600 52.99000 29.38700
O  21.56400 53.46800 29.75100
C  23.67000 52.47700 30.47000
C  24.18600 53.56200 31.33500
O  25.28200 54.13500 31.27700
O  23.35300 53.81400 32.34300
C  23.79100 54.81100 33.39400
H  29.76300 49.31500 30.09800
H  29.29200 49.57000 23.69100
H  23.37500 51.79100 24.01100
H  26.18100 51.72200 32.18900
H  27.78000 49.25300 31.84000
H  29.64900 51.22100 31.32600
H  29.06300 50.75500 32.85900
H  28.38500 52.23400 32.22800
H  25.59500 48.85500 32.09800
H  24.29300 49.75700 31.36500
H  23.55400 50.36100 33.32100
H  25.03700 51.21900 33.86900
H  32.29400 48.51700 28.40800
H  31.53400 46.97800 28.03900
H  30.91900 47.79700 29.41800
H  33.26400 47.79900 26.41000
H  33.35800 47.27100 24.68700
H  32.18800 46.60200 25.76400
H  27.29200 49.37500 22.16000
H  25.33800 51.79900 22.21200
H  27.45300 52.19400 21.44100
H  28.42700 50.72700 21.00600
H  28.88900 51.51000 22.40200
H  23.71200 49.54600 22.86600
H  24.86700 49.07300 21.75800
H  23.91900 50.20100 19.94400
H  23.51000 51.58600 20.86300
H  22.56500 50.00300 20.89900
H  21.36100 52.41700 25.27800
H  22.15400 54.05900 25.61200
H  20.99800 53.34900 26.68300
H  23.25300 51.84700 31.25600
H  24.19300 55.72600 32.95900
H  24.68400 54.52200 33.94800
H  23.05800 55.08900 34.15100

