158

Mg 44.34300 5.88300 48.05200
C  42.40400 8.75900 47.31500
C  41.63900 3.91100 47.09300
C  46.33600 3.14200 48.18200
C  47.14600 8.02100 48.22300
N  42.30800 6.31000 47.22100
C  41.68300 7.52900 47.12600
C  40.22800 7.37500 46.93100
C  39.96900 5.84000 46.73500
C  41.40500 5.27100 47.08200
C  38.87600 5.24400 47.62900
C  39.69800 8.23900 45.76700
C  40.52200 8.23600 44.47400
H  39.82800 7.95900 43.13500
N  44.00800 3.79500 47.77000
C  42.82700 3.19000 47.39700
C  42.99700 1.76300 47.49500
C  44.38200 1.50900 47.71800
C  44.96700 2.85600 47.93500
C  41.87400 0.84500 47.49600
C  45.04000 0.07400 47.77800
O  44.31800 -0.90400 47.56500
C  46.49300 -0.14000 48.05300
N  46.41700 5.63300 48.00200
C  46.96100 4.37700 48.18400
C  48.50300 4.42000 48.44100
C  48.77700 5.98000 48.34200
C  47.35000 6.57900 48.24100
C  48.89400 3.62800 49.76000
C  49.66800 6.28200 47.05900
C  51.17400 6.28000 47.31000
N  44.76500 8.04400 47.82600
C  45.93100 8.76100 47.91200
C  45.59200 10.18400 47.82700
C  44.27600 10.25100 47.51500
C  43.80600 8.90900 47.54700
C  46.55300 11.40900 48.07600
C  43.06500 11.11600 47.35700
O  42.90100 12.32700 47.40200
C  41.80400 10.12300 47.28000
C  40.79500 10.50600 48.28800
O  40.34000 9.78600 49.16900
O  40.17000 11.69400 47.93100
C  38.86500 12.10200 48.55700
H  40.82400 3.23900 46.81300
H  46.98000 2.26500 48.28600
H  48.01900 8.67600 48.27200
H  39.69300 7.68300 47.83000
H  39.68200 5.62900 45.70500
H  38.11400 6.02300 47.65000
H  39.28000 5.00800 48.61400
H  38.42500 4.42800 47.06500
H  39.42200 9.25700 46.04200
H  38.75700 7.74500 45.52500
H  41.18200 7.38600 44.64800
H  41.01100 9.21000 44.44100
H  41.82500 0.17800 46.63600
H  40.92400 1.38100 47.49900
H  41.93400 0.29200 48.43300
H  47.07600 0.39100 47.30100
H  46.60000 -1.21400 47.90100
H  46.75000 0.25200 49.03700
H  48.93500 3.86300 47.60900
H  49.30100 6.29900 49.24300
H  48.41700 2.64900 49.73200
H  48.52700 4.20000 50.61200
H  49.96400 3.43300 49.83200
H  49.42900 7.29100 46.72200
H  49.41100 5.57700 46.26900
H  51.75200 5.93000 46.45400
H  51.43500 5.69200 48.19100
H  51.54500 7.27700 47.54700
H  46.34100 12.15600 47.31200
H  47.61600 11.17800 47.99900
H  46.46400 11.83200 49.07700
H  41.28100 10.42100 46.37100
H  37.94800 11.74500 48.08900
H  38.68500 13.17500 48.62000
H  38.84900 11.66600 49.55600
Mg 26.88100 50.50100 26.08400
C  24.87000 51.57700 28.77800
C  28.98500 49.03100 28.30300
C  28.81000 49.54700 23.45800
C  24.83700 52.29100 23.99800
N  26.85500 50.23200 28.28100
C  26.00900 50.86000 29.25300
C  26.41000 50.44400 30.67600
C  27.89800 49.94900 30.45200
C  27.94200 49.73200 28.90100
C  29.08400 50.84200 30.84300
C  25.42700 49.35200 31.25700
C  24.64800 49.70900 32.59700
H  24.72000 48.69300 33.81300
N  28.63500 49.32600 25.91700
C  29.30800 48.74800 26.96300
C  30.53200 48.07400 26.41600
C  30.58700 48.34900 25.01800
C  29.29000 49.02400 24.70200
C  31.48400 47.36900 27.33600
C  31.70100 47.95100 23.93400
O  31.57300 48.20600 22.77200
C  32.87500 47.13100 24.45600
N  26.89400 50.90100 23.99400
C  27.82300 50.49900 23.13400
C  27.41700 50.91400 21.71800
C  25.93500 51.42200 21.82900
C  25.92300 51.59100 23.37200
C  28.39700 51.97100 21.18600
C  24.81500 50.45200 21.44700
C  23.44800 50.99300 21.05200
N  25.21200 51.71300 26.24400
C  24.46600 52.35300 25.32000
C  23.29100 52.92000 25.91700
C  23.43300 52.68900 27.34000
C  24.54400 51.82800 27.46300
C  22.23900 53.65900 25.07800
C  22.84500 52.88000 28.62500
O  21.96500 53.59000 29.09000
C  23.79200 52.17200 29.59200
C  24.28900 53.15600 30.51500
O  25.22800 53.91000 30.33100
O  23.51600 53.13300 31.64800
C  24.06000 54.12800 32.58300
H  29.66200 48.64700 29.06900
H  29.34500 49.28500 22.54300
H  24.15600 52.63200 23.21500
H  26.37800 51.38900 31.21900
H  28.14200 49.02700 30.98100
H  29.78300 50.91500 30.01000
H  29.55500 50.39300 31.71800
H  28.65300 51.80600 31.11400
H  25.95700 48.44600 31.55400
H  24.59300 49.23700 30.56400
H  23.60800 49.79700 32.28500
H  24.99000 50.65100 33.02700
H  31.86900 46.41400 26.97600
H  31.17700 47.36900 28.38200
H  32.43200 47.90400 27.27200
H  33.65900 46.96600 23.71700
H  32.50200 46.18800 24.85600
H  33.44600 47.58800 25.26500
H  27.32600 49.99000 21.14700
H  25.86900 52.37400 21.30200
H  29.09300 52.19000 21.99500
H  28.01700 52.98200 21.03100
H  28.92100 51.58900 20.31000
H  24.73500 49.60200 22.12500
H  25.18100 50.08700 20.48700
H  22.59300 50.69100 21.65700
H  23.39200 50.83000 19.97500
H  23.48600 52.07500 21.17800
H  21.62300 52.94600 24.53100
H  22.72100 54.33200 24.37000
H  21.57400 54.25600 25.70300
H  23.11200 51.46400 30.06700
H  25.02400 53.73800 32.91000
H  23.42300 54.24700 33.45900
H  24.21500 55.10200 32.11900

