158

Mg 48.19300 46.01400 43.27200
C  45.02100 44.46100 43.58900
C  49.52200 42.79700 42.85700
C  51.01300 47.40100 42.45600
C  46.44700 49.09700 42.91700
N  47.36800 43.82100 43.31700
C  46.07200 43.49800 43.56700
C  45.91400 41.95200 43.49600
C  47.36700 41.45900 43.13000
C  48.18400 42.70700 43.20500
C  47.88400 40.31900 44.10400
C  44.81000 41.37800 42.55000
C  44.78600 41.83100 41.13700
H  45.14700 40.79100 40.07200
N  50.04200 45.18900 42.75700
C  50.38700 43.89000 42.64600
C  51.81000 43.83900 42.32800
C  52.29500 45.18500 42.24100
C  51.06600 45.98600 42.45900
C  52.56200 42.54000 42.20700
C  53.67000 45.58600 41.88200
O  54.52200 44.73100 41.93900
C  54.03500 46.97200 41.51500
N  48.57900 47.95300 42.44500
C  49.90700 48.29600 42.43100
C  50.11600 49.83100 42.56200
C  48.60500 50.35400 42.52100
C  47.76200 49.07200 42.58300
C  50.91100 50.19200 43.86800
C  48.05200 51.32000 41.41900
C  47.93700 52.78600 41.90900
N  46.15700 46.70500 43.28200
C  45.64900 47.93700 43.18200
C  44.26100 47.86500 43.42000
C  43.91600 46.54700 43.55100
C  45.14200 45.84600 43.45000
C  43.37100 49.05000 43.46200
C  42.90800 45.56300 43.84100
O  41.71000 45.75700 44.03100
C  43.53600 44.18800 43.89700
C  43.28700 43.78100 45.28700
O  43.54700 44.43500 46.31900
O  43.02300 42.43800 45.27000
C  43.23700 41.83700 46.58400
H  49.98700 41.83900 42.61600
H  51.93800 47.98100 42.41000
H  45.89200 50.03700 42.94600
H  45.70900 41.64400 44.52100
H  47.27800 41.12200 42.09700
H  46.99600 39.72600 44.31800
H  48.24500 40.76400 45.03100
H  48.73400 39.75900 43.71300
H  43.84100 41.41700 43.04800
H  44.82600 40.29400 42.43000
H  45.43800 42.69800 41.03300
H  43.78700 42.21700 40.93500
H  52.93700 42.39700 41.19300
H  52.08700 41.63500 42.58500
H  53.45900 42.58100 42.82400
H  53.26800 47.37600 40.85400
H  55.01300 47.02300 41.03600
H  54.24500 47.55700 42.41000
H  50.62900 50.13000 41.64800
H  48.40600 50.90500 43.44000
H  50.63400 51.10600 44.39500
H  51.94900 50.34300 43.57100
H  50.86100 49.36600 44.57700
H  47.18100 50.90200 40.91400
H  48.73700 51.22100 40.57700
H  48.02500 53.24400 40.92400
H  48.75900 53.03200 42.58200
H  46.99700 52.85800 42.45700
H  42.33600 48.70800 43.49100
H  43.57000 49.57600 42.52800
H  43.66900 49.71500 44.27200
H  43.01600 43.51000 43.22100
H  44.25700 41.65200 46.92000
H  42.87100 40.81100 46.54900
H  42.74100 42.40700 47.36900
Mg -0.13300 43.31500 26.40600
C  2.30600 42.76500 28.77400
C  -2.50300 42.89300 29.08800
C  -2.65800 43.58000 24.13300
C  2.27700 43.44300 23.84900
N  -0.02800 43.04300 28.65900
C  1.06800 42.87100 29.42200
C  0.81900 42.83600 30.96400
C  -0.74200 42.71500 30.93700
C  -1.12300 42.84900 29.46500
C  -1.23000 41.34600 31.49400
C  1.28900 44.10000 31.75000
C  0.81200 44.38100 33.19000
H  0.42000 43.24200 34.10800
N  -2.22700 43.27000 26.59900
C  -3.00700 43.00900 27.72000
C  -4.43100 42.97500 27.28100
C  -4.46600 43.21600 25.94500
C  -3.06600 43.37900 25.49600
C  -5.42300 42.55900 28.29900
C  -5.72900 43.26900 25.06800
O  -5.60000 43.45100 23.85200
C  -7.13600 43.01800 25.64400
N  -0.17100 43.51400 24.39200
C  -1.32600 43.57600 23.65600
C  -1.04400 43.58300 22.18500
C  0.47400 43.74000 22.10600
C  0.94400 43.53100 23.54000
C  -1.73100 42.47500 21.30900
C  1.01600 45.11400 21.50000
C  1.56300 44.99400 20.07500
N  1.83600 43.19500 26.26400
C  2.71900 43.26300 25.19700
C  4.10400 43.25700 25.71000
C  3.96800 43.14200 27.04900
C  2.57000 43.04700 27.40000
C  5.41500 43.33300 24.90900
C  4.69200 43.08300 28.33400
O  5.89900 43.06600 28.50500
C  3.64200 42.79100 29.49500
C  4.11100 41.60800 30.29100
O  4.39200 40.54200 29.85500
O  4.06800 41.95800 31.64800
C  4.60900 40.85600 32.48100
H  -3.09800 42.82400 30.00100
H  -3.49300 43.69100 23.43900
H  3.05800 43.46900 23.08700
H  1.26400 41.92400 31.36000
H  -1.20200 43.55300 31.46000
H  -0.51900 40.97700 32.23300
H  -1.23800 40.57900 30.72000
H  -2.22500 41.49600 31.91400
H  1.13100 44.96100 31.10100
H  2.36000 44.30200 31.76900
H  0.01400 45.09800 32.99500
H  1.53800 44.99500 33.72200
H  -4.87700 42.23400 29.18400
H  -5.77800 41.63400 27.84600
H  -6.22000 43.26600 28.52900
H  -7.25700 42.00800 26.03600
H  -7.87700 43.09000 24.84800
H  -7.35500 43.80300 26.36900
H  -1.49400 44.49800 21.80200
H  0.77600 42.88600 21.50000
H  -2.07400 41.66300 21.95100
H  -1.04100 41.98300 20.62300
H  -2.60000 42.96500 20.86900
H  1.86100 45.41600 22.11800
H  0.32500 45.94800 21.62600
H  2.64900 45.07700 20.09500
H  1.13500 45.77600 19.44700
H  1.39400 43.99300 19.67700
H  5.93500 44.26600 25.12600
H  5.23800 43.25900 23.83600
H  6.00900 42.46500 25.19700
H  3.64000 43.69800 30.10100
H  4.20200 41.06900 33.46900
H  5.69100 40.72300 32.48100
H  4.13800 39.91300 32.20400

