158

Mg 43.91700 3.37500 46.72900
C  41.84200 6.40300 46.32500
C  41.05300 1.63000 46.33500
C  45.90200 0.70800 46.38300
C  46.69000 5.48200 46.62400
N  41.76400 4.00500 46.29100
C  41.11400 5.22700 46.20700
C  39.62700 5.08100 46.33500
C  39.43200 3.55800 46.58200
C  40.84700 3.01900 46.51600
C  38.74200 3.32500 47.94400
C  38.98400 5.64300 45.01400
C  39.28500 4.89200 43.71500
H  39.62200 5.63000 42.40600
N  43.45400 1.44000 46.37400
C  42.26600 0.83600 46.20500
C  42.40700 -0.53200 46.00600
C  43.80900 -0.77000 45.94500
C  44.49800 0.44300 46.25200
C  41.33900 -1.47500 45.97100
C  44.38400 -2.21200 45.68000
O  43.62600 -3.17300 45.56000
C  45.80100 -2.55800 45.69300
N  46.05000 3.11000 46.41900
C  46.51800 1.91900 46.64400
C  47.98900 1.92900 46.89100
C  48.26400 3.50700 46.92000
C  46.93900 4.07600 46.66600
C  48.56100 1.08900 48.09800
C  49.45600 4.05900 45.97500
C  50.87600 3.47800 46.25600
N  44.31500 5.52700 46.54300
C  45.48200 6.19100 46.59000
C  45.25500 7.62800 46.61700
C  43.83100 7.70500 46.58700
C  43.28000 6.43600 46.48900
C  46.24300 8.67500 46.48700
C  42.70100 8.69600 46.59800
O  42.60800 9.91000 46.72800
C  41.40600 7.80500 46.50300
C  40.60400 8.00800 47.74300
O  40.75700 7.55700 48.84000
O  39.41800 8.60400 47.41400
C  38.42800 8.68500 48.50500
H  40.25400 0.92400 46.09900
H  46.54000 -0.17500 46.44900
H  47.54300 6.13900 46.80800
H  39.23700 5.65800 47.17400
H  38.74400 3.20100 45.81600
H  38.36100 4.27700 48.31400
H  39.46300 2.98500 48.68700
H  37.96600 2.59000 47.72700
H  39.37300 6.62000 44.73000
H  37.94400 5.86000 45.25700
H  38.48000 4.24500 43.36600
H  40.11500 4.22300 43.94000
H  41.18800 -2.00800 45.03200
H  40.33700 -1.08200 46.14400
H  41.49600 -2.31100 46.65200
H  46.13300 -1.99400 44.82200
H  46.06000 -3.60100 45.51200
H  46.34200 -2.45600 46.63400
H  48.50700 1.52900 46.01900
H  48.38300 3.74900 47.97600
H  49.31600 0.41300 47.69600
H  47.76500 0.51100 48.56800
H  48.98900 1.80700 48.79800
H  49.58200 5.12900 46.14400
H  49.22900 3.88500 44.92300
H  50.84900 2.60100 46.90200
H  51.40600 4.32800 46.68600
H  51.27400 3.08300 45.32100
H  45.87500 9.59000 46.02300
H  47.00400 8.35700 45.77400
H  46.70000 8.73800 47.47400
H  40.83400 8.04700 45.60700
H  37.91100 7.75800 48.75300
H  37.69400 9.37700 48.09400
H  38.66700 9.20000 49.43500
Mg 35.48700 -0.26700 29.83700
C  33.48300 1.22600 32.24200
C  37.85600 -1.02800 32.30900
C  37.77500 -1.13600 27.42300
C  33.23800 0.81600 27.39000
N  35.59300 0.16400 32.07700
C  34.63500 0.79100 32.83500
C  34.89400 0.58500 34.33300
C  36.49300 0.08700 34.23200
C  36.62900 -0.32300 32.75200
C  37.59700 1.14100 34.61000
C  33.95500 -0.39100 35.02500
C  33.64700 -0.11200 36.46800
H  34.22800 1.09400 37.20800
N  37.50300 -1.05400 29.90800
C  38.27800 -1.36600 31.00400
C  39.48500 -2.10000 30.62500
C  39.47800 -2.08400 29.22100
C  38.18800 -1.41900 28.77900
C  40.43100 -2.78800 31.61800
C  40.47300 -2.63200 28.21900
O  40.27700 -2.76700 27.01800
C  41.81900 -3.07900 28.72000
N  35.49000 -0.21000 27.74600
C  36.54700 -0.60900 26.95600
C  36.29800 -0.23600 25.46100
C  34.74800 0.18800 25.43200
C  34.45900 0.25000 26.95800
C  37.33800 0.76100 24.94200
C  33.75500 -0.79100 24.66100
C  32.39600 -0.17700 24.19100
N  33.64400 0.70600 29.75000
C  32.84700 1.08300 28.70500
C  31.66300 1.69800 29.19000
C  31.83800 1.84500 30.59600
C  33.13200 1.27700 30.84100
C  30.56100 2.13100 28.31400
C  31.29300 2.40500 31.84800
O  30.35800 3.16000 32.12800
C  32.27400 1.90100 32.93900
C  32.69000 3.11100 33.60100
O  33.61100 3.86400 33.34000
O  31.83500 3.22700 34.71700
C  32.01000 4.45000 35.53500
H  38.61700 -1.31000 33.04000
H  38.58300 -1.23100 26.69400
H  32.51500 1.23200 26.68600
H  34.88800 1.51200 34.90600
H  36.72800 -0.69500 34.95400
H  37.07700 2.02500 34.97800
H  38.16500 1.38400 33.71200
H  38.13700 0.77400 35.48300
H  34.57000 -1.28500 34.92100
H  33.05100 -0.49600 34.42400
H  33.95900 -0.97900 37.05000
H  32.56600 -0.00700 36.56200
H  40.32500 -3.85100 31.39900
H  40.09800 -2.51500 32.62000
H  41.45600 -2.42300 31.56600
H  42.32500 -3.42700 27.82000
H  41.79500 -3.85000 29.49100
H  42.27000 -2.18200 29.14300
H  36.43500 -1.11700 24.83500
H  34.71700 1.22700 25.10400
H  37.91400 1.14500 25.78400
H  36.75400 1.56800 24.50100
H  37.90100 0.40800 24.07700
H  33.47100 -1.68900 25.20900
H  34.31700 -1.16800 23.80700
H  32.34700 -0.63900 23.20400
H  32.57800 0.89200 24.29700
H  31.69600 -0.57400 24.92600
H  29.96000 1.24900 28.09600
H  30.97800 2.47500 27.36800
H  30.10100 3.01800 28.75000
H  31.83200 1.23200 33.67800
H  31.02200 4.85400 35.75400
H  32.46800 5.26000 34.96600
H  32.49000 4.29900 36.50200

