158

Mg 50.24200 45.63200 42.24400
C  47.04500 46.92900 41.28800
C  49.64900 42.95200 40.15800
C  53.47900 44.60400 42.60200
C  51.02600 48.81000 43.36900
N  48.48300 45.05300 40.81500
C  47.23500 45.63100 40.70900
C  46.32500 44.86400 39.74500
C  47.15800 43.52000 39.59500
C  48.50900 43.82800 40.22000
C  46.48800 42.33800 40.32900
C  46.05200 45.61200 38.36900
C  44.69500 45.39700 37.77900
H  44.56400 44.28500 36.67400
N  51.33000 43.94700 41.60100
C  50.86800 43.01300 40.78600
C  51.82300 41.97000 40.74600
C  53.00300 42.44300 41.29100
C  52.67700 43.70900 41.91900
C  51.64000 40.64800 40.02400
C  54.37200 41.83500 41.16000
O  54.51800 40.85700 40.44300
C  55.61900 42.40700 41.73400
N  52.04100 46.55700 42.87100
C  53.20500 45.95800 43.06400
C  54.24700 46.88400 43.66200
C  53.56600 48.26800 43.58500
C  52.07900 47.82500 43.28400
C  54.77900 46.60900 45.01700
C  54.09900 49.19000 42.46900
C  54.79500 50.48800 42.90700
N  49.21900 47.50000 42.44900
C  49.65000 48.67200 42.98300
C  48.60400 49.67400 42.95400
C  47.57900 48.98600 42.34800
C  48.03100 47.67900 41.99300
C  48.69300 51.09500 43.37000
C  46.24500 49.16600 41.85200
O  45.47800 50.10900 42.04700
C  45.84700 47.78300 41.15800
C  44.46800 47.34900 41.57300
O  44.09000 47.03300 42.67500
O  43.67200 47.34900 40.46400
C  42.24400 47.04600 40.64700
H  49.30900 42.15200 39.49800
H  54.54300 44.40500 42.74000
H  51.26600 49.74900 43.87300
H  45.39300 44.72000 40.29200
H  47.18100 43.01700 38.62900
H  45.51100 42.56600 40.75500
H  47.13000 42.10900 41.18000
H  46.43700 41.46600 39.67700
H  46.70700 45.23500 37.58300
H  46.28100 46.67500 38.43900
H  44.39600 46.38600 37.43100
H  43.99800 45.10900 38.56600
H  51.98200 40.67400 38.98900
H  50.58200 40.38800 39.98600
H  51.96100 39.82400 40.66100
H  55.63400 42.40900 42.82400
H  55.75400 43.43000 41.38500
H  56.51800 41.85300 41.46600
H  55.03400 46.87400 42.90800
H  53.51700 48.81000 44.52900
H  54.55100 45.59800 45.35500
H  54.44400 47.35800 45.73500
H  55.85800 46.66100 44.86800
H  53.21900 49.44500 41.87800
H  54.72800 48.58900 41.81300
H  55.29200 50.40300 43.87300
H  54.22400 51.41500 42.86000
H  55.72600 50.44100 42.34200
H  48.96300 51.70500 42.50800
H  49.36300 51.19900 44.22400
H  47.69000 51.40100 43.66500
H  45.69600 48.00600 40.10200
H  41.90600 46.75700 39.65200
H  41.86400 48.06500 40.72500
H  41.98000 46.37400 41.46400
Mg 0.86600 43.18000 26.12600
C  2.75500 43.10600 29.08900
C  -1.67900 41.67000 27.79300
C  -0.49400 42.68000 23.11300
C  3.90800 44.27200 24.45600
N  0.54700 42.50300 28.22000
C  1.38100 42.73900 29.26000
C  0.57300 42.65000 30.61400
C  -0.79900 41.98300 30.26600
C  -0.62500 42.05200 28.69700
C  -1.08900 40.60100 30.89300
C  0.43400 44.03200 31.49400
C  1.17700 44.11100 32.78600
H  1.21400 42.92200 33.79100
N  -0.87100 42.50900 25.57000
C  -1.79300 41.87700 26.37500
C  -2.90900 41.45700 25.57800
C  -2.64900 41.83600 24.24500
C  -1.28000 42.33900 24.24600
C  -4.00800 40.58900 26.14400
C  -3.43100 41.55700 23.03400
O  -2.98900 41.70900 21.88600
C  -4.82900 40.96500 22.97100
N  1.53700 43.56400 24.09200
C  0.75100 43.21600 23.04700
C  1.54000 43.40000 21.79400
C  2.88900 44.14800 22.19200
C  2.78900 44.00600 23.70600
C  1.68600 42.05300 20.89400
C  3.11300 45.59800 21.75900
C  2.00900 46.61500 22.11900
N  2.92800 43.48600 26.66200
C  4.02800 43.94700 25.83800
C  5.19900 44.10600 26.62100
C  4.76300 43.78700 27.91700
C  3.34300 43.44600 27.89400
C  6.50400 44.59900 26.19800
C  5.21600 43.66300 29.26400
O  6.31400 43.73900 29.73900
C  3.91400 43.27000 30.09100
C  4.33300 42.10400 30.94800
O  4.10000 40.87400 30.73500
O  4.94300 42.64700 32.04100
C  5.59100 41.70800 33.00000
H  -2.45600 41.13300 28.34100
H  -0.90900 42.35900 22.15600
H  4.79900 44.57400 23.90200
H  1.00600 41.90200 31.27700
H  -1.57300 42.69300 30.55900
H  -1.86600 40.86000 31.61300
H  -0.25700 40.25700 31.50900
H  -1.42600 39.78700 30.25100
H  -0.58400 44.17500 31.85700
H  0.82100 44.90500 30.96800
H  0.89000 45.02500 33.30500
H  2.23800 44.12900 32.53400
H  -3.64000 39.57700 26.31500
H  -4.89400 40.52500 25.51200
H  -4.24700 40.88700 27.16500
H  -5.55300 41.53000 23.55700
H  -4.78500 39.96000 23.39000
H  -5.29100 40.91700 21.98500
H  0.95500 44.09100 21.18600
H  3.72400 43.50100 21.92200
H  2.67800 41.82700 20.50300
H  1.06200 42.22100 20.01600
H  1.26800 41.18800 21.40800
H  3.26900 45.57600 20.68100
H  4.03100 45.93200 22.24200
H  2.32500 47.51200 22.65200
H  1.28300 46.15200 22.78700
H  1.58500 46.92400 21.16300
H  7.22700 43.78700 26.11800
H  6.94300 45.16100 27.02300
H  6.51500 45.17900 25.27600
H  3.70400 44.10800 30.75500
H  6.65900 41.90400 33.09800
H  5.58300 40.66200 32.69300
H  4.98700 41.80100 33.90300

