158

Mg 26.10000 -0.48100 29.00700
C  28.16200 -0.79300 31.77000
C  23.26900 -0.50100 31.02600
C  24.28900 -0.57900 26.15700
C  29.02600 -1.39800 26.98800
N  25.83700 -0.85700 31.14700
C  26.83800 -0.77000 32.05300
C  26.22600 -0.67800 33.47300
C  24.69500 -0.59300 33.20300
C  24.53700 -0.69500 31.71400
C  23.81000 -1.56200 33.97400
C  26.71000 0.50600 34.24200
C  25.96000 0.96100 35.56400
H  26.71300 1.11700 36.85400
N  24.12200 -0.39300 28.66400
C  23.08700 -0.33100 29.61600
C  21.81300 -0.15900 28.95800
C  22.04400 -0.18000 27.54800
C  23.54500 -0.38500 27.37900
C  20.60700 0.01100 29.79800
C  20.99300 -0.16600 26.39200
O  21.29900 -0.19800 25.19300
C  19.48500 -0.11100 26.68800
N  26.60900 -0.85600 26.86700
C  25.66000 -0.74700 25.88100
C  26.30500 -0.88900 24.51100
C  27.84500 -1.03900 24.83600
C  27.85000 -1.11900 26.34000
C  25.74700 -1.98100 23.55700
C  28.81800 0.02400 24.27300
C  30.14900 -0.34400 23.56500
N  28.21700 -1.02800 29.29400
C  29.28700 -1.36200 28.41600
C  30.51000 -1.53100 29.16400
C  30.13500 -1.29200 30.54400
C  28.77000 -1.02500 30.55000
C  31.87000 -1.92900 28.60000
C  30.58000 -1.08800 31.87400
O  31.71200 -1.18500 32.33000
C  29.30400 -0.92400 32.70300
C  29.05400 -2.03200 33.70400
O  28.62300 -3.18200 33.44100
O  29.33900 -1.56600 34.95600
C  29.26700 -2.65800 35.97700
H  22.46400 -0.40200 31.75800
H  23.59400 -0.49500 25.31900
H  29.84000 -1.64100 26.30200
H  26.42200 -1.59700 34.02700
H  24.37800 0.43900 33.35400
H  24.16500 -1.97100 34.92000
H  23.76300 -2.46700 33.36900
H  22.86800 -1.01500 33.92900
H  26.72800 1.40200 33.62100
H  27.74700 0.37200 34.54700
H  25.05300 0.45400 35.89300
H  25.75200 1.99400 35.28400
H  20.15000 0.95400 29.49600
H  20.61400 0.05100 30.88700
H  19.93100 -0.79800 29.52000
H  19.25100 0.86700 27.10800
H  19.24700 -0.83500 27.46700
H  18.77600 -0.23500 25.86900
H  26.22000 0.10400 24.06900
H  28.19100 -2.02600 24.52800
H  25.78200 -2.92700 24.09800
H  26.42900 -2.00300 22.70700
H  24.70500 -1.83100 23.27600
H  29.09300 0.62300 25.14200
H  28.20100 0.55700 23.55000
H  30.23900 0.46000 22.83500
H  30.12600 -1.32500 23.09000
H  31.00500 -0.23200 24.23000
H  32.50600 -1.04400 28.61400
H  31.86000 -2.22400 27.55100
H  32.34700 -2.68500 29.22400
H  29.38400 -0.01300 33.29500
H  29.24100 -3.68800 35.62200
H  28.39800 -2.51600 36.61900
H  30.15100 -2.59800 36.61300
Mg 30.93200 59.94700 40.57500
C  27.92700 58.46300 39.22200
C  32.65500 57.29700 39.06700
C  33.73500 61.51600 41.08800
C  29.01600 62.80200 41.37400
N  30.32500 58.12300 39.22900
C  29.08600 57.65300 38.91600
C  29.12200 56.38800 38.00800
C  30.64900 56.02100 38.15600
C  31.30600 57.21600 38.90700
C  31.06500 54.66000 38.79500
C  28.61200 56.70600 36.55200
C  27.62000 55.73800 35.91200
H  26.62200 56.28900 34.85000
N  32.87200 59.45800 40.31600
C  33.40100 58.32400 39.74100
C  34.83300 58.30100 39.82600
C  35.26000 59.49200 40.45800
C  33.91500 60.18100 40.65300
C  35.61800 57.25000 39.07500
C  36.76500 59.99900 40.81400
O  37.78100 59.37500 40.52800
C  36.98800 61.24300 41.64700
N  31.24500 61.86900 41.19400
C  32.59800 62.26800 41.29400
C  32.58500 63.80700 41.55600
C  31.10700 64.12500 41.90400
C  30.40100 62.87900 41.41800
C  33.71800 64.22000 42.60300
C  30.59200 65.49300 41.24200
C  29.73200 66.35900 42.16900
N  28.84900 60.57300 40.28600
C  28.23300 61.72600 40.77100
C  26.73500 61.60300 40.55800
C  26.65200 60.36200 39.88500
C  27.91200 59.74600 39.80300
C  25.71900 62.66400 40.74900
C  25.70400 59.46500 39.15700
O  24.55500 59.70000 38.77900
C  26.51500 58.18900 38.85400
C  25.92800 57.06500 39.57200
O  26.28900 56.64900 40.64200
O  24.92100 56.51400 38.82100
C  24.34500 55.23300 39.23200
H  33.27500 56.54800 38.56900
H  34.62600 62.14200 41.01100
H  28.52200 63.75500 41.57400
H  28.60200 55.58200 38.52500
H  31.05800 56.01600 37.14600
H  31.58700 54.08400 38.03100
H  30.26600 53.98800 39.11000
H  31.74800 54.70700 39.64400
H  29.45100 56.65700 35.85700
H  28.27100 57.73700 36.46200
H  27.06500 55.18700 36.67100
H  28.26100 54.97300 35.47300
H  35.53200 57.38500 37.99700
H  35.17500 56.28400 39.31700
H  36.66600 57.12700 39.35000
H  37.79900 61.18100 42.37200
H  36.10200 61.38700 42.26500
H  37.03900 62.11700 40.99800
H  32.89700 64.11900 40.55900
H  31.03100 64.23600 42.98500
H  34.12100 63.34400 43.11100
H  33.27400 64.84500 43.37900
H  34.54400 64.78900 42.17800
H  30.13900 65.25900 40.27800
H  31.44400 66.15400 41.08600
H  30.18700 67.32700 42.37600
H  29.44200 66.01600 43.16200
H  28.81600 66.62000 41.63800
H  25.94800 63.28700 41.61400
H  24.75500 62.19300 40.94400
H  25.79200 63.26400 39.84200
H  26.37100 58.01000 37.78900
H  23.32000 55.28400 39.60100
H  24.91100 54.67800 39.97900
H  24.36100 54.60300 38.34300

