158

Mg 46.66500 24.36900 28.33200
C  47.56300 26.75700 30.90300
C  46.08800 22.19100 30.87200
C  46.48900 22.10400 26.13800
C  47.82400 26.72700 26.02000
N  46.58900 24.57700 30.67600
C  46.99300 25.60300 31.47800
C  46.78100 25.23800 32.94500
C  46.38900 23.78400 32.94100
C  46.35000 23.48500 31.39800
C  47.32000 22.89200 33.70900
C  45.86700 26.17900 33.76600
C  46.52500 26.77900 35.09600
H  45.54300 27.19300 36.12800
N  46.17300 22.44100 28.40300
C  45.99300 21.73800 29.53900
C  45.48700 20.41100 29.17200
C  45.69300 20.30800 27.76600
C  46.09100 21.63100 27.35700
C  44.98600 19.34100 30.14000
C  45.37100 19.19600 26.81900
O  45.20400 19.32500 25.59900
C  45.03500 17.81500 27.47200
N  47.14300 24.38100 26.31500
C  46.75800 23.31200 25.58900
C  47.01200 23.54800 24.11300
C  47.14000 25.09700 24.07800
C  47.42400 25.48300 25.60600
C  48.30900 22.94000 23.50100
C  45.97000 25.92800 23.52600
C  44.76700 26.23100 24.40300
N  47.50000 26.35400 28.36500
C  47.91300 27.15400 27.37000
C  48.56300 28.32400 27.82700
C  48.39900 28.25500 29.21500
C  47.78600 26.99000 29.50400
C  49.17900 29.42500 26.97100
C  48.61300 28.91700 30.43900
O  49.06200 30.02700 30.62600
C  48.16300 27.97400 31.62100
C  49.29900 27.46400 32.46300
O  49.83700 26.37700 32.48000
O  49.72000 28.45000 33.33500
C  50.52600 28.08300 34.48200
H  45.87100 21.47700 31.66900
H  46.52100 21.31700 25.38100
H  48.01900 27.54000 25.31700
H  47.73600 25.26700 33.46900
H  45.34200 23.81300 33.24300
H  46.70600 22.06800 34.07200
H  47.75100 23.39800 34.57200
H  48.11900 22.48000 33.09200
H  45.00100 25.57500 34.03600
H  45.47700 27.01800 33.19000
H  47.14300 27.62600 34.79800
H  47.23400 26.03600 35.46100
H  44.00900 19.00300 29.79500
H  44.64900 19.81500 31.06200
H  45.72400 18.55300 30.28800
H  45.91000 17.31000 27.88100
H  44.82900 17.10500 26.67100
H  44.14300 17.69700 28.08800
H  46.11000 23.33700 23.53900
H  47.92200 25.40100 23.38200
H  49.10100 23.61900 23.18700
H  48.04400 22.28100 22.67400
H  48.72200 22.26400 24.25000
H  45.65600 25.36900 22.64400
H  46.43400 26.86500 23.21800
H  44.83900 25.72200 25.36500
H  43.82000 25.81700 24.05700
H  44.79000 27.31800 24.47600
H  49.59600 28.96800 26.07300
H  49.95700 29.96100 27.51300
H  48.45400 30.14500 26.59100
H  47.42200 28.44500 32.26600
H  50.47400 28.88900 35.21500
H  51.51500 27.76400 34.15500
H  50.16700 27.18600 34.98600
Mg -11.59000 16.05600 42.04000
C  -8.27500 16.52200 42.51800
C  -12.06800 19.44500 41.55900
C  -14.81600 15.46200 41.19800
C  -11.06000 12.54600 42.31300
N  -10.33300 17.76800 41.93200
C  -8.98800 17.72300 42.11700
C  -8.33900 19.11900 41.93000
C  -9.60600 20.06800 42.15600
C  -10.77200 19.03800 41.79400
C  -9.80700 20.52300 43.61000
C  -7.71300 19.32600 40.52900
C  -6.34300 19.91000 40.49700
H  -5.27200 19.32000 39.52800
N  -13.21600 17.28900 41.26100
C  -13.23200 18.66100 41.19300
C  -14.53900 19.11900 40.66800
C  -15.30400 17.92300 40.44100
C  -14.47100 16.79200 40.92800
C  -14.91700 20.55400 40.38000
C  -16.62800 17.89700 39.77600
O  -17.28600 18.88900 39.56700
C  -17.33500 16.67700 39.38600
N  -12.65200 14.18800 41.56900
C  -14.02200 14.32600 41.49900
C  -14.72500 13.06600 42.03100
C  -13.54700 11.99500 42.06800
C  -12.34500 12.92300 41.96200
C  -15.38500 13.34600 43.39200
C  -13.52700 11.04800 40.85500
C  -13.41600 9.61200 41.31100
N  -10.08100 14.74600 42.47000
C  -9.96600 13.36400 42.54500
C  -8.62700 13.07500 42.90900
C  -7.94200 14.24500 42.80400
C  -8.82900 15.25600 42.56100
C  -8.18400 11.63000 43.03400
C  -6.61100 14.80600 42.78100
O  -5.55700 14.23100 42.87200
C  -6.76400 16.29300 42.70100
C  -6.18500 16.91200 43.86000
O  -6.40500 16.56800 44.98900
O  -5.33000 17.91300 43.42400
C  -4.66400 18.60200 44.51000
H  -12.28200 20.51400 41.49900
H  -15.88600 15.24100 41.19700
H  -10.85200 11.47800 42.40000
H  -7.56500 19.25100 42.68600
H  -9.74400 20.92100 41.49200
H  -8.86600 20.41100 44.14800
H  -10.57000 19.86500 44.02700
H  -10.03200 21.57100 43.80400
H  -8.30000 20.01400 39.92000
H  -7.79600 18.40500 39.95300
H  -5.92600 19.88600 41.50400
H  -6.50400 20.93500 40.16100
H  -15.92200 20.75400 40.75100
H  -14.98900 20.79500 39.32000
H  -14.32500 21.32500 40.87400
H  -17.91900 16.77900 38.47100
H  -18.12300 16.51400 40.12200
H  -16.68300 15.80400 39.36500
H  -15.50000 12.74400 41.33500
H  -13.54200 11.44400 43.00800
H  -14.77400 12.79300 44.10600
H  -16.34800 12.83600 43.36600
H  -15.41100 14.38400 43.72200
H  -12.75400 11.30200 40.13100
H  -14.44500 11.27700 40.31300
H  -14.32300 9.09100 41.00500
H  -13.14300 9.40600 42.34600
H  -12.65100 9.10600 40.72300
H  -8.99900 10.99200 43.37700
H  -7.39300 11.61800 43.78500
H  -7.96700 11.13600 42.08700
H  -6.39200 16.71700 41.76800
H  -5.41800 18.97400 45.20400
H  -4.10000 19.43100 44.08200
H  -3.88000 17.99500 44.96300

