158

Mg 17.51600 -1.21300 28.21100
C  16.53700 0.67400 31.02100
C  19.70300 -3.03400 30.24500
C  19.03700 -2.60500 25.54700
C  15.83000 1.00500 26.17300
N  18.17200 -1.01300 30.31900
C  17.45200 -0.34900 31.31400
C  17.96100 -0.64900 32.74800
C  19.10100 -1.70300 32.39600
C  18.92500 -2.00200 30.90800
C  20.55900 -1.30100 32.61000
C  16.90000 -1.18200 33.76000
C  16.68900 -0.19800 34.94200
H  17.86700 0.45300 35.51400
N  18.90100 -2.88500 27.95300
C  19.64500 -3.46700 28.90400
C  20.55900 -4.35800 28.23100
C  20.19500 -4.34000 26.83000
C  19.32200 -3.28000 26.74600
C  21.43700 -5.35400 29.06300
C  20.71100 -5.19500 25.70500
O  20.59600 -4.96600 24.54200
C  21.53900 -6.50400 25.90800
N  17.54700 -0.74200 26.11100
C  18.23700 -1.53700 25.25600
C  18.15500 -1.01400 23.86000
C  17.06400 0.05100 24.04200
C  16.78100 0.16800 25.54600
C  19.56600 -0.67300 23.28600
C  15.82300 -0.26400 23.12100
C  14.64100 -0.86300 23.84200
N  16.36900 0.51500 28.48900
C  15.63100 1.24800 27.59500
C  14.88000 2.28700 28.30200
C  15.22200 2.00700 29.64600
C  16.15000 0.99700 29.75100
C  14.05100 3.33600 27.67400
C  14.89900 2.47100 30.96300
O  14.16200 3.32100 31.40400
C  15.78000 1.63700 31.90000
C  16.68600 2.64000 32.57000
O  17.82800 2.80600 32.17500
O  16.01000 3.17700 33.63000
C  16.82100 4.11700 34.44400
H  20.35300 -3.62200 30.89600
H  19.46300 -2.87400 24.57800
H  15.31500 1.71600 25.52300
H  18.43600 0.27400 33.08000
H  18.85000 -2.63000 32.91300
H  21.02200 -0.92400 31.69800
H  21.19700 -2.04200 33.09300
H  20.61700 -0.48600 33.33100
H  17.09500 -2.18100 34.15200
H  15.94900 -1.37000 33.26100
H  16.17100 -0.72400 35.74300
H  15.99800 0.56100 34.57700
H  22.15300 -4.81000 29.67900
H  22.07100 -5.89800 28.36300
H  20.76100 -6.02600 29.59100
H  21.16100 -7.15700 26.69500
H  22.55400 -6.22200 26.18600
H  21.60000 -7.05300 24.96800
H  17.77700 -1.87100 23.30300
H  17.41800 1.04500 23.76900
H  20.47800 -1.00400 23.78200
H  19.68200 0.41100 23.26600
H  19.68200 -1.09600 22.28800
H  16.04900 -1.03200 22.38100
H  15.47500 0.68000 22.70300
H  14.05500 -0.00800 24.18000
H  15.00500 -1.39000 24.72400
H  14.08000 -1.55400 23.21300
H  14.50000 3.70500 26.75200
H  14.03500 4.13500 28.41500
H  13.03200 3.07500 27.38800
H  15.15600 1.27100 32.71500
H  17.85800 4.36300 34.21600
H  16.76700 3.79900 35.48500
H  16.28600 5.06600 34.49300
Mg 47.53400 35.44100 26.61800
C  46.04300 33.75800 29.17900
C  48.09000 38.12700 28.60400
C  49.15000 37.00600 24.06900
C  46.74400 32.76900 24.54100
N  47.07600 35.90500 28.67800
C  46.53500 35.01900 29.57400
C  46.66000 35.60500 31.02300
C  47.14800 37.11900 30.77900
C  47.49600 37.03300 29.25700
C  46.12500 38.25000 31.10700
C  47.72200 34.77900 31.76200
C  47.58400 34.84100 33.28800
H  46.73100 35.92500 33.98000
N  48.55400 37.30200 26.37400
C  48.67500 38.29700 27.31800
C  49.28800 39.45200 26.80800
C  49.65800 39.16900 25.42300
C  49.14000 37.77400 25.22400
C  49.47400 40.76700 27.52800
C  50.35200 40.07400 24.44300
O  50.63800 39.64800 23.32600
C  50.56400 41.59300 24.63900
N  47.71100 34.98600 24.54300
C  48.58400 35.70600 23.78800
C  48.78000 35.09400 22.41100
C  48.12200 33.71700 22.62300
C  47.42800 33.77800 23.94100
C  48.11200 35.95700 21.29300
C  49.13600 32.48500 22.45700
C  49.10700 31.68600 21.13000
N  46.41000 33.70600 26.76200
C  46.17000 32.75000 25.82500
C  45.59700 31.58400 26.45500
C  45.39800 31.89300 27.78000
C  46.01700 33.21000 27.93300
C  45.30900 30.24900 25.81500
C  44.94900 31.47100 29.10600
O  44.25000 30.53600 29.45200
C  45.20000 32.76400 30.02000
C  45.58400 32.28200 31.30800
O  46.48000 31.41500 31.48500
O  44.78000 32.80000 32.29800
C  44.75400 32.13400 33.55100
H  48.12000 39.01000 29.24600
H  49.72600 37.35900 23.21100
H  46.56000 31.94200 23.85200
H  45.69800 35.47100 31.51700
H  48.06100 37.33000 31.33600
H  45.76900 38.86300 30.27900
H  46.65900 38.99700 31.69400
H  45.36100 37.83400 31.76400
H  48.70400 35.15000 31.46900
H  47.81300 33.78800 31.31800
H  48.59500 34.85600 33.69500
H  47.30000 33.84500 33.62900
H  49.24600 41.65900 26.94400
H  50.50800 40.76200 27.87400
H  48.89800 40.85300 28.45000
H  50.77700 42.10900 23.70300
H  51.27500 41.92800 25.39500
H  49.61100 41.98700 24.99000
H  49.81700 34.94600 22.10900
H  47.25000 33.51400 22.00100
H  47.26400 35.43800 20.84500
H  48.80700 36.24900 20.50600
H  47.57100 36.78900 21.74200
H  48.94700 31.68300 23.17100
H  50.15600 32.84200 22.59700
H  48.13300 31.79600 20.65300
H  49.23700 30.62500 21.34600
H  49.93400 31.94800 20.46900
H  44.69400 30.38300 24.92500
H  44.93700 29.63000 26.63100
H  46.23300 29.80300 25.44600
H  44.20600 33.19200 30.14500
H  44.84500 32.76000 34.43900
H  45.47600 31.33300 33.71200
H  43.76600 31.67600 33.60100

