158

Mg 7.44000 2.29300 28.06400
C  9.05100 0.93400 30.78600
C  5.91800 4.59600 30.13900
C  5.93700 3.53500 25.38700
C  9.02100 -0.16300 26.01700
N  7.42300 2.74000 30.30300
C  8.18600 2.02800 31.13800
C  7.89300 2.51600 32.61800
C  6.68900 3.58200 32.34000
C  6.66700 3.68100 30.83600
C  5.31700 3.18200 32.94000
C  9.12300 2.91600 33.39400
C  9.03700 4.03000 34.50200
H  9.96900 3.78100 35.67400
N  6.05500 3.72400 27.85400
C  5.59300 4.60800 28.80700
C  4.72400 5.66800 28.17800
C  4.78600 5.40900 26.81800
C  5.61800 4.15600 26.65100
C  3.98300 6.70200 28.95100
C  4.17000 6.25500 25.68500
O  4.28500 5.96100 24.49600
C  3.55600 7.52900 25.90100
N  7.59800 1.79200 25.99500
C  6.85600 2.49200 25.14000
C  6.95300 1.80100 23.74800
C  8.06800 0.81800 23.90200
C  8.23500 0.72700 25.41400
C  5.60200 1.06900 23.30400
C  9.45500 1.18500 23.29300
C  10.52800 1.88000 24.18600
N  8.65000 0.60200 28.31700
C  9.17200 -0.23900 27.34600
C  10.11100 -1.12700 28.14900
C  10.10700 -0.64600 29.43200
C  9.17200 0.34500 29.49800
C  11.17200 -2.20500 27.54800
C  10.77900 -0.81700 30.74300
O  11.64400 -1.53500 31.17100
C  9.92600 0.11700 31.71000
C  9.06600 -0.79000 32.46600
O  7.99100 -1.31000 32.15000
O  9.49600 -0.75100 33.82500
C  8.50700 -1.18100 34.76200
H  5.61800 5.45400 30.74500
H  5.43000 3.94600 24.51200
H  9.77800 -0.81500 25.57700
H  7.43400 1.66800 33.12500
H  6.90100 4.60900 32.63600
H  4.73700 2.71000 32.14600
H  4.85000 4.10300 33.28600
H  5.31700 2.49100 33.78300
H  9.99500 3.05800 32.75600
H  9.22300 2.09200 34.10000
H  8.02600 4.17000 34.88500
H  9.22500 4.96500 33.97500
H  3.94500 6.48500 30.01900
H  3.03300 6.61300 28.42400
H  4.45200 7.67000 28.77700
H  3.31400 7.98200 24.93900
H  4.17400 8.17200 26.52700
H  2.60600 7.37500 26.41400
H  7.22000 2.49400 22.95000
H  7.85400 -0.23800 23.73400
H  4.84300 1.42600 23.99900
H  5.63900 -0.02000 23.26800
H  5.27200 1.49500 22.35700
H  9.24700 1.82100 22.43300
H  9.72300 0.18900 22.93900
H  9.99700 2.55100 24.86100
H  11.23400 2.53300 23.67200
H  11.09600 1.14400 24.75400
H  11.83300 -2.50800 28.36000
H  11.75400 -1.76000 26.74100
H  10.70400 -3.12900 27.20700
H  10.48500 0.77300 32.37800
H  7.56000 -0.65600 34.63300
H  8.92000 -1.00200 35.75500
H  8.41100 -2.25900 34.63500
Mg 47.77800 16.80800 27.61500
C  45.60400 16.86700 30.51900
C  49.96600 18.71300 29.16000
C  49.41700 16.81700 24.82000
C  44.91400 15.28800 25.95700
N  47.66200 17.81000 29.55800
C  46.82400 17.53200 30.64600
C  47.49400 18.05000 31.96300
C  48.78000 18.84300 31.44400
C  48.83700 18.46100 29.94500
C  48.77200 20.36300 31.64400
C  47.91500 16.87000 32.85800
C  47.90100 17.18000 34.42300
H  47.60700 18.61500 35.05500
N  49.42800 17.68700 27.10600
C  50.29400 18.38400 27.87500
C  51.44900 18.86200 27.18500
C  51.32400 18.30000 25.87700
C  50.05700 17.52500 25.89000
C  52.52200 19.80900 27.74700
C  52.23400 18.49800 24.69200
O  51.96000 17.97400 23.60900
C  53.46200 19.32700 24.71500
N  47.28200 15.98200 25.65000
C  48.24000 16.06800 24.70100
C  47.62000 15.61200 23.27400
C  46.14200 15.22600 23.60000
C  46.06800 15.55300 25.15500
C  47.85500 16.60300 22.10500
C  45.74500 13.69100 23.23900
C  45.98800 13.20400 21.84600
N  45.70100 16.28800 28.06600
C  44.72700 15.60700 27.32900
C  43.52800 15.26100 28.16000
C  43.83000 15.76800 29.42500
C  45.13800 16.37800 29.32700
C  42.26200 14.47600 27.72500
C  43.31300 15.95800 30.76500
O  42.22300 15.80000 31.24100
C  44.49800 16.60100 31.54600
C  44.01500 17.76600 32.33600
O  43.77300 18.87500 31.92100
O  43.67700 17.32600 33.57300
C  43.04700 18.21800 34.57100
H  50.65800 19.30800 29.76000
H  49.90700 16.92000 23.85000
H  44.06100 14.78200 25.50000
H  46.83500 18.75000 32.47700
H  49.72700 18.55300 31.89900
H  49.70900 20.62500 32.13500
H  47.92500 20.71400 32.23300
H  48.58900 20.91100 30.72000
H  48.93600 16.55600 32.64200
H  47.30100 16.00200 32.61700
H  48.89100 16.84300 34.72700
H  47.20400 16.52400 34.94400
H  52.47100 19.82200 28.83600
H  52.21900 20.77800 27.35200
H  53.54700 19.48100 27.57300
H  53.20900 20.33600 25.04100
H  53.83100 19.47900 23.70100
H  54.18100 18.93400 25.43400
H  48.19800 14.74800 22.94500
H  45.40900 15.86300 23.10600
H  48.18400 17.55600 22.52100
H  46.92800 16.71100 21.54300
H  48.59400 16.23100 21.39500
H  44.67500 13.63800 23.44200
H  46.26600 13.07100 23.96900
H  46.56200 13.95800 21.30600
H  45.02700 13.17500 21.33400
H  46.58200 12.29100 21.81000
H  41.55200 15.19200 27.31000
H  41.83700 14.00300 28.61000
H  42.47000 13.71400 26.97400
H  44.90600 15.88400 32.25900
H  42.27300 17.81400 35.22300
H  42.60600 19.04800 34.01900
H  43.93500 18.62200 35.05700

