158

Mg 8.33200 4.05200 27.71400
C  9.49000 2.59700 30.71400
C  5.97400 5.91300 29.67400
C  7.24800 5.52900 24.95800
C  10.26000 1.81700 25.87500
N  7.80700 4.13500 29.91700
C  8.50200 3.59600 30.94500
C  7.99100 4.14200 32.29400
C  6.68800 4.90200 31.89300
C  6.83800 5.03000 30.37300
C  5.33600 4.15500 32.24900
C  8.96300 4.95700 33.17400
C  9.23800 4.39200 34.59000
H  9.91100 5.31800 35.64000
N  6.85800 5.56200 27.34200
C  5.99600 6.19400 28.23500
C  5.24200 7.15700 27.57400
C  5.57400 7.13300 26.22700
C  6.59200 5.99400 26.11100
C  4.19600 8.06800 28.26700
C  5.10000 8.04500 25.02000
O  5.43500 7.86900 23.81300
C  4.19000 9.04800 25.29200
N  8.66200 3.58900 25.72000
C  8.22100 4.51600 24.77600
C  8.82000 4.22200 23.42300
C  9.91500 3.17500 23.74500
C  9.62200 2.81300 25.21800
C  7.83400 3.78600 22.30700
C  11.39800 3.57600 23.48400
C  11.97900 4.57800 24.47700
N  9.56600 2.44100 28.17400
C  10.29400 1.62900 27.36200
C  10.98100 0.57700 28.10600
C  10.73600 0.94100 29.45700
C  9.84300 2.04900 29.41300
C  11.82500 -0.43600 27.50700
C  11.04700 0.57900 30.77500
O  11.67300 -0.26700 31.31100
C  10.31000 1.73800 31.73700
C  9.54100 0.89800 32.75600
O  8.45700 0.33900 32.58200
O  10.23400 0.87500 33.91100
C  9.75700 0.04500 35.06700
H  5.33900 6.54600 30.29700
H  6.96700 6.09000 24.06400
H  10.96000 1.14200 25.37700
H  7.66300 3.19900 32.73200
H  6.69200 5.89100 32.35200
H  4.64600 4.34600 31.42700
H  5.01600 4.56600 33.20700
H  5.51200 3.11700 32.53300
H  8.54100 5.96200 33.18200
H  9.96200 4.96400 32.73800
H  9.91200 3.53900 34.51300
H  8.33900 3.85900 34.90100
H  4.10600 8.01500 29.35200
H  3.25600 7.86300 27.75400
H  4.51600 9.11000 28.27800
H  3.26100 8.56600 25.59900
H  4.09500 9.69200 24.41800
H  4.68300 9.53000 26.13600
H  9.30800 5.14100 23.09800
H  9.78600 2.24700 23.18800
H  6.87900 3.77600 22.83100
H  8.08600 2.80400 21.90700
H  7.87300 4.58600 21.56700
H  11.43600 4.04200 22.49900
H  11.99800 2.66900 23.41200
H  11.33800 4.61800 25.35800
H  11.89200 5.51300 23.92400
H  13.00800 4.52100 24.83400
H  12.39000 0.04800 26.71100
H  11.36200 -1.25700 26.95900
H  12.52800 -0.77900 28.26700
H  11.12000 2.34800 32.13700
H  8.87800 0.58900 35.41400
H  10.50300 -0.07200 35.85300
H  9.38100 -0.90500 34.68700
Mg 16.98900 51.59700 25.60500
C  18.57400 50.15200 28.45900
C  14.21800 52.08600 27.45100
C  15.58400 52.50400 22.86800
C  19.83400 50.54100 23.72500
N  16.57700 51.30500 27.73900
C  17.37100 50.75900 28.71700
C  16.73000 51.18500 30.11000
C  15.23200 51.40100 29.71000
C  15.26000 51.65000 28.20400
C  14.36400 50.10100 30.01200
C  17.28100 52.47000 30.81600
C  16.86900 52.89100 32.24100
H  15.81400 52.03500 33.01100
N  15.19300 52.28100 25.23000
C  14.14900 52.46500 26.12200
C  13.07400 53.13500 25.45700
C  13.48200 53.35700 24.14600
C  14.75200 52.73100 24.04200
C  11.61300 53.30000 25.97500
C  12.69500 54.05700 22.95400
O  13.10600 54.27900 21.82000
C  11.39500 54.62000 23.24300
N  17.72300 51.53500 23.56200
C  16.86000 51.95200 22.66900
C  17.41600 51.82400 21.24700
C  18.79900 51.22900 21.47300
C  18.85600 51.19600 23.01700
C  16.63500 50.89100 20.29000
C  20.04600 51.96500 20.86600
C  20.31600 53.34400 21.50500
N  18.91200 50.68400 25.95500
C  19.90500 50.26900 25.11100
C  20.93100 49.55700 25.87000
C  20.41100 49.46300 27.21400
C  19.22300 50.13700 27.21500
C  22.06300 48.87600 25.21800
C  20.70300 48.88400 28.46700
O  21.62400 48.20600 28.83200
C  19.61300 49.49000 29.42500
C  19.05500 48.51500 30.40400
O  18.38300 47.51300 30.10900
O  19.08900 49.06800 31.70800
C  18.55700 48.10900 32.66000
H  13.29900 52.17000 28.03500
H  15.10300 52.85700 21.95400
H  20.61100 50.13100 23.07800
H  16.84100 50.32900 30.77700
H  14.82700 52.34400 30.07900
H  13.76900 50.43800 30.86100
H  14.94700 49.23300 30.32100
H  13.79300 49.81800 29.12800
H  16.98400 53.32400 30.20800
H  18.37000 52.42300 30.79100
H  16.54100 53.92700 32.16400
H  17.75500 52.82700 32.87200
H  11.08800 54.25100 25.88700
H  11.76500 53.17800 27.04700
H  10.97800 52.53200 25.53300
H  11.46500 55.58500 23.74600
H  10.75600 53.85500 23.68300
H  10.96600 54.71200 22.24500
H  17.40400 52.85800 20.90400
H  18.87000 50.22600 21.05200
H  17.25800 50.33800 19.58800
H  15.86700 51.44000 19.74500
H  16.12300 50.11100 20.85300
H  19.85900 52.18300 19.81500
H  20.90800 51.30400 20.78700
H  20.30700 54.23700 20.88000
H  21.32100 53.27600 21.92200
H  19.59100 53.49800 22.30400
H  22.86800 49.61100 25.23600
H  21.93000 48.54800 24.18700
H  22.20200 47.99900 25.84900
H  20.11800 50.22300 30.05400
H  17.57100 47.82100 32.29700
H  18.42600 48.61600 33.61600
H  19.23400 47.25700 32.70800

