158

Mg 29.80900 57.60800 40.66400
C  26.92500 55.89600 39.63200
C  31.75400 55.07700 39.19700
C  32.52900 59.57200 41.02000
C  27.78000 60.26400 41.70500
N  29.33800 55.77000 39.48100
C  28.12400 55.26600 39.22800
C  28.27400 53.94300 38.49200
C  29.77100 53.57500 38.65600
C  30.34600 54.84000 39.20700
C  29.95200 52.35700 39.67800
C  27.70500 53.91500 37.03800
C  27.74800 55.19000 36.23600
H  26.73400 55.34500 35.05300
N  31.86600 57.33200 40.20900
C  32.43300 56.23600 39.58600
C  33.87600 56.52500 39.43200
C  34.10900 57.81900 39.93800
C  32.83300 58.28300 40.51200
C  34.82900 55.57600 38.66700
C  35.52500 58.43400 40.07700
O  36.47100 57.78500 39.63400
C  35.88100 59.72700 40.80800
N  30.03700 59.64800 41.19900
C  31.28000 60.15300 41.29400
C  31.20900 61.66400 41.64200
C  29.67200 61.91000 42.02100
C  29.11000 60.54100 41.58600
C  32.17700 62.21300 42.66700
C  28.87500 63.12600 41.47300
C  28.31500 63.99300 42.51700
N  27.81400 58.00700 40.90800
C  27.12400 59.06600 41.38200
C  25.68600 58.85100 41.35900
C  25.55500 57.60000 40.78100
C  26.90300 57.08200 40.50800
C  24.55300 59.82200 41.68200
C  24.65000 56.68300 40.17200
O  23.44100 56.70200 40.00300
C  25.47000 55.51600 39.56300
C  25.17100 54.24600 40.31400
O  25.46700 54.01500 41.46700
O  24.34600 53.39200 39.58900
C  24.06400 52.06200 40.26700
H  32.40500 54.23200 38.96400
H  33.33000 60.29200 40.84300
H  27.19900 61.15000 41.97300
H  27.66600 53.15600 38.93900
H  30.24900 53.20800 37.74800
H  30.26100 51.47300 39.11900
H  29.04900 52.07200 40.21800
H  30.69800 52.64800 40.41700
H  26.74400 53.40800 36.95200
H  28.29900 53.18800 36.48500
H  28.73800 55.19900 35.78100
H  27.58300 56.10200 36.81000
H  34.26900 54.76400 38.20300
H  35.51800 55.10700 39.36900
H  35.44800 56.06900 37.91700
H  35.66400 60.52800 40.10000
H  36.95800 59.82400 40.94400
H  35.31700 59.78000 41.73900
H  31.45200 62.15400 40.69900
H  29.69600 61.96200 43.10900
H  31.66500 62.84000 43.39800
H  33.00100 62.71500 42.16000
H  32.48700 61.31400 43.20000
H  27.99900 62.83100 40.89500
H  29.38800 63.78500 40.77300
H  27.24000 63.87500 42.65300
H  28.65000 65.02300 42.39000
H  28.75200 63.86800 43.50800
H  24.69500 60.44000 42.56900
H  23.58100 59.34000 41.58200
H  24.69700 60.47300 40.81900
H  25.25000 55.38400 38.50400
H  23.70800 52.21800 41.28500
H  24.96400 51.45800 40.38300
H  23.30300 51.50200 39.72400
Mg 6.61900 54.46500 41.61500
C  5.80600 50.96000 41.57500
C  9.61600 53.50000 40.07700
C  7.05400 57.67400 40.76900
C  3.32800 55.12800 42.63200
N  7.53200 52.40000 40.87100
C  7.06100 51.13700 41.04900
C  8.00600 50.14600 40.39400
C  9.33700 50.98200 40.34200
C  8.83000 52.43300 40.40200
C  10.30900 50.72900 41.54600
C  7.61400 49.62500 38.94600
C  6.71200 50.58600 38.06800
H  7.46700 51.23300 36.87500
N  8.14000 55.43400 40.61700
C  9.28600 54.87500 40.13500
C  10.18000 55.92900 39.84600
C  9.50800 57.17800 39.95800
C  8.18100 56.81800 40.47600
C  11.60800 55.61400 39.37000
C  10.01600 58.50500 39.52700
O  11.15300 58.70300 39.06400
C  9.17100 59.77300 39.68000
N  5.20200 56.20700 41.47000
C  5.79300 57.43600 41.30500
C  4.73100 58.54400 41.67300
C  3.51600 57.69000 42.25500
C  4.07100 56.25300 42.10300
C  5.32500 59.54800 42.64900
C  2.20600 57.80000 41.44900
C  0.86800 57.87000 42.23500
N  4.91400 53.32100 42.08800
C  3.61300 53.70500 42.48600
C  2.89600 52.49900 42.95100
C  3.73500 51.44800 42.62000
C  4.92100 51.99100 41.98600
C  1.61500 52.42900 43.70800
C  3.89300 49.94300 42.62700
O  3.28500 49.11400 43.26000
C  5.24500 49.59300 41.92100
C  4.88100 48.75900 40.74000
O  4.31000 49.21500 39.75300
O  5.09300 47.41700 41.03300
C  4.62600 46.47100 40.02100
H  10.61500 53.18300 39.77100
H  7.13100 58.76300 40.75800
H  2.38000 55.22000 43.16700
H  8.25000 49.27400 41.00200
H  9.76200 50.79000 39.35700
H  11.27400 51.01000 41.12600
H  10.40700 49.67900 41.82200
H  10.07700 51.38100 42.38900
H  7.13700 48.64700 39.01900
H  8.53200 49.53100 38.36700
H  6.47300 51.51100 38.59300
H  5.78900 50.19400 37.64200
H  11.55100 54.93500 38.51900
H  12.02300 55.10200 40.23800
H  12.34300 56.37900 39.12000
H  8.23500 59.52000 39.18100
H  9.56900 60.62400 39.12800
H  9.14300 60.00800 40.74400
H  4.34100 59.05100 40.79000
H  3.29000 57.89800 43.30100
H  4.77700 60.49000 42.66600
H  6.35800 59.83200 42.45000
H  5.37500 59.08300 43.63400
H  2.10800 56.89300 40.85300
H  2.24800 58.65400 40.77300
H  1.06900 57.53300 43.25100
H  0.15200 57.25100 41.69400
H  0.55500 58.91400 42.24300
H  0.77500 52.98600 43.29400
H  1.83000 52.86900 44.68100
H  1.26300 51.39800 43.74500
H  5.87800 49.11200 42.66600
H  5.17100 46.54300 39.07900
H  3.54200 46.42200 39.91600
H  4.87200 45.53100 40.51300

