158

Mg 48.85500 44.75400 42.57100
C  45.64500 45.38100 41.56200
C  48.69000 41.63100 41.17500
C  52.16900 44.54900 42.92600
C  49.19500 48.28700 43.39800
N  47.43600 43.75100 41.44200
C  46.11100 44.10400 41.23000
C  45.40700 43.13600 40.28900
C  46.23200 41.84600 40.48500
C  47.53200 42.38600 41.16300
C  45.53400 40.79700 41.32000
C  45.37100 43.67400 38.82900
C  44.06900 43.58200 38.12400
H  44.08300 42.90000 36.73700
N  50.21100 43.27700 42.21500
C  49.97800 42.02000 41.62100
C  51.20400 41.32200 41.63400
C  52.17000 42.13300 42.24100
C  51.51700 43.41500 42.50100
C  51.29800 39.90900 40.98300
C  53.63500 41.74600 42.51700
O  54.14800 40.68700 42.18900
C  54.58800 42.58400 43.45600
N  50.45600 46.26100 43.10100
C  51.73500 45.85400 43.13900
C  52.63200 46.94300 43.61000
C  51.72700 48.19100 43.52300
C  50.38500 47.60700 43.28000
C  53.20100 46.69300 45.06300
C  52.07600 49.02800 42.20700
C  52.58500 50.44900 42.56200
N  47.68400 46.46900 42.51700
C  47.91000 47.79200 42.95200
C  46.67900 48.54400 42.86900
C  45.76700 47.58500 42.39700
C  46.42800 46.37600 42.10100
C  46.38500 49.99500 43.35800
C  44.33700 47.35100 42.11600
O  43.40900 48.15200 42.23300
C  44.20100 45.85600 41.55000
C  43.34900 44.96500 42.39500
O  42.18500 44.62000 42.19600
O  44.04200 44.43600 43.40300
C  43.48600 43.27100 44.11600
H  48.61300 40.60200 40.81900
H  53.23400 44.45600 43.14900
H  49.20300 49.35100 43.64100
H  44.45700 42.90500 40.77200
H  46.58600 41.41700 39.54800
H  46.22900 40.45600 42.08800
H  45.21400 39.94400 40.72200
H  44.70100 41.21000 41.88900
H  46.04600 43.10000 38.19300
H  45.61300 44.72400 38.66900
H  43.54700 44.53800 38.10200
H  43.35800 42.94800 38.65400
H  52.03900 39.34900 41.55400
H  51.59900 39.76400 39.94600
H  50.32600 39.44400 41.14400
H  53.95300 42.96200 44.25700
H  55.02300 43.27400 42.73300
H  55.31100 41.84900 43.80900
H  53.47100 46.97100 42.91500
H  51.69700 48.68200 44.49500
H  52.58300 47.06600 45.88000
H  54.18700 47.15100 44.98200
H  53.19700 45.61000 45.18400
H  51.19400 49.11100 41.57100
H  52.83200 48.47000 41.65500
H  53.60300 50.50700 42.17600
H  52.59400 50.70000 43.62300
H  51.92900 51.18700 42.10100
H  45.29900 50.08300 43.39700
H  46.70900 50.79000 42.68600
H  46.80300 50.08100 44.36100
H  43.75200 45.97100 40.56300
H  42.93100 42.53100 43.53900
H  42.82000 43.55800 44.93000
H  44.37200 42.73300 44.45400
Mg -5.09400 25.69700 25.38000
C  -3.99000 26.98600 28.45500
C  -6.93200 23.26600 27.23400
C  -5.65200 23.87200 22.62300
C  -2.85400 27.63800 23.80600
N  -5.37700 25.19000 27.59100
C  -4.84600 25.87900 28.64800
C  -5.53400 25.42900 29.95300
C  -6.19400 24.04700 29.56800
C  -6.13300 24.11500 28.05200
C  -5.36200 22.84900 30.14200
C  -6.56300 26.48500 30.50700
C  -6.35000 26.96700 31.95300
H  -6.05400 25.97800 33.09900
N  -6.18800 23.92400 25.01600
C  -6.90600 23.09500 25.85100
C  -7.63800 22.11000 25.09100
C  -7.27400 22.25100 23.73900
C  -6.35700 23.36100 23.76300
C  -8.42200 21.03700 25.74100
C  -7.71800 21.43500 22.50100
O  -7.34000 21.64600 21.37700
C  -8.67300 20.17900 22.69000
N  -4.23500 25.65200 23.50700
C  -4.66300 24.89100 22.49600
C  -3.98600 25.25300 21.15300
C  -3.05600 26.49700 21.58600
C  -3.44600 26.67000 23.03300
C  -3.21200 24.09200 20.52100
C  -3.09300 27.73800 20.75100
C  -4.48700 28.12400 20.28500
N  -3.72100 27.07400 25.95300
C  -2.89000 27.81200 25.19400
C  -2.08100 28.72400 26.00500
C  -2.55700 28.46500 27.31400
C  -3.40000 27.36000 27.22800
C  -1.03800 29.70300 25.55300
C  -2.52600 28.90200 28.68300
O  -1.87700 29.76600 29.23600
C  -3.40400 27.86400 29.54300
C  -2.51500 27.17900 30.56900
O  -1.84800 26.19900 30.30000
O  -2.67200 27.79700 31.81400
C  -1.92800 27.25200 32.99900
H  -7.59600 22.58500 27.77100
H  -5.92700 23.42400 21.66600
H  -2.14900 28.27600 23.26900
H  -4.77200 25.49700 30.73000
H  -7.20700 23.97800 29.96600
H  -4.68600 22.40200 29.41300
H  -6.07100 22.09800 30.49000
H  -4.86700 23.18300 31.05300
H  -7.55300 26.03500 30.43400
H  -6.55300 27.28900 29.77100
H  -7.19300 27.61400 32.19800
H  -5.55900 27.71200 31.86600
H  -7.94500 20.08900 25.49400
H  -9.43600 21.03200 25.34300
H  -8.53000 21.12300 26.82200
H  -8.30500 19.54400 23.49600
H  -8.63300 19.62100 21.75500
H  -9.69400 20.52100 22.86100
H  -4.84700 25.59900 20.58100
H  -2.02600 26.16100 21.70800
H  -3.51400 23.19200 21.05700
H  -2.17100 24.03500 20.83800
H  -3.31400 24.08700 19.43600
H  -2.38100 27.42700 19.98700
H  -2.44800 28.46200 21.24800
H  -4.70000 29.19200 20.32800
H  -5.22200 27.74600 20.99500
H  -4.66200 27.64600 19.32100
H  -0.81600 29.48400 24.50900
H  -0.17900 29.76300 26.22100
H  -1.72100 30.54800 25.46400
H  -4.19000 28.41300 30.06200
H  -0.97600 26.78900 32.73900
H  -2.68700 26.56100 33.36600
H  -1.81900 27.96700 33.81400

