158

Mg 47.10900 33.79900 27.53400
C  45.33600 32.50200 30.09400
C  47.65600 36.69800 29.37300
C  48.24500 35.37600 24.74600
C  46.36100 31.03600 25.57000
N  46.53000 34.42300 29.52700
C  45.94600 33.73700 30.48900
C  46.11900 34.34400 31.90000
C  46.55900 35.83300 31.45200
C  47.00800 35.60600 30.03600
C  45.45000 36.95700 31.42000
C  47.27100 33.53600 32.71000
C  47.23800 33.70300 34.26400
H  46.31400 34.71400 34.93600
N  47.81400 35.74500 27.08900
C  48.10100 36.75800 28.02400
C  48.84000 37.81200 27.40700
C  48.88100 37.54200 25.99100
C  48.23100 36.17500 25.87500
C  49.27200 39.15500 28.12100
C  49.57700 38.30900 24.89200
O  49.61900 37.96900 23.73100
C  50.43900 39.50500 25.34400
N  47.22300 33.33100 25.45100
C  47.70400 34.11600 24.52700
C  47.96800 33.41200 23.18800
C  47.54000 31.91700 23.51400
C  46.93600 32.08900 24.94900
C  47.18200 34.01700 21.96500
C  48.68100 30.93400 23.61200
C  48.42400 29.50700 23.15100
N  46.11000 32.07100 27.78900
C  45.99400 30.98800 26.95300
C  45.28400 29.88500 27.67000
C  45.02700 30.47900 28.92700
C  45.51000 31.82000 28.90400
C  44.73100 28.52500 27.04100
C  44.35500 30.30400 30.17100
O  43.77800 29.26500 30.51500
C  44.36300 31.66200 30.84400
C  44.56500 31.51600 32.33900
O  45.39700 30.78800 32.85700
O  43.51700 32.03300 33.07200
C  43.38000 31.57200 34.46700
H  47.85600 37.55500 30.01800
H  48.82700 35.72300 23.88900
H  45.98300 30.22100 24.94900
H  45.18000 34.46000 32.44100
H  47.41800 36.14100 32.04900
H  45.17800 37.22600 30.39900
H  45.83900 37.84800 31.91300
H  44.53500 36.58800 31.88200
H  48.25000 33.77600 32.29700
H  47.13800 32.46700 32.53900
H  48.24700 33.88600 34.63300
H  47.09500 32.77100 34.81000
H  50.35400 39.21800 28.23600
H  48.81100 39.15400 29.10800
H  48.93000 40.01800 27.55000
H  51.21600 39.25000 26.06500
H  49.82000 40.33700 25.67700
H  50.81800 39.96400 24.43100
H  49.03700 33.44900 22.98000
H  46.80800 31.55800 22.79100
H  46.58800 34.86200 22.31400
H  46.64900 33.21600 21.45300
H  47.95200 34.49100 21.35600
H  48.91000 30.79400 24.66900
H  49.60400 31.26600 23.13700
H  47.36100 29.33100 22.98700
H  48.75000 28.85800 23.96400
H  49.02100 29.18900 22.29600
H  44.61700 28.67400 25.96700
H  43.84600 28.07400 27.49100
H  45.54600 27.80200 27.05500
H  43.45200 32.25500 30.75800
H  43.81700 30.60600 34.72000
H  42.31200 31.37300 34.55900
H  43.78000 32.35600 35.11000
Mg 35.60500 47.75800 25.98400
C  35.63200 45.71000 28.78900
C  34.41000 50.37300 27.88500
C  35.21600 49.57600 23.10800
C  36.22000 44.96800 23.90200
N  35.12300 47.97700 28.11500
C  35.23900 47.00600 29.07700
C  35.16400 47.72500 30.44700
C  34.53300 49.12300 30.10300
C  34.66900 49.13200 28.57900
C  33.02600 49.44000 30.54500
C  36.61300 47.75200 31.03900
C  36.70600 47.75600 32.57000
H  35.49200 47.82900 33.40900
N  35.02900 49.70800 25.54900
C  34.63400 50.61400 26.48500
C  34.43000 51.90500 25.84700
C  34.63800 51.73300 24.43100
C  34.95400 50.25100 24.27400
C  34.05700 53.15400 26.51800
C  34.73100 52.76300 23.31900
O  35.20700 52.53900 22.19200
C  34.19700 54.13500 23.54400
N  35.40600 47.29300 23.76100
C  35.39400 48.23600 22.84400
C  35.77500 47.83400 21.42100
C  36.08500 46.31100 21.67500
C  35.93200 46.17900 23.19900
C  34.75300 48.13700 20.30900
C  37.54900 45.93300 21.12700
C  38.69700 46.34800 22.03000
N  35.97200 45.81900 26.24900
C  36.17000 44.76000 25.32600
C  36.55600 43.57700 26.08000
C  36.40400 43.87800 27.44200
C  35.99100 45.30500 27.48200
C  36.90700 42.26500 25.40500
C  36.41500 43.36300 28.78300
O  36.73300 42.22000 29.22100
C  35.90600 44.54700 29.70400
C  34.69600 44.13700 30.38300
O  33.56900 44.00600 29.93600
O  34.89200 44.11000 31.74000
C  33.68600 43.75000 32.63000
H  34.07500 51.19500 28.52100
H  35.16100 50.09600 22.15000
H  36.46100 44.20900 23.15400
H  34.44900 47.23100 31.10500
H  35.09600 49.96800 30.49900
H  33.09000 50.40700 31.04300
H  32.53300 48.59900 31.03400
H  32.34800 49.61000 29.71000
H  37.23700 48.56100 30.66100
H  37.14500 46.85000 30.73700
H  37.34900 48.59800 32.82600
H  37.21200 46.85100 32.90600
H  33.07900 53.43200 26.12600
H  34.70800 54.01000 26.33900
H  34.08100 53.00300 27.59700
H  33.23700 53.88500 23.99500
H  33.97100 54.65200 22.61200
H  34.89200 54.66900 24.19300
H  36.71200 48.29900 21.11500
H  35.35700 45.66100 21.18900
H  34.25700 47.29000 19.83400
H  35.33100 48.52100 19.46800
H  33.96600 48.78800 20.68900
H  37.64600 46.42900 20.16100
H  37.73100 44.88200 20.90300
H  38.90300 45.50500 22.68900
H  38.48500 47.25600 22.59600
H  39.56300 46.72500 21.48600
H  37.98400 42.26200 25.23800
H  36.52300 42.22400 24.38600
H  36.63300 41.46400 26.09300
H  36.63500 44.72300 30.49400
H  34.04200 43.03100 33.36700
H  32.80200 43.35500 32.12900
H  33.50200 44.66100 33.20000

