158

Mg 40.49900 9.34700 29.61900
C  42.16100 10.45800 32.37000
C  38.27000 7.52300 31.65300
C  38.90900 8.17700 26.90600
C  43.03200 10.61800 27.57500
N  40.29900 8.94300 31.76900
C  41.04200 9.66600 32.65100
C  40.54700 9.38500 34.08000
C  39.42000 8.30000 33.81900
C  39.29100 8.25300 32.33500
C  39.67900 6.84700 34.41100
C  39.90100 10.71500 34.77700
C  39.41800 10.49100 36.26700
H  39.99400 11.29000 37.41800
N  38.82100 8.03200 29.29900
C  38.00300 7.52000 30.22000
C  36.88700 6.85100 29.61500
C  37.00100 7.14800 28.19800
C  38.29400 7.78400 28.07900
C  35.84800 6.17400 30.43900
C  36.00000 6.90300 27.06600
O  36.14800 7.22600 25.89400
C  34.56700 6.27700 27.44700
N  41.07200 9.07200 27.55900
C  40.19000 8.76400 26.63300
C  40.70000 9.04400 25.26500
C  41.78100 10.14800 25.51900
C  41.96600 9.95800 27.02900
C  41.27100 7.77400 24.54000
C  41.32000 11.49600 24.99600
C  40.70800 12.55900 25.91700
N  42.34100 10.25700 29.85500
C  43.21500 10.73700 28.95800
C  44.26300 11.51500 29.67700
C  43.89100 11.35500 30.97400
C  42.72700 10.58800 31.06000
C  45.29600 12.39400 29.02200
C  44.21000 11.85300 32.30800
O  45.02600 12.72200 32.68100
C  43.11600 11.19700 33.24200
C  43.78500 10.42600 34.27400
O  44.68400 9.65600 34.06700
O  43.09800 10.69900 35.48900
C  43.75300 10.12300 36.65400
H  37.56700 7.09600 32.37100
H  38.44100 7.82400 25.98500
H  43.83500 11.07000 26.98900
H  41.30100 8.94900 34.73500
H  38.43200 8.52600 34.21900
H  38.83700 6.59600 35.05700
H  40.54000 6.92900 35.07500
H  39.73200 6.06200 33.65700
H  39.00700 10.93700 34.19400
H  40.63000 11.51400 34.64100
H  39.43200 9.41800 36.46100
H  38.36400 10.76600 36.22700
H  35.30000 5.41100 29.88700
H  35.06300 6.83900 30.79800
H  36.38100 5.64600 31.23000
H  33.83700 6.62300 26.71600
H  34.31300 6.81800 28.35800
H  34.61400 5.22700 27.73800
H  39.89600 9.49200 24.68000
H  42.81800 10.03100 25.20500
H  40.93000 6.83800 24.98200
H  42.35900 7.72400 24.58800
H  40.89100 7.76900 23.51800
H  40.58400 11.31600 24.21200
H  42.19200 11.96800 24.54400
H  40.88200 12.34700 26.97200
H  39.63000 12.70900 25.85300
H  41.15000 13.54800 25.79800
H  45.04100 12.89500 28.08800
H  46.11200 11.72600 28.74700
H  45.65400 13.15300 29.71700
H  42.48100 12.01500 33.58300
H  43.53700 9.05500 36.64100
H  43.58200 10.64200 37.59800
H  44.84100 10.17500 36.62100
Mg 46.91700 16.94800 28.94000
C  45.43500 16.17300 31.96300
C  49.17700 18.81300 30.72200
C  48.43700 17.69900 25.97300
C  44.32400 15.52500 27.28700
N  47.27200 17.41000 31.17000
C  46.65400 16.89900 32.14800
C  47.19300 17.27900 33.55800
C  48.20100 18.41300 33.16800
C  48.23000 18.22300 31.61600
C  48.04800 19.83600 33.75700
C  47.74300 16.02200 34.38500
C  48.75700 16.19200 35.49400
H  48.47400 17.24200 36.61300
N  48.62300 18.07200 28.41200
C  49.36000 18.76400 29.33200
C  50.41900 19.41100 28.55200
C  50.34600 18.98400 27.18600
C  49.08100 18.19500 27.14600
C  51.36500 20.33600 29.23400
C  51.33400 19.22900 25.97000
O  51.10100 18.84400 24.82100
C  52.56800 19.84200 26.26800
N  46.51000 16.61700 26.87800
C  47.23400 17.09700 25.79500
C  46.58300 16.65500 24.44300
C  45.32800 15.79400 24.91900
C  45.36000 16.01200 26.46900
C  46.19000 17.84800 23.48100
C  45.24700 14.29700 24.56900
C  44.39200 14.01200 23.34000
N  45.20900 16.06800 29.50500
C  44.20000 15.53600 28.69600
C  43.14700 14.89100 29.47800
C  43.61600 15.12700 30.74300
C  44.84500 15.87100 30.74700
C  41.89500 14.17900 29.02500
C  43.26100 14.97100 32.17500
O  42.32500 14.46000 32.73100
C  44.43600 15.64700 32.91900
C  43.89400 16.73400 33.77000
O  43.25900 17.67200 33.31100
O  44.18400 16.55600 35.12500
C  43.67300 17.62500 36.02100
H  49.90500 19.44500 31.23600
H  48.81200 17.96700 24.98300
H  43.55100 14.89100 26.84700
H  46.43800 17.63100 34.26000
H  49.15700 18.02600 33.52000
H  47.00800 19.99500 34.04500
H  48.22400 20.47400 32.89100
H  48.82000 20.05600 34.49400
H  48.08400 15.31500 33.62900
H  46.83000 15.79500 34.93600
H  49.71100 16.42600 35.02100
H  48.91600 15.20800 35.93600
H  50.85000 20.94000 29.98100
H  51.67900 21.17300 28.61000
H  52.27400 19.97100 29.71100
H  53.29800 19.64200 25.48500
H  53.01000 19.44600 27.18300
H  52.42200 20.90200 26.47300
H  47.27200 16.00900 23.89900
H  44.39900 16.30900 24.67300
H  45.29100 17.49100 22.97900
H  46.95200 17.97400 22.71200
H  45.99200 18.75400 24.05300
H  44.97700 13.73000 25.46000
H  46.26600 14.08500 24.24500
H  43.85800 13.07200 23.47700
H  45.12800 13.83300 22.55600
H  43.58100 14.68300 23.05600
H  41.77600 13.22200 29.53400
H  41.94000 14.01400 27.94900
H  40.98600 14.75200 29.20700
H  44.89100 14.88800 33.55400
H  44.37900 17.77700 36.83700
H  42.71700 17.33800 36.45700
H  43.52200 18.60700 35.57100

