158

Mg 46.93100 16.98800 28.21700
C  45.02200 16.31500 31.16100
C  49.10600 18.76900 30.09800
C  48.42000 17.95200 25.36100
C  44.30900 15.44300 26.36600
N  47.00900 17.44200 30.40800
C  46.19300 17.02500 31.42600
C  46.77500 17.45300 32.81000
C  48.01400 18.42700 32.42700
C  48.03800 18.25500 30.88800
C  47.77800 19.89100 32.90100
C  47.27600 16.21900 33.64400
C  46.61900 16.00300 35.01800
H  46.33200 17.17900 35.89500
N  48.56800 18.09000 27.80000
C  49.38900 18.66900 28.70600
C  50.57600 19.19300 28.04800
C  50.36000 19.03800 26.63700
C  49.05900 18.33800 26.51600
C  51.82200 19.75900 28.77000
C  51.24600 19.47600 25.50800
O  50.94200 19.24300 24.32300
C  52.42000 20.41200 25.74400
N  46.38500 16.79100 26.14900
C  47.19400 17.33200 25.16300
C  46.59100 17.05600 23.77900
C  45.31100 16.19000 24.11900
C  45.36600 16.04000 25.64300
C  46.36400 18.20700 22.87000
C  45.08600 14.94200 23.29600
C  45.99600 13.64900 23.54700
N  45.02600 15.84800 28.64900
C  44.08500 15.40000 27.75200
C  42.91700 14.95400 28.54400
C  43.30300 15.26300 29.87200
C  44.56200 15.82600 29.85900
C  41.57100 14.44600 28.16400
C  42.80200 15.31000 31.26500
O  41.66100 15.02200 31.73300
C  43.91900 16.00400 32.12800
C  43.36600 17.13600 32.98600
O  43.53600 18.29600 32.71300
O  42.52300 16.67000 33.97000
C  41.70000 17.73400 34.62600
H  49.83200 19.32500 30.69500
H  48.91400 18.21500 24.42300
H  43.43800 15.21900 25.74600
H  45.99100 18.03500 33.29500
H  48.97200 18.00200 32.72600
H  47.01200 20.06000 33.65800
H  47.30700 20.39200 32.05600
H  48.72100 20.41400 33.06100
H  48.35600 16.14600 33.77300
H  47.09200 15.30800 33.07400
H  47.06900 15.19800 35.59900
H  45.59600 15.64800 34.90000
H  52.74500 19.41500 28.30300
H  51.89400 19.50700 29.82800
H  51.73300 20.84300 28.69300
H  52.19300 21.22800 26.43000
H  52.74400 20.77800 24.77000
H  53.23900 19.79600 26.11500
H  47.21500 16.27100 23.35200
H  44.56800 16.92100 23.80000
H  46.01200 18.93000 23.60600
H  45.52400 18.22000 22.17600
H  47.16300 18.56500 22.22100
H  44.94400 15.28800 22.27300
H  44.08800 14.53900 23.46900
H  46.40000 13.24700 22.61800
H  45.41100 12.91500 24.10100
H  46.77700 13.95700 24.24100
H  41.23800 14.89700 27.22900
H  40.90600 14.79900 28.95200
H  41.53100 13.35700 28.13000
H  44.23900 15.19700 32.78700
H  42.33100 18.53500 35.01100
H  41.31100 17.22300 35.50600
H  40.92400 18.11900 33.96400
Mg -2.33700 34.41500 25.82300
C  -3.94800 32.51400 28.32600
C  -0.75000 36.03400 28.35200
C  -1.17600 36.50300 23.50600
C  -4.42900 32.85500 23.49800
N  -2.52600 34.37900 28.08000
C  -3.03300 33.42900 28.88800
C  -2.65200 33.65300 30.37000
C  -1.86000 34.99000 30.30300
C  -1.77900 35.19500 28.80100
C  -2.38500 36.14100 31.24300
C  -1.84400 32.46100 31.07200
C  -2.36300 31.95000 32.39600
H  -1.49200 32.12000 33.72800
N  -1.08200 35.93700 25.88000
C  -0.43100 36.44700 27.03700
C  0.60800 37.38200 26.56100
C  0.45500 37.58200 25.13200
C  -0.66700 36.65600 24.78800
C  1.54000 38.07900 27.47500
C  1.32300 38.37500 24.12600
O  1.19500 38.24700 22.95800
C  2.56200 39.14600 24.64500
N  -3.13300 34.95400 23.75200
C  -2.24900 35.72900 23.00000
C  -2.64300 35.58100 21.49400
C  -3.37200 34.21300 21.51700
C  -3.68600 33.94500 23.00500
C  -3.32900 36.83200 20.97500
C  -2.51500 33.02600 20.82600
C  -1.58900 32.25100 21.74400
N  -3.95900 33.01300 25.84500
C  -4.57200 32.38700 24.85100
C  -5.39600 31.30500 25.36100
C  -5.09000 31.30200 26.75600
C  -4.29600 32.41200 26.99000
C  -6.07000 30.20700 24.61000
C  -5.30600 30.53200 27.97300
O  -5.96800 29.50700 28.20600
C  -4.64800 31.32100 29.09100
C  -5.75900 31.79500 29.97900
O  -6.74500 32.37600 29.53000
O  -5.52900 31.50600 31.31300
C  -6.63400 31.92700 32.19600
H  -0.25200 36.54700 29.17800
H  -0.82000 37.11100 22.67200
H  -4.85500 32.14200 22.78900
H  -3.60900 33.81300 30.86500
H  -0.82200 34.84500 30.60200
H  -2.86000 36.95200 30.69000
H  -1.46600 36.50300 31.70500
H  -3.13800 35.73700 31.91900
H  -0.86700 32.91700 31.22700
H  -1.68800 31.65100 30.35900
H  -2.57700 30.89100 32.24800
H  -3.23400 32.51600 32.72700
H  1.55200 37.72500 28.50600
H  1.43700 39.16400 27.48900
H  2.57800 37.91200 27.18900
H  2.98000 39.82100 23.89800
H  3.17800 38.34800 25.06100
H  2.20100 39.82800 25.41500
H  -1.69800 35.56500 20.95000
H  -4.32000 34.23500 20.97900
H  -3.82800 37.33400 21.80500
H  -4.13300 36.57100 20.28700
H  -2.71400 37.60400 20.51300
H  -1.87700 33.40000 20.02500
H  -3.24900 32.33000 20.42000
H  -2.14200 31.33600 21.95400
H  -1.38700 32.74400 22.69500
H  -0.65100 32.01600 21.24200
H  -6.75500 30.70000 23.91900
H  -6.68200 29.76400 25.39600
H  -5.38400 29.50500 24.13700
H  -4.00100 30.67500 29.68300
H  -6.48800 32.89600 32.67400
H  -6.68800 31.10800 32.91200
H  -7.61000 31.86300 31.71300

