158

Mg 27.04300 51.68400 26.52000
C  24.91400 53.09900 28.95200
C  29.01500 50.48300 29.08600
C  29.16300 50.37200 24.19500
C  25.01600 52.86500 23.96200
N  27.02100 51.89100 28.69700
C  26.03300 52.38500 29.49700
C  26.24200 52.15100 30.96400
C  27.65500 51.50000 30.98000
C  27.86300 51.20200 29.51600
C  28.90800 52.28900 31.59000
C  25.09300 51.39500 31.75800
C  24.38500 52.17600 32.84100
H  25.21000 52.64100 33.98200
N  28.95800 50.73500 26.65200
C  29.58100 50.29700 27.80300
C  30.77600 49.57400 27.43000
C  30.86200 49.51500 25.99100
C  29.65000 50.26000 25.50700
C  31.63500 49.09900 28.53900
C  31.86700 48.77200 25.10500
O  31.75900 48.81200 23.89400
C  32.89500 47.95400 25.66900
N  27.13300 51.69600 24.42900
C  28.09300 51.03300 23.71100
C  27.63400 50.74700 22.30400
C  26.27900 51.57200 22.23100
C  26.12800 52.11000 23.60300
C  28.67300 51.07000 21.23900
C  25.14600 50.87800 21.49200
C  24.57800 49.61000 22.28600
N  25.33200 52.82300 26.42100
C  24.57200 53.22600 25.28900
C  23.49500 54.03100 25.79100
C  23.56400 53.92200 27.20000
C  24.69100 53.21000 27.54200
C  22.42000 54.73700 24.85000
C  22.81000 54.27400 28.42900
O  21.70400 54.79200 28.64000
C  23.74900 53.73900 29.57200
C  24.22100 54.80900 30.44100
O  25.30400 55.38500 30.30000
O  23.24400 55.07600 31.34300
C  23.65000 55.97500 32.42100
H  29.59100 49.97000 29.85900
H  29.64000 49.74800 23.43700
H  24.34700 53.12500 23.13900
H  26.26000 53.13600 31.43200
H  27.70500 50.59200 31.58200
H  28.58000 53.32000 31.72300
H  29.73600 52.32100 30.88200
H  29.27300 51.82400 32.50600
H  25.31100 50.44300 32.24200
H  24.38700 50.96900 31.04500
H  23.54200 51.59800 33.22100
H  23.94200 53.07000 32.40200
H  32.67500 49.15400 28.21500
H  31.41700 48.06500 28.80500
H  31.45600 49.63700 29.47100
H  33.63100 48.60900 26.13500
H  33.46000 47.45200 24.88400
H  32.53500 47.27800 26.44400
H  27.33400 49.71300 22.13500
H  26.44700 52.51700 21.71500
H  29.64400 51.36400 21.63600
H  28.49000 51.86500 20.51700
H  28.83900 50.10900 20.75200
H  25.54300 50.48900 20.55400
H  24.36200 51.63000 21.40000
H  24.52200 49.84600 23.34800
H  25.15900 48.75300 21.94600
H  23.51500 49.38900 22.18700
H  22.61400 54.65100 23.78100
H  22.60500 55.76300 25.16700
H  21.46200 54.40500 25.24900
H  23.22700 52.99000 30.16700
H  24.13500 56.85500 31.99800
H  24.30000 55.43100 33.10700
H  22.74300 56.22500 32.97200
Mg -1.21700 34.89700 27.17500
C  -2.88200 33.23400 29.84500
C  -0.08200 37.08100 29.60300
C  0.02200 36.80300 24.71100
C  -2.74500 32.75400 24.95100
N  -1.45600 35.17500 29.50300
C  -2.13500 34.30800 30.32200
C  -1.99900 34.78500 31.77900
C  -1.31600 36.13600 31.63700
C  -0.84700 36.11100 30.17800
C  -2.17600 37.36100 32.03200
C  -1.22800 33.64900 32.64300
C  -1.90700 33.37200 33.93900
H  -0.97400 33.17100 35.13300
N  -0.02700 36.56000 27.19600
C  0.37100 37.32400 28.23700
C  1.16700 38.42300 27.75700
C  1.36100 38.28400 26.35000
C  0.41300 37.17500 26.03300
C  1.79800 39.49800 28.56200
C  2.17000 39.03400 25.29400
O  2.16000 38.80000 24.10900
C  3.05400 40.00800 25.69500
N  -1.33300 34.71800 25.12700
C  -0.76600 35.69600 24.27200
C  -1.18500 35.33100 22.84100
C  -1.72900 33.89500 22.93700
C  -2.00100 33.74800 24.39100
C  -2.18800 36.29500 22.13700
C  -0.79100 32.91900 22.18500
C  0.22000 32.14300 23.11900
N  -2.59800 33.34600 27.29000
C  -3.12800 32.56600 26.30200
C  -3.87200 31.45700 26.87600
C  -3.81600 31.71700 28.20700
C  -3.01300 32.85400 28.47400
C  -4.57600 30.32500 26.18000
C  -4.29900 31.15700 29.45600
O  -4.96900 30.16300 29.68500
C  -3.59600 32.08600 30.59100
C  -4.60500 32.46000 31.43400
O  -5.43700 33.28500 31.24000
O  -4.56800 31.71200 32.57900
C  -5.53500 32.09000 33.63300
H  0.31500 37.72400 30.39100
H  0.34400 37.46300 23.90300
H  -3.25600 32.16600 24.18600
H  -3.01000 34.81600 32.18400
H  -0.44200 36.28400 32.27100
H  -2.29700 38.03900 31.18700
H  -1.54100 37.78300 32.81100
H  -3.17600 37.19400 32.43400
H  -0.16600 33.89800 32.65600
H  -1.25800 32.71800 32.07600
H  -2.41400 32.42000 33.78400
H  -2.63200 34.13000 34.23400
H  1.54700 40.48000 28.16100
H  2.87100 39.39000 28.71800
H  1.39700 39.53100 29.57600
H  3.69400 39.63200 26.49400
H  2.34600 40.71800 26.12200
H  3.57800 40.33300 24.79600
H  -0.21400 35.38600 22.34900
H  -2.63900 33.90600 22.33600
H  -2.51300 37.12000 22.77100
H  -3.09500 35.79200 21.80100
H  -1.70000 36.72200 21.26100
H  -0.13900 33.38800 21.44900
H  -1.43400 32.19200 21.68800
H  0.46800 32.65200 24.05100
H  1.16100 32.06000 22.57400
H  -0.11300 31.12400 23.31900
H  -4.17000 29.37400 26.52500
H  -4.40600 30.34800 25.10300
H  -5.58300 30.44400 26.57900
H  -2.94600 31.41800 31.15600
H  -5.33400 33.11600 33.94100
H  -5.39100 31.40900 34.47200
H  -6.47800 31.76600 33.19400

