158

Mg 47.50100 14.76600 27.52200
C  45.53400 14.86600 30.49500
C  49.48600 17.28000 28.81100
C  49.10700 14.84300 24.61000
C  45.06000 12.64700 26.22800
N  47.48400 15.87600 29.42300
C  46.71800 15.68000 30.58600
C  47.23100 16.40700 31.77900
C  48.44800 17.28300 31.23200
C  48.48000 16.85700 29.71800
C  48.39200 18.83000 31.49500
C  47.57700 15.44700 32.86400
C  47.31400 15.94000 34.26700
H  48.38400 15.71100 35.36000
N  49.16300 15.90500 26.79000
C  49.79000 16.93300 27.44400
C  50.75400 17.57400 26.53200
C  50.81100 16.65700 25.34900
C  49.66600 15.75700 25.52100
C  51.61800 18.82200 26.83100
C  51.76200 16.76700 24.15200
O  51.67000 16.01700 23.14900
C  52.92700 17.79400 24.15700
N  47.11400 13.85800 25.69700
C  47.92600 14.02200 24.65700
C  47.57100 13.06000 23.51100
C  46.36000 12.25900 24.09000
C  46.17700 12.89400 25.44800
C  47.21600 13.84200 22.16400
C  46.71700 10.66600 24.24400
C  47.28900 9.95300 22.99000
N  45.55600 13.99700 28.14800
C  44.74400 13.14800 27.47100
C  43.54500 12.97200 28.33100
C  43.89300 13.56600 29.54000
C  45.12100 14.18900 29.35700
C  42.28800 12.15400 27.99200
C  43.36700 13.84300 30.85700
O  42.31200 13.53400 31.37000
C  44.38300 14.68000 31.55400
C  43.77100 15.96000 31.94900
O  43.48100 16.87100 31.23500
O  43.56000 15.91900 33.27700
C  42.81700 16.99300 33.90400
H  50.15000 18.04100 29.22600
H  49.71900 14.65000 23.72600
H  44.39500 11.95000 25.71300
H  46.45200 17.06100 32.17100
H  49.34800 16.79800 31.61000
H  48.49900 19.37900 30.56000
H  49.20800 19.03500 32.18800
H  47.48000 19.22300 31.94500
H  48.61400 15.13500 32.74400
H  47.12600 14.45600 32.80700
H  46.37700 15.53400 34.64900
H  47.18800 17.02200 34.29500
H  51.26500 19.59300 26.14500
H  52.70500 18.78200 26.76200
H  51.50900 19.22200 27.83900
H  53.26200 17.76500 23.12000
H  53.72100 17.37300 24.77300
H  52.48100 18.76000 24.39400
H  48.46400 12.50000 23.23400
H  45.47800 12.53100 23.51100
H  47.92300 14.55600 21.74200
H  46.21900 14.27300 22.25100
H  47.01100 13.13100 21.36400
H  45.81100 10.21600 24.64900
H  47.40100 10.33900 25.02700
H  46.75000 9.06700 22.65500
H  48.26800 9.51300 23.17600
H  47.23500 10.61800 22.12800
H  42.56200 11.19000 27.56300
H  41.84600 12.70100 27.16000
H  41.65800 12.15400 28.88100
H  44.85500 14.18900 32.40500
H  43.46100 17.42300 34.67200
H  41.87700 16.68400 34.36000
H  42.66000 17.84500 33.24300
Mg 34.83700 49.31300 25.04600
C  34.90600 47.52200 28.07000
C  32.93200 51.81000 26.69900
C  34.72100 51.10300 22.31300
C  36.19500 46.55100 23.42400
N  34.06900 49.67700 27.10100
C  34.37500 48.87700 28.20100
C  34.09600 49.57600 29.52800
C  33.24200 50.77800 29.07600
C  33.46800 50.78600 27.53500
C  31.76800 50.70800 29.37300
C  35.35700 49.75100 30.43800
C  35.20700 49.50000 31.90900
H  33.75700 49.44000 32.46800
N  33.90600 51.21100 24.52200
C  33.16000 52.03800 25.34500
C  32.79900 53.19100 24.60600
C  33.37100 52.97800 23.30100
C  33.96800 51.70500 23.34100
C  32.11500 54.30400 25.20200
C  33.24800 53.84000 22.01900
O  33.77600 53.64500 20.90300
C  32.32200 54.99800 22.13800
N  35.42900 48.87400 23.14400
C  35.28500 49.81800 22.20300
C  35.58900 49.13700 20.85500
C  36.28300 47.77300 21.22600
C  35.93800 47.71700 22.63500
C  34.32500 49.07200 19.91600
C  37.82200 47.60100 20.88300
C  38.83500 48.12800 21.89300
N  35.40500 47.45600 25.60200
C  36.03600 46.41400 24.83100
C  36.24800 45.22900 25.67700
C  35.79300 45.65900 26.94900
C  35.39300 47.01100 26.85700
C  36.72600 43.90600 25.28500
C  35.55200 45.17800 28.21700
O  35.71600 44.09000 28.66800
C  35.09100 46.38900 29.11000
C  33.85100 45.91100 29.79700
O  32.79400 45.70800 29.24000
O  34.06600 45.74700 31.08700
C  32.92600 45.37000 31.87600
H  32.37900 52.60500 27.20300
H  34.79600 51.63500 21.36300
H  36.63700 45.77000 22.80200
H  33.41200 48.85000 29.96700
H  33.57100 51.75300 29.43600
H  31.58400 49.85600 30.02800
H  31.02700 50.58300 28.58400
H  31.53700 51.59600 29.96100
H  35.80400 50.70100 30.14300
H  36.05700 49.00900 30.05400
H  35.80700 50.29700 32.34800
H  35.53700 48.46500 32.00600
H  32.51200 55.28100 24.92600
H  31.93900 54.28500 26.27800
H  31.03800 54.30600 25.03100
H  31.41000 54.77600 22.69100
H  32.00900 55.34600 21.15400
H  32.83300 55.83500 22.61400
H  36.30400 49.79300 20.35800
H  35.73100 47.05100 20.62500
H  34.39000 49.75900 19.07300
H  33.43800 49.29100 20.51200
H  34.26800 48.06600 19.50000
H  37.82200 48.13800 19.93400
H  37.99800 46.53000 20.78800
H  39.38500 48.97200 21.47500
H  39.53200 47.34500 22.19000
H  38.31800 48.56600 22.74700
H  36.08300 43.39500 24.56800
H  36.80500 43.22900 26.13500
H  37.73300 44.01200 24.88100
H  35.83600 46.65900 29.85900
H  32.65600 44.36300 31.55600
H  32.12500 46.10600 31.80500
H  33.34300 45.49300 32.87500

