158

Mg 17.51400 -2.57400 27.44000
C  16.67600 -0.41300 30.15000
C  19.29700 -4.58800 29.75100
C  18.73600 -4.27400 24.84200
C  16.06100 -0.24700 25.30500
N  17.92400 -2.53800 29.74800
C  17.52800 -1.48200 30.56800
C  17.92400 -1.83700 32.03700
C  18.86000 -3.11700 31.87600
C  18.71600 -3.43800 30.37000
C  20.33400 -2.98400 32.42600
C  16.73600 -1.99900 33.01000
C  16.68500 -1.22500 34.29400
H  18.03000 -0.89500 35.00600
N  18.70900 -4.25900 27.30000
C  19.28000 -4.99800 28.39200
C  19.84600 -6.23400 27.83200
C  19.89000 -6.00700 26.40600
C  19.15800 -4.78400 26.13600
C  20.42600 -7.23000 28.70900
C  20.63600 -6.80500 25.35800
O  20.50000 -6.54300 24.16600
C  21.45200 -7.94800 25.77100
N  17.66500 -2.17200 25.39900
C  18.16500 -3.08800 24.51500
C  17.84700 -2.68500 23.08800
C  16.87900 -1.51800 23.26800
C  16.87100 -1.23300 24.78300
C  18.98600 -2.59400 22.16300
C  15.48900 -1.70100 22.62500
C  14.37300 -2.12600 23.58800
N  16.44300 -0.80300 27.63800
C  15.88600 0.02400 26.68000
C  15.08400 1.06100 27.32300
C  15.40000 0.90300 28.67400
C  16.25000 -0.21600 28.77900
C  14.29300 2.13800 26.75700
C  15.25600 1.53200 29.98700
O  14.61700 2.53400 30.25900
C  16.08500 0.66800 31.04100
C  16.97500 1.51700 31.78900
O  18.16300 1.70800 31.61200
O  16.27500 2.00500 32.88300
C  17.02800 3.10800 33.55500
H  19.85300 -5.20800 30.45800
H  18.85900 -4.96700 24.00700
H  15.45500 0.43500 24.70600
H  18.59400 -1.05400 32.39300
H  18.41100 -3.92800 32.45000
H  20.38600 -3.78800 33.16000
H  20.40100 -2.01200 32.91500
H  21.10300 -3.15600 31.67300
H  16.53200 -3.05600 33.18100
H  15.92000 -1.67400 32.36500
H  16.23900 -1.98100 34.94000
H  15.92200 -0.45700 34.17600
H  20.07000 -8.18900 28.33100
H  20.02800 -7.20800 29.72300
H  21.50900 -7.11100 28.73800
H  20.74600 -8.67700 26.17100
H  22.04500 -7.60200 26.61800
H  21.92200 -8.39300 24.89400
H  17.35800 -3.54600 22.63200
H  17.46400 -0.70800 22.83400
H  19.10700 -1.62800 21.67300
H  18.89800 -3.36800 21.40000
H  19.85100 -2.72800 22.81200
H  15.59800 -2.55100 21.95300
H  15.16600 -0.78700 22.12700
H  14.69500 -2.84300 24.34400
H  13.63600 -2.76400 23.10000
H  13.82100 -1.22200 23.84300
H  14.05800 1.82100 25.74100
H  15.00900 2.95200 26.64400
H  13.38700 2.31700 27.33500
H  15.31000 0.30400 31.71500
H  17.32800 3.97100 32.96200
H  17.91300 2.78200 34.10300
H  16.34900 3.37600 34.36400
Mg -2.15400 34.85100 26.95100
C  -3.13100 33.36400 29.76300
C  -0.32000 37.25700 28.88300
C  -1.76100 36.64200 24.13700
C  -4.12800 32.63900 25.16800
N  -1.71600 35.19900 29.04100
C  -2.24100 34.38700 29.99500
C  -1.75100 34.85000 31.44200
C  -0.87900 36.14600 31.12500
C  -0.99900 36.22800 29.62600
C  -1.42100 37.34300 31.96000
C  -0.98300 33.67600 32.08400
C  -1.40300 33.26800 33.53200
H  -0.35100 33.20800 34.60500
N  -1.05300 36.67700 26.57100
C  -0.42000 37.52900 27.48800
C  -0.07800 38.73300 26.82200
C  -0.53500 38.62000 25.43200
C  -1.10500 37.31400 25.29900
C  0.58600 39.92700 27.47700
C  -0.41200 39.64500 24.29900
O  -0.59600 39.35800 23.11400
C  -0.08800 41.06900 24.58800
N  -2.83900 34.71600 24.92000
C  -2.58700 35.60100 23.99800
C  -3.27400 35.30500 22.59500
C  -3.87100 33.82900 22.82300
C  -3.60700 33.69100 24.40500
C  -4.41300 36.35700 22.45800
C  -3.12200 32.77700 21.87900
C  -1.72400 32.23500 22.41400
N  -3.35600 33.29400 27.32500
C  -4.09900 32.47100 26.53700
C  -4.72100 31.43700 27.33900
C  -4.44300 31.83700 28.63100
C  -3.59900 32.94700 28.55500
C  -5.61400 30.33600 27.00100
C  -4.63800 31.46300 30.00000
O  -5.27600 30.54000 30.51200
C  -3.85200 32.56000 30.82400
C  -4.96500 33.29500 31.52900
O  -5.73600 34.03900 31.02900
O  -4.84400 33.00700 32.90600
C  -5.93100 33.48100 33.75300
H  0.30100 37.99900 29.38900
H  -1.73600 37.22600 23.21400
H  -4.60100 31.92900 24.48700
H  -2.66400 35.12400 31.97000
H  0.17200 36.01900 31.38300
H  -2.45100 37.63700 31.75700
H  -0.81100 38.22900 31.78500
H  -1.36000 37.13800 33.02900
H  0.06500 33.97600 32.12000
H  -1.02300 32.78100 31.46300
H  -1.88100 32.28900 33.49500
H  -2.17600 33.95900 33.87000
H  1.29200 39.71100 28.27800
H  -0.12600 40.63400 27.90300
H  1.24900 40.33400 26.71400
H  -0.51700 41.54500 23.70700
H  0.97400 41.31400 24.62400
H  -0.67300 41.38600 25.45100
H  -2.60500 35.36100 21.73700
H  -4.92500 33.69900 22.57600
H  -4.54500 36.94600 23.36500
H  -5.36800 35.85100 22.32300
H  -4.12300 37.01500 21.63800
H  -2.97200 33.24300 20.90500
H  -3.76200 31.90500 21.74800
H  -0.94700 32.49100 21.69400
H  -1.88000 31.16400 22.54800
H  -1.48600 32.62200 23.40400
H  -5.67100 30.13800 25.93100
H  -6.57600 30.60600 27.43700
H  -5.17200 29.56200 27.62900
H  -3.07300 32.13200 31.45600
H  -6.18400 32.71900 34.49100
H  -6.80400 33.86000 33.22200
H  -5.53100 34.37700 34.22700

