158

Mg 17.80600 -2.33300 28.02700
C  16.74200 0.01400 30.54000
C  19.64700 -3.89200 30.60700
C  19.16800 -4.22700 25.69900
C  16.24100 -0.41100 25.59000
N  17.98300 -2.06700 30.34800
C  17.42000 -1.06300 31.06900
C  17.74600 -1.29000 32.55900
C  18.76500 -2.49700 32.55500
C  18.75100 -2.90500 31.06900
C  20.12600 -2.01900 33.06400
C  16.44500 -1.53300 33.47700
C  16.25800 -0.70600 34.70300
H  17.47200 0.00600 35.30700
N  19.15400 -3.84300 28.13000
C  19.69300 -4.44800 29.23600
C  20.48800 -5.55000 28.86200
C  20.37600 -5.65800 27.41900
C  19.50600 -4.53300 27.04000
C  21.32000 -6.44700 29.80500
C  21.10900 -6.58000 26.46600
O  21.09300 -6.48400 25.25600
C  22.00100 -7.65800 27.01100
N  17.86700 -2.14800 25.94900
C  18.43500 -3.11200 25.20500
C  18.33200 -2.79400 23.69000
C  17.32400 -1.61500 23.66700
C  17.06600 -1.40900 25.15700
C  19.68400 -2.51400 22.94100
C  16.03800 -1.87200 22.91000
C  15.54200 -0.93700 21.76800
N  16.73400 -0.59300 28.01200
C  16.17100 0.10200 26.91300
C  15.49700 1.29400 27.41600
C  15.70800 1.28900 28.76700
C  16.46300 0.19000 29.11400
C  14.73800 2.26100 26.63600
C  15.46600 2.00800 30.04100
O  14.80500 3.00600 30.31800
C  16.17700 1.19400 31.18300
C  17.06200 2.11400 31.86700
O  18.30000 2.03900 31.85200
O  16.41100 2.97900 32.76800
C  17.18500 3.90300 33.57600
H  20.20000 -4.33200 31.43900
H  19.49300 -4.85200 24.86500
H  15.67700 0.16600 24.85500
H  18.22200 -0.32800 32.74700
H  18.44900 -3.29900 33.22200
H  20.10000 -1.02000 33.50000
H  20.75200 -1.89100 32.18100
H  20.59700 -2.75500 33.71500
H  16.46800 -2.59600 33.72000
H  15.59300 -1.48100 32.80000
H  15.80700 -1.38500 35.42600
H  15.51800 0.04300 34.42300
H  22.35300 -6.50700 29.46400
H  20.98800 -7.48500 29.83300
H  21.37700 -6.04400 30.81600
H  21.50700 -8.19500 27.82100
H  22.85900 -7.08800 27.36600
H  22.32900 -8.39300 26.27600
H  17.93600 -3.72100 23.27500
H  17.91600 -0.72600 23.44600
H  20.37600 -2.25300 23.74200
H  19.64200 -1.72800 22.18800
H  20.10700 -3.43300 22.53400
H  15.23400 -2.06000 23.62200
H  16.17400 -2.85100 22.45000
H  15.76200 -1.32400 20.77300
H  16.20600 -0.07300 21.75200
H  14.54300 -0.50100 21.79100
H  14.54300 3.17900 27.19100
H  13.83100 1.81100 26.23400
H  15.37300 2.59900 25.81700
H  15.47900 0.83700 31.94100
H  16.78800 4.91500 33.49400
H  18.26000 3.89300 33.39700
H  17.08100 3.63100 34.62700
Mg 43.82900 4.34800 47.17700
C  41.65100 7.07600 46.64300
C  41.22400 2.28100 46.85100
C  46.01900 1.93200 46.89300
C  46.51100 6.74300 47.29800
N  41.69600 4.64400 46.53200
C  41.06800 5.84600 46.51600
C  39.61800 5.64700 46.14400
C  39.39200 4.16400 46.65000
C  40.85900 3.63000 46.72100
C  38.75300 4.12100 48.06100
C  39.32000 5.90100 44.69400
C  38.13300 6.84300 44.36600
H  37.68000 6.80200 42.88200
N  43.66200 2.27000 46.92000
C  42.48100 1.61800 46.82400
C  42.78700 0.22900 46.79200
C  44.16200 0.09100 46.62700
C  44.72200 1.43500 46.74100
C  41.73000 -0.87600 46.80900
C  44.94600 -1.18000 46.62500
O  44.35600 -2.27400 46.57000
C  46.43500 -1.23100 46.52400
N  46.01300 4.32600 47.02000
C  46.63400 3.14000 47.10400
C  48.16600 3.30700 47.22100
C  48.27400 4.89100 47.48900
C  46.86700 5.40500 47.29000
C  48.94000 2.32900 48.27500
C  49.37200 5.53900 46.55700
C  50.46200 6.34000 47.41900
N  44.09600 6.51800 46.91600
C  45.20900 7.33600 47.11200
C  44.87100 8.74600 46.91400
C  43.44800 8.72200 46.84900
C  43.03400 7.33000 46.82900
C  45.81900 9.95400 46.77700
C  42.21200 9.47900 46.61600
O  42.00900 10.72000 46.46200
C  41.08500 8.46600 46.55100
C  40.12000 8.76600 47.62000
O  40.31600 8.57400 48.79300
O  38.90800 9.21400 47.12900
C  38.04800 9.79100 48.13500
H  40.36600 1.63600 46.64900
H  46.79600 1.25700 46.52800
H  47.32300 7.46200 47.42300
H  38.98100 6.36800 46.65600
H  38.82900 3.56300 45.93500
H  38.27300 5.09000 48.20000
H  39.46800 4.03600 48.87900
H  38.02300 3.31500 48.13700
H  39.29000 4.93800 44.18200
H  40.19900 6.37600 44.25700
H  38.32000 7.89300 44.59100
H  37.27900 6.58700 44.99300
H  41.85800 -1.51700 45.93600
H  40.72500 -0.45200 46.82200
H  41.92100 -1.42300 47.73200
H  47.07600 -0.77300 47.27700
H  46.69800 -0.88500 45.52400
H  46.73900 -2.25500 46.74000
H  48.46800 3.11900 46.19100
H  48.42600 4.96400 48.56500
H  48.32200 2.05500 49.13000
H  49.80100 2.77700 48.77300
H  49.32600 1.55800 47.60900
H  48.88600 6.35700 46.02600
H  49.77500 4.84000 45.82400
H  51.46700 6.11200 47.06400
H  50.60400 6.08100 48.46900
H  50.32200 7.41500 47.30600
H  45.95600 10.45400 47.73600
H  45.49000 10.75900 46.12000
H  46.81100 9.57300 46.53600
H  40.61500 8.70900 45.59800
H  37.11500 10.15800 47.70500
H  38.50400 10.68100 48.56900
H  37.82300 9.07200 48.92300

