158

Mg -0.48500 7.69500 27.21100
C  -0.21500 10.15900 29.70200
C  0.07700 5.33800 29.68700
C  -0.55200 5.52400 24.77000
C  -0.55700 10.35800 24.78500
N  -0.13900 7.70400 29.47000
C  -0.31100 8.89000 30.21300
C  -0.48700 8.51900 31.66300
C  -0.02000 6.98800 31.74800
C  -0.07500 6.59600 30.24800
C  1.36700 6.71900 32.39100
C  -1.91200 8.81300 32.27200
C  -2.19200 8.53500 33.75700
H  -0.93000 8.31200 34.66800
N  -0.31100 5.73100 27.20000
C  -0.08700 4.90700 28.30800
C  0.02100 3.54000 27.80000
C  -0.25300 3.53300 26.40600
C  -0.43000 5.00600 26.05700
C  0.32000 2.33400 28.67200
C  -0.31500 2.36400 25.40900
O  -0.67300 2.64500 24.28300
C  -0.17500 0.97800 25.79300
N  -0.62600 7.94200 25.07100
C  -0.70000 6.88300 24.26200
C  -0.89500 7.32200 22.75200
C  -1.08500 8.87700 22.86200
C  -0.70000 9.06900 24.32700
C  0.15900 6.80300 21.74600
C  -2.47300 9.36500 22.57000
C  -2.62900 10.68500 21.85600
N  -0.26100 9.79100 27.16700
C  -0.39500 10.75500 26.14200
C  -0.20600 12.07600 26.73200
C  -0.03700 11.88700 28.08100
C  -0.09300 10.45700 28.34600
C  -0.26200 13.32200 25.94200
C  0.14300 12.57400 29.29300
O  0.30700 13.79800 29.58300
C  -0.03800 11.50000 30.42800
C  1.04800 11.49300 31.46300
O  2.13100 10.98800 31.25300
O  0.64100 12.04400 32.62600
C  1.62400 12.09400 33.70200
H  0.20100 4.47500 30.34500
H  -0.51200 4.95600 23.83800
H  -0.73900 11.19600 24.10900
H  0.12600 9.17700 32.27900
H  -0.84700 6.49900 32.26200
H  1.13000 6.14800 33.28900
H  1.75700 7.70900 32.62800
H  1.99100 6.19100 31.67000
H  -2.53200 8.13000 31.69100
H  -2.17900 9.87000 32.24100
H  -2.71700 7.58000 33.76900
H  -2.76800 9.33400 34.22500
H  -0.60700 1.76200 28.68600
H  0.69900 2.58100 29.66400
H  1.07100 1.74100 28.14800
H  0.73100 0.75200 26.35500
H  -0.04000 0.35900 24.90600
H  -1.05900 0.73500 26.38300
H  -1.82900 6.83400 22.47100
H  -0.33100 9.47300 22.34800
H  0.50900 7.36500 20.88000
H  -0.18100 5.81600 21.43400
H  1.04300 6.49600 22.30500
H  -2.95400 9.35500 23.54800
H  -2.95900 8.69100 21.86400
H  -1.67300 11.20400 21.78700
H  -3.35600 11.26500 22.42400
H  -3.01500 10.63200 20.83800
H  -1.27900 13.30700 25.55000
H  0.54200 13.50800 25.23100
H  -0.10100 13.99300 26.78600
H  -0.93000 11.76100 30.99800
H  1.03200 11.67900 34.51700
H  2.03400 13.07300 33.95000
H  2.42600 11.37400 33.54000
Mg 49.93200 46.25400 43.27100
C  46.61900 46.24600 42.10600
C  49.88300 42.85500 42.69100
C  53.24000 46.29100 43.90300
C  49.66100 49.55100 43.76200
N  48.35400 44.75700 42.48600
C  47.08900 44.92800 42.00800
C  46.37100 43.57000 41.68100
C  47.48600 42.50800 41.98900
C  48.61800 43.45100 42.43400
C  47.18200 41.46300 43.08700
C  45.61400 43.56400 40.31600
C  45.95000 42.37000 39.40400
H  45.26000 42.25100 38.02300
N  51.38000 44.74800 43.28500
C  51.12800 43.43700 42.99300
C  52.36600 42.77900 43.14900
C  53.42100 43.73300 43.48200
C  52.70300 45.00700 43.57900
C  52.51000 41.23200 42.93000
C  54.89400 43.41200 43.53500
O  55.24800 42.23800 43.42700
C  55.81600 44.48000 43.95200
N  51.23100 47.74700 43.66200
C  52.54200 47.47400 43.96700
C  53.25300 48.82700 44.24400
C  52.08100 49.90200 44.22700
C  50.93100 49.05400 43.82300
C  54.15300 48.82900 45.52400
C  52.34400 51.11800 43.32500
C  53.69000 51.91200 43.50700
N  48.48200 47.71700 42.99200
C  48.48100 49.00300 43.40200
C  47.10100 49.62500 43.24700
C  46.36000 48.51000 42.68900
C  47.19100 47.39200 42.56200
C  46.73900 51.01000 43.52900
C  45.05700 48.16400 42.11900
O  44.08700 48.82500 41.83900
C  45.15500 46.59800 41.90000
C  44.25200 45.96000 42.89600
O  44.22200 46.05300 44.09200
O  43.19400 45.38500 42.21500
C  42.13200 44.74800 42.97200
H  49.88500 41.77400 42.53300
H  54.26600 46.37000 44.26900
H  49.67300 50.60500 44.04600
H  45.56600 43.35800 42.38500
H  47.84100 41.93100 41.13500
H  46.14900 41.50200 43.43400
H  47.75400 41.48300 44.01400
H  47.34200 40.48900 42.62500
H  45.98400 44.43800 39.78000
H  44.53700 43.65800 40.45900
H  45.87800 41.39800 39.89200
H  46.99800 42.59100 39.19700
H  53.08400 41.15300 42.00800
H  51.60100 40.63400 42.99700
H  53.08600 40.82900 43.76400
H  55.46100 44.98100 44.85300
H  55.92400 45.20200 43.14300
H  56.74600 43.96100 44.18500
H  53.83800 49.07100 43.35700
H  51.90900 50.22700 45.25300
H  54.33700 47.81500 45.88100
H  53.74800 49.45300 46.32100
H  55.13300 49.25200 45.30300
H  51.51600 51.81700 43.44000
H  52.33800 50.83000 42.27300
H  54.30900 51.80800 42.61600
H  54.38200 51.68500 44.31800
H  53.45000 52.95500 43.71400
H  46.14700 51.38300 42.69300
H  47.58800 51.69200 43.57700
H  46.20000 51.11300 44.47100
H  44.77800 46.30200 40.92100
H  42.43000 43.73700 43.25100
H  41.27200 44.70700 42.30300
H  41.83100 45.22300 43.90500

