158

Mg -2.32100 17.14200 25.75200
C  -2.39500 14.74800 28.43900
C  -3.24400 19.48100 28.05900
C  -2.33700 19.31000 23.29900
C  -2.18100 14.47300 23.56200
N  -2.84000 17.02300 27.98200
C  -2.72800 16.00900 28.86600
C  -3.24100 16.42300 30.27900
C  -3.77800 17.82100 30.00900
C  -3.33700 18.17200 28.54200
C  -5.33300 17.95600 30.07000
C  -2.13200 16.50800 31.39300
C  -2.20100 15.58600 32.63100
H  -2.74400 16.20800 33.91000
N  -2.61600 19.09100 25.71500
C  -2.86800 19.88900 26.78900
C  -2.88300 21.24500 26.36200
C  -2.53700 21.27800 25.01800
C  -2.52200 19.89800 24.61800
C  -3.20000 22.41800 27.23100
C  -2.24900 22.47100 24.18000
O  -2.02500 22.33600 23.00500
C  -2.03500 23.89100 24.80100
N  -2.59300 16.84100 23.68700
C  -2.41100 17.95000 22.93400
C  -2.26900 17.56600 21.47500
C  -2.05100 16.01700 21.52100
C  -2.27400 15.78100 23.00300
C  -3.51900 17.92900 20.70000
C  -0.69900 15.54900 20.81900
C  0.47100 15.90600 21.74700
N  -2.29000 15.06700 25.90400
C  -2.25000 14.09800 24.93700
C  -2.04200 12.77000 25.46000
C  -2.09500 12.95800 26.84600
C  -2.19000 14.36800 27.07700
C  -1.95400 11.52800 24.69800
C  -2.02600 12.28400 28.14700
O  -1.87000 11.13300 28.40400
C  -2.15400 13.44100 29.28000
C  -0.94300 13.40100 30.07900
O  0.00600 14.10700 29.89900
O  -1.13700 12.58300 31.24700
C  0.10400 12.37700 32.08300
H  -3.47600 20.24700 28.80200
H  -2.16300 19.97000 22.44600
H  -2.00800 13.69300 22.81700
H  -4.06200 15.77400 30.58400
H  -3.47200 18.57800 30.73200
H  -5.63100 17.49900 31.01300
H  -5.76800 17.60600 29.13400
H  -5.59100 18.98400 30.32700
H  -2.13800 17.50100 31.84300
H  -1.13800 16.37500 30.96600
H  -1.25500 15.07100 32.79900
H  -2.87400 14.76400 32.38600
H  -2.45600 23.21100 27.30000
H  -3.50500 22.15500 28.24400
H  -4.12200 22.75800 26.76000
H  -1.70200 24.62500 24.06700
H  -1.29100 23.89100 25.59700
H  -2.98400 24.32000 25.12200
H  -1.42000 18.14700 21.11400
H  -2.84900 15.50600 20.98300
H  -3.21100 18.69400 19.98800
H  -4.26400 18.49300 21.26100
H  -3.97900 17.06200 20.22500
H  -0.58100 16.00400 19.83600
H  -0.80600 14.47500 20.67200
H  0.61600 15.08300 22.44700
H  0.38100 16.95600 22.02700
H  1.29000 15.77200 21.04200
H  -1.14800 11.53100 23.96400
H  -2.93900 11.22900 24.33900
H  -1.68700 10.71400 25.37200
H  -2.87900 13.17600 30.04900
H  -0.05100 12.89200 33.03100
H  1.03800 12.80100 31.71300
H  0.30700 11.33700 32.33900
Mg 47.16000 34.97400 28.30800
C  45.25100 33.04100 30.72200
C  47.39300 37.37100 30.65000
C  48.50800 36.85400 25.86500
C  46.68400 32.32300 26.01100
N  46.32700 35.10600 30.43400
C  45.81600 34.21400 31.26400
C  45.82600 34.68200 32.72500
C  46.19400 36.13300 32.59300
C  46.68700 36.22900 31.12700
C  45.03300 37.09900 32.79500
C  46.86100 33.74700 33.49300
C  46.92800 33.65000 35.05500
H  46.00800 34.59600 35.90700
N  47.93300 36.80100 28.32300
C  47.99300 37.66800 29.38200
C  48.76100 38.83300 29.01000
C  49.15200 38.70200 27.66600
C  48.60000 37.37000 27.22000
C  48.72400 40.02000 29.89400
C  49.76200 39.71400 26.78200
O  50.09000 39.48400 25.62500
C  50.06400 41.12300 27.28200
N  47.67400 34.61600 26.23100
C  48.02400 35.60600 25.37500
C  47.92700 35.20800 23.90900
C  47.69100 33.63700 24.05100
C  47.34600 33.50400 25.52900
C  46.78700 35.91300 23.15000
C  48.95900 32.68300 23.66200
C  50.34400 32.81500 24.45400
N  46.14900 33.13900 28.35400
C  46.01700 32.20800 27.27900
C  45.22700 31.05400 27.64800
C  44.87000 31.39400 28.99700
C  45.48700 32.63800 29.37200
C  44.96400 29.82900 26.82900
C  44.14600 30.90100 30.18100
O  43.61200 29.79300 30.36200
C  44.23900 31.98400 31.28400
C  44.50700 31.53000 32.65600
O  45.43500 30.84800 33.01200
O  43.41500 31.97900 33.42700
C  43.44300 31.57200 34.83900
H  47.61700 38.06800 31.46000
H  48.70400 37.58400 25.07600
H  46.37100 31.56500 25.28900
H  44.80100 34.52300 33.06100
H  47.00400 36.30500 33.30100
H  44.99100 37.86600 32.02300
H  45.19800 37.59900 33.75000
H  44.08900 36.55600 32.83100
H  47.77500 34.17100 33.07800
H  46.84800 32.72900 33.10400
H  47.92200 33.92300 35.40800
H  46.87900 32.59700 35.33400
H  48.16200 40.79900 29.38000
H  49.74400 40.40400 29.87300
H  48.33800 39.86100 30.90100
H  50.30600 41.62800 26.34700
H  50.87100 41.11100 28.01400
H  49.20100 41.56400 27.78200
H  48.88000 35.53200 23.49100
H  46.79600 33.26900 23.55000
H  47.18900 36.34100 22.23200
H  46.44300 36.73300 23.78200
H  45.95900 35.23600 22.94500
H  49.09800 32.96500 22.61800
H  48.56700 31.66600 23.68000
H  50.28700 33.55100 25.25700
H  51.11800 33.09200 23.73900
H  50.61600 31.86400 24.91200
H  45.70800 29.05000 26.99300
H  45.03000 30.11200 25.77900
H  43.98700 29.39400 27.03900
H  43.35000 32.59600 31.43500
H  44.06700 30.72700 35.13000
H  42.41900 31.25100 35.03300
H  43.74400 32.41200 35.46500

