158

Mg 9.98300 47.44800 25.33400
C  7.73100 47.82900 27.94600
C  12.25800 49.07800 27.17400
C  11.89200 47.36400 22.72600
C  7.11700 46.69400 23.26100
N  10.01300 48.18400 27.32900
C  9.00800 48.14700 28.30700
C  9.48500 48.56900 29.64400
C  10.78700 49.36900 29.30000
C  11.02100 48.82500 27.87600
C  10.78200 50.89600 29.53100
C  9.76900 47.31500 30.62300
C  9.89500 47.70200 32.09000
H  9.71300 46.58000 33.06800
N  11.90000 48.03400 24.95000
C  12.64200 48.73000 25.81900
C  14.01500 48.93600 25.22400
C  13.97900 48.39000 23.91900
C  12.56800 47.90500 23.82400
C  15.17200 49.50800 25.98300
C  15.01500 48.35000 22.83800
O  14.80700 47.90500 21.66800
C  16.37000 48.74900 23.23300
N  9.50000 47.16000 23.31800
C  10.56000 46.96900 22.42600
C  10.09600 46.27600 21.07600
C  8.57700 45.95000 21.37700
C  8.36500 46.61500 22.73100
C  10.27700 47.14700 19.77300
C  8.31500 44.42800 21.40900
C  8.83500 43.53800 22.52300
N  7.89700 47.23100 25.52300
C  6.84900 46.90900 24.66800
C  5.56700 46.97800 25.25900
C  5.90300 47.30300 26.56300
C  7.27500 47.43900 26.69200
C  4.12800 46.85400 24.61900
C  5.25900 47.48600 27.82300
O  4.08100 47.16800 28.09900
C  6.44300 47.77300 28.82000
C  6.34800 46.73200 29.92500
O  6.50600 45.49500 29.74400
O  6.16400 47.41000 31.13700
C  6.05300 46.58200 32.28800
H  12.98000 49.59200 27.81200
H  12.45100 47.26600 21.79300
H  6.36000 46.32600 22.56500
H  8.75900 49.18100 30.18000
H  11.59400 49.01800 29.94300
H  11.58800 51.18800 30.20300
H  9.80700 51.25000 29.86700
H  11.02200 51.47300 28.63800
H  10.71000 46.91300 30.24700
H  9.10500 46.46900 30.44800
H  9.15700 48.48300 32.27400
H  10.86900 48.12000 32.34500
H  14.91000 49.48100 27.04000
H  15.47200 50.51500 25.69200
H  16.09600 48.93000 25.99800
H  16.97400 48.69200 22.32700
H  16.82600 48.04200 23.92500
H  16.20600 49.77200 23.57200
H  10.66300 45.37500 20.84000
H  7.98400 46.31200 20.53700
H  11.09600 46.73500 19.18300
H  10.53900 48.15000 20.10900
H  9.43200 47.20500 19.08700
H  8.71700 44.00900 20.48700
H  7.24200 44.27600 21.29200
H  9.53500 42.81600 22.10100
H  8.02600 42.86300 22.80100
H  9.20900 44.20400 23.30000
H  3.90500 45.97700 24.01200
H  4.14500 47.70200 23.93500
H  3.40700 47.09300 25.40100
H  6.21800 48.71300 29.32400
H  5.29800 45.83100 32.05600
H  5.86800 47.11300 33.22200
H  7.06600 46.18500 32.35000
Mg -1.71500 34.08300 27.05100
C  -3.57900 32.28200 29.35600
C  -0.24600 35.86100 29.67300
C  -0.24500 36.21400 24.78200
C  -3.35900 32.61000 24.44200
N  -1.99700 34.24400 29.17300
C  -2.73000 33.25400 29.90100
C  -2.50400 33.41200 31.38600
C  -1.57400 34.65200 31.43000
C  -1.24600 34.92000 30.01300
C  -2.26600 35.81200 32.13000
C  -1.89300 32.06800 31.84400
C  -2.59900 31.41200 32.99000
H  -2.04200 31.41600 34.45600
N  -0.23300 35.70500 27.20000
C  0.27600 36.19400 28.39400
C  1.32300 37.13300 28.04500
C  1.25300 37.31200 26.58700
C  0.18900 36.44400 26.14800
C  2.21200 37.83000 29.14500
C  2.06600 38.29300 25.75100
O  1.86900 38.43600 24.57800
C  3.02100 39.11200 26.36200
N  -1.86300 34.46300 24.93200
C  -1.22700 35.40200 24.28700
C  -1.72100 35.56300 22.81100
C  -2.50400 34.25600 22.60000
C  -2.62300 33.74400 24.05500
C  -2.56400 36.83600 22.53500
C  -1.64500 33.22600 21.78000
C  -2.44000 32.65100 20.60000
N  -3.05500 32.65400 26.86000
C  -3.60800 32.10000 25.75200
C  -4.49400 31.02000 26.15200
C  -4.54800 31.13000 27.53900
C  -3.65500 32.09100 27.92800
C  -5.24400 30.14600 25.23500
C  -5.08200 30.47300 28.69000
O  -5.86800 29.51600 28.78000
C  -4.52000 31.25000 29.95800
C  -5.75700 31.81900 30.63400
O  -6.65800 32.36400 30.05600
O  -5.88200 31.39700 32.00800
C  -6.80900 32.14000 32.91500
H  0.17700 36.31700 30.57000
H  0.28900 36.88500 24.10600
H  -3.80100 32.20900 23.52800
H  -3.50900 33.56800 31.77900
H  -0.63100 34.61100 31.97500
H  -1.83100 36.74900 31.78200
H  -2.01300 35.67800 33.18100
H  -3.33500 35.74600 31.93000
H  -0.88700 32.21700 32.23600
H  -1.83300 31.28700 31.08600
H  -2.76900 30.37600 32.69600
H  -3.58000 31.87200 33.10700
H  2.00800 37.61700 30.19400
H  2.14200 38.91800 29.17200
H  3.26200 37.61000 28.95100
H  3.78900 38.53000 26.87100
H  2.39900 39.67300 27.05900
H  3.46500 39.86300 25.70700
H  -0.85400 35.66100 22.15800
H  -3.52800 34.35600 22.23900
H  -3.59700 36.63700 22.24800
H  -1.99100 37.30700 21.73600
H  -2.53400 37.49800 23.40000
H  -1.35800 32.37700 22.40100
H  -0.68500 33.67500 21.52800
H  -2.33900 33.30500 19.73400
H  -3.51600 32.60600 20.76800
H  -1.92100 31.70400 20.45500
H  -4.73100 29.71000 24.37800
H  -6.10700 30.67700 24.83400
H  -5.60000 29.21300 25.67200
H  -3.88200 30.58000 30.53400
H  -6.25000 32.79400 33.58500
H  -7.55900 31.55500 33.44700
H  -7.38700 32.91100 32.40500

