158

Mg 41.95200 41.11500 26.48200
C  41.32400 43.46800 29.12500
C  42.86400 38.82300 28.96400
C  43.41100 39.19200 24.07500
C  41.47000 43.64600 24.25600
N  42.12700 41.17500 28.78600
C  41.77900 42.19800 29.64000
C  41.75500 41.74400 31.10700
C  42.48700 40.38700 30.99900
C  42.42300 40.05700 29.48400
C  43.89500 40.42800 31.62100
C  40.39700 41.76900 31.85600
C  40.57000 41.29300 33.37900
H  40.01200 42.23900 34.46000
N  43.02000 39.27500 26.52600
C  43.12000 38.40900 27.61200
C  43.59800 37.09300 27.04600
C  43.77300 37.16000 25.64000
C  43.39700 38.58400 25.32400
C  43.76600 35.85100 27.82800
C  44.31900 36.10100 24.63600
O  44.57500 36.35900 23.47400
C  44.56500 34.66100 25.12600
N  42.39200 41.39200 24.48300
C  42.93800 40.47100 23.66400
C  42.58700 40.71200 22.17600
C  41.76300 42.05100 22.24200
C  41.88800 42.38400 23.76600
C  43.83200 40.72500 21.22600
C  40.20500 41.75900 21.92600
C  39.39700 40.94900 22.94300
N  41.42000 43.14600 26.58300
C  41.36600 44.07500 25.60300
C  41.08100 45.39800 26.06600
C  40.90400 45.18400 27.52300
C  41.23800 43.81300 27.74300
C  40.79900 46.55300 25.23200
C  40.63200 45.88000 28.77500
O  40.35000 47.04000 29.06500
C  40.78700 44.78000 29.84100
C  41.71800 45.32800 30.79900
O  42.91600 45.62900 30.52700
O  41.15600 45.44900 32.03900
C  42.04600 46.19500 32.93900
H  43.19900 38.07800 29.69000
H  43.72300 38.51500 23.27600
H  41.35800 44.35300 23.43200
H  42.20100 42.54000 31.70400
H  41.86900 39.60800 31.44600
H  44.28700 41.38600 31.96200
H  44.52400 40.00300 30.83800
H  43.90900 39.81500 32.52200
H  39.75300 41.08500 31.30300
H  39.99500 42.78000 31.91200
H  41.58000 41.00400 33.67000
H  39.91800 40.42000 33.43000
H  42.93400 35.18700 27.58900
H  43.52400 35.96800 28.88400
H  44.76900 35.43800 27.71900
H  44.71400 33.92600 24.33400
H  43.72300 34.27800 25.70200
H  45.53200 34.73100 25.62400
H  41.95500 39.88200 21.86000
H  42.23100 42.72600 21.52500
H  44.72800 40.59200 21.83300
H  43.82300 41.63500 20.62700
H  43.75700 39.89300 20.52600
H  40.08900 41.23300 20.97900
H  39.74800 42.73600 21.76900
H  38.89700 41.52800 23.72000
H  39.78600 40.01200 23.34100
H  38.64800 40.46400 22.31700
H  40.01700 46.22700 24.54500
H  41.71500 46.84900 24.72000
H  40.46200 47.35800 25.88300
H  39.80100 44.63500 30.28200
H  41.72000 46.01100 33.96300
H  41.92400 47.27600 32.87500
H  43.09100 45.88400 32.94100
Mg 0.74900 43.30200 26.09300
C  2.87100 43.35100 28.87700
C  -1.85900 42.57000 28.36300
C  -1.03800 42.43900 23.45900
C  3.70200 43.84100 24.03300
N  0.53600 43.23200 28.39500
C  1.54600 43.38000 29.28200
C  1.02600 43.47100 30.67700
C  -0.52700 42.96800 30.46500
C  -0.67900 42.94800 28.97000
C  -0.72900 41.58600 31.04500
C  1.08200 44.87700 31.36200
C  1.13700 44.81100 32.86100
H  0.82600 43.52200 33.63000
N  -1.21600 42.71500 25.95000
C  -2.07200 42.41100 26.93800
C  -3.30000 41.92000 26.36500
C  -3.15700 41.92200 24.89300
C  -1.74600 42.33700 24.75000
C  -4.55500 41.63100 27.14000
C  -4.13700 41.47600 23.83500
O  -3.87500 41.46800 22.63600
C  -5.55400 41.03600 24.18100
N  1.34400 43.00800 23.99500
C  0.29800 42.71100 23.07300
C  0.84000 42.84400 21.68300
C  2.27700 43.50300 21.86700
C  2.51000 43.42100 23.38100
C  0.84500 41.44600 20.87000
C  2.34500 44.98500 21.31700
C  2.17200 46.11400 22.23700
N  2.92100 43.57700 26.32400
C  3.98100 43.74200 25.39700
C  5.25000 43.67600 26.09700
C  4.85300 43.61000 27.50400
C  3.38800 43.42200 27.53900
C  6.61400 43.80500 25.54200
C  5.32400 43.56000 28.92600
O  6.41400 43.61400 29.38900
C  4.11100 43.43800 29.82500
C  4.18600 42.23300 30.63300
O  3.93800 41.10200 30.26400
O  4.72900 42.48100 31.88300
C  4.84700 41.47900 32.91600
H  -2.71600 42.29100 28.97900
H  -1.69900 42.09000 22.66300
H  4.62600 44.02900 23.48200
H  1.63200 42.69800 31.14900
H  -1.24200 43.66700 30.89900
H  -0.94800 40.90800 30.22000
H  -1.51600 41.53000 31.79700
H  0.16700 41.05600 31.37000
H  0.19100 45.46000 31.12800
H  1.99600 45.39500 31.07000
H  0.46800 45.58700 33.23300
H  2.13600 45.09800 33.18700
H  -4.66800 40.55300 27.25700
H  -5.36000 42.14100 26.61200
H  -4.69200 42.16400 28.08200
H  -5.41600 40.26800 24.94300
H  -5.98200 40.37300 23.42900
H  -6.19800 41.85900 24.49000
H  0.10600 43.40600 21.10600
H  2.90100 42.78900 21.33100
H  1.82900 41.19900 20.47200
H  0.24100 41.65900 19.98700
H  0.58500 40.59800 21.50300
H  1.60600 45.05600 20.51900
H  3.26300 45.02600 20.73100
H  1.69600 45.73900 23.14300
H  1.46400 46.88700 21.93600
H  3.14000 46.54900 22.48500
H  7.04300 44.80600 25.58400
H  6.53800 43.50400 24.49700
H  7.28700 43.04400 25.93600
H  4.10500 44.28000 30.51700
H  5.83500 41.57200 33.36600
H  4.62500 40.47100 32.56800
H  4.12500 41.79000 33.67200

