158

Mg 23.34600 -6.39200 46.89800
C  25.73000 -3.95900 45.86100
C  21.07000 -4.84100 44.80200
C  21.51800 -9.20700 47.11800
C  25.94200 -7.97400 48.60700
N  23.45500 -4.55200 45.50400
C  24.49100 -3.67500 45.35000
C  24.07400 -2.60000 44.41500
C  22.48800 -2.73500 44.45600
C  22.32800 -4.14900 44.94100
C  21.72900 -1.73000 45.42200
C  24.69700 -2.73300 43.05900
C  25.01400 -1.45900 42.31400
H  24.23400 -1.28300 40.99700
N  21.48700 -6.88800 46.08300
C  20.68900 -6.11100 45.28100
C  19.48300 -6.86400 45.02800
C  19.53600 -8.09700 45.69300
C  20.91900 -8.09800 46.34900
C  18.35100 -6.30400 44.11300
C  18.47300 -9.13400 45.80900
O  17.43000 -8.91900 45.23700
C  18.66400 -10.38800 46.44200
N  23.72300 -8.25200 47.73800
C  22.73700 -9.28500 47.76400
C  23.15600 -10.50300 48.65000
C  24.57400 -10.07000 49.07900
C  24.81100 -8.67100 48.43300
C  22.21600 -10.64000 49.85700
C  25.60700 -11.19200 48.75200
C  26.14900 -11.25100 47.22900
N  25.44200 -5.97200 47.26200
C  26.29100 -6.73400 47.95600
C  27.56700 -6.02600 48.05600
C  27.40300 -4.89500 47.21300
C  26.09000 -5.01100 46.69500
C  28.77200 -6.55900 48.72000
C  28.07400 -3.74300 46.65900
O  29.19100 -3.29200 46.84400
C  26.96500 -3.09400 45.71500
C  26.66200 -1.66700 46.07700
O  26.43800 -1.20900 47.20700
O  26.71500 -0.86300 44.95100
C  26.44500 0.51600 45.26600
H  20.19500 -4.30000 44.43700
H  21.03300 -10.18300 47.05300
H  26.73500 -8.46100 49.17800
H  24.30700 -1.67000 44.93400
H  22.02800 -2.68700 43.46900
H  22.45200 -1.13400 45.97800
H  21.16700 -2.28700 46.17100
H  20.94200 -1.24000 44.84800
H  24.05000 -3.31800 42.40500
H  25.67600 -3.16900 43.25600
H  26.06600 -1.30000 42.07800
H  24.76400 -0.67500 43.02900
H  17.88700 -7.15400 43.61300
H  18.70700 -5.59700 43.36500
H  17.58700 -5.84300 44.73900
H  19.38000 -11.00100 45.89400
H  17.66600 -10.82700 46.45600
H  18.92300 -10.09500 47.45900
H  23.12600 -11.44600 48.10400
H  24.66100 -9.97600 50.16100
H  21.94100 -11.69200 49.93900
H  21.29100 -10.07900 49.72300
H  22.54900 -10.32100 50.84400
H  25.24300 -12.21300 48.86900
H  26.47800 -11.05400 49.39400
H  27.20900 -11.49600 47.16800
H  26.05500 -10.27800 46.74600
H  25.57900 -11.99100 46.66800
H  28.78100 -6.82700 49.77600
H  29.38800 -5.67400 48.55700
H  29.21400 -7.38300 48.16000
H  27.48400 -3.25000 44.76900
H  25.35900 0.60100 45.21200
H  26.97200 1.15200 44.55600
H  26.77000 1.07500 46.14300
Mg -0.26100 43.86600 26.35600
C  1.71800 42.90600 28.84800
C  -3.03600 42.92700 28.22800
C  -2.29400 44.60500 23.67000
C  2.50900 44.44700 24.22700
N  -0.64800 42.98000 28.32100
C  0.37300 42.79800 29.24400
C  -0.22100 42.47300 30.61800
C  -1.68500 42.16700 30.28800
C  -1.81900 42.82000 28.88200
C  -2.12100 40.69800 30.23900
C  -0.04800 43.75500 31.54800
C  0.05500 43.67000 33.05200
H  -0.07000 42.21600 33.72200
N  -2.36400 43.73100 25.99500
C  -3.32100 43.42700 26.96100
C  -4.63200 43.71600 26.36900
C  -4.41800 44.12500 25.01400
C  -2.99300 44.11500 24.82000
C  -5.89700 43.44800 27.08700
C  -5.50400 44.48300 23.98200
O  -5.25100 44.74600 22.83000
C  -6.98000 44.48800 24.31200
N  0.02000 44.27500 24.20500
C  -0.98300 44.70000 23.37700
C  -0.34400 45.05100 22.01400
C  1.09700 45.45800 22.43400
C  1.20400 44.76400 23.79800
C  -0.42500 43.96600 20.85000
C  1.26900 46.96700 22.45800
C  0.15800 47.80400 23.26900
N  1.70400 43.58800 26.38800
C  2.71400 43.91600 25.50800
C  4.00700 43.65100 26.20600
C  3.64600 43.21800 27.51500
C  2.25900 43.13700 27.54700
C  5.38200 43.89200 25.69100
C  4.22200 42.96700 28.79500
O  5.41500 42.81400 29.05800
C  3.02300 42.95800 29.81600
C  3.20300 41.91000 30.84000
O  2.93300 40.73400 30.66000
O  3.69900 42.35500 32.01300
C  4.01600 41.32200 33.03900
H  -3.92400 42.84500 28.85800
H  -2.89700 44.74700 22.77000
H  3.18900 45.05400 23.62500
H  0.29500 41.62900 31.07600
H  -2.42400 42.71500 30.87200
H  -2.11400 40.42200 29.18400
H  -3.11100 40.60200 30.68600
H  -1.37800 40.09100 30.75600
H  -0.93600 44.31600 31.25700
H  0.80900 44.31600 31.17700
H  -0.61100 44.43700 33.44700
H  1.05100 44.02300 33.32200
H  -6.57600 44.28300 26.91200
H  -5.75600 43.41500 28.16800
H  -6.23800 42.52400 26.61900
H  -7.50300 44.89600 23.44700
H  -7.26100 45.09300 25.17500
H  -7.27100 43.45000 24.47100
H  -0.89300 45.94300 21.71100
H  1.83900 45.14200 21.70200
H  -1.45500 43.84200 20.51400
H  -0.12800 43.00800 21.27600
H  0.13800 44.38800 20.01700
H  1.46300 47.36200 21.46100
H  2.21100 47.12600 22.98200
H  0.05000 48.77700 22.78800
H  0.55800 48.02900 24.25700
H  -0.85700 47.44700 23.44300
H  5.63500 42.93400 25.23700
H  6.15700 44.10500 26.42800
H  5.33000 44.65000 24.91000
H  2.85500 43.94100 30.25600
H  3.05500 40.92100 33.36000
H  4.51300 41.76200 33.90300
H  4.64000 40.50200 32.68200

