158

Mg -1.91400 17.78400 27.41300
C  -2.18000 15.54900 30.01500
C  -2.39100 20.43400 29.54900
C  -1.81300 19.95100 24.78700
C  -1.51200 15.04800 25.15200
N  -2.26500 17.93900 29.60000
C  -2.36500 16.88500 30.52500
C  -2.79700 17.41400 31.89400
C  -2.72000 18.92300 31.74900
C  -2.41800 19.17200 30.19200
C  -3.85800 19.74700 32.37200
C  -1.98100 16.77900 33.05600
C  -1.83800 17.47800 34.41200
H  -0.78100 16.98000 35.38700
N  -2.01500 19.84900 27.21200
C  -2.19200 20.76100 28.21900
C  -2.23600 22.09400 27.70100
C  -1.94300 22.01300 26.35100
C  -1.87100 20.52600 26.01300
C  -2.28900 23.35700 28.56900
C  -1.70300 23.09200 25.38700
O  -1.48500 22.90700 24.18900
C  -1.78200 24.59000 25.74900
N  -1.87700 17.51200 25.20900
C  -1.83500 18.57500 24.37900
C  -1.74200 18.12900 22.94400
C  -1.36300 16.63800 23.08500
C  -1.64900 16.32400 24.56800
C  -3.14400 18.33900 22.21000
C  0.11800 16.28400 22.56200
C  1.20900 16.90700 23.38700
N  -1.87900 15.74800 27.53000
C  -1.71200 14.77300 26.53000
C  -1.90300 13.50100 27.10700
C  -2.07800 13.75800 28.50200
C  -2.01700 15.14900 28.71100
C  -1.92300 12.14800 26.41900
C  -2.33700 13.06200 29.77100
O  -2.64300 11.88700 30.07800
C  -2.31400 14.23100 30.79200
C  -1.15600 13.98700 31.66100
O  -0.04200 14.40400 31.46500
O  -1.49900 13.20800 32.69500
C  -0.41600 12.66700 33.52500
H  -2.64700 21.19500 30.28900
H  -1.61200 20.61400 23.94300
H  -1.26500 14.23200 24.47000
H  -3.82200 17.04500 31.86800
H  -1.84900 19.22300 32.33200
H  -3.57300 20.77300 32.60200
H  -4.34000 19.22700 33.20000
H  -4.63400 19.79600 31.60700
H  -0.99800 16.45300 32.71700
H  -2.57000 15.87800 33.22700
H  -2.83400 17.49800 34.85400
H  -1.66000 18.55200 34.34900
H  -1.29100 23.79000 28.51000
H  -2.44800 23.19500 29.63500
H  -3.06400 24.02600 28.19500
H  -2.69900 24.85500 26.27600
H  -1.68700 25.21200 24.85900
H  -0.83600 24.71100 26.27600
H  -0.97100 18.67800 22.40300
H  -1.97600 15.91100 22.55200
H  -3.75600 17.46900 22.44900
H  -2.92200 18.45000 21.14900
H  -3.67500 19.14200 22.72200
H  0.42500 16.70300 21.60300
H  0.23800 15.20200 22.60300
H  1.03200 17.49000 24.29200
H  1.81400 17.59400 22.79600
H  1.97400 16.21700 23.74300
H  -1.79700 12.23200 25.33900
H  -2.86900 11.63700 26.59700
H  -1.17900 11.46300 26.82500
H  -3.23600 14.19000 31.37300
H  0.07200 11.77700 33.12700
H  -0.98200 12.28200 34.37300
H  0.37000 13.36500 33.81200
Mg 48.18900 34.91000 27.81900
C  46.29700 33.28500 30.22900
C  48.34800 37.66800 30.07400
C  49.37100 36.99900 25.39700
C  47.62700 32.44800 25.60800
N  47.39800 35.35200 29.92100
C  46.79400 34.45500 30.74600
C  46.86300 35.02800 32.20600
C  47.06000 36.50600 31.93300
C  47.68100 36.50600 30.55300
C  45.80600 37.41500 32.22300
C  48.14700 34.34800 32.87600
C  48.44700 34.51700 34.36700
H  47.54100 35.48600 35.20300
N  48.84800 36.98100 27.74900
C  48.90000 37.88900 28.81400
C  49.66300 39.02000 28.43500
C  49.91000 38.93600 27.02700
C  49.28500 37.61400 26.63200
C  49.95600 40.16800 29.39200
C  50.65100 39.92300 26.02900
O  50.80500 39.62700 24.86200
C  51.12300 41.29000 26.50800
N  48.22200 34.89100 25.73700
C  48.88300 35.74900 24.94400
C  48.99300 35.21900 23.51400
C  48.63900 33.69600 23.69900
C  48.16500 33.66900 25.12900
C  48.07500 36.07100 22.54600
C  49.83900 32.82700 23.33600
C  49.39400 31.58200 22.52900
N  47.23800 33.09500 27.87700
C  47.04300 32.17500 26.94100
C  46.41100 30.96700 27.43800
C  46.08600 31.36800 28.72900
C  46.58700 32.71900 28.95900
C  45.93600 29.69800 26.76000
C  45.31600 31.07100 29.99100
O  44.61800 30.08700 30.24500
C  45.38500 32.29200 30.93200
C  45.76200 31.74800 32.33100
O  46.66700 31.00500 32.59300
O  44.82400 32.12300 33.21900
C  45.11100 31.79400 34.62700
H  48.48500 38.39600 30.87600
H  49.75300 37.54700 24.53300
H  47.49000 31.71300 24.81100
H  45.98400 34.69200 32.75600
H  47.71000 36.95500 32.68400
H  44.92100 36.87200 32.55400
H  45.40600 38.05900 31.44100
H  45.91900 38.04400 33.10600
H  49.07500 34.66700 32.40100
H  48.18100 33.26400 32.77200
H  49.44700 34.89800 34.57300
H  48.43500 33.58200 34.92800
H  50.97000 40.54500 29.25400
H  49.92700 39.87900 30.44200
H  49.27100 41.00400 29.25300
H  50.43200 41.71800 27.23400
H  51.13300 41.91000 25.61100
H  52.13900 41.23400 26.89900
H  50.04000 35.34900 23.24000
H  47.75000 33.39600 23.14400
H  47.18400 35.44600 22.50300
H  48.47400 36.42300 21.59500
H  47.98200 37.00300 23.10400
H  50.34500 32.48400 24.23800
H  50.62300 33.38200 22.82000
H  48.82100 31.83200 21.63600
H  48.71800 31.02600 23.17800
H  50.18800 30.91400 22.19600
H  44.98200 29.56600 26.25000
H  45.73300 28.92700 27.50300
H  46.71400 29.35600 26.07700
H  44.44100 32.82700 31.03800
H  46.05300 31.28400 34.82800
H  44.25700 31.14100 34.80700
H  45.14400 32.74800 35.15400

