158

Mg 48.90700 34.49200 27.15200
C  46.90400 33.42000 29.87500
C  49.69800 37.22700 29.12000
C  50.79000 35.73400 24.66800
C  47.70700 31.89700 25.27000
N  48.44200 35.14100 29.35700
C  47.74700 34.46100 30.25600
C  47.84000 35.14400 31.60500
C  48.39900 36.58000 31.25100
C  48.84600 36.39000 29.79200
C  47.42400 37.78400 31.24300
C  48.86300 34.41500 32.56300
C  48.50600 34.27300 34.05300
H  48.99700 35.48000 34.95800
N  50.10900 36.29100 26.86200
C  50.37100 37.21500 27.84400
C  51.22400 38.19900 27.22000
C  51.53800 37.84200 25.91000
C  50.83600 36.58600 25.74800
C  51.71500 39.41100 27.88500
C  52.40400 38.57900 24.83100
O  52.63600 38.07900 23.75600
C  53.06000 39.87400 25.12200
N  49.06900 33.97200 25.14100
C  49.97500 34.59000 24.33600
C  50.14900 33.79200 22.99200
C  49.27800 32.48600 23.24200
C  48.58400 32.77900 24.60900
C  49.77500 34.66200 21.77700
C  50.14200 31.17400 23.18800
C  50.46100 30.65200 21.71000
N  47.52800 33.01300 27.40800
C  47.12200 31.99700 26.55800
C  46.15700 31.12600 27.26000
C  45.93500 31.73300 28.48600
C  46.87100 32.80700 28.59600
C  45.58400 29.82500 26.58500
C  45.21000 31.62300 29.79600
O  44.43800 30.82300 30.29900
C  45.76000 32.75700 30.70600
C  46.33300 32.04600 31.86800
O  47.22600 31.23100 31.79300
O  45.76600 32.40500 33.02500
C  46.25200 31.60400 34.14400
H  50.02800 38.06800 29.73400
H  51.53500 35.96100 23.90300
H  47.48300 31.04400 24.62600
H  46.91800 35.25300 32.17500
H  49.32000 36.81700 31.78500
H  46.98800 37.95700 30.26000
H  47.97300 38.69300 31.49000
H  46.68900 37.58700 32.02300
H  49.90200 34.72200 32.44600
H  48.82600 33.37100 32.25000
H  49.00200 33.37900 34.43200
H  47.42600 34.14800 33.98000
H  51.39000 40.29900 27.34200
H  52.80400 39.37300 27.91100
H  51.36600 39.53600 28.91000
H  53.78900 39.74100 25.92300
H  52.36000 40.68400 25.32300
H  53.52600 40.27500 24.22300
H  51.19400 33.50800 22.87300
H  48.50200 32.25000 22.51400
H  48.78500 34.36900 21.42800
H  50.47800 34.39800 20.98700
H  49.92700 35.74000 21.83700
H  49.83500 30.40600 23.89800
H  51.13600 31.54700 23.43600
H  49.74900 31.10500 21.02200
H  50.42700 29.56400 21.77100
H  51.49500 30.88500 21.45500
H  46.39000 29.15400 26.29100
H  44.98400 30.10900 25.72100
H  44.99600 29.26100 27.30900
H  44.89500 33.36000 30.98100
H  47.30000 31.78900 34.37700
H  46.02900 30.54300 34.02800
H  45.69100 31.96700 35.00500
Mg 16.98000 51.80000 25.98000
C  19.17000 49.95700 28.21100
C  14.93400 52.27500 28.70000
C  14.86200 53.09400 23.94400
C  18.84900 50.36300 23.44400
N  17.11100 51.27700 28.17800
C  18.08400 50.58800 28.89100
C  17.88000 50.70800 30.38100
C  16.37400 51.02600 30.34400
C  16.09900 51.49900 28.96500
C  15.40500 49.91100 30.85400
C  18.82000 51.81000 31.03800
C  19.19300 51.53900 32.44000
H  18.14400 50.93700 33.31000
N  15.19300 52.71900 26.30600
C  14.48000 52.88300 27.49700
C  13.40000 53.81700 27.32400
C  13.34100 54.09500 25.85200
C  14.44300 53.29100 25.26600
C  12.57200 54.40600 28.48000
C  12.41500 54.98800 25.08500
O  12.64600 55.26900 23.92300
C  11.25400 55.69900 25.76200
N  16.74400 51.44400 23.86200
C  15.82300 52.29100 23.26400
C  16.24800 52.62300 21.82600
C  17.69500 52.02100 21.73800
C  17.84400 51.23200 23.11300
C  15.27400 51.93300 20.80700
C  18.87400 53.09500 21.59600
C  19.83900 52.92300 20.41500
N  18.65800 50.45800 25.80700
C  19.21200 49.89200 24.71200
C  20.28700 48.98400 25.07200
C  20.30700 49.05600 26.47000
C  19.30300 49.92200 26.84400
C  21.20200 48.14000 24.09900
C  21.03400 48.59100 27.63700
O  22.08200 47.92500 27.72200
C  20.32400 49.18200 28.84000
C  19.85700 48.16400 29.77900
O  19.17200 47.17000 29.53700
O  20.52300 48.40000 30.96100
C  20.32200 47.35800 32.03200
H  14.27200 52.44500 29.55200
H  14.38400 53.73900 23.20400
H  19.59200 50.10900 22.68400
H  18.05100 49.67300 30.68000
H  16.16100 51.93900 30.90000
H  14.84400 49.51500 30.00700
H  14.70600 50.39800 31.53400
H  15.96100 49.08200 31.29100
H  18.25700 52.74100 30.97500
H  19.75700 51.84200 30.48200
H  19.49400 52.51000 32.83400
H  20.03400 50.85300 32.34200
H  12.65500 53.82600 29.39900
H  11.52000 54.57300 28.25200
H  13.12100 55.33100 28.65800
H  10.75800 56.28500 24.98800
H  11.79400 56.28200 26.50800
H  10.59100 54.96400 26.21700
H  16.27200 53.70700 21.72300
H  17.73000 51.39700 20.84500
H  14.25500 52.03200 21.17900
H  15.54300 50.89400 20.61500
H  15.20700 52.45600 19.85300
H  19.28500 52.92100 22.59000
H  18.48400 54.11200 21.54200
H  19.53100 52.05200 19.83600
H  20.88300 52.83000 20.71100
H  19.80400 53.83400 19.81700
H  21.77300 47.31300 24.52200
H  22.01800 48.78500 23.77600
H  20.53100 47.79000 23.31500
H  20.97400 49.82600 29.43300
H  20.64700 46.40900 31.60800
H  19.30000 47.16200 32.35600
H  21.00600 47.68400 32.81600

