158

Mg 48.36100 35.21400 27.44100
C  46.39900 33.50000 29.78900
C  48.86400 37.72100 29.50800
C  49.67100 36.92100 24.78400
C  47.60100 32.57700 25.12300
N  47.83400 35.36400 29.45700
C  47.09300 34.59200 30.29600
C  46.92400 35.27600 31.66300
C  47.36000 36.83400 31.44400
C  48.15100 36.58100 30.08000
C  46.22000 37.88600 31.30500
C  47.69700 34.56000 32.81000
C  48.38900 35.36000 34.03600
H  47.53600 36.50600 34.62800
N  49.29900 37.07800 27.23100
C  49.51900 37.96200 28.25400
C  50.28800 39.07100 27.74100
C  50.48400 38.85300 26.35000
C  49.79800 37.59300 26.05100
C  50.77700 40.23000 28.59200
C  51.16300 39.73700 25.33100
O  51.20500 39.42100 24.20500
C  51.76900 41.04200 25.76900
N  48.59700 34.82300 25.32300
C  49.17600 35.67400 24.42000
C  49.24700 35.12500 22.95900
C  48.71900 33.67300 23.15900
C  48.27000 33.64600 24.63500
C  48.41000 36.00900 22.12400
C  49.68800 32.51100 22.72700
C  49.07700 31.29800 21.91800
N  47.33900 33.36200 27.43600
C  47.02900 32.46000 26.44200
C  46.15800 31.34300 26.86300
C  45.91900 31.77500 28.22200
C  46.63000 32.96400 28.48000
C  45.70800 30.08900 26.09300
C  45.18300 31.48600 29.42900
O  44.42400 30.52000 29.62600
C  45.37800 32.63000 30.44600
C  45.94400 32.11900 31.65800
O  47.07400 31.72400 31.90400
O  44.93800 32.12200 32.57600
C  45.18200 31.46400 33.87300
H  48.84600 38.59500 30.16200
H  49.95400 37.46100 23.87800
H  47.38000 31.70500 24.50400
H  45.86000 35.19800 31.88600
H  47.98200 37.37300 32.15800
H  45.37400 37.40000 31.79000
H  45.92900 38.05100 30.26800
H  46.50500 38.83400 31.76200
H  48.55500 33.96100 32.50500
H  46.88900 33.99700 33.27700
H  49.32900 35.68400 33.59000
H  48.71300 34.74700 34.87700
H  50.54600 41.20100 28.15400
H  51.84600 40.12900 28.78000
H  50.38200 40.20200 29.60800
H  50.95400 41.73400 25.98200
H  52.30700 41.36200 24.87700
H  52.44900 41.07300 26.62000
H  50.32200 35.15500 22.78000
H  47.76600 33.64000 22.63100
H  49.11900 36.61600 21.56200
H  47.70900 36.66700 22.63700
H  47.96100 35.40900 21.33300
H  50.22200 32.11100 23.58900
H  50.45300 32.96500 22.09700
H  47.99000 31.30800 21.84200
H  49.46100 30.36300 22.32600
H  49.32900 31.38200 20.86100
H  46.46100 29.41200 25.69000
H  45.19400 30.46200 25.20600
H  44.88700 29.54700 26.56200
H  44.44700 33.16300 30.64200
H  45.97600 32.10400 34.25800
H  45.62500 30.47600 33.74800
H  44.28900 31.41900 34.49700
Mg -10.43100 16.52400 41.22800
C  -6.89100 16.21900 41.77700
C  -9.88300 19.83100 40.65800
C  -13.62700 16.77600 40.31500
C  -10.59400 13.07300 41.14900
N  -8.58100 17.78800 41.12100
C  -7.27500 17.49300 41.47600
C  -6.39800 18.74800 41.35100
C  -7.45700 19.84000 41.59900
C  -8.71900 19.16400 41.02100
C  -7.60800 20.50600 43.06500
C  -5.79100 18.78300 39.96100
C  -4.33500 18.37900 39.77000
H  -3.97200 17.16300 38.86500
N  -11.67300 18.18600 40.67400
C  -11.24700 19.46500 40.51100
C  -12.38600 20.23200 40.02800
C  -13.50400 19.32900 39.89200
C  -12.98300 18.06000 40.24600
C  -12.39200 21.72700 39.88200
C  -14.96500 19.72100 39.29600
O  -15.14700 20.84800 38.88000
C  -15.99700 18.71900 38.88900
N  -11.92500 15.19300 40.71300
C  -13.19000 15.50700 40.56600
C  -14.08300 14.25800 40.46300
C  -13.12000 13.10900 40.80200
C  -11.78500 13.82900 40.85900
C  -15.33400 14.30200 41.39300
C  -13.28100 11.83000 39.86500
C  -13.70200 10.45600 40.40800
N  -9.05400 14.89100 41.50100
C  -9.24300 13.55200 41.41500
C  -7.99800 12.82700 41.67000
C  -7.08400 13.90100 41.93400
C  -7.76900 15.10200 41.70800
C  -7.84900 11.30600 41.80600
C  -5.68200 14.18400 42.23500
O  -4.77800 13.39000 42.52400
C  -5.50300 15.72600 42.25900
C  -5.04100 16.12800 43.56200
O  -3.90200 16.43300 43.77100
O  -6.01100 16.01800 44.46800
C  -5.74900 16.53900 45.83400
H  -9.69400 20.90000 40.53900
H  -14.68600 16.87100 40.06400
H  -10.79500 12.01600 41.33600
H  -5.55100 18.85000 42.03000
H  -7.13500 20.67400 40.97500
H  -8.37800 19.96600 43.61700
H  -7.79200 21.57600 42.96700
H  -6.76900 20.35300 43.74300
H  -5.82100 19.81500 39.61300
H  -6.32600 18.06600 39.33800
H  -4.00800 18.20700 40.79600
H  -3.86400 19.28600 39.38900
H  -13.26200 22.12500 40.40500
H  -12.54000 21.87500 38.81200
H  -11.45600 22.24200 40.09500
H  -15.60500 17.78700 38.48300
H  -16.74100 19.26900 38.31300
H  -16.42900 18.50500 39.86700
H  -14.39400 14.11300 39.42900
H  -13.22900 12.78000 41.83500
H  -15.20600 15.14200 42.07600
H  -15.57900 13.35900 41.88100
H  -16.20000 14.46500 40.75200
H  -12.31700 11.68700 39.37700
H  -14.10900 11.96200 39.16900
H  -14.70100 10.13400 40.11200
H  -13.77100 10.52400 41.49300
H  -13.01300 9.69500 40.04000
H  -6.90000 11.01500 42.25600
H  -7.82300 10.90200 40.79400
H  -8.69500 10.84900 42.32100
H  -4.64800 15.91300 41.60900
H  -4.71100 16.73900 46.10000
H  -6.23900 15.76700 46.42700
H  -6.26800 17.48200 46.00700

