158

Mg -13.20400 15.88200 41.52600
C  -10.06300 14.26300 41.22000
C  -11.89000 18.56000 39.77600
C  -16.33500 17.18700 41.12600
C  -14.52300 12.74400 42.37400
N  -11.20100 16.31500 40.67300
C  -10.06700 15.53100 40.61600
C  -8.89700 16.24300 39.89600
C  -9.57100 17.62400 39.46100
C  -11.00100 17.47800 39.98200
C  -8.87300 18.80100 40.11100
C  -8.19700 15.46200 38.64600
C  -6.67300 15.85300 38.56800
H  -6.19200 16.38900 37.29400
N  -13.98600 17.67100 40.76300
C  -13.22600 18.65500 40.14700
C  -14.05400 19.80400 39.98100
C  -15.41100 19.48800 40.29100
C  -15.29300 18.05000 40.77700
C  -13.45600 21.12200 39.45000
C  -16.59000 20.28500 40.00400
O  -16.60200 21.45600 39.51400
C  -17.98600 19.77000 40.22000
N  -15.13900 15.12000 41.67500
C  -16.26500 15.84800 41.60500
C  -17.52300 14.95500 41.81400
C  -16.98900 13.66000 42.29400
C  -15.44600 13.82300 42.11000
C  -18.67100 15.53800 42.75100
C  -17.53900 12.31800 41.59300
C  -18.15500 11.13500 42.47000
N  -12.41600 13.97300 42.03700
C  -13.08300 12.82900 42.31500
C  -12.17800 11.75400 42.56000
C  -10.98200 12.32800 42.02800
C  -11.18800 13.64400 41.72900
C  -12.42800 10.36300 43.00400
C  -9.54400 11.91500 41.76800
O  -8.93000 10.85900 42.10200
C  -8.95300 13.22000 41.23200
C  -7.78400 13.51500 42.10300
O  -7.88300 14.04200 43.19400
O  -6.61100 13.19100 41.49600
C  -5.46000 13.75500 42.22800
H  -11.57400 19.44300 39.21700
H  -17.39100 17.46300 41.08400
H  -14.91500 11.77700 42.69800
H  -8.24400 16.47200 40.73800
H  -9.57000 17.84300 38.39300
H  -9.03200 19.72300 39.55300
H  -7.81600 18.53800 40.15900
H  -9.24300 18.94800 41.12500
H  -8.55500 15.92900 37.72800
H  -8.25800 14.38200 38.51000
H  -6.19400 14.93300 38.90400
H  -6.45300 16.70900 39.20600
H  -13.13000 21.01300 38.41600
H  -12.60900 21.58500 39.95600
H  -14.22500 21.89400 39.45200
H  -18.26500 19.89000 41.26600
H  -18.12600 18.82000 39.70400
H  -18.65500 20.33900 39.57400
H  -18.05300 14.69800 40.89700
H  -17.06800 13.55400 43.37600
H  -19.64000 15.43700 42.26400
H  -18.53100 16.59200 42.99100
H  -18.69600 15.02800 43.71300
H  -16.74400 11.80800 41.04900
H  -18.39500 12.50300 40.94400
H  -17.98400 11.12000 43.54700
H  -17.61500 10.25600 42.11800
H  -19.21500 10.91800 42.34100
H  -11.52800 9.77100 43.16900
H  -13.10200 10.02200 42.21800
H  -13.01100 10.42800 43.92300
H  -8.50900 13.00000 40.26100
H  -5.14400 13.07600 43.02000
H  -5.69400 14.75400 42.59700
H  -4.72900 13.91600 41.43600
Mg -6.52900 24.48200 25.88700
C  -4.91800 26.02300 28.53700
C  -8.59900 22.77400 28.16500
C  -7.82800 22.52100 23.45400
C  -4.40000 26.00500 23.72900
N  -6.71300 24.33300 28.02300
C  -5.97100 25.13000 28.91000
C  -6.38400 24.85800 30.38400
C  -7.24300 23.57800 30.22200
C  -7.59500 23.57100 28.72900
C  -6.52200 22.28000 30.70600
C  -7.21500 26.12900 30.80900
C  -7.03600 26.47400 32.33100
H  -6.39600 25.41200 33.21000
N  -8.13900 23.03900 25.84400
C  -8.89100 22.54400 26.86300
C  -9.84500 21.60400 26.32100
C  -9.58300 21.45900 24.93300
C  -8.49200 22.39600 24.66100
C  -10.87900 20.97100 27.20800
C  -10.31000 20.63700 23.94100
O  -10.02600 20.57100 22.79600
C  -11.53400 19.81700 24.39800
N  -5.94300 24.07900 23.99200
C  -6.72800 23.29700 23.11200
C  -6.43800 23.55200 21.64500
C  -5.36500 24.70400 21.68500
C  -5.21100 24.95400 23.23900
C  -5.88900 22.20400 21.05700
C  -5.79300 25.95100 20.89800
C  -4.91400 26.64800 19.94200
N  -4.96800 25.73800 26.02300
C  -4.20400 26.34500 25.04600
C  -3.24700 27.21300 25.68300
C  -3.38100 26.99000 27.05900
C  -4.52200 26.18300 27.20200
C  -2.29400 28.19400 25.02300
C  -2.89700 27.33900 28.41200
O  -1.97800 28.04200 28.75400
C  -3.89700 26.70800 29.43600
C  -3.02400 25.70400 30.08100
O  -2.81100 24.56500 29.67600
O  -2.42000 26.31700 31.13300
C  -1.41500 25.48100 31.78700
H  -9.22000 22.40100 28.98200
H  -8.31900 22.10000 22.57500
H  -3.71500 26.50800 23.04300
H  -5.48000 24.74800 30.98200
H  -8.17400 23.66900 30.78200
H  -6.86100 22.01800 31.70900
H  -5.44500 22.41900 30.61100
H  -6.81700 21.49900 30.00500
H  -8.25600 25.92300 30.55900
H  -6.95200 27.00800 30.22000
H  -8.02000 26.65100 32.76600
H  -6.31700 27.28900 32.41800
H  -11.80500 21.54700 27.21400
H  -10.53500 20.93500 28.24200
H  -10.99900 19.91900 26.94700
H  -11.22400 18.92500 24.94200
H  -12.14800 19.37700 23.61200
H  -12.22100 20.40300 25.00800
H  -7.35300 23.86800 21.14400
H  -4.32800 24.43300 21.49100
H  -5.02000 22.53300 20.48700
H  -6.59100 21.96100 20.26000
H  -5.65300 21.38300 21.73400
H  -6.09500 26.73400 21.59400
H  -6.70800 25.67500 20.37300
H  -3.92800 26.19300 20.03600
H  -4.95900 27.73200 20.04800
H  -5.42700 26.48700 18.99400
H  -2.11100 27.97000 23.97200
H  -1.28100 28.08000 25.41000
H  -2.64100 29.22700 24.99900
H  -4.33900 27.46500 30.08400
H  -1.63400 25.25000 32.83000
H  -0.62100 26.22300 31.86500
H  -1.18900 24.48700 31.40200

