158

Mg 31.10300 59.44000 39.08000
C  28.40100 57.09500 38.08300
C  33.22200 56.94600 38.48600
C  33.43400 61.72900 39.61100
C  28.48600 61.87700 39.32900
N  30.78500 57.27700 38.36700
C  29.62900 56.44100 38.21600
C  30.02200 54.97700 38.09700
C  31.61900 55.03000 38.26000
C  31.90400 56.53700 38.41400
C  32.25200 54.00300 39.29400
C  29.44100 54.24300 36.83100
C  30.00500 54.70000 35.46000
H  29.08800 54.86500 34.21200
N  33.00400 59.35300 39.12400
C  33.74600 58.23900 38.85000
C  35.16700 58.53800 39.03800
C  35.28100 59.87700 39.43600
C  33.88300 60.43900 39.44600
C  36.26900 57.55800 38.68500
C  36.54800 60.69900 39.73100
O  37.64800 60.15700 39.54400
C  36.57100 62.09700 40.19700
N  30.96100 61.57700 39.36400
C  32.12800 62.27100 39.65600
C  31.80600 63.70600 40.08000
C  30.20500 63.71600 39.95000
C  29.85000 62.27700 39.61600
C  32.24200 64.11600 41.42400
C  29.71000 64.80100 38.89000
C  28.81000 65.91400 39.51600
N  28.94100 59.57100 38.73100
C  28.04800 60.59800 38.92600
C  26.70700 60.24200 38.46900
C  26.82200 58.85000 38.23200
C  28.18400 58.49600 38.40400
C  25.46800 61.24400 38.33300
C  26.00200 57.69500 37.96200
O  24.78100 57.59400 37.89800
C  26.95100 56.50000 37.79300
C  26.54100 55.54800 38.83900
O  26.54700 55.76800 40.01500
O  25.91500 54.47300 38.28800
C  25.53300 53.44200 39.30300
H  33.93000 56.12200 38.59500
H  34.13500 62.55600 39.74400
H  27.68700 62.61900 39.38500
H  29.54100 54.57400 38.98900
H  32.02400 54.76800 37.28300
H  32.82600 54.63200 39.97500
H  33.01200 53.37500 38.82900
H  31.65300 53.36800 39.94700
H  28.35300 54.21500 36.88700
H  29.81200 53.22900 36.97900
H  30.86100 54.09900 35.15400
H  30.35300 55.72100 35.61800
H  36.04200 56.57800 38.26400
H  36.74400 57.39100 39.65200
H  37.04000 58.00000 38.05400
H  35.95100 62.23200 41.08300
H  36.26000 62.69300 39.33900
H  37.58800 62.27300 40.54900
H  32.22800 64.35400 39.31100
H  29.77900 63.89700 40.93700
H  31.50300 63.82500 42.17100
H  32.57300 65.15400 41.41800
H  33.14500 63.60100 41.75100
H  29.13600 64.38300 38.06400
H  30.56200 65.38200 38.53500
H  29.24600 66.90900 39.43500
H  28.56300 65.82300 40.57400
H  27.82200 65.87800 39.05500
H  25.26700 61.45700 39.38300
H  24.66400 60.80800 37.74000
H  25.72900 62.22600 37.93900
H  26.77900 56.07300 36.80500
H  26.29300 53.31500 40.07400
H  25.32700 52.52500 38.75000
H  24.59100 53.76700 39.74500
Mg -10.13500 17.14500 40.74600
C  -6.74800 15.94300 40.68100
C  -8.98200 20.15700 39.71300
C  -13.26400 17.95000 40.02800
C  -11.00700 13.65800 40.69200
N  -8.11700 17.85100 40.28600
C  -6.89100 17.28700 40.37100
C  -5.70200 18.26400 39.91300
C  -6.49100 19.63500 40.15500
C  -7.97100 19.20700 39.97900
C  -6.12400 20.43300 41.53900
C  -5.31100 17.94800 38.44200
C  -3.79300 17.61800 38.21600
H  -3.49400 16.31600 37.45600
N  -10.99600 18.82800 40.04100
C  -10.37500 19.96200 39.62600
C  -11.36000 20.99700 39.32900
C  -12.62800 20.40600 39.67500
C  -12.33100 19.00200 40.01300
C  -10.93300 22.36900 38.94000
C  -13.98200 21.12600 39.69400
O  -14.07100 22.26000 39.28100
C  -15.29000 20.55300 40.26400
N  -11.95300 15.96800 40.33400
C  -13.14700 16.57500 40.16500
C  -14.23400 15.57400 40.13600
C  -13.50800 14.20700 40.22100
C  -12.05500 14.59900 40.40500
C  -15.27100 15.65300 41.32800
C  -13.71700 13.26200 38.93400
C  -13.29300 13.76900 37.59600
N  -9.06200 15.28200 40.96700
C  -9.63000 13.99200 40.91200
C  -8.59000 13.00700 41.13100
C  -7.38600 13.72300 40.98100
C  -7.74500 15.08700 40.87000
C  -8.65300 11.48400 41.30300
C  -5.93000 13.65600 40.94300
O  -5.16800 12.72200 41.06200
C  -5.44600 15.09300 40.73500
C  -4.66100 15.55900 41.93800
O  -3.84700 16.48300 41.99900
O  -4.92700 14.78100 43.07000
C  -4.01100 14.79900 44.23200
H  -8.63100 21.13500 39.38000
H  -14.29300 18.24100 39.80700
H  -11.24500 12.59500 40.61300
H  -4.87100 18.23900 40.61900
H  -6.26400 20.24100 39.27800
H  -7.03900 20.50700 42.12700
H  -5.67400 21.37900 41.23800
H  -5.41900 19.87700 42.15700
H  -5.64600 18.66000 37.68900
H  -5.90400 17.06000 38.22300
H  -3.38800 17.58700 39.22800
H  -3.36000 18.46600 37.68400
H  -10.75900 22.87300 39.89000
H  -11.76900 22.84100 38.42300
H  -9.96800 22.46000 38.44100
H  -15.16800 19.96300 41.17200
H  -15.72700 19.97700 39.44800
H  -16.05300 21.30400 40.47100
H  -14.90400 15.71300 39.28800
H  -13.78100 13.68800 41.14000
H  -15.26600 14.73300 41.91300
H  -16.25900 15.67600 40.86700
H  -15.14900 16.41700 42.09600
H  -14.80400 13.18800 38.91300
H  -13.18600 12.33900 39.17000
H  -14.01300 13.67400 36.78300
H  -12.46100 13.15800 37.24500
H  -13.05800 14.83300 37.58800
H  -8.05500 10.97000 40.55100
H  -9.63300 11.00700 41.32200
H  -8.28500 11.38200 42.32400
H  -4.86600 15.04000 39.81400
H  -3.10200 14.25800 43.97100
H  -4.48900 14.49200 45.16300
H  -3.68700 15.81200 44.46900

