158

Mg 9.08300 3.15000 27.62200
C  9.92800 1.40400 30.59200
C  6.85600 5.03200 29.47500
C  8.01300 4.54500 24.75700
C  10.75400 0.68600 25.78900
N  8.64600 3.34000 29.79600
C  9.12500 2.52200 30.77900
C  8.61100 2.97400 32.13200
C  7.48300 4.06900 31.72900
C  7.67400 4.19000 30.23300
C  6.00600 3.69500 32.19100
C  9.69100 3.54700 33.10200
C  9.08000 4.37100 34.19200
H  9.61400 3.96300 35.57000
N  7.58100 4.56800 27.21500
C  6.79400 5.30900 28.08600
C  5.96700 6.28800 27.33000
C  6.38900 6.14400 25.93800
C  7.35500 5.02400 25.93300
C  4.99100 7.17400 28.00800
C  5.90400 6.91000 24.73100
O  6.18200 6.69100 23.57100
C  4.87400 7.86800 25.02900
N  9.30900 2.69300 25.55800
C  8.82600 3.43600 24.55500
C  9.20700 2.93600 23.11500
C  9.95900 1.62100 23.50900
C  10.03400 1.62200 25.05800
C  8.05600 2.61400 22.15800
C  11.35500 1.57000 22.84000
C  11.58300 0.53300 21.72200
N  10.16800 1.40700 28.03900
C  10.75600 0.49700 27.15300
C  11.30400 -0.53400 27.98800
C  11.13600 -0.11600 29.36500
C  10.35500 0.98200 29.32200
C  11.94400 -1.77400 27.50500
C  11.44100 -0.53100 30.67100
O  12.10200 -1.45000 31.03700
C  10.66100 0.47100 31.57800
C  9.78600 -0.38300 32.39800
O  8.65800 -0.82600 32.10000
O  10.38300 -0.49300 33.68100
C  9.53200 -1.10600 34.73300
H  6.22100 5.70700 30.05200
H  7.75700 5.07100 23.83400
H  11.07300 -0.06100 25.06000
H  8.21700 2.07700 32.61000
H  7.69100 5.04300 32.17200
H  6.10000 2.75900 32.74200
H  5.21600 3.50800 31.46300
H  5.52600 4.39100 32.87800
H  10.51200 3.96600 32.52000
H  10.12100 2.66100 33.56800
H  8.02800 4.13500 34.34700
H  9.33800 5.43000 34.16200
H  5.42200 8.17500 27.99000
H  4.90900 7.09500 29.09200
H  4.02300 7.16200 27.50800
H  3.97500 7.29200 25.25100
H  4.76100 8.44500 24.11100
H  5.29400 8.46100 25.84100
H  9.86500 3.72000 22.74100
H  9.26300 0.80100 23.33200
H  7.12000 2.73300 22.70400
H  8.14700 1.59500 21.78200
H  8.03700 3.28800 21.30100
H  12.10000 1.44100 23.62600
H  11.64500 2.54000 22.43800
H  10.65600 0.42000 21.16100
H  11.92200 -0.43200 22.10000
H  12.37500 0.94800 21.09800
H  12.29500 -2.42900 28.30200
H  12.89700 -1.44100 27.09300
H  11.42400 -2.39300 26.77400
H  11.16500 1.03800 32.36100
H  10.15300 -1.81900 35.27400
H  8.76300 -1.61000 34.14600
H  8.96400 -0.31900 35.22900
Mg 48.08200 44.81600 41.66100
C  44.65600 44.13000 41.59600
C  48.63100 41.30500 41.30400
C  51.37900 45.23300 41.32500
C  47.41000 48.11200 41.43500
N  46.80100 42.95400 41.30000
C  45.37400 42.95500 41.40800
C  44.84200 41.54400 41.45600
C  46.10600 40.72800 41.36100
C  47.29400 41.68700 41.39800
C  46.19400 39.65600 42.44600
C  43.80900 41.17800 40.32300
C  43.89200 41.84800 38.95700
H  43.64500 41.15600 37.66100
N  49.78100 43.44400 41.30000
C  49.79100 42.12000 41.19600
C  51.15000 41.64900 41.09900
C  52.00200 42.73700 41.33100
C  51.06900 43.87000 41.34800
C  51.46800 40.15700 41.19300
C  53.44500 42.66500 41.75100
O  54.05700 41.60000 41.66800
C  54.28700 43.90600 42.08400
N  49.24100 46.43600 41.26200
C  50.59200 46.41600 41.31500
C  51.13600 47.87800 41.17500
C  49.89000 48.76300 41.29900
C  48.78100 47.71400 41.30900
C  52.34800 48.32300 42.08500
C  49.77600 49.93800 40.23100
C  49.30700 51.28800 40.85700
N  46.39800 45.97800 41.67500
C  46.28500 47.30300 41.62200
C  44.92300 47.74500 41.79500
C  44.19700 46.50800 41.82500
C  45.14200 45.48700 41.68700
C  44.43800 49.16300 41.87200
C  42.86000 45.87000 41.87500
O  41.74000 46.31000 42.13500
C  43.14000 44.26800 41.77400
C  42.51700 43.48700 42.84900
O  41.39900 42.85500 42.73200
O  43.35300 43.38500 43.92600
C  42.93500 42.38600 44.93100
H  48.88000 40.24900 41.42700
H  52.45700 45.39200 41.24700
H  47.04200 49.13200 41.30800
H  44.43300 41.37900 42.45300
H  46.09500 40.16800 40.42600
H  45.22100 39.31900 42.80300
H  46.77600 39.81300 43.35400
H  46.51400 38.69400 42.04600
H  42.80100 41.25700 40.73000
H  43.91900 40.13300 40.03200
H  44.80500 42.44400 38.93400
H  43.08700 42.58400 38.96000
H  51.72800 39.99000 42.23900
H  52.30800 39.72600 40.64900
H  50.68900 39.54400 40.74000
H  54.28900 44.50700 41.17500
H  55.36000 43.73100 42.16400
H  53.71800 44.40000 42.87100
H  51.60000 47.88300 40.18900
H  50.00600 49.10200 42.32800
H  53.29100 48.49700 41.56700
H  52.54100 47.51700 42.79300
H  52.18500 49.19900 42.71300
H  49.17000 49.69000 39.35900
H  50.80200 50.08200 39.89300
H  48.26600 51.36400 40.54400
H  49.96200 52.10400 40.55200
H  49.21200 51.31400 41.94300
H  43.41700 49.24900 42.24300
H  44.41100 49.48500 40.83100
H  45.02600 49.76300 42.56700
H  42.65600 43.87700 40.88000
H  43.76700 42.17500 45.60400
H  42.70100 41.41800 44.48800
H  42.17400 42.78900 45.59700

