158

Mg 46.56900 24.37400 28.95500
C  47.63000 26.71400 31.29700
C  45.72100 22.32200 31.55800
C  46.10600 21.92700 26.70300
C  47.85500 26.48500 26.41800
N  46.79800 24.44600 31.21200
C  47.03400 25.61200 31.96800
C  46.76100 25.44000 33.47200
C  46.29900 23.95800 33.49700
C  46.18100 23.53600 32.03400
C  47.15600 22.99100 34.35700
C  45.69100 26.39900 33.97500
C  45.52500 26.83400 35.52800
H  46.33900 26.15700 36.70300
N  45.85200 22.45500 29.11100
C  45.52100 21.82000 30.26600
C  45.09100 20.45500 29.90900
C  45.10900 20.27200 28.50600
C  45.73800 21.53800 28.05000
C  44.66500 19.40600 30.89800
C  44.67900 19.13200 27.60200
O  44.71700 19.19100 26.37600
C  44.05600 18.06900 28.25900
N  47.19900 24.14800 26.88000
C  46.70100 23.09900 26.16200
C  46.93400 23.28400 24.64700
C  47.49600 24.71000 24.59100
C  47.47800 25.21900 26.01600
C  47.89500 22.24500 24.03500
C  46.79700 25.66900 23.56700
C  47.79200 26.53700 22.71500
N  47.66500 26.15800 28.86200
C  47.98400 26.94000 27.72600
C  48.67900 28.20100 28.15900
C  48.48300 28.12300 29.55100
C  47.93000 26.87300 29.93600
C  49.46900 29.14500 27.36400
C  48.75400 28.89800 30.77300
O  49.29800 29.99000 30.92200
C  48.13600 27.93000 31.91600
C  49.17900 27.89400 32.99500
O  50.31900 27.33100 32.92200
O  48.70900 28.43400 34.12500
C  49.50500 28.51700 35.37200
H  45.43800 21.68400 32.39800
H  46.07900 21.12800 25.95900
H  48.29600 27.15200 25.67500
H  47.69600 25.57400 34.01500
H  45.25400 23.85000 33.78800
H  47.79700 23.63600 34.95700
H  47.72200 22.37600 33.65700
H  46.51400 22.27600 34.87100
H  44.68500 26.10100 33.68000
H  45.90000 27.32300 33.43600
H  44.46600 26.70100 35.75100
H  45.54300 27.92300 35.57200
H  44.76700 19.67800 31.94800
H  45.32800 18.57200 30.66700
H  43.62800 19.13500 30.70100
H  43.16700 18.38900 28.80300
H  44.86400 17.63900 28.85000
H  43.86000 17.34200 27.47100
H  46.03200 23.14600 24.05000
H  48.53900 24.58500 24.30300
H  48.31100 21.68700 24.87400
H  48.77000 22.64100 23.52000
H  47.46500 21.58300 23.28400
H  46.15200 26.28300 24.19600
H  46.12800 25.14400 22.88600
H  47.43700 27.56700 22.69200
H  47.76700 26.25200 21.66300
H  48.79300 26.64100 23.13500
H  50.31000 29.45800 27.98200
H  48.92200 30.08300 27.27300
H  49.84800 28.64500 26.47300
H  47.36100 28.59000 32.30800
H  49.46900 29.55800 35.69500
H  50.53900 28.17300 35.33800
H  49.00600 27.83200 36.05700
Mg 16.54500 51.56200 26.78200
C  18.71800 50.46100 29.47400
C  14.46300 52.62700 29.01900
C  14.70700 52.59700 24.20700
C  19.08800 50.45200 24.65600
N  16.71300 51.63000 28.95300
C  17.59600 51.17300 29.87900
C  17.21000 51.48800 31.34800
C  15.74600 51.97500 31.08300
C  15.58300 52.08200 29.58700
C  14.66100 51.07400 31.69000
C  18.14100 52.48600 32.10000
C  18.45800 52.13100 33.55600
H  17.33600 51.58000 34.44600
N  14.79500 52.49500 26.69700
C  14.02500 52.88900 27.76100
C  12.86600 53.56700 27.29100
C  13.01400 53.65900 25.91200
C  14.15900 52.79400 25.51000
C  11.90100 54.19300 28.21000
C  12.18200 54.37100 24.84300
O  12.37900 54.41600 23.66100
C  11.03100 55.21400 25.20600
N  16.90600 51.55300 24.76500
C  15.92400 51.96500 23.86600
C  16.43900 51.94100 22.40600
C  17.79600 51.18500 22.55500
C  17.99300 51.07300 24.07100
C  15.39900 51.44000 21.30700
C  18.89000 51.88500 21.71000
C  20.09000 51.02700 21.16300
N  18.49700 50.54600 26.96100
C  19.39200 50.17200 25.98300
C  20.56700 49.53400 26.58100
C  20.28800 49.52600 27.98300
C  19.10300 50.29300 28.13400
C  21.77100 49.10000 25.89300
C  20.75800 49.16800 29.27200
O  21.82600 48.63900 29.61700
C  19.74500 49.74800 30.31400
C  19.26600 48.77700 31.29500
O  18.36400 47.94200 31.08700
O  20.03400 48.77500 32.46600
C  19.52800 47.98500 33.58700
H  13.67600 52.84900 29.74300
H  14.25200 53.00800 23.30400
H  19.85800 50.31700 23.89300
H  17.22900 50.49600 31.80000
H  15.72100 53.00000 31.45100
H  14.12900 51.69000 32.41400
H  15.13100 50.24000 32.21000
H  14.04300 50.63000 30.91000
H  17.81100 53.52400 32.08400
H  19.09400 52.36100 31.58600
H  18.88400 52.96200 34.11900
H  19.25400 51.39800 33.42800
H  12.27400 54.09200 29.23000
H  10.89700 53.77800 28.12700
H  11.91600 55.26700 28.02500
H  11.46900 56.08300 25.69600
H  10.37800 54.67700 25.89400
H  10.50900 55.58000 24.32200
H  16.61500 52.94500 22.01900
H  17.63600 50.18600 22.14900
H  14.90300 52.25300 20.77700
H  14.69400 50.75600 21.78100
H  15.91200 50.88200 20.52400
H  19.19500 52.78100 22.25000
H  18.43200 52.24900 20.79000
H  20.93000 51.67900 21.40200
H  19.97100 50.87200 20.09100
H  20.08100 50.06800 21.68100
H  22.47600 49.04200 26.72300
H  22.10300 49.82600 25.15200
H  21.49300 48.13900 25.45900
H  20.43700 50.42300 30.81700
H  19.85600 46.95000 33.49300
H  18.44600 47.98400 33.44900
H  19.94600 48.39000 34.50800

