158

Mg 8.59300 3.81300 27.64000
C  10.07300 2.52300 30.47900
C  6.66000 5.89100 29.49900
C  7.29600 5.03700 24.65600
C  10.29300 1.32200 25.81200
N  8.36600 4.12600 29.74400
C  9.20200 3.54300 30.77300
C  8.62900 3.95700 32.14000
C  7.35900 4.77100 31.79100
C  7.40700 4.98100 30.24600
C  5.98600 4.13600 32.22400
C  9.69000 4.69100 33.02400
C  9.31700 5.23100 34.41000
H  9.84300 4.56300 35.69400
N  7.19100 5.28400 27.14500
C  6.52900 6.03300 28.09200
C  5.62500 6.91400 27.41200
C  5.83100 6.74700 25.98400
C  6.84400 5.71100 25.80100
C  4.67100 7.77500 28.15900
C  5.07600 7.48900 24.86700
O  5.28500 7.16800 23.73200
C  4.14300 8.55400 25.21700
N  8.80100 3.31700 25.49500
C  8.19200 3.97900 24.50100
C  8.65700 3.41200 23.11900
C  9.42000 2.13600 23.50400
C  9.54100 2.24400 25.01900
C  7.48700 3.32500 22.06100
C  10.72100 1.86100 22.73100
C  10.66500 0.42600 22.06900
N  9.88900 2.25100 28.01100
C  10.51200 1.33400 27.19300
C  11.43300 0.50200 27.88800
C  11.33600 0.93200 29.18800
C  10.33700 1.95500 29.24800
C  12.31500 -0.68800 27.36300
C  11.80200 0.77300 30.62800
O  12.66200 0.02300 31.06700
C  10.95100 1.76400 31.49200
C  10.08900 1.02300 32.59200
O  9.00000 0.62700 32.44500
O  10.79600 1.06100 33.81800
C  10.16900 0.23400 34.91800
H  6.16500 6.46300 30.28600
H  6.93000 5.37400 23.68400
H  10.96100 0.64700 25.27200
H  8.31800 3.06500 32.68400
H  7.48800 5.73400 32.28400
H  6.09100 3.10800 32.57300
H  5.34600 4.07000 31.34400
H  5.51800 4.77300 32.97500
H  10.01800 5.61900 32.55600
H  10.48100 3.95700 33.18500
H  8.22900 5.28600 34.42900
H  9.69200 6.25400 34.43300
H  3.71000 7.35800 27.85800
H  4.75100 8.83600 27.92300
H  4.57200 7.75700 29.24500
H  3.84100 9.07100 24.30600
H  4.53900 9.27400 25.93200
H  3.28600 8.11700 25.73100
H  9.36500 4.16100 22.76500
H  8.69700 1.34200 23.31600
H  6.54500 3.58400 22.54600
H  7.60200 2.26900 21.81600
H  7.49400 3.88900 21.12800
H  11.50000 1.98400 23.48400
H  10.75800 2.66500 21.99500
H  11.29400 0.43100 21.17900
H  9.70000 0.09500 21.68500
H  11.00800 -0.31600 22.79000
H  12.32400 -0.84500 26.28500
H  11.74000 -1.56400 27.66500
H  13.30500 -0.57800 27.80500
H  11.62200 2.45800 31.99900
H  9.93500 -0.72900 34.46400
H  9.30400 0.73600 35.35200
H  10.96000 -0.04600 35.61400
Mg 54.40200 24.38100 44.53300
C  52.12500 26.88500 43.76600
C  52.11900 22.00200 43.90800
C  56.87700 22.22400 44.64300
C  56.63400 27.00200 45.46700
N  52.39000 24.52500 43.82100
C  51.58000 25.60800 43.58000
C  50.19300 25.10600 43.23100
C  50.14700 23.62600 43.73300
C  51.65600 23.34200 43.88000
C  49.44700 23.44600 45.11000
C  49.58200 25.41100 41.80600
C  48.01800 25.52300 41.78600
H  47.61200 24.51200 40.68700
N  54.45900 22.36000 44.16300
C  53.43300 21.51900 43.96400
C  53.92100 20.20900 43.97200
C  55.28100 20.23700 44.15900
C  55.61200 21.63000 44.38100
C  53.07100 18.93100 43.83400
C  56.12800 18.96000 44.35900
O  55.58500 17.81500 44.38700
C  57.64900 19.05600 44.76900
N  56.47800 24.66500 44.86200
C  57.27300 23.50000 44.83600
C  58.72200 23.89700 44.96800
C  58.61700 25.48600 45.16500
C  57.21300 25.72000 45.27900
C  59.50100 23.23600 46.10700
C  59.41500 26.23200 44.05900
C  58.61200 26.86000 42.85700
N  54.47300 26.57500 44.56800
C  55.36700 27.42000 45.11200
C  54.85800 28.72400 45.17400
C  53.51700 28.59200 44.69100
C  53.37800 27.21800 44.32400
C  55.58700 29.98600 45.54300
C  52.24900 29.28000 44.36100
O  51.93500 30.47900 44.43700
C  51.33300 28.18800 43.74400
C  50.99400 28.51900 42.34600
O  51.89200 28.44600 41.53900
O  49.75900 29.04600 42.11100
C  49.36000 29.05700 40.68100
H  51.31500 21.26400 43.86500
H  57.69300 21.49900 44.67100
H  57.39500 27.76300 45.64800
H  49.53600 25.57600 43.96300
H  49.65900 23.00700 42.98000
H  49.18400 24.37100 45.62400
H  50.14000 22.87300 45.72500
H  48.52700 22.86200 45.08500
H  49.94000 24.70300 41.05900
H  49.93200 26.34200 41.36000
H  47.64400 26.47400 41.40500
H  47.66500 25.17100 42.75500
H  53.41800 18.08800 43.23700
H  52.14500 19.08100 43.27900
H  52.86900 18.59500 44.85100
H  57.89700 18.03000 45.04300
H  57.59700 19.65700 45.67700
H  58.31100 19.46500 44.00500
H  59.23100 23.61000 44.04700
H  58.96900 25.80500 46.14600
H  60.11200 23.99900 46.59000
H  60.07300 22.42300 45.65900
H  58.73000 22.93500 46.81600
H  60.13800 25.53700 43.63100
H  59.94300 26.99300 44.63600
H  57.57000 26.54900 42.78600
H  59.07700 26.61400 41.90200
H  58.70900 27.93700 42.99900
H  56.64700 29.73400 45.53300
H  55.29400 30.31400 46.54000
H  55.42300 30.75000 44.78300
H  50.34600 28.19600 44.20700
H  49.46000 30.10600 40.40200
H  48.35100 28.68100 40.51100
H  49.97700 28.51000 39.96800

