158

Mg 24.72500 -5.88100 45.41500
C  26.95600 -3.62700 43.90500
C  22.39200 -4.85400 43.03100
C  22.74800 -8.39100 46.23500
C  27.38600 -7.27300 47.12700
N  24.73400 -4.47000 43.64400
C  25.76500 -3.62500 43.23400
C  25.33800 -2.70900 42.11800
C  23.78000 -2.96100 42.03500
C  23.61200 -4.18700 42.93600
C  22.82700 -1.80600 42.46800
C  25.98200 -2.99200 40.77500
C  26.35100 -1.79300 39.81700
H  25.61300 -1.80400 38.51500
N  22.76900 -6.44600 44.85200
C  22.00000 -5.89900 43.89900
C  20.72700 -6.55300 43.89700
C  20.72200 -7.57900 44.88000
C  22.06000 -7.53600 45.42800
C  19.49300 -6.15400 43.01500
C  19.52400 -8.39200 45.20600
O  18.49600 -8.18200 44.58200
C  19.52600 -9.37500 46.28600
N  24.96900 -7.52100 46.64000
C  24.02400 -8.49800 46.70600
C  24.44500 -9.70600 47.49600
C  26.01900 -9.44200 47.67500
C  26.18300 -7.96900 47.11500
C  23.61800 -10.14300 48.71100
C  26.83700 -10.36400 46.72500
C  26.82900 -11.84300 47.05000
N  26.68500 -5.47600 45.62400
C  27.63600 -6.10100 46.46500
C  28.86100 -5.29000 46.38000
C  28.61600 -4.26300 45.45300
C  27.30800 -4.50700 44.97100
C  30.11800 -5.48400 47.15600
C  29.12400 -3.12600 44.78600
O  30.21900 -2.55100 44.84900
C  28.13100 -2.75100 43.61400
C  27.73200 -1.34500 43.59400
O  26.92300 -0.79600 44.29500
O  28.64300 -0.68200 42.86300
C  28.57000 0.72800 42.74000
H  21.58400 -4.43900 42.42500
H  22.15900 -9.27300 46.49500
H  28.27800 -7.68900 47.60000
H  25.29600 -1.66500 42.43000
H  23.40500 -3.01200 41.01300
H  22.06300 -2.27000 43.09300
H  22.28300 -1.41900 41.60600
H  23.42100 -1.05600 42.99000
H  25.34300 -3.61800 40.15300
H  26.82600 -3.65500 40.96500
H  27.42500 -1.97300 39.75900
H  26.15100 -0.82600 40.27700
H  19.24800 -6.85700 42.21900
H  19.71000 -5.24600 42.45200
H  18.69100 -6.00300 43.73800
H  20.00500 -8.92900 47.15800
H  20.13300 -10.21100 45.93800
H  18.53100 -9.81800 46.34900
H  24.25900 -10.46400 46.73500
H  26.34600 -9.56100 48.70800
H  24.20800 -10.46300 49.57100
H  22.95400 -10.94500 48.38800
H  22.95900 -9.32600 49.00400
H  27.88000 -10.05200 46.79400
H  26.51000 -10.33000 45.68600
H  26.40800 -12.36100 46.18800
H  26.21300 -11.96300 47.94100
H  27.83200 -12.17700 47.31500
H  29.85000 -5.24400 48.18500
H  30.95400 -4.83900 46.88700
H  30.47100 -6.51500 47.15600
H  28.61200 -2.96900 42.66000
H  27.60700 1.06000 42.35400
H  29.30700 1.16300 42.06300
H  28.53200 1.31000 43.66000
Mg 36.52300 49.12700 25.78500
C  36.67700 47.09900 28.74400
C  35.69500 51.71600 27.80100
C  36.07100 50.88300 23.01500
C  36.88900 46.15500 23.94500
N  36.31400 49.37100 28.01400
C  36.44400 48.43800 28.97800
C  36.30300 49.05900 30.29300
C  35.65500 50.49800 30.07100
C  35.85400 50.55800 28.57700
C  34.19100 50.64000 30.46700
C  37.62200 49.16800 31.03600
C  37.57600 49.10500 32.60300
H  36.19400 49.35000 33.25700
N  36.18400 51.11800 25.44600
C  35.87400 51.99500 26.43000
C  35.69900 53.36000 25.75900
C  35.86600 53.09800 24.30500
C  36.03600 51.65000 24.17400
C  35.44600 54.72900 26.48400
C  35.78200 54.06000 23.10800
O  35.80300 53.66900 21.93600
C  35.76100 55.54100 23.35600
N  36.33100 48.56300 23.80700
C  36.17000 49.45800 22.78700
C  36.31300 48.81400 21.35500
C  36.90700 47.42900 21.72300
C  36.61400 47.32800 23.23900
C  34.94000 48.73600 20.72700
C  38.49600 47.29400 21.51600
C  39.02700 47.11300 20.08100
N  36.69700 47.04900 26.14900
C  36.97800 46.00200 25.34000
C  37.28100 44.76300 26.03500
C  37.08200 45.15200 27.39400
C  36.79500 46.52700 27.41200
C  37.61100 43.46300 25.46100
C  37.11000 44.66300 28.73600
O  37.27700 43.51700 29.12700
C  36.92000 45.94100 29.66600
C  35.70000 45.70100 30.54500
O  34.58500 45.53100 30.18200
O  36.08300 45.75500 31.85900
C  35.02700 45.52200 32.83700
H  35.37800 52.63300 28.30300
H  36.10100 51.43800 22.07500
H  37.28200 45.29200 23.40200
H  35.59700 48.51400 30.91900
H  36.11700 51.24600 30.71600
H  33.57800 50.77600 29.57500
H  34.12200 51.54700 31.06700
H  33.94100 49.88200 31.20900
H  38.06600 50.11100 30.71800
H  38.26400 48.36600 30.67200
H  38.27100 49.88500 32.91600
H  37.95200 48.11500 32.86100
H  34.73700 55.31500 25.90100
H  36.34600 55.33900 26.55900
H  34.91500 54.56900 27.42200
H  36.56400 55.64300 24.08600
H  34.75600 55.82600 23.66800
H  36.02600 56.01900 22.41200
H  37.02700 49.34500 20.72400
H  36.29600 46.65400 21.26000
H  34.42200 47.79000 20.88100
H  34.94000 48.98800 19.66600
H  34.37000 49.41900 21.35700
H  38.68500 46.37300 22.06800
H  38.96500 48.19600 21.91100
H  38.22200 47.39100 19.40100
H  39.16800 46.03200 20.08300
H  39.85800 47.77500 19.83800
H  38.61700 43.39900 25.04700
H  36.87000 43.15200 24.72400
H  37.56100 42.70900 26.24600
H  37.78700 46.06500 30.31500
H  34.10500 46.03700 32.56900
H  35.43800 45.79600 33.80800
H  34.64400 44.50100 32.85500

