158

Mg 26.82000 50.48200 26.43200
C  24.76800 51.87200 28.87000
C  28.83800 49.37400 28.99700
C  28.72100 49.22600 24.08900
C  24.77300 52.17100 24.00000
N  26.84700 50.72600 28.67400
C  25.83500 51.24300 29.45300
C  26.01900 50.87400 30.96200
C  27.52300 50.26200 30.97800
C  27.74800 50.05900 29.44500
C  28.74500 50.95700 31.63500
C  24.95400 49.81200 31.53300
C  24.12900 50.26400 32.73900
H  23.99100 49.24000 33.87300
N  28.59700 49.50900 26.55000
C  29.26000 49.11500 27.65600
C  30.44900 48.40500 27.30100
C  30.50200 48.43800 25.89100
C  29.25200 49.09800 25.43500
C  31.43700 47.83800 28.38100
C  31.63200 48.01600 25.02100
O  31.69500 48.11200 23.79200
C  32.81500 47.20300 25.68300
N  26.71800 50.65200 24.33400
C  27.59700 49.96400 23.57500
C  27.34400 50.09100 22.06800
C  25.97800 50.92500 22.08300
C  25.83400 51.25300 23.54000
C  28.52500 50.70100 21.38500
C  24.77300 50.18200 21.40500
C  24.17000 48.86700 22.12500
N  25.08300 51.69200 26.42000
C  24.49600 52.32000 25.38300
C  23.30000 53.05600 25.88600
C  23.39200 52.82800 27.22900
C  24.52600 52.14100 27.53400
C  22.23000 53.75800 25.07000
C  22.62900 53.09200 28.44300
O  21.64700 53.80200 28.71100
C  23.42800 52.41800 29.56500
C  23.64900 53.30500 30.73400
O  24.45000 54.20800 30.79000
O  22.76000 53.05600 31.70600
C  22.75100 53.79800 32.95300
H  29.36900 48.86300 29.80300
H  29.31000 48.73700 23.31000
H  24.22400 52.57400 23.14600
H  25.86600 51.74500 31.59800
H  27.39000 49.24800 31.35700
H  29.47300 51.09400 30.83500
H  29.03400 50.26800 32.42800
H  28.54300 51.90000 32.14300
H  25.38700 48.82600 31.70000
H  24.16400 49.76300 30.78400
H  23.09200 50.54600 32.55500
H  24.54200 51.21500 33.07600
H  31.57100 46.76100 28.28000
H  31.16500 47.94800 29.43100
H  32.42500 48.28000 28.25500
H  33.42100 47.65800 26.46700
H  33.54400 46.89400 24.93300
H  32.48100 46.25700 26.10900
H  27.21600 49.09600 21.64100
H  26.11300 51.84200 21.50800
H  29.29300 50.97600 22.10700
H  28.34600 51.53300 20.70400
H  28.93600 49.94000 20.72100
H  25.12800 49.96700 20.39800
H  23.90900 50.79000 21.13700
H  23.13700 49.15600 22.32000
H  24.65300 48.67400 23.08300
H  24.11600 47.92200 21.58500
H  22.25700 53.36500 24.05400
H  22.33200 54.84400 25.07100
H  21.24400 53.55100 25.48400
H  22.89200 51.52700 29.89300
H  21.87100 53.52800 33.53800
H  22.67700 54.88400 32.89400
H  23.62500 53.63400 33.58400
Mg -12.96000 16.04100 41.88500
C  -9.93900 14.41200 41.19500
C  -11.73100 18.88000 40.11300
C  -15.97300 17.33500 41.78500
C  -14.13500 12.89600 43.02900
N  -11.09900 16.56200 40.77400
C  -9.95800 15.76200 40.76200
C  -8.71700 16.51300 40.21900
C  -9.32400 17.94100 39.98400
C  -10.82300 17.81900 40.28800
C  -8.68000 19.04800 40.84900
C  -8.25000 15.85700 38.84800
C  -6.70000 15.87500 38.72300
H  -6.21400 16.51800 37.40900
N  -13.77300 17.91600 41.14500
C  -13.08600 18.92400 40.47300
C  -14.03000 20.00300 40.20800
C  -15.23600 19.64600 40.78300
C  -15.06800 18.25900 41.30100
C  -13.51200 21.27600 39.50800
C  -16.47400 20.42700 40.77300
O  -16.44600 21.51200 40.12500
C  -17.79900 19.90800 41.29200
N  -14.76900 15.17900 42.20300
C  -15.88600 15.95000 42.17500
C  -17.14900 15.16800 42.50200
C  -16.61100 13.81200 43.00400
C  -15.04400 13.94300 42.76900
C  -18.16300 15.86100 43.49300
C  -17.26100 12.57400 42.33300
C  -18.35400 11.89200 43.19700
N  -12.25300 14.00900 42.21200
C  -12.82100 12.90300 42.68400
C  -11.85100 11.78200 42.67700
C  -10.70400 12.30700 42.14700
C  -11.02200 13.63100 41.81200
C  -12.11000 10.36600 43.08700
C  -9.36900 12.10600 41.73400
O  -8.63200 11.08900 41.80900
C  -8.79200 13.44100 41.20200
C  -7.59400 13.99500 41.88600
O  -7.46900 14.50600 43.00800
O  -6.47900 13.59900 41.11200
C  -5.18600 13.84000 41.81900
H  -11.31400 19.75400 39.60900
H  -17.04300 17.54600 41.73900
H  -14.62500 12.03300 43.48200
H  -7.95900 16.37200 40.99100
H  -9.34800 18.21000 38.92800
H  -9.19500 19.16500 41.80200
H  -8.64600 19.94100 40.22500
H  -7.75800 18.59300 41.21200
H  -8.64700 16.30200 37.93500
H  -8.53400 14.80400 38.84200
H  -6.32500 14.85200 38.75300
H  -6.24400 16.46300 39.52000
H  -13.42400 21.08800 38.43800
H  -12.48600 21.48200 39.81200
H  -13.99800 22.23900 39.66800
H  -18.29500 19.20200 40.62700
H  -18.44800 20.78400 41.29400
H  -17.76900 19.58400 42.33200
H  -17.68400 15.02600 41.56300
H  -16.64300 13.72600 44.09000
H  -17.49000 16.62900 43.87600
H  -18.44400 15.29500 44.38100
H  -18.97700 16.33300 42.94200
H  -16.52300 11.92600 41.86000
H  -17.89600 12.91500 41.51600
H  -18.41500 10.80400 43.17100
H  -19.36200 11.91100 42.78300
H  -18.33800 12.31900 44.20000
H  -11.14600 9.88200 43.24000
H  -12.59100 9.98100 42.18800
H  -12.87100 10.21800 43.85400
H  -8.48300 13.08100 40.22000
H  -4.91000 14.88600 41.68300
H  -4.48800 13.08300 41.46000
H  -5.17800 13.72900 42.90300

