158

Mg 0.48400 8.17700 26.67400
C  1.17900 10.16500 29.60000
C  0.17300 5.50900 28.86300
C  0.13600 6.33200 24.12900
C  0.76900 11.01600 24.82500
N  0.55200 7.89100 29.04600
C  0.74600 8.85200 29.98300
C  0.49600 8.37400 31.39400
C  0.44400 6.82900 31.07900
C  0.31800 6.66100 29.57400
C  1.58900 6.03200 31.77400
C  -0.76900 9.00000 32.05800
C  -0.73000 9.27000 33.56900
H  0.45400 8.75100 34.43200
N  0.10800 6.12900 26.57100
C  0.13900 5.15200 27.51600
C  -0.14800 3.81400 26.82400
C  -0.07000 4.07300 25.36900
C  0.08300 5.54000 25.31000
C  -0.44700 2.57700 27.68500
C  -0.21400 3.14200 24.22400
O  -0.12300 3.49400 23.05300
C  -0.63800 1.72600 24.37100
N  0.21400 8.62800 24.73300
C  0.36400 7.64200 23.81900
C  0.60200 8.20500 22.37000
C  0.30000 9.74100 22.61200
C  0.46700 9.83900 24.15300
C  2.02000 7.88000 21.80400
C  -1.11000 10.04200 22.11600
C  -1.52400 11.49600 22.14700
N  0.96300 10.15700 27.04600
C  1.02900 11.22000 26.18100
C  1.57000 12.40400 26.83700
C  1.63000 12.06100 28.17500
C  1.21600 10.66700 28.25300
C  1.93800 13.72800 26.20900
C  2.04100 12.50700 29.48900
O  2.59600 13.51800 29.78300
C  1.63900 11.29800 30.52800
C  2.93000 10.98200 31.30300
O  3.91600 10.39100 30.84000
O  2.75700 11.50400 32.51000
C  3.98100 11.70400 33.34000
H  0.03600 4.69400 29.57700
H  0.22200 5.73400 23.21900
H  0.94700 11.94600 24.28100
H  1.35600 8.59400 32.02700
H  -0.48200 6.46200 31.52400
H  1.12400 5.24700 32.37000
H  2.17600 6.67300 32.43200
H  2.23100 5.58000 31.01700
H  -1.63400 8.35300 31.91700
H  -1.07200 9.90500 31.53100
H  -1.63400 8.78700 33.94100
H  -0.82600 10.34000 33.75200
H  -0.09800 2.67300 28.71300
H  0.12500 1.81800 27.15100
H  -1.50500 2.33300 27.59000
H  -1.55700 1.64500 23.79000
H  -0.75300 1.45900 25.42100
H  0.13900 1.05300 24.00700
H  -0.14100 7.74200 21.72200
H  1.07400 10.33000 22.11900
H  1.76700 7.04300 21.15400
H  2.68800 7.57000 22.60700
H  2.48200 8.74200 21.32300
H  -1.78800 9.38400 22.66000
H  -1.29800 9.64900 21.11700
H  -1.96800 11.85500 21.21800
H  -0.65900 12.13600 22.31900
H  -2.09800 11.73300 23.04300
H  1.06100 14.06700 25.65900
H  2.67300 13.48800 25.44000
H  2.21400 14.44400 26.98300
H  0.84500 11.61100 31.20600
H  4.79500 11.83200 32.62800
H  4.22500 11.03200 34.16300
H  3.90300 12.72900 33.70300
Mg 27.51100 50.46900 26.05300
C  25.64900 51.23700 28.83000
C  29.86100 48.98500 28.23900
C  29.32500 49.60500 23.41000
C  25.15600 51.90100 23.97100
N  27.78300 50.25700 28.29100
C  26.82700 50.61900 29.21400
C  27.11900 50.21600 30.62900
C  28.53400 49.70300 30.45600
C  28.75300 49.53100 28.87000
C  29.70900 50.43300 31.06500
C  26.15200 49.31600 31.39700
C  25.67600 49.81200 32.77300
H  25.39900 48.86600 33.89300
N  29.40700 49.55000 25.87200
C  30.19500 49.01900 26.86500
C  31.38500 48.34200 26.25000
C  31.21900 48.44400 24.82000
C  29.93700 49.20200 24.61500
C  32.48700 47.64400 27.04900
C  32.06000 47.76600 23.67500
O  31.69900 47.72300 22.48600
C  33.27900 47.06400 24.05300
N  27.32400 50.83900 23.95400
C  28.21400 50.40900 23.09700
C  27.81200 50.79200 21.68200
C  26.34100 51.36200 21.79000
C  26.26100 51.35000 23.33600
C  28.75000 51.63100 20.78500
C  25.22800 50.38500 21.19300
C  23.89400 51.05900 20.64800
N  25.81100 51.49800 26.26700
C  24.93700 52.02900 25.37400
C  23.83400 52.62300 26.08000
C  24.01400 52.27600 27.39800
C  25.23000 51.62100 27.47200
C  22.65900 53.20200 25.48900
C  23.43400 52.31400 28.75700
O  22.31300 52.73900 29.11600
C  24.45400 51.65400 29.73200
C  24.85900 52.71600 30.71100
O  25.66600 53.60600 30.47400
O  24.13200 52.48400 31.84600
C  24.30900 53.40600 33.00000
H  30.47100 48.41800 28.94600
H  29.86100 49.25900 22.52300
H  24.47900 52.35300 23.24300
H  27.21500 51.21700 31.04900
H  28.56200 48.73900 30.96300
H  29.62300 51.52000 31.05000
H  30.60600 50.15200 30.51200
H  29.80000 50.27000 32.13900
H  26.57600 48.34300 31.64300
H  25.31000 49.13900 30.72800
H  24.66200 50.13600 32.53600
H  26.29600 50.63600 33.12800
H  32.39100 46.56400 26.93100
H  32.27500 47.80500 28.10600
H  33.48900 48.00600 26.81900
H  33.86400 47.80200 24.60200
H  33.77000 46.73900 23.13500
H  32.97300 46.23000 24.68500
H  27.70100 49.80600 21.23100
H  26.35100 52.39300 21.43700
H  28.60300 51.12400 19.83100
H  29.80900 51.74300 21.01800
H  28.27100 52.58700 20.57200
H  25.02700 49.57500 21.89300
H  25.62200 49.89800 20.30100
H  23.79800 50.66600 19.63600
H  23.81100 52.14500 20.60700
H  22.99800 50.68700 21.14600
H  22.69600 54.14200 26.04000
H  21.73700 52.65800 25.69400
H  22.90600 53.32100 24.43400
H  23.98700 50.78500 30.19500
H  24.66100 54.34900 32.58100
H  25.03500 53.00000 33.70600
H  23.34000 53.51500 33.48600

