158

Mg 26.22600 0.67700 28.76700
C  28.18300 0.35900 31.71000
C  23.56800 1.24800 30.98100
C  24.28500 0.93500 26.12100
C  29.01600 -0.24400 26.88000
N  25.93100 0.63600 31.05900
C  26.83100 0.60000 32.07900
C  26.29800 0.79900 33.48100
C  24.82000 0.90700 33.15100
C  24.75200 0.98900 31.64800
C  24.05900 -0.38900 33.70800
C  26.99600 2.01100 34.13800
C  26.25600 2.75500 35.25000
H  27.00400 2.93800 36.65100
N  24.22200 1.06100 28.57600
C  23.32200 1.23800 29.59800
C  21.98600 1.45700 29.01900
C  22.24100 1.30300 27.54400
C  23.63100 1.09500 27.37900
C  20.75700 1.74800 29.82300
C  21.15400 1.28500 26.47400
O  21.32400 0.95300 25.32100
C  19.77700 1.63400 26.86000
N  26.62100 0.20900 26.74600
C  25.62200 0.53200 25.75900
C  26.16800 0.28500 24.32500
C  27.65600 -0.19600 24.64300
C  27.81000 0.00300 26.24200
C  25.35600 -0.66700 23.36300
C  28.80600 0.51600 23.87900
C  29.70600 -0.41100 23.03200
N  28.16500 0.18700 29.14800
C  29.18700 -0.19200 28.26600
C  30.37900 -0.51800 29.05400
C  29.97700 -0.22700 30.40600
C  28.64400 0.15500 30.39800
C  31.80800 -0.98200 28.74400
C  30.48400 -0.32400 31.74400
O  31.54500 -0.65300 32.25200
C  29.29700 0.14400 32.64800
C  28.92700 -0.90600 33.55500
O  28.40100 -1.98400 33.25200
O  29.49300 -0.62900 34.76400
C  29.16900 -1.56300 35.87100
H  22.74900 1.43500 31.67900
H  23.72300 1.04000 25.19100
H  29.92000 -0.44000 26.29900
H  26.47800 -0.05300 34.13600
H  24.32800 1.72400 33.67900
H  24.72600 -1.20200 33.99600
H  23.58900 -0.88700 32.86000
H  23.38500 -0.13600 34.52600
H  27.17900 2.76100 33.36800
H  28.00400 1.74800 34.46000
H  25.38900 2.16300 35.54300
H  25.99200 3.76700 34.94400
H  21.00000 1.69100 30.88400
H  20.00500 0.97000 29.69200
H  20.35500 2.75200 29.68900
H  19.07000 1.34600 26.08200
H  19.66000 2.69800 27.06500
H  19.46100 1.02500 27.70700
H  26.33600 1.26300 23.87300
H  27.62700 -1.24000 24.33000
H  25.88900 -1.59500 23.15500
H  25.26000 -0.11400 22.42900
H  24.38700 -0.95600 23.76900
H  29.50200 0.92900 24.60900
H  28.37100 1.26400 23.21700
H  29.26400 -0.72400 22.08600
H  29.89200 -1.37600 23.50400
H  30.67400 0.01200 22.76200
H  32.33100 -0.20200 28.19100
H  31.80600 -1.85500 28.09100
H  32.46800 -1.33400 29.53800
H  29.67000 0.97800 33.24300
H  29.07600 -2.59300 35.52700
H  28.25700 -1.33400 36.42300
H  30.02900 -1.53500 36.53900
Mg 26.33300 50.25100 25.54100
C  24.22200 51.83800 28.07200
C  28.49500 49.47300 27.97800
C  28.34600 49.12800 23.13300
C  24.58600 52.36100 23.14100
N  26.23100 50.60400 27.71800
C  25.29900 51.13200 28.58700
C  25.67600 50.95300 30.03900
C  27.18100 50.43200 29.95900
C  27.33900 50.18700 28.44300
C  28.23800 51.38200 30.54400
C  24.75100 50.00200 30.76500
C  24.19500 50.54200 32.00800
H  25.09700 50.94000 33.18700
N  28.07200 49.25300 25.53800
C  28.83000 49.01800 26.64700
C  29.97300 48.17900 26.32300
C  29.88100 47.93600 24.91500
C  28.73600 48.74800 24.45100
C  31.01100 47.73000 27.31800
C  30.70100 46.96200 24.03300
O  30.58100 46.97200 22.79600
C  31.57100 45.91100 24.60200
N  26.25700 50.48800 23.46000
C  27.31700 50.00900 22.72100
C  27.13400 50.40900 21.24200
C  26.10900 51.46700 21.21300
C  25.62300 51.51500 22.66800
C  28.45300 50.67300 20.47600
C  24.97300 51.31700 20.16400
C  23.80900 50.22000 20.39300
N  24.70000 51.73300 25.54300
C  24.10900 52.45800 24.46200
C  23.07200 53.30200 25.02300
C  23.06400 53.10200 26.37700
C  24.04600 52.10800 26.70500
C  22.14200 54.21400 24.29500
C  22.33200 53.41300 27.55800
O  21.28600 54.03700 27.77100
C  23.18400 52.72300 28.73800
C  23.72700 53.87500 29.62600
O  24.59400 54.68000 29.29000
O  23.18000 53.77300 30.88300
C  23.58800 54.85700 31.83600
H  29.20500 49.21600 28.76700
H  28.95300 48.67900 22.34400
H  24.10500 52.99800 22.39500
H  25.62200 51.95500 30.46400
H  27.30900 49.43500 30.38200
H  28.89800 50.88200 31.25300
H  27.73700 52.20200 31.05800
H  28.81300 51.74200 29.69000
H  25.29400 49.10200 31.05200
H  23.85400 49.63000 30.27100
H  23.43800 49.81100 32.29100
H  23.56500 51.40500 31.78900
H  30.83200 46.75900 27.77800
H  31.20500 48.49900 28.06600
H  31.94400 47.68900 26.75700
H  32.51900 46.25600 25.01400
H  31.78500 45.22900 23.78000
H  30.97000 45.28800 25.26500
H  26.84100 49.39600 20.96600
H  26.60400 52.40200 20.95300
H  28.37200 50.48100 19.40600
H  29.35500 50.20700 20.87500
H  28.85000 51.66900 20.66900
H  25.41100 51.06000 19.20000
H  24.42500 52.22000 19.89600
H  23.58000 49.86700 19.38700
H  23.02200 50.68600 20.98600
H  24.13100 49.35400 20.97000
H  21.29200 53.62200 23.95600
H  22.69200 54.62900 23.45000
H  21.67000 54.92700 24.97200
H  22.47800 52.10000 29.28600
H  23.78500 55.86900 31.48000
H  24.44800 54.49900 32.40100
H  22.77600 54.88900 32.56200

