158

Mg 35.38700 2.67200 29.23600
C  33.44700 3.99200 31.79200
C  38.00800 2.66700 31.28700
C  37.21800 1.79100 26.73000
C  32.63400 3.24700 27.04400
N  35.73000 3.53600 31.20900
C  34.77100 3.74800 32.15600
C  35.16100 3.57800 33.56300
C  36.72700 3.49300 33.39500
C  36.85200 3.14500 31.86200
C  37.58300 4.74600 33.68300
C  34.44700 2.50700 34.40900
C  34.08500 2.89700 35.82400
H  35.06200 3.83900 36.63500
N  37.38900 2.16900 29.01400
C  38.28000 2.23600 30.02400
C  39.57400 1.76900 29.56400
C  39.38500 1.49300 28.17300
C  37.96100 1.74900 27.89800
C  40.81500 1.74600 30.45600
C  40.41800 1.20000 27.05000
O  40.00500 1.07800 25.88700
C  41.92300 1.04400 27.35900
N  34.96400 2.49900 27.16700
C  35.94900 2.23200 26.38900
C  35.44600 2.25000 24.92700
C  33.93300 2.38500 25.06900
C  33.80000 2.74400 26.50400
C  36.18700 3.31900 23.97600
C  33.02100 1.19800 24.49300
C  32.71100 0.03300 25.42200
N  33.41000 3.30300 29.38600
C  32.39500 3.39600 28.41000
C  31.13500 3.92100 29.09200
C  31.55700 4.20900 30.39800
C  32.88400 3.78400 30.49000
C  29.83300 4.17200 28.52200
C  31.03800 4.66100 31.66400
O  29.96900 5.08300 32.01500
C  32.21100 4.44800 32.70400
C  32.39000 5.63600 33.57700
O  32.92500 6.64600 33.19100
O  31.74100 5.54500 34.82200
C  31.64800 6.74400 35.65300
H  38.78400 2.40900 32.01100
H  37.77900 1.45700 25.85500
H  31.83700 3.52100 26.35000
H  34.93300 4.50600 34.08800
H  37.09000 2.70600 34.05600
H  36.86800 5.47000 34.07200
H  37.94000 5.17000 32.74400
H  38.42100 4.42500 34.30100
H  35.22700 1.75400 34.52600
H  33.57900 2.04800 33.93500
H  34.10100 1.95000 36.36300
H  33.11100 3.36600 35.96100
H  41.16100 0.71300 30.44100
H  40.60400 2.10000 31.46500
H  41.57900 2.34900 29.96700
H  42.08200 0.11200 27.90200
H  42.23100 1.80000 28.08100
H  42.37500 1.17200 26.37500
H  35.73700 1.30500 24.46800
H  33.64100 3.25600 24.48300
H  36.94000 3.92700 24.47800
H  35.41700 3.98700 23.59000
H  36.65300 2.74400 23.17600
H  33.54900 0.69400 23.68300
H  32.12600 1.53500 23.97100
H  32.71100 -0.91000 24.87500
H  31.72600 0.10200 25.88400
H  33.48800 -0.13000 26.16900
H  29.86000 4.01400 27.44300
H  29.54900 5.22400 28.51300
H  29.09800 3.53200 29.00900
H  31.91500 3.59900 33.32100
H  32.20800 6.58300 36.57300
H  30.65400 7.01900 36.00500
H  32.15200 7.54300 35.10900
Mg 26.40700 50.19900 26.40100
C  24.23200 51.39200 29.00600
C  28.62200 49.13900 28.64000
C  28.36700 49.37100 23.83300
C  24.08700 51.58400 24.02800
N  26.35100 50.21700 28.52800
C  25.39400 50.68800 29.42100
C  25.75800 50.23500 30.86700
C  27.30700 49.89900 30.77700
C  27.41700 49.64200 29.19100
C  28.22500 51.19000 30.96100
C  24.81000 49.14900 31.36500
C  24.53600 49.01400 32.90600
H  25.57900 49.49200 33.93200
N  28.38500 49.36800 26.25900
C  29.06800 48.93300 27.31000
C  30.36500 48.54500 26.83800
C  30.31300 48.65900 25.44600
C  28.98900 49.12200 25.12100
C  31.38500 47.92700 27.75200
C  31.42500 48.48000 24.37600
O  31.36900 48.86300 23.21400
C  32.74500 47.98000 24.81200
N  26.30600 50.68300 24.18300
C  27.17600 50.01200 23.45200
C  26.63700 49.86900 21.97500
C  25.32500 50.61900 22.07400
C  25.18600 50.88500 23.52700
C  27.68700 50.38200 20.88000
C  24.21600 49.81100 21.35800
C  23.16400 50.72500 20.67100
N  24.61700 51.28800 26.45400
C  23.79600 51.81200 25.44600
C  22.60800 52.41300 26.11200
C  22.71600 52.25700 27.50900
C  23.91100 51.48200 27.60100
C  21.49900 53.10300 25.41900
C  22.18300 52.62800 28.73800
O  21.24900 53.28700 29.06100
C  23.06100 51.92300 29.82500
C  23.46100 52.90800 30.82300
O  24.30100 53.77400 30.62100
O  22.78300 52.70900 31.98400
C  23.23500 53.61200 33.11300
H  29.29800 48.64600 29.34200
H  28.94600 48.97800 22.99500
H  23.26100 51.88200 23.37900
H  25.72300 51.16800 31.43000
H  27.47600 48.96700 31.31800
H  28.97900 51.10400 31.74300
H  27.65800 52.03600 31.35100
H  28.54100 51.59000 29.99800
H  25.23300 48.19800 31.04000
H  23.85200 49.27500 30.86000
H  24.40500 47.94400 33.07000
H  23.69300 49.67700 33.09700
H  31.49400 46.90900 27.37800
H  31.08400 47.73300 28.78100
H  32.37100 48.39200 27.74600
H  32.67000 46.94200 25.13800
H  33.16100 48.64500 25.56900
H  33.38800 47.86600 23.93900
H  26.34700 48.83000 21.82100
H  25.43500 51.65400 21.75100
H  28.25100 51.08200 21.49600
H  27.16600 50.83700 20.03700
H  28.39800 49.64700 20.50300
H  23.73400 49.28200 22.18000
H  24.45700 49.01600 20.65300
H  22.20900 50.64500 21.19000
H  22.95700 50.37300 19.66000
H  23.38100 51.79300 20.64800
H  20.52900 52.91300 25.87800
H  21.46500 52.75800 24.38600
H  21.69400 54.16300 25.58200
H  22.57200 51.08300 30.31800
H  23.40100 54.66100 32.86600
H  24.22100 53.24900 33.40400
H  22.48800 53.64900 33.90600

