158

Mg 24.02900 -5.76300 46.16100
C  26.08700 -3.26800 44.38900
C  21.39500 -4.53600 44.34700
C  22.41800 -8.48200 46.88800
C  27.09900 -7.13200 47.34800
N  23.86600 -4.00800 44.49900
C  24.74200 -3.06600 44.06400
C  24.06300 -2.16700 43.09700
C  22.52900 -2.37700 43.28600
C  22.60000 -3.70800 44.10300
C  21.81700 -1.25700 44.14600
C  24.53500 -2.42700 41.65300
C  25.26900 -1.28900 40.82100
H  26.18700 -1.62000 39.58500
N  22.09400 -6.33800 45.81000
C  21.13300 -5.74100 45.06100
C  19.98800 -6.55000 45.06500
C  20.21900 -7.67600 45.88600
C  21.60900 -7.53800 46.26800
C  18.67300 -6.09000 44.36400
C  19.19800 -8.75300 46.35100
O  17.99600 -8.77400 45.97100
C  19.55000 -9.86300 47.27300
N  24.63200 -7.60200 46.93600
C  23.72100 -8.51200 47.17200
C  24.35400 -9.62400 48.03300
C  25.90200 -9.23600 48.15100
C  25.89400 -7.90600 47.47000
C  23.79000 -9.75900 49.42500
C  26.76700 -10.28300 47.50500
C  27.77100 -10.84300 48.43100
N  26.11500 -5.29300 46.08100
C  27.19300 -5.87000 46.70700
C  28.39200 -5.11400 46.41800
C  28.00600 -4.10300 45.55600
C  26.57200 -4.22500 45.31100
C  29.77300 -5.42700 46.98300
C  28.50000 -2.99100 44.69900
O  29.66600 -2.64300 44.39200
C  27.23900 -2.47000 43.85700
C  26.96800 -1.05800 44.19500
O  26.32700 -0.66100 45.13700
O  27.67400 -0.32100 43.32100
C  27.91900 1.07600 43.58000
H  20.58000 -4.02000 43.83400
H  21.90000 -9.43400 47.02600
H  28.02200 -7.64700 47.62200
H  24.40100 -1.18200 43.42000
H  21.95800 -2.53500 42.37100
H  22.08400 -1.35700 45.19800
H  20.73300 -1.17500 44.06400
H  22.16500 -0.26600 43.85500
H  23.72500 -2.60800 40.94700
H  25.22800 -3.26500 41.58600
H  25.77300 -0.67700 41.56900
H  24.52400 -0.56700 40.48600
H  18.00200 -6.03200 45.22200
H  18.20100 -6.80500 43.69100
H  18.72700 -5.12300 43.86400
H  18.73900 -10.24000 47.89600
H  20.22300 -9.44900 48.02300
H  20.11200 -10.67000 46.80200
H  24.16800 -10.54000 47.47200
H  26.21200 -9.10700 49.18700
H  22.75800 -10.11200 49.42100
H  23.93200 -8.82800 49.97400
H  24.34300 -10.62000 49.80000
H  27.22300 -9.88700 46.59700
H  26.11300 -11.14100 47.35000
H  28.02400 -10.13400 49.21900
H  28.72700 -11.12300 47.98800
H  27.32000 -11.65900 48.99600
H  30.03700 -6.45500 46.73200
H  29.64300 -5.46000 48.06500
H  30.57900 -4.78300 46.63300
H  27.59800 -2.58400 42.83400
H  28.32700 1.44900 42.64000
H  28.74600 1.09200 44.29000
H  27.08600 1.73000 43.83800
Mg 41.52000 41.21200 26.77500
C  40.61100 43.73400 29.08800
C  42.30300 39.24500 29.30400
C  42.50900 38.99500 24.49600
C  40.63600 43.46500 24.10600
N  41.68500 41.54300 28.92000
C  41.16300 42.60200 29.69000
C  41.17300 42.32100 31.24300
C  41.83200 40.91000 31.24700
C  41.92700 40.52100 29.73800
C  43.15300 40.86900 32.11000
C  39.76500 42.40300 31.86700
C  39.52400 43.21700 33.14200
H  39.14400 42.39000 34.31900
N  42.38400 39.42800 26.91100
C  42.55000 38.72800 28.05800
C  43.24500 37.43800 27.74500
C  43.31600 37.36600 26.35600
C  42.71000 38.66900 25.84400
C  43.83200 36.51800 28.80600
C  43.99500 36.30600 25.41300
O  44.10300 36.39000 24.16000
C  44.59700 35.11200 26.08500
N  41.57000 41.20800 24.59100
C  41.89100 40.13000 23.91600
C  41.82700 40.30200 22.41700
C  41.02500 41.65200 22.38100
C  41.15800 42.23300 23.74200
C  43.19000 40.34900 21.74400
C  39.54500 41.44200 21.96600
C  38.63900 40.50600 22.82400
N  40.87100 43.20500 26.61400
C  40.47200 43.98500 25.48500
C  39.97600 45.28500 25.88900
C  40.08100 45.24100 27.28900
C  40.54500 43.95900 27.68200
C  39.63100 46.38200 24.96600
C  39.89300 45.93100 28.54800
O  39.58000 47.09300 28.75400
C  40.11000 44.96300 29.75900
C  41.20200 45.56800 30.59700
O  42.37800 45.68000 30.27800
O  40.58600 46.33300 31.56200
C  41.43400 47.18000 32.39900
H  42.50100 38.44800 30.02500
H  42.66500 38.16400 23.80500
H  40.26700 44.08900 23.28800
H  41.79100 43.12700 31.64000
H  41.12100 40.20400 31.67600
H  44.00900 40.36600 31.66200
H  42.96500 40.39600 33.07400
H  43.41000 41.85500 32.49700
H  39.37600 41.39600 32.01900
H  39.02700 42.66800 31.11000
H  38.66600 43.86900 32.97900
H  40.41600 43.80500 33.36000
H  43.96400 37.16500 29.67300
H  44.85000 36.16700 28.63700
H  43.17500 35.66600 28.98400
H  43.87900 34.57000 26.70000
H  45.50600 35.33200 26.64600
H  44.88800 34.45600 25.26400
H  41.18200 39.48900 22.08300
H  41.42900 42.29800 21.60200
H  43.92600 40.52800 22.52800
H  43.19700 41.20900 21.07500
H  43.35200 39.51300 21.06300
H  39.56200 41.01600 20.96300
H  39.07300 42.42400 21.93900
H  37.64200 40.86800 23.07500
H  39.07900 40.14500 23.75300
H  38.40600 39.72500 22.10000
H  38.91500 45.92900 24.28000
H  40.25800 46.90100 24.24100
H  38.97400 47.04200 25.53300
H  39.22100 44.89100 30.38600
H  41.46300 46.85300 33.43900
H  41.01900 48.18200 32.28900
H  42.50600 47.21100 32.20600

