158

Mg 17.74400 -1.49000 27.37700
C  16.72000 0.35500 30.19200
C  19.84200 -3.25100 29.45200
C  19.13100 -2.80200 24.62100
C  16.16300 0.90900 25.35700
N  18.21600 -1.45800 29.54700
C  17.57900 -0.63900 30.48600
C  18.12700 -0.97800 31.94200
C  19.30700 -1.91400 31.67000
C  19.17200 -2.24900 30.17300
C  20.70000 -1.23000 31.86400
C  17.06000 -1.59700 32.84800
C  16.99800 -1.09300 34.35800
H  18.20000 -0.29300 34.79800
N  19.04900 -2.98000 27.12500
C  19.82600 -3.55800 28.07000
C  20.57500 -4.63500 27.43200
C  20.26700 -4.62700 26.05100
C  19.44400 -3.47100 25.87500
C  21.49000 -5.54600 28.18700
C  20.80100 -5.47300 24.88000
O  20.41000 -5.31400 23.71000
C  21.88700 -6.55300 25.08000
N  17.47900 -1.04700 25.23900
C  18.26900 -1.71200 24.33400
C  18.25400 -0.97900 22.96100
C  17.10000 0.06800 23.11100
C  16.91900 0.02800 24.67200
C  19.63700 -0.31500 22.71300
C  15.70300 -0.16300 22.42800
C  15.24800 0.78000 21.26400
N  16.57400 0.16800 27.64500
C  16.00900 0.98800 26.72500
C  15.26800 2.01600 27.41700
C  15.41200 1.80000 28.79900
C  16.24700 0.69400 28.88700
C  14.34500 3.06700 26.84100
C  15.10300 2.27800 30.13200
O  14.40600 3.21400 30.47600
C  16.00800 1.44900 31.08900
C  17.08200 2.38100 31.62700
O  18.07000 2.74800 31.02300
O  16.76500 2.76300 32.90100
C  17.53600 3.83700 33.46900
H  20.53100 -3.76600 30.12500
H  19.75000 -3.04400 23.75400
H  15.70200 1.81100 24.95100
H  18.43800 -0.02600 32.37100
H  19.34100 -2.81200 32.28700
H  21.33200 -1.83200 32.51700
H  20.49200 -0.39500 32.53300
H  21.23300 -1.00900 30.94000
H  17.09000 -2.68600 32.80200
H  16.13800 -1.31700 32.33800
H  16.90300 -2.05100 34.86900
H  16.07400 -0.52200 34.44400
H  21.92900 -5.04600 29.05100
H  22.36000 -5.70300 27.55100
H  21.11300 -6.51300 28.52200
H  21.46600 -7.29300 25.76100
H  22.73400 -6.07900 25.57500
H  21.97700 -7.00700 24.09300
H  17.91400 -1.63300 22.15900
H  17.40700 1.05000 22.75000
H  20.01300 -0.56100 21.72000
H  20.33600 -0.78100 23.40800
H  19.51200 0.76700 22.74700
H  14.92800 -0.06600 23.18800
H  15.54400 -1.17200 22.04700
H  16.08500 1.40900 20.96100
H  14.41200 1.42200 21.54300
H  15.10000 0.07000 20.45100
H  14.59600 3.57600 25.91000
H  14.20700 3.88100 27.55300
H  13.32500 2.68200 26.83800
H  15.30900 1.06700 31.83300
H  17.75300 4.57900 32.70100
H  18.45600 3.46100 33.91700
H  16.89700 4.32400 34.20600
Mg 17.18400 52.18400 24.59900
C  18.89000 50.95600 27.31200
C  14.48800 53.04000 26.52000
C  15.36900 53.02300 21.70200
C  19.65500 50.86300 22.47700
N  16.74900 51.96200 26.68900
C  17.67900 51.51100 27.63300
C  17.11600 51.86100 29.00000
C  15.60100 52.23200 28.71100
C  15.59800 52.45800 27.19100
C  14.55100 51.19100 29.22900
C  17.89200 52.99100 29.68700
C  17.49900 53.71000 31.00200
H  16.58800 52.92900 32.01600
N  15.17600 52.94800 24.21900
C  14.24800 53.23100 25.11500
C  13.06500 53.76100 24.46000
C  13.34400 53.92600 23.09100
C  14.70400 53.30500 22.91800
C  11.82900 54.05300 25.22600
C  12.45500 54.50700 22.04900
O  12.80800 54.67200 20.86500
C  11.00000 54.83400 22.36700
N  17.46000 51.98300 22.41800
C  16.60100 52.43200 21.45800
C  17.22800 52.39200 20.10000
C  18.61900 51.90800 20.32300
C  18.61700 51.54300 21.84300
C  16.39700 51.35400 19.16400
C  19.74800 52.87900 19.98600
C  21.10000 52.20300 19.80300
N  19.04800 51.20600 24.81800
C  19.89300 50.68500 23.87200
C  20.96000 49.91600 24.54600
C  20.69200 50.16800 25.98200
C  19.40400 50.77000 26.03200
C  22.08800 49.09900 23.88900
C  21.14800 49.94100 27.25500
O  22.14300 49.36600 27.62300
C  20.01800 50.52100 28.22900
C  19.64500 49.59200 29.30900
O  19.17500 48.45400 29.21400
O  19.86200 50.19300 30.53200
C  19.24200 49.53000 31.72400
H  13.67700 53.28400 27.21000
H  14.76500 53.17800 20.80600
H  20.47400 50.49400 21.85600
H  17.23700 51.02700 29.69100
H  15.25400 53.18800 29.10200
H  13.67700 51.77900 29.50700
H  14.91500 50.56600 30.04400
H  14.21600 50.54000 28.42100
H  17.93700 53.79800 28.95500
H  18.95100 52.75300 29.78900
H  17.01000 54.65700 30.77400
H  18.45900 53.98200 31.44200
H  11.60400 55.09700 25.00800
H  11.99500 54.19200 26.29500
H  11.04700 53.35800 24.92200
H  10.49600 54.20600 23.10300
H  10.38300 54.65100 21.48700
H  10.99800 55.85900 22.73600
H  17.24800 53.37600 19.63200
H  18.84000 50.95700 19.83700
H  17.01300 50.67700 18.57100
H  15.89900 51.92900 18.38400
H  15.70800 50.78200 19.78500
H  19.78600 53.60900 20.79400
H  19.56100 53.34100 19.01700
H  21.85300 52.55600 20.50800
H  21.44900 52.45200 18.80100
H  21.01900 51.11600 19.79900
H  22.74700 49.83500 23.42900
H  21.73800 48.37100 23.15800
H  22.63900 48.49700 24.61200
H  20.42400 51.43200 28.66700
H  19.24700 48.44500 31.62000
H  18.19800 49.83700 31.67500
H  19.74000 49.73400 32.67200

