158

Mg 41.12100 9.42900 29.72100
C  43.10800 10.76100 32.31000
C  38.95200 8.29900 32.06700
C  39.64500 7.78500 27.21200
C  43.86600 10.13300 27.47400
N  41.23200 9.34200 31.94400
C  42.00400 10.13300 32.76300
C  41.59700 9.91300 34.21000
C  40.27400 9.05300 34.12600
C  40.12500 8.86200 32.63500
C  40.23300 7.73500 34.96600
C  41.44100 11.29800 34.97600
C  40.59200 11.32000 36.26800
H  41.06000 12.27500 37.44400
N  39.46200 8.33400 29.59900
C  38.68500 7.92900 30.69700
C  37.52400 7.12200 30.22300
C  37.63400 7.08000 28.80100
C  38.99000 7.75400 28.47200
C  36.50800 6.48800 31.19000
C  36.66600 6.46600 27.83600
O  36.89700 6.40300 26.65100
C  35.30500 6.13600 28.30700
N  41.74300 8.82700 27.62000
C  40.91600 8.21500 26.78400
C  41.39300 8.38800 25.30600
C  42.63000 9.26100 25.48700
C  42.73500 9.46200 26.98400
C  41.51500 7.08400 24.44700
C  42.67700 10.50300 24.61600
C  43.83300 10.54600 23.58700
N  43.12000 10.25000 29.77200
C  44.07300 10.51800 28.79900
C  45.19800 11.17800 29.42000
C  44.83400 11.32000 30.76600
C  43.55300 10.74900 30.93800
C  46.44300 11.64900 28.73300
C  45.34300 11.78500 32.00900
O  46.41600 12.29400 32.33600
C  44.24700 11.41100 33.08700
C  44.89100 10.49300 34.03000
O  44.94800 9.28100 33.84500
O  45.32600 11.03100 35.17300
C  45.86100 10.07000 36.24300
H  38.17200 8.16500 32.82000
H  39.08000 7.26800 26.43300
H  44.64000 10.52300 26.81000
H  42.36900 9.38500 34.77100
H  39.42000 9.66900 34.40700
H  40.10100 6.85300 34.33900
H  39.44800 7.82600 35.71700
H  41.19000 7.68400 35.48500
H  41.26100 12.09600 34.25700
H  42.42300 11.45400 35.42400
H  40.37800 10.32600 36.66200
H  39.61400 11.70300 35.97700
H  36.79600 6.58700 32.23700
H  36.39100 5.45700 30.85900
H  35.53600 6.97400 31.11300
H  34.98800 6.91900 28.99500
H  35.21200 5.14200 28.74400
H  34.58200 6.12600 27.49100
H  40.58400 8.89400 24.77800
H  43.50700 8.68100 25.19800
H  42.31400 6.41100 24.75700
H  41.60200 7.40000 23.40700
H  40.55700 6.61200 24.66800
H  42.80600 11.40700 25.21100
H  41.74300 10.62900 24.06900
H  44.70200 11.09500 23.94800
H  43.57000 10.96400 22.61500
H  44.25800 9.58400 23.30000
H  46.66400 10.93700 27.93800
H  47.19500 11.52400 29.51100
H  46.36300 12.64700 28.30200
H  43.85300 12.30800 33.56400
H  46.51200 10.73100 36.81500
H  46.52700 9.34800 35.76900
H  45.08600 9.60800 36.85500
Mg -0.26600 43.88600 25.96800
C  2.06400 43.78500 28.80100
C  -2.75500 43.33200 28.21900
C  -2.31200 43.24400 23.36200
C  2.44900 44.23600 23.91000
N  -0.24000 43.36000 28.25800
C  0.76100 43.47400 29.15500
C  0.15100 43.41400 30.59100
C  -1.32000 43.08800 30.34200
C  -1.46900 43.31500 28.88000
C  -1.71800 41.59100 30.74800
C  0.41000 44.74300 31.37000
C  1.03000 44.71500 32.79800
H  0.69900 43.40900 33.61700
N  -2.36300 43.55700 25.84300
C  -3.21100 43.39200 26.90800
C  -4.54100 43.12400 26.34100
C  -4.47400 43.09500 24.90400
C  -3.05900 43.26000 24.66000
C  -5.74800 43.04000 27.26300
C  -5.53900 42.85300 23.85100
O  -5.33300 42.96400 22.64000
C  -6.85500 42.37000 24.36400
N  0.02400 43.64900 23.97300
C  -0.96100 43.30600 23.10400
C  -0.31600 43.14700 21.69800
C  0.98300 43.98600 21.80200
C  1.18800 43.96000 23.29100
C  -0.08800 41.72300 21.13400
C  0.87500 45.35900 21.08500
C  2.21100 46.04400 20.60500
N  1.83400 44.05800 26.17600
C  2.82600 44.35600 25.27600
C  4.08200 44.55000 26.00100
C  3.80900 44.40400 27.29000
C  2.43400 44.07800 27.39300
C  5.41500 44.85800 25.36600
C  4.46300 44.36600 28.63100
O  5.61400 44.44700 28.94500
C  3.28800 44.00300 29.63600
C  3.73100 42.77000 30.26900
O  3.22600 41.64900 30.00700
O  4.70600 42.96500 31.16900
C  5.21700 41.73700 31.82700
H  -3.57900 43.14100 28.90900
H  -2.85800 43.13500 22.42200
H  3.28900 44.55300 23.28900
H  0.75200 42.60700 31.01000
H  -1.93800 43.70500 30.99400
H  -2.44800 41.61100 31.55700
H  -0.91700 40.92800 31.07500
H  -2.19700 41.11600 29.89200
H  -0.55600 45.21500 31.54700
H  1.07600 45.41300 30.82600
H  0.61500 45.59400 33.29100
H  2.10200 44.85200 32.65900
H  -6.25000 42.07300 27.25400
H  -6.39500 43.77800 26.78900
H  -5.62900 43.41100 28.28100
H  -6.66600 41.38900 24.80100
H  -7.45000 42.21800 23.46300
H  -7.35300 43.15900 24.92700
H  -1.08000 43.63000 21.08800
H  1.84600 43.49200 21.35600
H  -0.79900 41.03600 21.59300
H  0.91100 41.36000 21.37800
H  -0.21300 41.82500 20.05600
H  0.34300 45.98500 21.80100
H  0.27300 45.28900 20.17900
H  2.30500 46.93200 21.23100
H  2.13500 46.28700 19.54500
H  3.06400 45.37200 20.69900
H  5.40300 45.78400 24.79000
H  5.71100 44.12100 24.61900
H  6.19800 44.88100 26.12400
H  3.29200 44.79900 30.38000
H  5.15600 40.88800 31.14500
H  4.45000 41.53700 32.57500
H  6.21500 41.83200 32.25500

