158

Mg 45.98100 25.81300 27.78200
C  47.12800 28.11500 30.27600
C  45.32900 23.64700 30.17100
C  45.73300 23.51100 25.35300
C  47.55100 27.91100 25.38200
N  46.11000 25.96100 30.01900
C  46.42100 27.00200 30.77800
C  46.01300 26.75600 32.30400
C  45.52700 25.19300 32.25100
C  45.61100 24.92500 30.73400
C  46.41000 24.14400 33.03600
C  44.85700 27.65600 32.80300
C  45.28500 28.65000 33.89500
H  44.41600 28.77200 35.17100
N  45.39400 23.93100 27.82000
C  45.15400 23.17600 28.86900
C  44.57400 21.90600 28.51400
C  44.70200 21.84200 27.08600
C  45.26900 23.15700 26.67000
C  44.06100 20.86700 29.51500
C  44.18400 20.73800 26.15600
O  44.18400 20.85800 24.94500
C  43.74400 19.39400 26.71500
N  46.55800 25.80100 25.54900
C  46.33200 24.64000 24.80400
C  46.57300 24.99400 23.29200
C  47.10600 26.44700 23.34000
C  47.04200 26.76200 24.81500
C  47.45700 24.09200 22.56100
C  46.36200 27.46600 22.41400
C  47.33300 28.13400 21.40600
N  47.00700 27.72300 27.78000
C  47.57600 28.41500 26.74700
C  48.28200 29.51200 27.27800
C  48.14100 29.47400 28.65500
C  47.37200 28.32400 28.92600
C  49.13700 30.55200 26.50200
C  48.35200 30.16500 29.89700
O  48.90400 31.23500 30.13200
C  47.78000 29.24700 31.02500
C  48.85600 28.90800 31.95600
O  49.82300 28.17900 31.75800
O  48.61400 29.62400 33.11400
C  49.50700 29.30200 34.23400
H  45.32200 22.86300 30.93000
H  45.55800 22.80300 24.54000
H  48.07000 28.51700 24.63600
H  46.92500 26.91000 32.88100
H  44.49500 25.18900 32.60000
H  45.70600 23.73300 33.76000
H  47.22600 24.61200 33.58700
H  46.91700 23.40000 32.42200
H  44.08400 26.98300 33.17300
H  44.39700 28.21400 31.98700
H  45.30900 29.67600 33.52800
H  46.32200 28.45000 34.16200
H  44.71500 19.99500 29.54000
H  43.07500 20.53600 29.18800
H  43.88300 21.34300 30.47900
H  44.38400 19.03100 27.51800
H  43.79000 18.66400 25.90700
H  42.72500 19.42600 27.10200
H  45.55500 24.80900 22.94700
H  48.17000 26.31100 23.14800
H  48.18500 23.63200 23.23000
H  47.91300 24.66000 21.75000
H  46.89700 23.27900 22.09800
H  45.87900 28.16500 23.09800
H  45.57900 26.85900 21.95800
H  46.86800 28.15400 20.42000
H  48.24300 27.53800 21.47500
H  47.51800 29.19000 21.60100
H  48.79900 30.52000 25.46600
H  50.12600 30.09300 26.50200
H  49.12900 31.58100 26.86200
H  47.00200 29.81200 31.53800
H  50.54100 29.30100 33.88900
H  49.38800 28.35200 34.75600
H  49.43300 30.18100 34.87500
Mg 26.79000 50.37200 25.94600
C  24.82600 51.55300 28.66500
C  29.06000 49.31000 28.09600
C  28.90300 49.94000 23.26600
C  24.57900 52.02300 23.76900
N  26.91500 50.55400 28.14000
C  26.00100 50.92500 29.06100
C  26.40000 50.49400 30.46800
C  27.89500 49.92300 30.25100
C  27.92000 49.87200 28.73000
C  29.02500 50.83900 30.91800
C  25.37600 49.51900 31.17200
C  24.71600 49.94700 32.44100
H  25.58200 50.53700 33.55800
N  28.72600 49.58000 25.73400
C  29.53000 49.24500 26.76100
C  30.77200 48.77600 26.24500
C  30.75100 48.98100 24.82800
C  29.45400 49.56700 24.60100
C  31.98900 48.22000 27.10700
C  31.82600 48.82200 23.76000
O  31.69600 49.06000 22.56900
C  33.23100 48.19900 24.07600
N  26.82600 50.96400 23.80200
C  27.70100 50.47900 22.89300
C  27.21000 50.76700 21.42000
C  25.78500 51.36300 21.67000
C  25.68200 51.37700 23.21300
C  28.15000 51.53300 20.51100
C  24.56600 50.76600 20.89500
C  23.86400 51.65100 19.86800
N  25.08800 51.61300 26.07800
C  24.25100 52.13800 25.14500
C  23.20400 52.87400 25.76000
C  23.28400 52.62400 27.16500
C  24.49900 51.90500 27.29400
C  22.21200 53.54500 24.96800
C  22.66800 52.83000 28.47600
O  21.73300 53.52400 28.80900
C  23.72100 52.14100 29.51600
C  24.25200 53.09900 30.47400
O  25.29400 53.75200 30.29700
O  23.45900 53.12100 31.61700
C  23.85100 53.98800 32.68900
H  29.67500 48.83200 28.86100
H  29.45300 49.49500 22.43400
H  23.91200 52.53600 23.07300
H  26.43100 51.46200 30.96800
H  28.09900 48.93700 30.66800
H  29.42900 51.43800 30.10100
H  29.82000 50.28900 31.42200
H  28.48900 51.43500 31.65600
H  25.76100 48.52700 31.40600
H  24.55400 49.22100 30.52100
H  24.28700 48.99900 32.76700
H  23.83600 50.58900 32.39600
H  31.81100 48.30800 28.17900
H  32.89700 48.78300 26.89500
H  32.16200 47.14500 27.06200
H  33.89900 47.94600 23.25200
H  33.05700 47.22700 24.53700
H  33.78400 48.82300 24.77900
H  27.09400 49.72200 21.13300
H  25.84300 52.43300 21.47000
H  27.75500 52.46100 20.09600
H  28.43300 50.90900 19.66400
H  29.01500 51.92300 21.04700
H  23.77000 50.55000 21.60800
H  24.80900 49.79200 20.47000
H  23.36700 50.89200 19.26400
H  24.63600 52.18000 19.31000
H  23.07200 52.34400 20.15200
H  22.64000 54.38100 24.41700
H  21.43100 54.05400 25.53200
H  21.67800 52.83800 24.33200
H  23.32600 51.31800 30.11200
H  23.80600 55.02100 32.34600
H  24.84300 53.79500 33.09800
H  23.11600 54.01800 33.49300

