158

Mg 35.31100 48.39700 24.59500
C  35.45900 46.74600 27.73000
C  33.93300 51.15700 26.09600
C  34.73200 49.71200 21.52900
C  36.13600 45.23500 23.15700
N  34.61900 48.73400 26.76000
C  35.00100 48.04400 27.87000
C  34.70000 48.93300 29.15700
C  34.11300 50.27800 28.52900
C  34.21000 50.04600 26.99000
C  32.67200 50.59100 28.96500
C  35.85200 49.14400 30.21400
C  35.54900 48.66500 31.60000
H  34.10900 48.57500 32.10800
N  34.58100 50.16100 23.92900
C  34.13700 51.19000 24.64600
C  33.90500 52.33800 23.89000
C  33.98700 51.87400 22.49900
C  34.41600 50.52800 22.58800
C  33.49600 53.62100 24.39500
C  33.61900 52.64000 21.21400
O  33.70000 52.09200 20.10200
C  33.24900 53.99000 21.20300
N  35.33800 47.53600 22.69800
C  35.23900 48.33100 21.58900
C  35.53400 47.56400 20.34800
C  36.02700 46.13700 20.80100
C  35.81000 46.27600 22.32300
C  34.48000 47.56700 19.27100
C  37.49600 45.78500 20.51300
C  38.46800 46.80200 21.21900
N  35.73600 46.40300 25.22700
C  36.08600 45.32300 24.54000
C  36.43500 44.24500 25.44300
C  36.19100 44.76200 26.71400
C  35.80300 46.09000 26.53300
C  36.85600 42.93800 25.01600
C  36.28400 44.41300 28.07200
O  36.50400 43.37800 28.65500
C  35.81200 45.80900 28.80500
C  34.64400 45.42900 29.71100
O  33.45700 45.18300 29.41700
O  35.14800 45.18800 30.94000
C  34.34700 44.58100 31.98300
H  33.67300 52.07400 26.62800
H  34.56100 50.13300 20.53600
H  36.35900 44.34000 22.57300
H  33.95500 48.29400 29.63000
H  34.71800 51.16600 28.71500
H  32.19700 49.78000 29.51600
H  32.11500 50.77800 28.04700
H  32.64500 51.46200 29.62000
H  36.14300 50.19300 30.27300
H  36.71200 48.65400 29.75700
H  36.10700 49.27600 32.31000
H  36.10600 47.73600 31.71700
H  33.64600 54.48000 23.74100
H  34.04000 53.85300 25.31000
H  32.43700 53.66000 24.65100
H  34.12800 54.59100 21.43800
H  32.48900 54.26200 21.93600
H  32.85000 54.33200 20.24800
H  36.38100 48.15600 20.00100
H  35.29300 45.43100 20.41400
H  34.58600 46.61400 18.75300
H  34.60100 48.45400 18.64900
H  33.52100 47.58400 19.78800
H  37.69300 45.86200 19.44300
H  37.77200 44.75300 20.72700
H  39.12900 47.33500 20.53500
H  39.28300 46.44400 21.84900
H  37.93100 47.54800 21.80600
H  37.91600 42.68500 25.00400
H  36.31200 42.58500 24.13900
H  36.51600 42.41600 25.91000
H  36.65300 46.21900 29.36400
H  34.15300 43.54100 31.72100
H  33.40900 45.09600 32.18600
H  34.89400 44.55900 32.92600
Mg -1.92900 34.22800 27.42600
C  -3.72400 32.41000 29.76200
C  -1.03600 36.34900 30.01800
C  -0.63000 36.32600 25.15600
C  -3.57700 32.37600 24.94300
N  -2.64800 34.53500 29.58500
C  -3.21900 33.55800 30.31300
C  -2.96600 33.80700 31.77500
C  -2.38100 35.30800 31.80100
C  -1.97400 35.43800 30.38700
C  -3.29500 36.39800 32.34200
C  -1.99000 32.74200 32.39500
C  -2.46700 31.74100 33.55900
H  -1.66700 31.92000 34.90100
N  -0.91100 35.98500 27.59500
C  -0.50900 36.56000 28.76400
C  0.51400 37.50800 28.37700
C  0.63900 37.61000 26.95900
C  -0.28500 36.59100 26.47200
C  1.26800 38.21200 29.49400
C  1.46800 38.51200 26.05700
O  1.43300 38.50000 24.80500
C  2.49900 39.33100 26.65500
N  -1.97200 34.23000 25.35000
C  -1.49800 35.31100 24.63500
C  -2.17000 35.39900 23.24700
C  -2.91800 33.98100 23.12400
C  -2.77100 33.49300 24.55600
C  -3.17000 36.63000 23.06300
C  -2.42300 32.89200 22.14300
C  -1.39700 31.86200 22.47700
N  -3.21700 32.51800 27.35900
C  -3.80000 31.90900 26.26800
C  -4.67300 30.80900 26.66700
C  -4.71200 30.90100 28.08200
C  -3.79700 31.98200 28.38800
C  -5.45000 29.99600 25.66000
C  -5.19300 30.38800 29.31400
O  -5.94500 29.40400 29.56900
C  -4.50500 31.27700 30.46500
C  -5.64100 31.66200 31.21400
O  -6.34800 32.60400 30.93200
O  -5.79700 30.95700 32.33600
C  -7.08800 31.21200 33.09400
H  -0.69700 36.99100 30.83300
H  -0.22500 37.03100 24.42800
H  -4.14100 31.88100 24.14900
H  -3.94400 33.80100 32.25700
H  -1.47600 35.35900 32.40700
H  -2.90500 36.71400 33.31000
H  -4.32300 36.03900 32.40400
H  -3.30500 37.17300 31.57600
H  -1.11700 33.23000 32.83100
H  -1.62800 32.00100 31.68300
H  -2.25400 30.74900 33.16200
H  -3.53400 31.84600 33.75600
H  1.41300 37.60200 30.38600
H  0.72600 39.13800 29.68100
H  2.30000 38.34300 29.16700
H  1.88000 39.95000 27.30500
H  3.02700 39.99100 25.96700
H  3.23600 38.85400 27.30100
H  -1.38300 35.49900 22.50000
H  -3.97800 34.07100 22.88800
H  -2.95000 37.36600 23.83700
H  -4.20600 36.37400 23.28300
H  -3.19700 37.19200 22.12900
H  -2.00100 33.38500 21.26600
H  -3.31200 32.34700 21.82500
H  -1.04200 32.09100 23.48200
H  -0.55000 31.86300 21.79100
H  -1.83500 30.86400 22.47600
H  -5.98500 29.25800 26.25800
H  -4.74700 29.44200 25.03900
H  -6.24500 30.45000 25.06800
H  -3.98300 30.60800 31.14900
H  -7.96200 31.24600 32.44300
H  -6.97900 32.05400 33.77800
H  -7.18300 30.30100 33.68500

