158

Mg 1.43900 -1.92400 43.33900
C  4.87000 -1.35000 42.67000
C  0.61400 0.94000 41.71500
C  -1.80500 -3.11900 43.08200
C  2.38900 -5.32500 44.23600
N  2.61000 -0.61000 42.12500
C  3.93600 -0.52000 42.12300
C  4.33100 0.63900 41.14400
C  3.07900 1.52500 41.29400
C  1.97800 0.52200 41.64900
C  3.21800 2.77700 42.23700
C  4.64500 0.08800 39.73300
C  6.02400 0.55100 39.25000
H  6.14000 1.19600 37.88800
N  -0.32500 -1.11300 42.73200
C  -0.47700 0.11200 42.10000
C  -1.89600 0.33400 41.85500
C  -2.57500 -0.80100 42.42500
C  -1.55200 -1.79500 42.73600
C  -2.47200 1.69500 41.39600
C  -4.08500 -0.85200 42.58500
O  -4.81400 0.08200 42.35900
C  -4.77600 -2.05400 43.26200
N  0.46900 -4.06700 43.45900
C  -0.91000 -4.18700 43.39500
C  -1.29800 -5.64400 43.62600
C  0.08000 -6.37800 43.75300
C  1.06900 -5.21600 43.81000
C  -2.29900 -5.92400 44.74500
C  0.29700 -7.39300 42.60300
C  0.69200 -8.78400 43.06700
N  3.23600 -3.10600 43.54700
C  3.39700 -4.38200 44.03700
C  4.85200 -4.58400 44.16400
C  5.48500 -3.41500 43.69400
C  4.44900 -2.55600 43.33100
C  5.43700 -5.86100 44.70100
C  6.71300 -2.70100 43.48600
O  7.87600 -3.00500 43.74000
C  6.37300 -1.43700 42.58500
C  7.06000 -0.28300 43.05200
O  7.99600 0.26900 42.58600
O  6.51600 0.17200 44.28300
C  7.13700 1.26700 44.94400
H  0.53000 1.99400 41.44500
H  -2.82300 -3.51300 43.04300
H  2.75500 -6.31100 44.52900
H  5.23900 1.13600 41.48600
H  2.93100 1.96400 40.30800
H  2.48000 2.68700 43.03400
H  3.12300 3.77500 41.80900
H  4.15300 2.64700 42.78200
H  3.90400 0.54600 39.07800
H  4.47300 -0.98500 39.64600
H  6.71200 -0.29300 39.21600
H  6.52600 1.17700 39.98800
H  -3.28900 1.60900 40.67900
H  -1.64400 2.25400 40.96000
H  -2.85800 2.26800 42.23800
H  -5.78900 -1.70400 43.46000
H  -4.38800 -2.25900 44.26000
H  -4.78200 -2.94800 42.63700
H  -1.91000 -5.95700 42.78000
H  0.22200 -6.92000 44.68700
H  -3.16800 -6.52100 44.46800
H  -2.80300 -5.04800 45.15400
H  -1.86200 -6.45800 45.58900
H  1.12600 -7.04100 41.99100
H  -0.55100 -7.41000 41.91900
H  -0.17700 -9.43300 42.96000
H  1.03400 -8.78100 44.10200
H  1.48500 -9.30300 42.52900
H  4.80300 -6.11400 45.55000
H  6.33600 -5.73500 45.30400
H  5.55600 -6.66500 43.97600
H  6.81100 -1.50300 41.58900
H  8.05400 0.89000 45.39600
H  6.37200 1.65600 45.61600
H  7.44600 2.02800 44.22700
Mg 47.42900 25.40700 28.69500
C  48.34600 27.54800 31.06500
C  46.49500 23.04500 31.08300
C  46.87400 23.12100 26.28100
C  49.07400 27.39700 26.18600
N  47.49200 25.28500 30.75400
C  47.77200 26.39700 31.53200
C  47.40700 26.17700 33.02900
C  47.07100 24.65100 32.94400
C  46.93100 24.31400 31.47100
C  48.05100 23.74600 33.74900
C  46.26600 27.09000 33.59500
C  45.75600 26.83800 35.03700
H  45.46000 27.85600 36.11600
N  46.61800 23.39200 28.68100
C  46.25400 22.62700 29.76600
C  45.92000 21.33400 29.30600
C  45.81200 21.43200 27.91800
C  46.45600 22.71000 27.55300
C  45.57700 20.20100 30.21700
C  45.28600 20.38100 26.96500
O  45.28900 20.56700 25.74900
C  44.48300 19.17200 27.56900
N  47.87000 25.30100 26.51200
C  47.41600 24.30700 25.76800
C  47.56100 24.51400 24.22900
C  48.14600 25.93300 24.25200
C  48.40700 26.28100 25.73400
C  48.43600 23.46600 23.42200
C  47.02800 26.92400 23.72000
C  47.64700 28.29900 23.18800
N  48.62800 27.02400 28.63900
C  49.22700 27.78600 27.54200
C  49.77900 28.94100 28.08600
C  49.50400 28.97200 29.49400
C  48.77600 27.74100 29.76300
C  50.67400 29.91100 27.30600
C  49.65800 29.68500 30.70300
O  50.27700 30.69300 30.95400
C  48.79200 28.85500 31.75600
C  49.60200 28.81300 32.99800
O  50.69700 28.26200 33.06400
O  48.94000 29.36800 34.07300
C  49.65500 29.43700 35.40100
H  46.19100 22.32000 31.84100
H  46.69500 22.39700 25.48400
H  49.33800 28.16100 25.45200
H  48.36300 26.36200 33.52000
H  46.17000 24.52300 33.54300
H  47.61300 23.48900 34.71400
H  48.96400 24.32700 33.88500
H  48.15800 22.83400 33.16300
H  45.45300 26.89700 32.89500
H  46.66900 28.10200 33.57800
H  46.48800 26.17100 35.49200
H  44.82400 26.31700 34.81700
H  46.00900 19.27700 29.83200
H  44.50000 20.03300 30.21900
H  46.01700 20.30300 31.20900
H  43.91500 18.55700 26.87100
H  43.76600 19.58700 28.27700
H  45.12800 18.41800 28.02000
H  46.60100 24.48000 23.71400
H  49.10600 26.01300 23.74100
H  49.24100 23.99300 22.90800
H  47.79000 23.00800 22.67300
H  48.84300 22.70200 24.08400
H  46.39600 27.15600 24.57700
H  46.46600 26.45700 22.91100
H  47.31700 28.39900 22.15400
H  48.72500 28.18500 23.07500
H  47.18900 29.13500 23.71700
H  51.53300 29.39900 26.87400
H  51.22900 30.38200 28.11700
H  50.14900 30.66100 26.71600
H  47.90800 29.46400 31.94900
H  50.06400 30.40400 35.69200
H  50.42000 28.66200 35.44000
H  48.89400 29.09500 36.10300

