158

Mg -1.92500 17.92300 26.91100
C  -2.68400 15.58900 29.47400
C  -2.85600 20.46300 29.04300
C  -1.12700 20.05800 24.55100
C  -1.69000 15.19000 24.67600
N  -2.77500 17.98800 28.97800
C  -2.91000 16.92900 29.89700
C  -3.33300 17.46500 31.32700
C  -3.30100 19.03400 31.04400
C  -3.00800 19.21400 29.58100
C  -4.60900 19.86800 31.58300
C  -2.50500 16.82700 32.52100
C  -2.43500 17.81600 33.76100
H  -1.91000 17.26900 35.12200
N  -1.92700 20.04500 26.84900
C  -2.38500 20.91500 27.80800
C  -2.32800 22.24300 27.33500
C  -1.67200 22.16500 26.03400
C  -1.59700 20.73700 25.73800
C  -2.92400 23.43500 28.14000
C  -1.19800 23.25100 25.17100
O  -0.59900 23.10500 24.08100
C  -1.35900 24.68100 25.53800
N  -1.61300 17.69200 24.86700
C  -1.13600 18.74500 24.15100
C  -0.85100 18.37700 22.71600
C  -0.94600 16.81500 22.75100
C  -1.48000 16.50800 24.13300
C  -1.75000 19.02300 21.65100
C  0.38400 16.16300 22.47700
C  1.49000 16.29700 23.45800
N  -2.18900 15.79900 27.00200
C  -2.07100 14.80900 26.04000
C  -2.20200 13.46000 26.55400
C  -2.47400 13.71600 27.92700
C  -2.42900 15.18100 28.11600
C  -2.19800 12.16400 25.74300
C  -2.77900 13.10500 29.20400
O  -2.94600 11.90300 29.47500
C  -2.88500 14.33900 30.24100
C  -1.81500 14.07700 31.28500
O  -0.70200 14.50000 31.33600
O  -2.40700 13.35700 32.25400
C  -1.66100 13.07900 33.46500
H  -2.99500 21.21200 29.82600
H  -0.65000 20.69300 23.80100
H  -1.66000 14.36900 23.95700
H  -4.37500 17.16100 31.42700
H  -2.45700 19.51300 31.53900
H  -5.27400 19.24000 32.17600
H  -5.12900 20.18100 30.67800
H  -4.27500 20.68400 32.22300
H  -1.48000 16.69300 32.17500
H  -3.02800 15.93600 32.86700
H  -3.38900 18.29300 33.98400
H  -1.86900 18.71200 33.50800
H  -3.61900 22.98300 28.84800
H  -3.39700 24.18700 27.50900
H  -2.03300 23.87500 28.58700
H  -2.38600 25.01200 25.38200
H  -0.67700 25.36100 25.02700
H  -1.26400 24.80500 26.61600
H  0.14400 18.70300 22.41300
H  -1.58900 16.48000 21.93700
H  -2.71300 18.51500 21.60200
H  -1.20300 18.98600 20.70900
H  -1.84300 20.06800 21.94700
H  0.81800 16.54600 21.55400
H  0.29800 15.08200 22.36400
H  1.83500 15.30200 23.73900
H  1.12600 16.85500 24.32100
H  2.24300 16.92500 22.98200
H  -2.72300 12.16200 24.78900
H  -2.82600 11.40100 26.20100
H  -1.24400 11.65000 25.62500
H  -3.85900 14.17000 30.70100
H  -0.68300 12.70900 33.15800
H  -2.16400 12.35900 34.11100
H  -1.52100 14.02300 33.99200
Mg -13.04900 16.00000 42.37300
C  -9.99200 14.47500 41.69500
C  -11.75400 18.82500 40.45200
C  -16.13200 17.30200 41.92500
C  -14.40300 12.90100 43.18200
N  -11.15200 16.53700 41.16700
C  -10.00700 15.73500 41.12000
C  -8.82300 16.49600 40.38100
C  -9.40900 17.94300 40.21100
C  -10.89600 17.73600 40.59200
C  -8.73600 19.06500 41.06400
C  -8.30700 15.93400 39.01100
C  -6.78400 16.26300 38.91400
H  -6.39300 16.88400 37.66300
N  -13.82800 17.85900 41.61000
C  -13.08300 18.84200 40.88000
C  -14.08800 19.88500 40.42800
C  -15.39200 19.30400 40.46100
C  -15.17100 18.09700 41.34800
C  -13.77900 21.21000 39.86700
C  -16.65000 19.95700 40.01200
O  -16.60900 20.99200 39.39200
C  -17.94900 19.33500 40.28700
N  -14.96600 15.15800 42.37800
C  -16.04800 15.97400 42.39200
C  -17.30000 15.16000 42.77300
C  -16.82600 13.64600 42.81000
C  -15.31600 13.87700 42.80200
C  -17.83900 15.65900 44.13200
C  -17.41800 12.75800 41.67100
C  -18.03700 11.41300 42.19500
N  -12.33600 14.06700 42.75700
C  -12.94800 12.98000 43.12400
C  -11.96000 11.98200 43.27500
C  -10.77300 12.48200 42.74500
C  -11.05900 13.76100 42.38700
C  -12.19700 10.56000 43.66600
C  -9.38200 12.27100 42.47200
O  -8.69500 11.26400 42.61900
C  -8.83200 13.58300 41.76500
C  -7.72500 14.05700 42.60900
O  -7.79200 14.19700 43.82200
O  -6.63400 14.23600 41.75100
C  -5.29300 14.66900 42.31300
H  -11.51100 19.76200 39.94600
H  -17.08900 17.82600 41.96500
H  -14.81900 11.95500 43.53500
H  -8.03600 16.56400 41.13200
H  -9.42000 18.20900 39.15400
H  -7.93700 18.69400 41.70500
H  -9.40400 19.51200 41.80000
H  -8.38000 19.75200 40.29600
H  -8.84700 16.37600 38.17300
H  -8.45800 14.85900 39.11300
H  -6.17600 15.38100 39.11400
H  -6.55500 17.01400 39.67000
H  -14.18400 22.04900 40.43300
H  -14.13400 21.16600 38.83700
H  -12.72400 21.45000 39.73300
H  -18.02200 18.26800 40.07600
H  -18.63700 19.87800 39.63900
H  -18.26800 19.52200 41.31300
H  -17.91000 15.45200 41.91800
H  -17.02600 13.26700 43.81100
H  -17.01600 16.16400 44.63800
H  -17.92200 14.80800 44.80700
H  -18.75200 16.23700 43.99000
H  -16.54000 12.37400 41.15200
H  -18.05800 13.24800 40.93600
H  -19.12600 11.43800 42.16200
H  -17.86600 11.23900 43.25700
H  -17.69200 10.49000 41.73000
H  -12.89600 10.19300 42.91400
H  -12.70700 10.53500 44.62800
H  -11.30800 9.93000 43.69100
H  -8.64200 13.26300 40.74000
H  -4.61200 14.78400 41.46900
H  -4.88200 13.93400 43.00500
H  -5.40300 15.63400 42.80800

