158

Mg 35.39500 0.94400 29.43700
C  33.07400 1.64300 31.99100
C  37.76100 0.53900 31.68800
C  37.67200 0.44300 26.68000
C  32.91800 1.64600 26.97500
N  35.42200 1.37600 31.68000
C  34.35700 1.33100 32.48600
C  34.80300 1.23800 33.99400
C  36.32600 1.15700 33.82000
C  36.50700 0.96000 32.36000
C  37.14700 2.32400 34.43200
C  34.13200 0.10200 34.72900
C  33.74100 0.55000 36.18000
H  34.61200 1.56900 36.99700
N  37.37200 0.50900 29.22100
C  38.17300 0.48500 30.34100
C  39.53000 0.14400 29.94600
C  39.57300 0.17700 28.51500
C  38.13600 0.39000 28.02500
C  40.75700 0.07900 30.95200
C  40.71300 -0.09600 27.61500
O  40.59400 -0.09300 26.40200
C  42.12100 -0.43400 28.05500
N  35.21000 0.94100 27.13800
C  36.29100 0.66400 26.25700
C  35.97900 0.71500 24.77000
C  34.37800 0.88400 24.89200
C  34.12600 1.18400 26.43700
C  36.65300 1.90500 24.04600
C  33.61200 -0.40400 24.47200
C  33.81400 -1.68500 25.28800
N  33.43300 1.52200 29.38600
C  32.56400 1.72200 28.35500
C  31.32400 2.15800 28.89400
C  31.40600 2.10200 30.30300
C  32.78600 1.71700 30.56200
C  30.15100 2.68300 28.10500
C  30.75900 2.36600 31.59800
O  29.62000 2.81200 31.85000
C  31.91800 2.13400 32.77100
C  32.21100 3.50700 33.34800
O  32.87600 4.36300 32.77200
O  31.69100 3.62300 34.65500
C  31.90000 4.84700 35.37000
H  38.54800 0.25100 32.38800
H  38.40500 0.29600 25.88400
H  32.18600 1.81900 26.18300
H  34.55800 2.18900 34.46700
H  36.73100 0.21400 34.18900
H  37.46500 2.22000 35.47000
H  36.56600 3.23700 34.56400
H  38.08400 2.43300 33.88700
H  34.71200 -0.81300 34.84700
H  33.21100 -0.21000 34.23700
H  33.68800 -0.37300 36.75900
H  32.70300 0.88100 36.17800
H  41.31700 -0.84600 30.82100
H  40.57700 0.07200 32.02700
H  41.33800 0.98800 30.80100
H  42.49900 0.19800 28.85800
H  42.69900 -0.36300 27.13300
H  42.24000 -1.48400 28.32200
H  36.31900 -0.23600 24.35900
H  33.94900 1.77300 24.42900
H  37.13200 1.41800 23.19700
H  37.51200 2.34700 24.55100
H  35.90100 2.66300 23.82600
H  33.85400 -0.58700 23.42500
H  32.54500 -0.18600 24.52900
H  34.24900 -1.48600 26.26800
H  34.46400 -2.35200 24.72200
H  32.92400 -2.31300 25.31600
H  29.79000 1.86300 27.48500
H  30.44000 3.47400 27.41400
H  29.52400 3.27300 28.77300
H  31.50500 1.47100 33.53200
H  30.92400 5.30200 35.53900
H  32.55600 5.54000 34.84400
H  32.39200 4.66200 36.32500
Mg -9.60700 39.87800 42.62000
C  -8.44900 36.69100 41.60600
C  -6.76200 41.12800 41.22800
C  -10.84500 42.84100 43.12100
C  -12.59400 38.34700 43.57200
N  -7.82100 38.99400 41.46300
C  -7.53800 37.66700 41.20600
C  -6.23000 37.47100 40.41000
C  -5.73100 38.96400 40.36000
C  -6.78900 39.75500 41.09200
C  -4.30500 39.08600 40.89100
C  -6.39300 36.84000 39.05100
C  -5.27500 35.77900 38.62800
H  -4.31500 36.20500 37.48400
N  -8.86000 41.80000 42.30200
C  -7.62000 42.11500 41.79100
C  -7.40000 43.49900 41.84100
C  -8.60900 44.11000 42.37800
C  -9.50100 42.92800 42.62800
C  -6.14700 44.13300 41.20100
C  -8.86200 45.60600 42.53400
O  -8.00900 46.47500 42.41300
C  -10.21600 46.13500 42.91300
N  -11.42500 40.51300 43.08200
C  -11.65900 41.75400 43.32300
C  -13.07600 41.98800 43.87100
C  -13.73300 40.54500 44.00700
C  -12.54400 39.72300 43.50600
C  -13.12100 42.86100 45.22900
C  -15.07800 40.28600 43.21200
C  -16.30000 40.64100 43.96200
N  -10.35500 37.91100 42.70600
C  -11.58800 37.45000 43.13500
C  -11.58100 36.01900 43.20000
C  -10.37300 35.66600 42.54800
C  -9.71100 36.90900 42.22000
C  -12.59600 35.15700 43.71200
C  -9.47300 34.50700 42.22300
O  -9.57900 33.31800 42.37600
C  -8.22400 35.21000 41.59300
C  -7.06400 34.85600 42.51000
O  -6.70800 35.49300 43.51700
O  -6.45800 33.73100 42.00400
C  -5.30300 33.14700 42.74000
H  -5.83400 41.62800 40.94100
H  -11.23500 43.81700 43.41700
H  -13.43800 37.77400 43.96000
H  -5.60300 36.74300 40.92600
H  -5.77300 39.28100 39.31800
H  -3.67700 39.42400 40.06700
H  -3.92000 38.10500 41.17000
H  -4.17800 39.86400 41.64400
H  -6.29600 37.60000 38.27600
H  -7.28200 36.29800 38.72900
H  -5.67000 34.79700 38.36700
H  -4.55000 35.60200 39.42300
H  -5.93200 43.62200 40.26200
H  -5.37700 44.13000 41.97100
H  -6.29200 45.20000 41.03100
H  -11.00900 45.67700 42.32100
H  -10.21300 47.20600 42.71400
H  -10.31500 45.93700 43.98000
H  -13.58100 42.59600 43.12200
H  -13.92200 40.22900 45.03300
H  -12.42800 43.70000 45.29200
H  -13.14600 42.14100 46.04800
H  -14.07200 43.38700 45.15400
H  -15.08900 39.25000 42.87200
H  -15.12000 40.86400 42.28900
H  -16.03900 40.96900 44.96900
H  -16.78900 39.66800 44.00600
H  -16.93700 41.38500 43.48400
H  -12.90900 35.68000 44.61500
H  -12.18300 34.17600 43.94700
H  -13.46400 35.19900 43.05400
H  -8.00900 34.75200 40.62700
H  -4.37500 33.67000 42.50700
H  -5.17800 32.09000 42.50400
H  -5.30100 33.17000 43.82900

