158

Mg 34.82900 2.00900 29.11300
C  32.69100 3.08800 31.68500
C  37.43300 2.04000 31.33800
C  37.07400 1.95000 26.48700
C  32.34800 2.86800 26.80100
N  35.04000 2.47600 31.27300
C  34.02900 2.81900 32.10700
C  34.52700 2.72300 33.53600
C  36.08900 2.64900 33.42300
C  36.27300 2.33300 31.94000
C  36.79600 3.98400 33.95800
C  33.85800 1.69000 34.45300
C  33.40800 2.16400 35.88000
H  34.14200 3.27200 36.55900
N  36.91300 1.71800 28.96900
C  37.77600 1.79100 30.00000
C  39.10200 1.62000 29.49300
C  39.04700 1.64100 28.09100
C  37.59900 1.76300 27.75500
C  40.33000 1.43700 30.40200
C  40.18700 1.59400 27.09600
O  40.05300 1.65500 25.86500
C  41.62200 1.44800 27.62000
N  34.66900 2.24100 26.96100
C  35.72600 2.09000 26.11200
C  35.27400 2.26100 24.65800
C  33.71700 2.31500 24.77700
C  33.52900 2.44600 26.21600
C  35.87900 3.54800 24.04000
C  32.97200 1.06800 24.25200
C  33.03600 -0.25000 25.08000
N  32.81800 2.64400 29.16800
C  31.97500 2.98600 28.15500
C  30.65800 3.31500 28.69100
C  30.83400 3.35300 30.09100
C  32.22400 2.99800 30.33300
C  29.38800 3.74100 27.93800
C  30.24200 3.56900 31.35100
O  29.11900 3.95600 31.60700
C  31.47000 3.37700 32.47000
C  31.61200 4.62700 33.39600
O  32.31000 5.64200 33.17900
O  30.92100 4.34400 34.55200
C  30.84800 5.55500 35.43000
H  38.38300 2.02600 31.87700
H  37.77500 1.96900 25.65000
H  31.48300 3.18700 26.21700
H  34.27200 3.74600 33.81200
H  36.46000 1.76600 33.94200
H  36.20600 4.62400 34.61400
H  37.16600 4.54900 33.10300
H  37.64500 3.75300 34.60100
H  34.56500 0.87600 34.61600
H  33.11500 1.11000 33.90500
H  33.37900 1.25000 36.47400
H  32.38800 2.53200 35.77300
H  40.91800 0.60700 30.00800
H  40.07200 1.19900 31.43400
H  40.90900 2.35100 30.27000
H  41.90900 0.40000 27.70400
H  41.75300 2.12900 28.46100
H  42.20900 1.90800 26.82500
H  35.47600 1.42900 23.98200
H  33.28200 3.06700 24.12000
H  35.13800 4.30000 23.77000
H  36.44100 3.42800 23.11300
H  36.59200 4.02000 24.71500
H  33.31500 0.86600 23.23700
H  31.89200 1.22000 24.26400
H  32.04100 -0.53600 25.42200
H  33.76100 -0.13300 25.88600
H  33.44700 -1.05000 24.46400
H  28.59500 3.00200 28.05100
H  29.48700 3.97700 26.87800
H  28.91200 4.59300 28.42300
H  31.33600 2.57200 33.19300
H  29.95900 5.35400 36.02700
H  30.69800 6.43000 34.79800
H  31.67400 5.66300 36.13400
Mg 16.83700 53.02800 26.71600
C  18.85000 51.22600 28.89500
C  14.49700 53.52200 29.08400
C  14.66700 54.26000 24.28000
C  18.82500 51.83900 24.11000
N  16.76800 52.54400 28.77300
C  17.70400 51.79800 29.43500
C  17.34400 51.94400 30.93400
C  15.81600 52.46300 30.96500
C  15.69400 52.86000 29.51900
C  14.82500 51.28600 31.27300
C  18.29100 52.97600 31.61600
C  18.68300 52.59700 33.07600
H  17.57000 52.14400 34.01700
N  15.05800 54.00200 26.72700
C  14.23600 54.18500 27.84700
C  13.01500 54.93100 27.52900
C  13.08900 55.17300 26.15200
C  14.33600 54.47800 25.62600
C  11.99400 55.34500 28.55700
C  12.04500 55.89300 25.23300
O  12.10000 55.81900 24.04600
C  10.81600 56.65100 25.75300
N  16.75800 53.01100 24.53800
C  15.77600 53.58600 23.78900
C  16.13800 53.63300 22.30000
C  17.62700 53.15300 22.28500
C  17.73700 52.57400 23.68500
C  15.22200 52.67100 21.37600
C  18.71700 54.26700 21.90900
C  19.17500 54.20600 20.44300
N  18.57500 51.89600 26.51000
C  19.26400 51.45700 25.38000
C  20.51700 50.90400 25.86000
C  20.42600 50.73200 27.19200
C  19.15700 51.28300 27.54100
C  21.70000 50.55400 24.91600
C  21.06500 50.18400 28.40900
O  22.13400 49.62700 28.49900
C  20.08900 50.63200 29.57600
C  19.64000 49.32800 30.23900
O  19.11200 48.36600 29.72900
O  19.84500 49.50700 31.60600
C  19.42500 48.30900 32.35500
H  13.72500 53.54100 29.85700
H  14.01300 54.60400 23.47600
H  19.59400 51.58400 23.37800
H  17.49300 50.95300 31.36200
H  15.74500 53.32200 31.63300
H  13.98600 51.73700 31.80300
H  15.28900 50.68500 32.05500
H  14.51600 50.73800 30.38300
H  17.87400 53.98100 31.56500
H  19.24200 52.92300 31.08600
H  19.07200 53.52900 33.48400
H  19.51400 51.89100 33.08100
H  12.23800 54.79100 29.46400
H  10.98600 55.14700 28.19300
H  12.12000 56.40600 28.77000
H  11.18300 57.44900 26.39900
H  10.10600 55.95900 26.20800
H  10.29700 57.07700 24.89400
H  16.12500 54.65800 21.92800
H  17.83100 52.32100 21.61200
H  14.20400 52.70000 21.76500
H  15.54300 51.62900 21.37600
H  15.11300 52.89900 20.31600
H  19.54100 54.22800 22.62200
H  18.23100 55.23900 21.99300
H  18.52700 53.67500 19.74600
H  20.06200 53.57200 20.44900
H  19.27800 55.23100 20.08700
H  21.70500 51.28900 24.11100
H  21.63500 49.59500 24.40300
H  22.60500 50.58200 25.52300
H  20.52700 51.26100 30.35100
H  19.70300 48.40200 33.40500
H  19.84000 47.39200 31.93600
H  18.33600 48.35400 32.36100

