158

Mg 26.66100 50.21200 26.27700
C  25.04300 51.85100 28.91500
C  29.18400 49.29700 28.63000
C  28.66100 49.16000 23.75600
C  24.56600 51.84900 24.13600
N  27.01400 50.53700 28.52700
C  26.13100 51.14000 29.35600
C  26.53300 50.91300 30.79900
C  28.00000 50.34000 30.68800
C  28.07500 49.97400 29.18900
C  29.12600 51.28400 31.20400
C  25.46400 49.92300 31.44600
C  24.89000 50.43300 32.81700
H  25.74300 50.94300 33.95100
N  28.57500 49.19600 26.23100
C  29.44900 48.94400 27.28200
C  30.56500 48.22700 26.74700
C  30.50900 48.27900 25.32200
C  29.19600 48.89500 25.05300
C  31.75500 47.81900 27.60800
C  31.67500 47.99700 24.28700
O  31.49500 48.04200 23.10500
C  33.08900 47.71400 24.68900
N  26.71300 50.60800 24.26000
C  27.53400 49.88100 23.43400
C  27.05200 49.89600 21.99300
C  25.66400 50.73500 22.18200
C  25.61200 51.08800 23.63200
C  28.10400 50.40200 21.02700
C  24.27500 50.20200 21.60300
C  23.57300 51.10200 20.52400
N  25.04000 51.56300 26.41500
C  24.29200 52.20700 25.50000
C  23.22900 52.99200 26.07300
C  23.49000 52.90200 27.50400
C  24.62000 52.03800 27.60500
C  22.20000 53.82200 25.43800
C  23.09000 53.35200 28.80600
O  22.20500 54.05600 29.12800
C  24.15200 52.70400 29.82400
C  24.77900 53.73500 30.69300
O  25.85100 54.27500 30.50400
O  23.93400 54.01300 31.67300
C  24.49000 54.98100 32.62300
H  29.85300 48.93900 29.41500
H  29.23700 48.76500 22.91700
H  23.77500 52.22000 23.48200
H  26.44100 51.87800 31.29900
H  28.14500 49.35200 31.12400
H  28.74600 52.29700 31.33600
H  29.95400 51.44800 30.51300
H  29.48000 50.91300 32.16700
H  25.83700 48.90500 31.56400
H  24.58800 49.86000 30.80000
H  24.31300 49.54100 33.06100
H  24.22900 51.25300 32.53700
H  31.95100 46.75100 27.50900
H  31.63100 48.09900 28.65400
H  32.62700 48.44200 27.41300
H  33.49700 48.71300 24.83800
H  33.63900 47.20200 23.89900
H  33.16200 47.16000 25.62500
H  26.77500 48.87100 21.74800
H  25.87700 51.71700 21.76000
H  28.71600 49.73100 20.42400
H  28.71700 51.01900 21.68300
H  27.55300 51.08300 20.37800
H  23.57000 50.21200 22.43300
H  24.31000 49.16800 21.26200
H  22.70200 51.52000 21.03000
H  23.29200 50.50200 19.65800
H  24.26300 51.93500 20.38800
H  21.20300 53.41500 25.60900
H  22.29900 53.74600 24.35500
H  22.24300 54.83000 25.85000
H  23.60800 52.02000 30.47500
H  24.93600 55.83700 32.11700
H  25.17200 54.40000 33.24400
H  23.81200 55.35900 33.38700
Mg -10.95300 15.61700 41.63400
C  -7.85700 14.07900 41.21800
C  -9.52100 18.51700 40.28700
C  -13.92800 16.82800 41.04700
C  -12.24900 12.48800 42.44400
N  -8.85000 16.27300 41.06100
C  -7.88500 15.39300 40.86000
C  -6.68000 16.14400 40.14600
C  -7.13500 17.63100 40.13000
C  -8.58000 17.49300 40.56200
C  -6.34100 18.71500 40.94100
C  -6.34400 15.58500 38.69000
C  -4.85700 15.42600 38.36600
H  -4.38000 16.26400 37.12200
N  -11.63900 17.43800 40.82700
C  -10.91200 18.44600 40.34000
C  -11.78100 19.57400 40.02200
C  -13.14100 19.13000 40.14100
C  -12.96500 17.74800 40.66800
C  -11.28600 21.00000 39.73000
C  -14.37200 19.95800 39.99000
O  -14.36900 21.14000 39.73000
C  -15.73200 19.31200 40.17100
N  -12.82800 14.73200 41.70000
C  -13.93700 15.45000 41.44300
C  -15.24300 14.68100 41.69100
C  -14.74900 13.37000 42.32400
C  -13.21400 13.43700 42.07700
C  -16.20000 15.51600 42.62000
C  -15.40300 12.03600 41.86600
C  -16.00400 11.06700 42.94300
N  -10.23100 13.75100 42.07400
C  -10.85900 12.62700 42.46900
C  -9.86500 11.62500 42.59200
C  -8.62700 12.14600 42.10800
C  -8.97200 13.40200 41.69900
C  -10.15900 10.22600 42.98200
C  -7.25100 11.77400 41.68100
O  -6.73000 10.65300 41.61400
C  -6.66900 13.06500 41.09200
C  -5.57700 13.42800 41.98700
O  -5.63200 13.65000 43.16600
O  -4.38000 13.25500 41.36300
C  -3.13800 13.57800 42.13300
H  -8.99500 19.32300 39.77100
H  -14.91900 17.27600 40.94800
H  -12.71200 11.50300 42.53600
H  -5.74300 15.93500 40.66400
H  -7.18400 17.96100 39.09200
H  -5.25900 18.59900 41.00000
H  -6.83400 18.81400 41.90800
H  -6.42600 19.70900 40.49900
H  -6.79700 16.21400 37.92400
H  -6.79400 14.60000 38.56100
H  -4.66800 14.41100 38.01600
H  -4.27200 15.70300 39.24300
H  -11.07000 21.26900 38.69600
H  -10.26400 21.01600 40.10800
H  -11.89000 21.81100 40.13700
H  -15.80600 18.46000 39.49500
H  -16.59600 19.89700 39.85600
H  -15.90500 19.05900 41.21700
H  -15.68700 14.51200 40.71000
H  -14.84400 13.40800 43.40900
H  -15.67600 16.40900 42.96300
H  -16.36400 14.89200 43.49800
H  -17.15400 15.71900 42.13300
H  -14.73000 11.49400 41.20100
H  -16.24100 12.38600 41.26300
H  -15.92400 11.54000 43.92100
H  -15.43400 10.14100 42.86800
H  -17.06500 10.87000 42.78900
H  -11.07400 9.85000 42.52500
H  -10.33300 10.28000 44.05700
H  -9.28900 9.69700 42.59200
H  -6.22300 12.76800 40.14300
H  -2.44300 13.61700 41.29400
H  -2.91200 12.82400 42.88800
H  -3.36900 14.49000 42.68200

