158

Mg 44.71100 4.51600 48.16200
C  42.24100 6.88200 47.47400
C  42.25600 1.98800 48.17900
C  47.11100 2.16700 48.27000
C  47.20600 6.95600 47.60800
N  42.49300 4.48200 47.79200
C  41.73100 5.55800 47.60600
C  40.30000 5.16300 47.38500
C  40.19100 3.62800 47.78100
C  41.71900 3.27400 47.93100
C  39.38700 3.40500 49.10700
C  40.05400 5.38300 45.83400
C  39.00300 6.44600 45.51300
H  39.32000 7.36600 44.31900
N  44.67800 2.32700 48.24100
C  43.60100 1.51100 48.23400
C  44.08900 0.16500 48.21200
C  45.51400 0.13000 48.19900
C  45.85600 1.58200 48.26500
C  43.05100 -1.01900 47.97800
C  46.33200 -1.14000 48.12700
O  45.78500 -2.24800 48.08400
C  47.86600 -1.12300 48.11000
N  46.85400 4.59200 47.65200
C  47.54500 3.51400 48.15900
C  49.04200 3.77300 48.38400
C  49.11200 5.33900 48.07000
C  47.66200 5.66800 47.79000
C  49.72100 3.34500 49.73300
C  50.08100 5.92900 46.99700
C  51.45800 6.22100 47.42600
N  44.71000 6.50100 47.68100
C  45.88800 7.40600 47.57100
C  45.27100 8.74400 47.35400
C  43.87000 8.54000 47.46200
C  43.56500 7.17700 47.55800
C  46.00900 9.99200 46.93700
C  42.65000 9.23700 47.32900
O  42.44400 10.43200 47.08600
C  41.53200 8.19100 47.33000
C  40.58200 8.50000 48.43100
O  40.57700 8.00500 49.53900
O  39.62900 9.37600 47.94100
C  38.67900 9.92700 48.95200
H  41.45400 1.25600 48.07000
H  47.94300 1.52300 48.56000
H  48.02800 7.67500 47.61000
H  39.58300 5.81700 47.88200
H  39.82900 3.00700 46.96200
H  38.68800 2.60000 48.88000
H  38.87200 4.33000 49.36400
H  39.96200 3.04400 49.96000
H  39.67900 4.45900 45.39300
H  41.00900 5.66600 45.39200
H  38.69500 6.95900 46.42500
H  38.14700 5.93400 45.07400
H  43.32600 -1.61700 47.10900
H  42.02200 -0.70300 47.81000
H  43.11200 -1.55100 48.92700
H  48.24000 -0.55300 47.26000
H  48.34600 -2.10200 48.09700
H  48.04100 -0.54000 49.01400
H  49.62200 3.24200 47.63000
H  49.45200 5.67300 49.05100
H  50.48200 4.07100 50.01900
H  50.37100 2.51600 49.45400
H  49.11400 3.14100 50.61500
H  49.58700 6.72900 46.44500
H  50.13100 5.08200 46.31400
H  51.71600 7.24800 47.17000
H  52.21000 5.65400 46.87900
H  51.72600 6.03800 48.46700
H  46.85000 10.31100 47.55300
H  45.25700 10.78200 46.93500
H  46.42900 9.68500 45.97900
H  41.19400 8.15500 46.29500
H  37.70900 10.30800 48.63000
H  39.21800 10.78700 49.35100
H  38.51200 9.28000 49.81300
Mg 9.24200 49.05200 25.96400
C  7.18500 49.37100 28.83000
C  11.75000 50.40600 27.92900
C  11.21500 48.81900 23.31100
C  6.56000 48.00400 24.06500
N  9.43800 49.77700 28.08200
C  8.47900 49.74500 29.09800
C  9.07800 50.31500 30.43500
C  10.48100 50.84000 29.96700
C  10.55900 50.31900 28.56400
C  10.54500 52.35300 29.84300
C  9.07200 49.32200 31.63800
C  8.21800 49.81300 32.80200
H  8.68100 50.83900 33.92800
N  11.25000 49.51500 25.63400
C  12.11500 50.04500 26.56200
C  13.45400 49.99400 25.98600
C  13.35500 49.54600 24.65600
C  11.89300 49.32800 24.41100
C  14.70400 50.39600 26.69100
C  14.35500 49.34000 23.58000
O  14.11100 48.98400 22.38600
C  15.81500 49.46000 23.99900
N  8.87100 48.62400 23.97500
C  9.88500 48.59900 23.05800
C  9.46300 47.99200 21.69100
C  8.00700 47.45100 22.10400
C  7.75500 48.10800 23.45800
C  9.21900 49.05400 20.55500
C  7.95600 45.92600 21.93800
C  8.78600 45.19600 23.04800
N  7.25000 48.78800 26.33100
C  6.28700 48.36800 25.42100
C  5.06000 48.25000 26.17700
C  5.38400 48.59900 27.50600
C  6.72200 48.93900 27.56500
C  3.73300 47.77700 25.71900
C  4.78400 48.75200 28.86800
O  3.70500 48.54600 29.31500
C  5.93800 49.24600 29.71900
C  6.04300 48.30100 30.83900
O  6.67500 47.26100 30.88100
O  5.26500 48.71000 31.89700
C  4.97800 47.61700 32.85200
H  12.56100 50.75000 28.57500
H  11.88900 48.76600 22.45300
H  5.70900 47.57000 23.53600
H  8.37200 51.09700 30.71400
H  11.34800 50.39100 30.45100
H  10.12000 52.56200 28.86100
H  11.56900 52.72500 29.79400
H  10.02400 52.95200 30.58900
H  10.11700 49.35000 31.94300
H  8.83800 48.26100 31.54700
H  7.84300 48.95800 33.36400
H  7.37300 50.34400 32.36400
H  14.28900 50.93800 27.54000
H  15.34000 51.09200 26.14400
H  15.24700 49.49700 26.98300
H  16.05700 50.49200 24.25200
H  16.47900 49.08100 23.22100
H  15.89900 48.88700 24.92300
H  10.09200 47.14000 21.43500
H  7.35400 47.91800 21.36700
H  10.14600 49.60300 20.38600
H  8.49500 49.82800 20.81000
H  8.87800 48.57000 19.64000
H  8.35900 45.54500 20.99900
H  6.93600 45.60000 22.13900
H  9.09700 45.87600 23.84100
H  9.63100 44.71900 22.55200
H  8.25500 44.32900 23.44000
H  2.99700 48.54600 25.95500
H  3.49400 46.81400 26.17000
H  3.76700 47.72200 24.63100
H  5.59300 50.18900 30.14300
H  4.29300 47.95500 33.63000
H  5.86200 47.12400 33.25500
H  4.42500 46.87100 32.28100

