158

Mg 55.81600 24.94900 44.52600
C  53.25200 26.83800 43.09200
C  54.67900 22.08800 42.88000
C  58.72900 23.45000 45.24200
C  57.16600 27.90900 45.82000
N  54.20400 24.50500 43.06800
C  53.24300 25.45100 42.61400
C  52.30100 24.75500 41.60700
C  52.61900 23.24200 41.90000
C  53.89800 23.24100 42.62600
C  51.52600 22.50900 42.82900
C  52.60100 25.20500 40.12500
C  51.52900 24.84300 39.11200
H  51.94300 24.02900 37.85700
N  56.54300 23.01400 44.25700
C  55.84100 21.94400 43.67000
C  56.69000 20.76600 43.85200
C  57.81200 21.19900 44.57700
C  57.77800 22.63100 44.67600
C  56.24600 19.32800 43.45300
C  58.92300 20.31600 45.18900
O  58.88700 19.09400 45.02300
C  60.03500 20.80500 45.93300
N  57.76100 25.62500 45.30500
C  58.77500 24.74600 45.53400
C  59.91600 25.39000 46.32500
C  59.45100 26.88900 46.32100
C  58.02800 26.82800 45.79500
C  60.24800 24.73200 47.61600
C  60.36200 27.87000 45.44100
C  60.60000 29.19200 46.11000
N  55.37700 27.04000 44.53000
C  55.88400 28.06700 45.23400
C  55.00700 29.19400 45.11500
C  53.99200 28.81900 44.25200
C  54.28100 27.50000 43.88100
C  55.23700 30.45900 45.88600
C  52.76700 29.24200 43.68500
O  52.20300 30.31900 43.89700
C  52.15300 27.96500 42.94100
C  51.96800 28.34000 41.56200
O  52.73200 29.04600 40.94900
O  50.80300 27.79200 40.98300
C  50.34900 28.27600 39.68700
H  54.23100 21.21300 42.40500
H  59.74800 23.08100 45.37900
H  57.61000 28.75200 46.35300
H  51.26100 24.92000 41.88900
H  52.69800 22.60700 41.01700
H  50.64400 23.14500 42.76200
H  51.81200 22.49700 43.88100
H  51.41100 21.45500 42.57600
H  53.54200 24.74600 39.82500
H  52.69800 26.27000 39.91600
H  51.15300 25.79800 38.74600
H  50.66400 24.33800 39.54100
H  57.09300 18.77700 43.04400
H  55.57600 19.51600 42.61400
H  55.93200 18.73300 44.31000
H  60.32100 20.06900 46.68400
H  59.76100 21.63300 46.58600
H  60.83800 21.13600 45.27400
H  60.85000 25.37300 45.76400
H  59.38800 27.28600 47.33400
H  60.67200 25.48500 48.28100
H  61.07000 24.04600 47.41500
H  59.33000 24.31500 48.02900
H  59.74600 28.18500 44.59900
H  61.24700 27.37700 45.03800
H  61.67700 29.30800 46.22500
H  60.08600 29.31000 47.06400
H  60.13400 29.96700 45.50100
H  55.86100 30.18800 46.73700
H  54.29500 30.95000 46.13000
H  55.77000 31.07900 45.16500
H  51.13400 27.75900 43.26800
H  51.12800 28.52000 38.96500
H  49.64400 29.06600 39.94500
H  49.78300 27.45900 39.24000
Mg 17.06400 51.19200 25.96900
C  18.86800 49.96500 28.69700
C  14.76400 52.43600 28.16700
C  15.21500 52.23600 23.38200
C  19.50000 49.93700 23.91100
N  16.89100 51.18700 28.18200
C  17.71800 50.66400 29.09500
C  17.21100 50.94600 30.58700
C  15.73700 51.48600 30.32800
C  15.82800 51.78500 28.82700
C  14.63400 50.59400 30.79100
C  18.22900 51.92300 31.27100
C  17.90700 52.52100 32.63600
H  16.92200 51.74400 33.51600
N  15.33800 52.32600 25.80700
C  14.54100 52.75700 26.82300
C  13.40300 53.43300 26.31700
C  13.49500 53.45900 24.87900
C  14.75000 52.65000 24.59000
C  12.42900 54.01700 27.17100
C  12.71900 54.23700 23.83800
O  13.00100 54.11300 22.66200
C  11.36700 54.92900 24.16900
N  17.30400 51.07500 23.99400
C  16.35200 51.52500 23.10600
C  16.97900 51.37200 21.66700
C  18.48400 51.04900 21.83500
C  18.45600 50.69900 23.35300
C  16.10200 50.46700 20.73600
C  19.59400 52.16000 21.52600
C  20.78600 51.59300 20.72100
N  18.83200 50.12000 26.17200
C  19.66400 49.62500 25.25700
C  20.79300 48.88000 25.93000
C  20.48400 48.99900 27.31700
C  19.35500 49.78300 27.40400
C  21.98900 48.35200 25.39500
C  20.90700 48.61900 28.62800
O  21.77500 47.87400 28.96800
C  19.87700 49.32700 29.64600
C  19.29000 48.27800 30.50000
O  18.58800 47.29500 30.13800
O  19.54300 48.57300 31.80500
C  18.92200 47.76600 32.88200
H  13.95800 52.79900 28.80800
H  14.68400 52.66400 22.53000
H  20.16800 49.55500 23.13600
H  17.23800 49.98800 31.10500
H  15.53900 52.43200 30.83200
H  14.24700 50.07700 29.91300
H  13.88500 51.22100 31.27500
H  15.04500 49.73900 31.32700
H  18.75700 52.50300 30.51400
H  19.06500 51.27700 31.53900
H  17.38200 53.47100 32.53700
H  18.74700 52.55200 33.33000
H  11.48700 53.47600 27.27000
H  12.23200 55.01700 26.78400
H  12.77900 54.29700 28.16400
H  11.66600 55.80500 24.74600
H  10.81500 54.33200 24.89400
H  10.83900 55.15300 23.24200
H  17.06900 52.31700 21.13100
H  18.70000 50.17300 21.22400
H  15.70500 51.04400 19.90100
H  15.24500 50.09700 21.29900
H  16.69700 49.66100 20.30800
H  19.96100 52.64600 22.43000
H  19.06200 52.91400 20.94700
H  20.73000 51.81200 19.65400
H  20.95100 50.51700 20.67900
H  21.68800 52.10200 21.05800
H  22.84700 49.00400 25.55600
H  21.83000 48.04500 24.36100
H  22.19700 47.39800 25.87900
H  20.32400 50.12200 30.24400
H  19.53400 46.98200 33.32700
H  18.04000 47.28800 32.45400
H  18.52600 48.40900 33.66700

