158

Mg 49.99800 44.72200 42.28600
C  46.51500 45.14500 41.51200
C  49.68400 41.45600 41.69800
C  53.27000 44.69400 42.28100
C  50.05600 48.30300 42.70700
N  48.26900 43.44700 41.67100
C  46.95100 43.77600 41.39300
C  46.16600 42.59700 40.99200
C  47.02300 41.45800 41.55600
C  48.42500 42.10000 41.71900
C  46.55000 40.62000 42.77200
C  45.99800 42.52100 39.42900
C  44.63500 42.00300 38.89500
H  44.52900 41.33500 37.57600
N  51.33000 43.29900 41.81800
C  51.03000 41.99400 41.65200
C  52.28200 41.29100 41.45400
C  53.38400 42.18500 41.53500
C  52.68100 43.47200 41.88900
C  52.30100 39.77200 41.32200
C  54.88800 41.90000 41.36700
O  55.28900 40.73500 41.26400
C  55.93100 42.99600 41.25000
N  51.42500 46.23100 42.43100
C  52.69700 45.97200 42.55800
C  53.59500 47.20300 42.86400
C  52.55300 48.37000 43.06500
C  51.26800 47.57800 42.76900
C  54.54500 47.11600 44.01400
C  52.74700 49.66600 42.21700
C  52.80400 50.98200 43.09600
N  48.59800 46.41500 42.23600
C  48.79800 47.77900 42.44600
C  47.59700 48.51000 42.33700
C  46.65200 47.53300 41.86400
C  47.35500 46.24200 41.85200
C  47.40900 50.04200 42.55600
C  45.27400 47.25500 41.49800
O  44.32500 47.99800 41.43900
C  45.22300 45.75300 41.18500
C  43.97800 45.12900 41.77300
O  42.99400 44.70800 41.20800
O  43.94300 45.45800 43.10300
C  42.71200 45.13500 43.78100
H  49.60800 40.37300 41.57900
H  54.34900 44.63000 42.43900
H  50.14800 49.38400 42.83600
H  45.18700 42.68400 41.46400
H  47.25400 40.65900 40.85100
H  45.89800 41.20000 43.42400
H  47.33900 40.35100 43.47400
H  46.08800 39.71700 42.37400
H  46.75900 41.82700 39.07000
H  46.24500 43.51600 39.06000
H  43.92000 42.82500 38.94900
H  44.22700 41.22600 39.54200
H  52.69000 39.45100 40.35500
H  51.30700 39.32700 41.28100
H  52.91700 39.30100 42.08800
H  55.43900 43.83500 40.75700
H  56.70300 42.52000 40.64500
H  56.25000 43.36800 42.22400
H  54.11400 47.43800 41.93500
H  52.52300 48.65500 44.11700
H  54.45100 46.08300 44.34700
H  54.25500 47.62200 44.93600
H  55.57500 47.45600 43.91300
H  51.87800 49.79900 41.57200
H  53.72300 49.50900 41.75800
H  53.49600 51.67100 42.61200
H  53.03300 50.86300 44.15500
H  51.78200 51.36000 43.08800
H  46.38200 50.21600 42.23300
H  48.07000 50.76300 42.07600
H  47.32100 50.24100 43.62400
H  44.96400 45.64200 40.13200
H  42.86500 45.32400 44.84400
H  42.61500 44.05100 43.71800
H  41.98900 45.83600 43.36300
Mg 27.89200 51.02000 26.36400
C  25.85100 52.07100 28.94900
C  30.23400 50.04600 28.63600
C  29.78900 49.99700 23.80900
C  25.50300 52.27500 24.16800
N  27.99600 51.11000 28.50100
C  27.04700 51.55000 29.43900
C  27.51500 51.25000 30.86100
C  28.99200 50.88800 30.63900
C  29.04900 50.57500 29.12300
C  30.01400 51.88200 31.25000
C  26.73500 50.13100 31.57900
C  26.14500 50.39000 32.94600
H  25.71900 49.15200 33.80400
N  29.77300 50.11200 26.25600
C  30.57700 49.77700 27.31800
C  31.85500 49.34700 26.76900
C  31.73500 49.42200 25.34500
C  30.42000 49.92600 25.07300
C  32.99400 48.96900 27.63300
C  32.80700 49.13000 24.32600
O  32.55400 49.14000 23.13700
C  34.18200 48.65500 24.78400
N  27.66800 51.12900 24.26100
C  28.51300 50.47400 23.45700
C  27.96800 50.42400 22.03300
C  26.53400 50.99200 22.19000
C  26.54400 51.51800 23.62000
C  28.89900 51.20000 21.04600
C  25.34200 49.98500 21.96900
C  24.22900 50.60100 21.09700
N  26.06800 51.99700 26.46000
C  25.16900 52.41200 25.49000
C  24.01600 53.00300 26.04100
C  24.25200 52.84600 27.40600
C  25.52200 52.23500 27.62500
C  22.82500 53.71900 25.30600
C  23.64300 53.12700 28.68700
O  22.61400 53.71800 29.02900
C  24.69400 52.63200 29.76300
C  24.98300 53.78300 30.67200
O  26.02200 54.41700 30.65200
O  23.96900 53.80200 31.70000
C  24.20000 54.92300 32.61200
H  30.94800 49.67700 29.37500
H  30.28300 49.52200 22.95900
H  24.67600 52.45300 23.47700
H  27.27300 52.09200 31.50900
H  29.20600 49.89100 31.02700
H  30.76000 51.31500 31.80800
H  29.56900 52.53800 31.99800
H  30.44100 52.58900 30.53800
H  27.37400 49.25600 31.70100
H  25.92400 49.74100 30.96400
H  25.16900 50.85800 32.82200
H  26.82300 51.00900 33.53400
H  33.21200 47.92600 27.40100
H  32.62700 49.00300 28.65800
H  33.83200 49.66700 27.61500
H  34.83800 48.73100 23.91700
H  34.00800 47.61600 25.06500
H  34.63000 49.19400 25.61900
H  27.88800 49.38900 21.70200
H  26.51600 51.90800 21.59900
H  28.39300 52.14800 20.86600
H  29.05600 50.69100 20.09500
H  29.81400 51.35700 21.61700
H  24.89800 49.72100 22.92900
H  25.60900 49.02600 21.52400
H  24.51800 50.36000 20.07400
H  24.17300 51.68800 21.16700
H  23.24300 50.24900 21.39900
H  22.32100 54.47500 25.90900
H  22.16500 52.91100 24.98900
H  23.18600 54.25300 24.42700
H  24.29000 51.87000 30.42900
H  23.23900 55.00700 33.11900
H  24.62300 55.80200 32.12500
H  25.02000 54.70100 33.29500

