158

Mg 49.23400 46.06400 43.94100
C  45.59900 46.34100 43.29000
C  49.18600 43.04700 42.46300
C  52.58500 46.16300 44.10300
C  49.10100 49.54600 44.59400
N  47.57500 44.89200 42.68900
C  46.20800 45.11900 42.75600
C  45.41500 43.96100 42.14000
C  46.54300 42.86400 42.14100
C  47.87500 43.61300 42.43900
C  46.27000 41.52600 42.96200
C  44.83600 44.44100 40.75600
C  43.59300 43.61500 40.33500
H  43.44800 42.69600 39.08800
N  50.67600 44.75900 43.38400
C  50.41100 43.58800 42.83300
C  51.65400 42.84300 42.72500
C  52.70000 43.62600 43.32900
C  52.00100 44.90500 43.68900
C  51.77100 41.43600 42.25600
C  54.15700 43.21400 43.48800
O  54.48800 42.23300 42.83500
C  55.17900 44.02100 44.24200
N  50.67400 47.64800 44.19000
C  51.97900 47.36600 44.33900
C  52.68100 48.55900 45.07200
C  51.64700 49.65700 44.94500
C  50.37900 48.88400 44.57200
C  53.17100 48.30300 46.50400
C  52.01900 50.79700 43.85700
C  52.01700 52.17100 44.38900
N  47.69400 47.62400 44.00400
C  47.80500 48.97600 44.37300
C  46.45400 49.58700 44.33000
C  45.57400 48.57100 44.00700
C  46.40900 47.40300 43.76100
C  46.11300 51.01600 44.53600
C  44.14200 48.21500 43.75400
O  43.08300 48.85900 43.75000
C  44.20300 46.77200 43.21200
C  43.27700 45.85600 43.97700
O  43.43300 45.38300 45.08500
O  42.21500 45.68000 43.18800
C  41.19900 44.78300 43.77500
H  49.26600 41.97400 42.27300
H  53.65600 46.30300 44.26400
H  48.98400 50.56500 44.97000
H  44.61700 43.67200 42.82400
H  46.80800 42.51000 41.14500
H  47.15600 41.53100 43.59700
H  46.32200 40.72000 42.23000
H  45.32300 41.49100 43.50000
H  45.70400 44.30600 40.11000
H  44.53400 45.47600 40.92100
H  42.75000 44.29000 40.19200
H  43.22900 43.04500 41.19000
H  52.65000 41.10900 41.70000
H  50.98800 41.34000 41.50500
H  51.61800 40.59700 42.93400
H  54.85500 44.39000 45.21500
H  55.42400 44.85900 43.59000
H  56.04100 43.37200 44.39800
H  53.54100 48.82500 44.45800
H  51.60100 50.10100 45.93900
H  53.13900 47.24600 46.76700
H  52.52000 48.77700 47.23900
H  54.23200 48.54900 46.53800
H  51.26300 50.77800 43.07200
H  53.00800 50.58000 43.45600
H  51.52300 52.80200 43.64900
H  53.02800 52.55400 44.52200
H  51.59100 52.30400 45.38300
H  46.36700 51.30300 45.55700
H  45.08800 51.34300 44.35600
H  46.75600 51.57500 43.85700
H  43.71700 46.90100 42.24500
H  40.40400 44.67100 43.03800
H  40.81400 45.27000 44.67100
H  41.62300 43.83400 44.10600
Mg 35.59200 48.22900 26.03000
C  35.98400 46.35700 28.93500
C  34.37100 50.80000 27.94900
C  35.39800 50.06200 23.23800
C  36.70200 45.48600 24.18300
N  35.29600 48.53600 28.22900
C  35.53400 47.63800 29.25100
C  35.29000 48.23900 30.58100
C  34.50900 49.53100 30.20300
C  34.71300 49.68300 28.67700
C  32.96800 49.49700 30.55900
C  36.59200 48.48900 31.42500
C  36.47800 48.33800 32.88800
H  36.00700 49.58700 33.62200
N  34.95000 50.15600 25.69200
C  34.48700 51.09600 26.60300
C  34.32200 52.38000 25.99700
C  34.60900 52.13200 24.61700
C  34.95400 50.69300 24.43400
C  33.92400 53.67300 26.72600
C  34.57400 53.17900 23.47300
O  34.90800 53.04000 22.30900
C  34.07700 54.57300 23.81200
N  35.97500 47.78600 23.99900
C  35.86700 48.75600 22.96600
C  36.14100 48.10700 21.58300
C  36.66500 46.70100 21.97200
C  36.43700 46.63100 23.42200
C  34.87200 48.03200 20.64700
C  38.20700 46.64200 21.69500
C  38.52800 46.09100 20.36500
N  36.02300 46.29200 26.44200
C  36.47900 45.28000 25.58600
C  36.76500 44.08400 26.35500
C  36.61200 44.45600 27.68000
C  36.15200 45.78000 27.67100
C  37.28700 42.80200 25.89400
C  36.69800 43.99400 29.01700
O  37.03800 42.88900 29.44200
C  36.35800 45.17700 29.86900
C  35.29700 44.81500 30.97300
O  34.13100 44.62500 30.81100
O  35.97100 44.64200 32.12800
C  35.11600 44.34000 33.30800
H  34.05800 51.68900 28.50100
H  35.41500 50.67800 22.33700
H  36.90000 44.61200 23.56000
H  34.74900 47.44000 31.08700
H  34.85100 50.41500 30.74100
H  32.71100 50.17200 31.37600
H  32.76200 48.54400 31.04500
H  32.25200 49.54000 29.73900
H  36.78300 49.52100 31.13100
H  37.42700 47.94200 30.98800
H  37.51800 48.28200 33.21000
H  35.87700 47.46100 33.12900
H  34.82300 54.28400 26.64000
H  33.81700 53.62300 27.80900
H  33.13100 54.21300 26.20900
H  33.02500 54.51600 24.09200
H  34.15000 55.16200 22.89800
H  34.63900 55.18400 24.51800
H  36.93100 48.63800 21.05200
H  36.14800 45.87700 21.47900
H  34.44100 47.03100 20.65000
H  35.21700 48.36700 19.66900
H  34.03600 48.61700 21.02900
H  38.63100 45.98000 22.45000
H  38.76300 47.55900 21.89100
H  38.66300 45.02100 20.52200
H  39.41300 46.54800 19.92100
H  37.68200 46.33600 19.72300
H  38.32300 42.83500 26.23000
H  37.26500 42.73500 24.80600
H  36.82800 41.92200 26.34300
H  37.33500 45.40800 30.29200
H  34.07600 44.65400 33.22500
H  35.55200 44.89400 34.13900
H  35.12800 43.26100 33.46300

