158

Mg -2.10800 17.58600 26.94000
C  -2.48300 15.29900 29.55600
C  -2.89100 20.19200 28.94000
C  -2.22000 19.50400 24.19200
C  -2.11200 14.65300 24.74800
N  -2.60100 17.72000 28.95300
C  -2.51600 16.65500 29.89200
C  -2.79100 17.04600 31.30300
C  -3.24200 18.49400 31.04700
C  -2.97600 18.89600 29.50700
C  -4.62000 19.01100 31.58300
C  -1.71900 16.66400 32.37300
C  -1.46300 17.56000 33.61900
H  -1.35500 16.86600 35.01400
N  -2.35300 19.67500 26.60600
C  -2.56500 20.55000 27.60900
C  -2.38000 21.87900 27.02700
C  -2.25300 21.74100 25.59800
C  -2.31200 20.29100 25.39400
C  -2.57400 23.12500 27.91500
C  -2.12700 22.78600 24.44400
O  -2.14200 22.47300 23.25800
C  -1.97200 24.21000 24.76900
N  -2.44200 17.15600 24.78500
C  -2.28900 18.16500 23.92900
C  -2.21300 17.69000 22.50800
C  -2.32100 16.16300 22.65100
C  -2.20200 15.98200 24.16800
C  -3.24700 18.31800 21.46900
C  -1.24600 15.30100 21.84400
C  0.22800 15.46900 22.17900
N  -2.18200 15.40000 27.03700
C  -2.15700 14.35800 26.07100
C  -2.36500 13.07400 26.72400
C  -2.40000 13.36600 28.13400
C  -2.30400 14.76300 28.24700
C  -2.43500 11.77600 26.09300
C  -2.52600 12.83800 29.47100
O  -2.55000 11.66400 29.81400
C  -2.63700 14.02500 30.46600
C  -1.47700 13.77800 31.29500
O  -0.30600 14.16900 31.15700
O  -1.94200 12.99900 32.28800
C  -0.91800 12.73900 33.32700
H  -3.01100 20.94100 29.72600
H  -2.02000 20.13000 23.31900
H  -2.05500 13.76600 24.11400
H  -3.71800 16.58300 31.64200
H  -2.47400 19.12100 31.50000
H  -5.26500 19.26800 30.74200
H  -4.54100 19.95400 32.12400
H  -5.03300 18.34200 32.33800
H  -0.77800 16.56800 31.83100
H  -1.89900 15.69600 32.84100
H  -2.31300 18.24200 33.61600
H  -0.51600 18.07600 33.46700
H  -3.18100 22.82100 28.76800
H  -3.16300 23.81000 27.30500
H  -1.74000 23.74500 28.24500
H  -1.13500 24.46600 25.41900
H  -2.82600 24.47700 25.39200
H  -1.81400 24.83100 23.88800
H  -1.20700 17.80900 22.10500
H  -3.29600 15.75800 22.38100
H  -3.90000 17.51500 21.12900
H  -2.66300 18.53200 20.57400
H  -3.79800 19.21400 21.75500
H  -1.46900 15.52700 20.80100
H  -1.50900 14.26400 22.05100
H  0.51800 16.09100 21.33200
H  0.83600 14.57900 22.01700
H  0.45000 15.95200 23.13000
H  -3.50900 11.65600 25.95500
H  -2.07900 11.09100 26.86200
H  -1.78900 11.85900 25.21900
H  -3.58800 14.00800 30.99800
H  0.03900 13.19700 33.08000
H  -0.78800 11.66200 33.43500
H  -1.32000 13.23900 34.20800
Mg 49.24400 45.99400 42.74500
C  45.78500 46.10900 42.37200
C  49.27000 42.71400 41.64900
C  52.70300 46.11200 42.27500
C  49.28600 49.37400 43.36900
N  47.77600 44.64800 41.94300
C  46.41800 44.87700 42.00300
C  45.59800 43.60200 41.55000
C  46.68500 42.45900 41.73000
C  47.96700 43.31900 41.78500
C  46.54100 41.67000 43.03800
C  45.08100 43.77600 40.10500
C  43.61000 43.36800 39.90600
H  43.03800 43.78100 38.54200
N  50.82200 44.57300 42.17100
C  50.57200 43.27200 41.82400
C  51.78200 42.64900 41.56400
C  52.80100 43.59900 41.68800
C  52.12000 44.80300 42.07500
C  51.85800 41.20300 41.14000
C  54.32300 43.33600 41.31600
O  54.66300 42.19800 41.10300
C  55.26000 44.38500 41.14900
N  50.80400 47.44900 42.79400
C  52.07500 47.26600 42.71000
C  52.92600 48.60100 42.85600
C  51.81900 49.56300 43.38700
C  50.56000 48.74700 43.10200
C  54.08200 48.54600 43.88100
C  51.86000 50.91900 42.66700
C  51.74800 52.21100 43.48900
N  47.85500 47.49700 42.77700
C  48.02200 48.81600 43.22300
C  46.74500 49.42500 43.33000
C  45.81700 48.39500 43.04600
C  46.53900 47.25500 42.73400
C  46.46900 50.85900 43.59600
C  44.42700 48.06300 42.89400
O  43.40600 48.67900 43.01500
C  44.35300 46.52200 42.50900
C  43.58700 45.80300 43.50500
O  43.98500 45.53900 44.61900
O  42.40500 45.48600 42.96400
C  41.51400 44.70400 43.87300
H  49.25200 41.64300 41.43700
H  53.77100 46.24800 42.09300
H  49.36000 50.36600 43.82100
H  44.75100 43.48400 42.22600
H  46.68200 41.69200 40.95500
H  45.78300 42.13700 43.66800
H  47.51100 41.69400 43.53400
H  46.18300 40.65900 42.84400
H  45.79000 43.17400 39.53700
H  45.11000 44.82700 39.81400
H  43.01200 43.73400 40.74100
H  43.49500 42.30000 40.09100
H  52.79500 40.64600 41.16500
H  51.35300 41.08600 40.18100
H  51.16300 40.60900 41.73300
H  54.93200 44.87800 40.23400
H  56.25600 44.03000 40.88400
H  55.23300 44.95500 42.07800
H  53.20000 48.71100 41.80700
H  51.77600 49.81400 44.44700
H  54.00500 49.42800 44.51700
H  55.02400 48.52700 43.33300
H  54.10300 47.64200 44.49000
H  50.95600 50.83300 42.06200
H  52.70300 50.90100 41.97600
H  52.68300 52.76900 43.44300
H  51.47200 51.94600 44.51000
H  50.95000 52.82100 43.06600
H  47.18200 51.15100 44.36700
H  45.44100 50.98200 43.93700
H  46.52200 51.52300 42.73300
H  43.88900 46.36800 41.53500
H  40.62500 44.43000 43.30400
H  41.27400 45.43400 44.64600
H  42.10400 43.82600 44.13600

