158

Mg 45.31400 3.35900 48.49700
C  43.06300 5.98700 47.54500
C  42.63500 1.17000 47.67500
C  47.43100 0.83800 48.35100
C  47.89000 5.66200 47.98700
N  43.08500 3.59000 47.76900
C  42.41100 4.75000 47.45900
C  40.97500 4.51000 47.04800
C  40.91100 2.94300 47.15800
C  42.25400 2.50500 47.56300
C  39.64000 2.47100 48.01000
C  40.65500 4.98800 45.61400
C  39.45800 5.89200 45.54500
H  38.78600 5.86900 44.16800
N  45.06000 1.21500 48.21400
C  43.88800 0.60800 47.90800
C  44.10900 -0.82900 47.92400
C  45.52600 -1.02200 48.05000
C  46.09800 0.36100 48.12800
C  42.96600 -1.79800 47.69800
C  46.22400 -2.42400 48.05800
O  45.60700 -3.45500 48.03300
C  47.74900 -2.47300 48.17300
N  47.36900 3.27100 48.16200
C  48.02100 2.08100 48.38900
C  49.51200 2.25500 48.55700
C  49.70700 3.80300 48.36300
C  48.26500 4.27000 48.12100
C  50.20300 1.65800 49.83600
C  50.64700 4.21700 47.24100
C  52.00400 4.93500 47.57900
N  45.47500 5.44600 48.04300
C  46.58600 6.30100 47.86900
C  46.12900 7.65900 47.72300
C  44.73300 7.59900 47.65600
C  44.41300 6.20500 47.79900
C  47.08100 8.87300 47.53700
C  43.50800 8.34000 47.54900
O  43.41800 9.55500 47.51400
C  42.34300 7.35600 47.45700
C  41.43600 7.66400 48.69400
O  41.73200 7.43200 49.87700
O  40.28100 8.34900 48.30700
C  39.42900 8.74200 49.38900
H  41.90200 0.41300 47.38800
H  48.15100 0.03400 48.51700
H  48.79100 6.27800 47.95000
H  40.39500 4.93500 47.86700
H  40.73200 2.59400 46.14100
H  38.86700 3.23600 48.08500
H  40.00700 2.18700 48.99600
H  39.24600 1.55500 47.56800
H  40.43700 4.19700 44.89700
H  41.47100 5.54900 45.15800
H  39.84300 6.91100 45.55400
H  38.76700 5.75500 46.37700
H  43.25900 -2.84800 47.70400
H  42.48100 -1.68500 46.72900
H  42.11300 -1.69100 48.36800
H  48.16200 -1.91800 47.33000
H  48.00200 -3.53200 48.12700
H  48.09900 -2.01100 49.09600
H  49.92800 1.70600 47.71100
H  50.20000 4.21600 49.24300
H  50.85200 0.83900 49.52400
H  49.36100 1.42500 50.48800
H  50.81900 2.40100 50.34100
H  50.05900 4.99400 46.75300
H  50.85400 3.42400 46.52200
H  52.04400 5.90900 47.09200
H  52.87800 4.37600 47.24500
H  52.26900 5.03000 48.63200
H  47.55400 9.13100 48.48400
H  46.57400 9.68000 47.00800
H  47.95400 8.64100 46.92700
H  41.75600 7.50400 46.55000
H  38.90900 9.62400 49.01500
H  39.97300 9.03600 50.28700
H  38.78800 7.91100 49.68500
Mg 16.28900 52.34100 25.06600
C  18.18400 51.20100 27.85400
C  13.93900 53.39200 27.38500
C  14.75900 53.44900 22.55300
C  18.86800 51.00500 23.04100
N  16.02200 52.12600 27.38700
C  16.97800 51.81700 28.29600
C  16.52100 52.18500 29.72500
C  15.03500 52.56300 29.49300
C  15.04300 52.85200 28.00900
C  14.14400 51.36800 29.86900
C  17.39100 53.34800 30.37800
C  17.17600 53.53100 31.85900
H  16.23200 52.57100 32.57800
N  14.54300 53.25600 24.93100
C  13.63200 53.57100 25.98800
C  12.46800 54.29400 25.33800
C  12.70400 54.38400 23.91600
C  14.04100 53.71800 23.74800
C  11.36400 54.93000 26.08200
C  11.84700 55.00100 22.88600
O  12.23700 55.04600 21.75300
C  10.56300 55.69200 23.13400
N  16.69000 52.25100 23.02500
C  15.96900 52.87900 22.19200
C  16.61300 53.01800 20.84100
C  17.86100 52.14000 20.92800
C  17.89000 51.76900 22.39700
C  15.67900 52.57600 19.66400
C  19.13000 52.76500 20.32800
C  20.23600 51.86500 19.65200
N  17.98600 51.16600 25.27100
C  18.91900 50.75000 24.41900
C  20.04300 50.02800 25.08900
C  19.79500 50.21100 26.43800
C  18.52400 50.96400 26.48000
C  21.09200 49.13900 24.50600
C  20.32500 49.87600 27.67700
O  21.33900 49.29300 27.99100
C  19.43900 50.66700 28.67600
C  18.96700 49.71900 29.70300
O  18.49000 48.57400 29.41900
O  19.10300 50.18800 30.94100
C  18.71000 49.24700 32.02900
H  13.12200 53.68800 28.04600
H  14.32000 53.99300 21.71400
H  19.58900 50.54700 22.36100
H  16.74500 51.26900 30.27200
H  14.64400 53.35300 30.13400
H  13.11300 51.69500 30.00900
H  14.53800 50.86900 30.75400
H  14.10200 50.62800 29.06900
H  17.02300 54.26900 29.92600
H  18.46900 53.26700 30.24000
H  16.86100 54.56700 31.98000
H  18.13400 53.37500 32.35400
H  11.21700 55.97000 25.78800
H  11.63600 55.02000 27.13400
H  10.40800 54.41300 26.00000
H  9.93600 55.18200 23.86500
H  10.09900 55.76100 22.14900
H  10.87900 56.68500 23.45400
H  17.05500 54.01300 20.78100
H  17.69300 51.24200 20.33400
H  16.29400 52.38800 18.78400
H  15.09300 53.49300 19.59900
H  15.09200 51.68700 19.89400
H  19.57900 53.34200 21.13600
H  18.77000 53.48700 19.59400
H  21.11900 52.34600 20.07400
H  20.23100 51.85000 18.56200
H  20.25300 50.83200 20.00000
H  20.81500 48.58800 23.60600
H  21.23600 48.37500 25.27000
H  22.02300 49.69600 24.40800
H  20.05200 51.43700 29.14400
H  19.35500 48.39600 32.24500
H  17.66800 48.96500 31.87600
H  18.65300 49.99500 32.82000

