158

Mg 24.23600 -5.83700 46.16600
C  26.21900 -3.18600 44.86500
C  21.75200 -4.93700 44.12600
C  22.77600 -8.80000 47.00200
C  27.13600 -6.72600 48.05400
N  24.11200 -4.21700 44.68900
C  24.97200 -3.23500 44.39800
C  24.23800 -2.18700 43.47100
C  22.71700 -2.62000 43.53200
C  22.87800 -4.03800 44.11300
C  21.71900 -1.72200 44.30600
C  24.79900 -2.18200 41.96500
C  25.28800 -0.80700 41.41200
H  25.10900 -0.61700 39.94600
N  22.49300 -6.76000 45.52900
C  21.61100 -6.20100 44.75700
C  20.40500 -7.12700 44.60900
C  20.72600 -8.23900 45.44600
C  22.06500 -7.97700 46.07100
C  19.19200 -6.92600 43.76600
C  19.91100 -9.45600 45.83500
O  18.80000 -9.47800 45.30700
C  20.31100 -10.53900 46.86600
N  24.82200 -7.52500 47.36500
C  24.09000 -8.64700 47.52700
C  24.74600 -9.65200 48.49400
C  26.19400 -9.06000 48.75800
C  26.04600 -7.62800 48.08400
C  23.91500 -10.19600 49.67300
C  27.35900 -9.90200 48.10600
C  28.68300 -9.69100 48.89800
N  26.27200 -5.13600 46.42600
C  27.30800 -5.55400 47.24200
C  28.44400 -4.65700 47.12600
C  28.03900 -3.70500 46.21800
C  26.73500 -4.04400 45.82200
C  29.74700 -4.76100 48.04500
C  28.46700 -2.46900 45.59400
O  29.46700 -1.79400 45.70800
C  27.31300 -2.14300 44.67800
C  26.75400 -0.75400 44.91700
O  26.03300 -0.44100 45.83300
O  27.33300 0.09200 44.04400
C  27.18200 1.53400 44.29600
H  20.83900 -4.72700 43.56500
H  22.49200 -9.78300 47.38400
H  27.97200 -7.08900 48.65600
H  24.20900 -1.22800 43.98800
H  22.28700 -2.69400 42.53300
H  20.92000 -1.35200 43.66400
H  22.14600 -0.85100 44.80400
H  21.27300 -2.33600 45.08900
H  24.08700 -2.57900 41.24100
H  25.67700 -2.82600 41.93600
H  26.36000 -0.73900 41.60100
H  24.67200 -0.02400 41.85400
H  18.37300 -6.45800 44.31100
H  18.75800 -7.83300 43.34600
H  19.44600 -6.14000 43.05500
H  19.44800 -11.14500 47.14300
H  20.43300 -9.92700 47.76000
H  21.22700 -11.03500 46.54200
H  24.83400 -10.48600 47.79700
H  26.39500 -8.87400 49.81300
H  22.87700 -9.86300 49.68600
H  24.38600 -9.86500 50.59800
H  23.91200 -11.28400 49.61300
H  27.46000 -9.48500 47.10300
H  27.03900 -10.94000 48.02400
H  29.10900 -10.69300 48.95600
H  28.48000 -9.31800 49.90200
H  29.36300 -9.14500 48.24400
H  30.12700 -3.76800 48.28500
H  30.57900 -5.31900 47.61400
H  29.44800 -5.22100 48.98700
H  27.72500 -2.04400 43.67300
H  26.14000 1.80900 44.13300
H  27.90700 2.01400 43.63900
H  27.41800 1.74200 45.33900
Mg 1.26900 43.16500 25.57400
C  2.83300 43.51300 28.72900
C  -1.54600 41.98900 27.13400
C  0.13300 42.22400 22.54600
C  4.25600 44.24900 24.12900
N  0.65700 42.84500 27.70100
C  1.44900 43.13700 28.82600
C  0.68700 42.84000 30.10900
C  -0.68500 42.30200 29.61900
C  -0.56400 42.38800 28.04300
C  -0.98400 40.84100 30.06000
C  0.49200 44.09000 30.97500
C  0.57100 43.92600 32.51900
H  0.28700 42.56500 33.12300
N  -0.44100 42.33600 24.93000
C  -1.49600 41.97700 25.70600
C  -2.52300 41.46400 24.89800
C  -2.16700 41.63100 23.51700
C  -0.76400 42.11100 23.57000
C  -3.85300 40.90200 25.45000
C  -2.98200 41.35200 22.32400
O  -2.46400 41.56600 21.25800
C  -4.40900 40.73300 22.31100
N  2.04200 43.29400 23.63100
C  1.42100 42.78000 22.51300
C  2.27500 43.01400 21.28400
C  3.39800 43.97400 21.76800
C  3.23800 43.88800 23.27200
C  2.81700 41.68600 20.67800
C  3.30600 45.44900 21.23900
C  1.96500 46.14300 21.35900
N  3.17200 43.76500 26.23500
C  4.29900 44.14400 25.50500
C  5.36300 44.42000 26.34900
C  4.79700 44.19500 27.68300
C  3.48600 43.82400 27.52800
C  6.77000 44.64700 25.97600
C  5.09800 44.00400 29.05200
O  6.13200 44.03500 29.69500
C  3.79300 43.77200 29.76700
C  4.13900 42.64400 30.71100
O  4.25800 41.43800 30.42000
O  4.28600 43.06000 31.98200
C  4.34300 42.09700 33.16000
H  -2.46200 41.75800 27.68200
H  -0.16300 41.80300 21.58400
H  5.18900 44.52300 23.63200
H  1.38300 42.31000 30.75900
H  -1.53500 42.95500 29.82100
H  -0.26900 40.55500 30.83100
H  -0.87500 40.07300 29.29400
H  -2.00700 40.86100 30.43600
H  -0.35900 44.68000 30.63600
H  1.37500 44.71400 30.83200
H  -0.09700 44.66800 32.95700
H  1.56000 44.20700 32.88000
H  -4.69600 41.30400 24.88700
H  -3.99800 41.22700 26.48000
H  -3.82200 39.81300 25.48200
H  -4.38500 39.86900 22.97500
H  -4.67400 40.52500 21.27400
H  -5.05100 41.52200 22.70200
H  1.76100 43.56400 20.49500
H  4.36000 43.48800 21.60400
H  2.84800 41.82600 19.59700
H  2.09900 40.88200 20.83800
H  3.81300 41.40100 21.01500
H  3.82900 45.39500 20.28400
H  4.03100 45.99300 21.84400
H  1.24100 45.42700 21.74900
H  1.58400 46.41500 20.37500
H  1.95500 47.07000 21.93200
H  6.80800 44.86600 24.90800
H  7.28900 43.73900 26.28000
H  7.11300 45.47600 26.59500
H  3.57400 44.66500 30.35200
H  3.85200 42.41600 34.08000
H  5.36400 41.88900 33.47900
H  4.02100 41.10700 32.83600

