158

Mg 35.86800 2.14100 30.76800
C  33.23500 3.30300 32.85500
C  37.73900 1.84100 33.57100
C  38.44200 1.45600 28.75300
C  33.82400 2.52000 28.07800
N  35.47200 2.64900 32.95400
C  34.39200 3.06900 33.58800
C  34.48800 2.90100 35.08100
C  36.01500 2.82300 35.32400
C  36.44800 2.37600 33.85000
C  36.69000 4.18700 35.83300
C  33.69800 1.70300 35.62000
C  32.73800 2.13800 36.74500
H  33.40600 3.11800 37.68900
N  37.86900 1.83600 31.15200
C  38.37000 1.58700 32.37600
C  39.71600 1.02700 32.23500
C  40.01300 0.97800 30.82200
C  38.75500 1.43800 30.13000
C  40.71000 0.67100 33.32000
C  41.24800 0.61900 30.11900
O  41.42800 0.58400 28.94000
C  42.51000 0.24400 30.95700
N  36.16100 2.20100 28.68200
C  37.33000 1.86900 28.05500
C  37.21300 1.90100 26.45400
C  35.61400 1.98800 26.26500
C  35.16800 2.25700 27.72900
C  37.93200 3.07200 25.75400
C  34.96100 0.67800 25.61700
C  34.05600 0.87800 24.38100
N  33.91800 2.78500 30.44000
C  33.20300 2.80800 29.24300
C  31.87100 3.14700 29.53800
C  31.81200 3.37400 30.95900
C  33.09200 3.10100 31.47700
C  30.75900 3.36200 28.58800
C  30.95800 3.82500 32.09300
O  29.80000 4.24000 32.16400
C  31.91400 3.80700 33.34900
C  31.97400 5.16700 34.01000
O  32.37200 6.19500 33.53000
O  31.53800 5.01100 35.32200
C  31.42500 6.33300 36.11400
H  38.27300 1.48600 34.45500
H  39.36700 1.46200 28.17200
H  33.15600 2.53500 27.21300
H  34.21100 3.85800 35.52200
H  36.29200 1.97400 35.94900
H  37.44200 4.45800 35.09200
H  37.19800 4.10500 36.79400
H  35.90300 4.93700 35.90900
H  34.27600 0.83800 35.94400
H  33.03300 1.31400 34.84800
H  32.48800 1.21700 37.27200
H  31.82500 2.52500 36.29200
H  40.77700 -0.41600 33.28200
H  40.29000 0.96800 34.28100
H  41.60400 1.25200 33.09500
H  42.37900 -0.44400 31.79300
H  42.92500 1.11800 31.45700
H  43.29700 -0.19800 30.34600
H  37.65000 0.94800 26.15300
H  35.28000 2.78700 25.60400
H  38.39100 3.68400 26.53100
H  37.25200 3.72400 25.20600
H  38.71700 2.64100 25.13300
H  34.46900 0.16000 26.44000
H  35.76800 -0.00400 25.34900
H  34.43600 1.79600 23.93200
H  33.02100 0.87400 24.72400
H  34.21500 0.00700 23.74600
H  30.87500 2.82700 27.64600
H  30.64900 4.44400 28.51600
H  29.92700 2.95100 29.16000
H  31.47900 3.15500 34.10500
H  30.71300 6.21300 36.93000
H  31.15900 7.18700 35.49100
H  32.32500 6.58200 36.67700
Mg 41.21800 8.46500 30.04700
C  43.07300 9.86700 32.68900
C  38.89500 7.44900 32.23500
C  39.48200 7.54700 27.49400
C  44.02700 9.26200 27.88500
N  41.05700 8.62900 32.27200
C  41.85400 9.24700 33.13500
C  41.27900 9.24200 34.60000
C  40.03600 8.32800 34.40700
C  39.93900 8.16900 32.85600
C  40.09100 7.04400 35.29000
C  41.02300 10.72000 35.06700
C  40.29500 10.67400 36.44300
H  40.86600 11.60100 37.58200
N  39.46100 7.48500 29.90500
C  38.64100 7.12900 30.94100
C  37.51600 6.37300 30.36100
C  37.53200 6.66000 28.97000
C  38.85200 7.22800 28.71400
C  36.56300 5.76100 31.23500
C  36.37400 6.57700 27.93000
O  36.46000 7.09400 26.82700
C  35.13500 5.88700 28.34400
N  41.79700 8.24500 27.99300
C  40.80400 7.92800 27.13700
C  41.33600 7.93000 25.70300
C  42.81600 8.33500 25.89500
C  42.91800 8.59200 27.35200
C  41.04800 6.62000 24.93500
C  43.12100 9.62700 25.01800
C  42.53500 10.95000 25.41700
N  43.19200 9.39200 30.12700
C  44.19800 9.63700 29.23800
C  45.16200 10.45500 29.84600
C  44.77200 10.55000 31.16300
C  43.57500 9.89200 31.31100
C  46.35400 11.08200 29.19300
C  45.12900 11.19000 32.37300
O  46.04800 11.97600 32.59300
C  44.18300 10.65300 33.43500
C  44.91300 9.89600 34.55000
O  45.67600 8.98100 34.31700
O  44.34500 10.24600 35.78300
C  44.82800 9.51300 36.90900
H  38.14800 7.12800 32.96300
H  38.91800 7.16200 26.64200
H  44.81900 9.60500 27.21600
H  41.98300 8.81000 35.31000
H  39.21300 8.89200 34.84400
H  40.70100 7.22100 36.17600
H  40.48900 6.09700 34.92700
H  39.02900 6.90100 35.49200
H  40.40400 11.29400 34.37700
H  41.98000 11.23200 35.16100
H  40.42100 9.68700 36.88800
H  39.23200 10.87000 36.30000
H  36.99600 5.69600 32.23300
H  36.27600 4.75900 30.91300
H  35.66700 6.36300 31.38500
H  35.35300 4.87500 28.68600
H  34.44700 5.79100 27.50400
H  34.69200 6.36700 29.21700
H  40.74900 8.71400 25.22400
H  43.54700 7.53200 25.80500
H  40.61700 5.86600 25.59400
H  41.88700 6.15100 24.42100
H  40.26200 6.82100 24.20600
H  42.76600 9.48800 23.99700
H  44.19500 9.81000 24.98600
H  42.09500 11.02600 26.41100
H  41.89700 11.39600 24.65500
H  43.39200 11.62400 25.40300
H  45.96200 11.65500 28.35200
H  46.94600 10.29300 28.72900
H  46.91300 11.76300 29.83500
H  43.63900 11.46500 33.91700
H  44.63900 10.27200 37.66700
H  45.91500 9.43500 36.93200
H  44.33600 8.55800 37.09200

