158

Mg 17.27100 -1.89500 27.69100
C  16.18400 0.22600 30.29000
C  19.19200 -3.58600 29.95300
C  18.71400 -3.51900 25.05300
C  15.47100 0.15700 25.42900
N  17.68600 -1.64000 29.87600
C  17.03600 -0.79000 30.75500
C  17.36300 -1.05100 32.22100
C  18.45400 -2.22400 32.16000
C  18.44100 -2.54100 30.60000
C  19.94200 -1.97000 32.72600
C  16.22100 -1.39600 33.15500
C  16.20100 -0.57100 34.43500
H  17.53900 -0.44800 35.15700
N  18.77700 -3.35600 27.58600
C  19.41000 -3.93600 28.61900
C  20.24600 -5.04800 28.14000
C  20.12400 -4.97300 26.67100
C  19.24800 -3.88900 26.35000
C  21.19900 -5.90700 29.03500
C  20.90600 -5.85400 25.65000
O  20.74800 -5.62900 24.44600
C  21.93700 -6.92200 26.05700
N  17.29100 -1.59800 25.58500
C  17.88000 -2.41200 24.71000
C  17.46900 -2.13600 23.24400
C  16.18800 -1.18000 23.42400
C  16.29900 -0.87400 24.95600
C  18.70500 -1.55700 22.47600
C  14.81100 -1.84200 22.99800
C  13.94600 -2.55500 24.02100
N  16.02000 -0.17400 27.74400
C  15.34000 0.53500 26.74200
C  14.50100 1.52500 27.32600
C  14.85900 1.54400 28.71500
C  15.78400 0.40900 28.89000
C  13.39500 2.29200 26.70100
C  14.68400 2.13400 30.06700
O  13.96900 3.11700 30.28500
C  15.53700 1.35500 31.09000
C  16.38200 2.26100 31.89600
O  17.61900 2.31900 31.91000
O  15.58600 2.82100 32.86800
C  16.29400 3.49600 33.93500
H  19.72500 -4.28500 30.60100
H  19.06400 -4.14900 24.23200
H  14.75200 0.75000 24.86000
H  17.83400 -0.12400 32.54900
H  18.21700 -3.15700 32.66900
H  20.70000 -2.00100 31.94300
H  20.29500 -2.67500 33.47900
H  20.04300 -0.96200 33.12600
H  16.26100 -2.44500 33.44900
H  15.34300 -1.11500 32.57200
H  15.53600 -0.99900 35.18500
H  15.92300 0.42900 34.10200
H  20.84800 -6.93200 28.91000
H  21.21700 -5.73500 30.11100
H  22.23100 -5.82700 28.69300
H  22.22500 -7.63400 25.28400
H  21.48100 -7.49300 26.86700
H  22.80300 -6.41900 26.48600
H  17.25100 -3.13300 22.86100
H  16.35400 -0.19100 22.99700
H  18.31000 -0.73700 21.87700
H  19.17900 -2.25300 21.78500
H  19.44700 -1.20400 23.19200
H  14.79600 -2.49200 22.12300
H  14.35300 -1.00200 22.47600
H  14.43200 -2.77300 24.97100
H  13.58900 -3.50000 23.61300
H  13.06900 -1.96800 24.29500
H  13.73900 3.25900 26.33300
H  12.52300 2.31600 27.35400
H  12.97200 1.67200 25.91100
H  14.74000 0.95500 31.71700
H  17.08100 4.12300 33.51800
H  16.71400 2.83700 34.69500
H  15.67300 4.21300 34.47200
Mg 35.64300 1.87300 29.89500
C  33.46500 3.17500 32.34500
C  38.21700 2.11600 32.19600
C  37.85800 1.60600 27.36500
C  33.17100 2.54500 27.41900
N  35.83700 2.75000 31.91400
C  34.81500 2.90100 32.77600
C  35.16400 2.84200 34.22200
C  36.76400 2.85400 34.16000
C  36.98900 2.62000 32.60700
C  37.45900 4.15700 34.63000
C  34.54000 1.71900 35.10400
C  34.43900 2.08300 36.60100
H  35.15200 3.25800 37.19400
N  37.69900 1.55600 29.80500
C  38.49600 1.60700 30.87300
C  39.78400 1.09900 30.43600
C  39.78700 1.14400 28.98600
C  38.42000 1.44100 28.66000
C  40.94300 0.86500 31.36100
C  40.90000 0.86100 27.99500
O  40.78900 0.90600 26.79400
C  42.31000 0.46500 28.45200
N  35.51300 1.94600 27.70500
C  36.54900 1.78900 26.95300
C  36.17500 1.74000 25.45000
C  34.61400 1.74800 25.48600
C  34.37000 1.99300 26.98400
C  36.80400 2.97200 24.58000
C  33.93500 0.44900 24.97000
C  33.36600 0.59200 23.51900
N  33.65400 2.61800 29.91900
C  32.80600 2.87900 28.78000
C  31.56500 3.34500 29.29600
C  31.74100 3.41800 30.72500
C  33.05500 3.03700 31.02500
C  30.42300 3.73400 28.40800
C  31.09200 3.82800 31.94700
O  30.01300 4.32700 32.18900
C  32.17400 3.62200 33.09200
C  32.30500 4.88800 33.87700
O  33.29300 5.65000 33.86400
O  31.25100 4.97500 34.72300
C  31.08400 6.13600 35.59700
H  38.98900 2.17000 32.96600
H  38.46300 1.40800 26.47800
H  32.53400 2.73700 26.55200
H  34.80400 3.80400 34.58600
H  37.27200 2.06600 34.71700
H  38.08000 3.94300 35.50000
H  36.78100 4.89200 35.06300
H  37.97200 4.68100 33.82400
H  35.22600 0.88600 34.95300
H  33.52600 1.58800 34.72500
H  34.85500 1.17100 37.03000
H  33.37400 2.30400 36.67600
H  41.29700 -0.16400 31.29500
H  40.58700 0.90200 32.39100
H  41.73100 1.58700 31.14300
H  42.36500 -0.26400 29.26000
H  42.61700 1.39300 28.93400
H  42.88800 0.14400 27.58500
H  36.69400 0.87400 25.04000
H  34.28700 2.63500 24.94300
H  36.99100 2.64000 23.55900
H  37.81300 3.14100 24.95400
H  36.16800 3.85800 24.56300
H  33.18600 0.18200 25.71500
H  34.64400 -0.36700 24.82800
H  32.31100 0.57400 23.79400
H  33.57000 -0.25100 22.85800
H  33.55600 1.54200 23.02000
H  30.11100 2.96700 27.69900
H  30.76400 4.67900 27.98500
H  29.52900 3.82300 29.02600
H  31.87200 2.80700 33.74900
H  30.24900 5.74500 36.17800
H  30.78200 7.09000 35.16400
H  31.86600 6.32000 36.33200

