158

Mg 47.96300 16.06600 28.19100
C  45.75400 15.85500 31.07700
C  49.91500 18.24100 30.19400
C  49.90500 16.70600 25.55200
C  45.67100 14.27400 26.37900
N  47.79600 16.99400 30.35700
C  46.89500 16.57300 31.38600
C  47.38000 17.16300 32.78900
C  48.54100 18.15700 32.32700
C  48.74900 17.75200 30.90300
C  48.28500 19.69100 32.39800
C  47.93300 16.10800 33.81300
C  47.69800 16.48600 35.27500
H  47.28000 17.90000 35.62500
N  49.67300 17.28800 27.91600
C  50.31900 18.04400 28.88800
C  51.50300 18.57800 28.38100
C  51.45100 18.30800 26.90300
C  50.30300 17.35800 26.72200
C  52.44000 19.45100 29.16900
C  52.34000 18.92000 25.76400
O  52.16400 18.69600 24.56400
C  53.52700 19.77800 26.12800
N  47.76300 15.61000 26.25700
C  48.74500 15.91800 25.35000
C  48.38800 15.35100 24.00200
C  47.21600 14.44000 24.28600
C  46.86700 14.74300 25.75000
C  48.16600 16.45000 22.99400
C  47.58900 12.92500 24.05100
C  46.96400 12.28700 22.79100
N  46.00100 15.27300 28.50500
C  45.20700 14.54300 27.64900
C  43.99200 14.16300 28.34800
C  44.13700 14.66000 29.70800
C  45.42700 15.32900 29.75800
C  42.87000 13.38700 27.75500
C  43.51900 14.70600 31.05200
O  42.46700 14.30900 31.48600
C  44.58500 15.38800 31.98500
C  44.00100 16.64100 32.62600
O  43.95900 17.69500 32.09900
O  43.53600 16.37500 33.87100
C  43.07300 17.55700 34.64000
H  50.59300 18.88900 30.75300
H  50.45000 16.97100 24.64400
H  45.12500 13.54500 25.77700
H  46.55100 17.80500 33.08300
H  49.46100 18.02000 32.89600
H  48.17100 20.12600 31.40500
H  49.16000 20.13200 32.87600
H  47.42600 19.94300 33.02100
H  49.00700 15.94100 33.72500
H  47.50500 15.12100 33.64000
H  48.63800 16.37100 35.81400
H  46.94200 15.81500 35.68400
H  52.94900 18.93000 29.98000
H  51.92400 20.22600 29.73500
H  53.29500 19.87700 28.64500
H  53.26600 20.75100 26.54500
H  53.98600 19.92400 25.15000
H  54.06800 19.16600 26.85000
H  49.25000 14.76100 23.69100
H  46.42200 14.73700 23.60000
H  48.94700 16.24300 22.26200
H  48.29500 17.46000 23.38500
H  47.30100 16.26900 22.35600
H  47.28100 12.31500 24.90000
H  48.67400 12.83100 24.01400
H  46.50000 11.34300 23.07600
H  47.75700 12.16900 22.05200
H  46.22100 12.89600 22.27500
H  43.11500 13.03800 26.75200
H  42.01900 14.05200 27.61000
H  42.62400 12.51400 28.35900
H  44.83400 14.66600 32.76300
H  42.01600 17.82500 34.63900
H  43.59100 18.49400 34.43700
H  43.49100 17.38600 35.63200
Mg 17.54000 52.71000 26.73900
C  19.27000 51.29400 29.39700
C  15.01700 53.63800 28.94500
C  15.75800 53.74500 24.14200
C  19.89200 51.21300 24.46300
N  17.20400 52.57400 28.84600
C  18.13500 52.07500 29.76900
C  17.65400 52.37700 31.19500
C  16.13500 52.69500 30.94900
C  16.13900 53.01800 29.50200
C  15.10400 51.67300 31.43100
C  18.55700 53.54700 31.80300
C  18.53600 53.61900 33.40400
H  17.52100 52.66800 34.14600
N  15.68800 53.60100 26.61200
C  14.85400 54.03900 27.62500
C  13.77500 54.72100 27.14800
C  14.03400 54.83900 25.71200
C  15.22700 54.05200 25.39800
C  12.55200 55.09000 27.90900
C  13.16700 55.46300 24.60300
O  13.19100 55.09500 23.44600
C  12.02800 56.45400 25.05700
N  17.58800 52.15000 24.55600
C  16.83800 52.89800 23.72800
C  17.29600 52.76000 22.28700
C  18.58000 51.86100 22.40400
C  18.71900 51.74000 23.86500
C  16.23000 52.10100 21.35100
C  19.78300 52.38600 21.63300
C  20.42700 53.69400 22.19500
N  19.17300 51.37200 26.86300
C  20.05600 50.94100 25.84700
C  21.12100 50.26300 26.56400
C  20.87600 50.36600 27.97100
C  19.65500 51.06600 28.05500
C  22.23700 49.58400 25.95200
C  21.38300 50.11000 29.27400
O  22.47900 49.70100 29.66400
C  20.39300 50.70900 30.25700
C  19.86900 49.74600 31.14800
O  19.19300 48.79300 30.82700
O  20.33300 49.93800 32.41500
C  20.08900 48.81100 33.35100
H  14.27400 53.90000 29.70100
H  15.34900 54.32700 23.31400
H  20.60800 50.78200 23.76100
H  17.77800 51.40900 31.68200
H  15.81800 53.58200 31.49700
H  15.57700 50.84000 31.95100
H  14.65800 51.12200 30.60300
H  14.31800 52.07400 32.07100
H  18.21500 54.50200 31.40300
H  19.53900 53.28700 31.40800
H  18.40500 54.68400 33.59900
H  19.52700 53.23600 33.64700
H  12.55200 56.17700 27.98800
H  12.64400 54.85100 28.96800
H  11.59100 54.73900 27.53200
H  12.45900 56.99800 25.89700
H  11.09400 55.92500 25.24300
H  11.99900 57.16400 24.23100
H  17.57600 53.76400 21.96700
H  18.36800 50.87400 21.99300
H  16.54400 51.15000 20.92100
H  15.95900 52.64600 20.44600
H  15.32300 52.05500 21.95300
H  19.31500 52.75700 20.72100
H  20.50800 51.63400 21.32200
H  20.09500 53.79900 23.22800
H  20.14400 54.51400 21.53600
H  21.50300 53.51800 22.17800
H  23.01300 49.79500 26.68800
H  22.50700 50.10000 25.03000
H  22.19500 48.51300 25.75800
H  21.03600 51.50500 30.63500
H  20.49000 49.04300 34.33700
H  20.41300 47.81600 33.04600
H  19.00200 48.82700 33.43300

