158

Mg 24.65000 -4.43400 46.21700
C  26.94000 -2.23300 44.78100
C  22.28900 -3.40700 43.97200
C  22.84900 -7.21300 46.91500
C  27.36400 -5.83800 48.19400
N  24.72800 -3.05200 44.48100
C  25.68800 -2.18400 44.08700
C  25.22600 -1.19700 42.98300
C  23.66700 -1.42200 43.09600
C  23.55400 -2.71700 43.90600
C  22.83600 -0.27800 43.73700
C  25.76300 -1.59600 41.59300
C  26.05000 -0.41600 40.64600
H  25.58800 -0.54400 39.16900
N  22.74500 -5.18500 45.63400
C  21.98000 -4.67200 44.61100
C  20.77600 -5.51600 44.47300
C  20.85900 -6.65200 45.34100
C  22.19500 -6.33300 46.03100
C  19.67800 -5.14600 43.57200
C  19.87600 -7.80400 45.44400
O  18.91500 -7.97300 44.68800
C  20.07600 -8.88700 46.50300
N  25.01900 -6.16600 47.53600
C  24.09300 -7.08500 47.61700
C  24.54200 -8.28900 48.48400
C  25.96700 -7.76700 49.01200
C  26.13200 -6.50000 48.17500
C  23.54100 -8.95000 49.47600
C  27.10500 -8.74100 48.96500
C  28.26800 -8.55900 49.92200
N  26.69000 -4.08700 46.58400
C  27.62400 -4.69300 47.46200
C  28.88600 -3.96300 47.25600
C  28.63200 -2.91100 46.33600
C  27.29400 -3.07700 45.85400
C  30.15300 -4.27400 48.00900
C  29.29600 -1.78100 45.62000
O  30.45000 -1.43000 45.71000
C  28.26000 -1.33500 44.61700
C  28.02100 0.11400 44.89400
O  27.41200 0.60800 45.85400
O  28.51100 0.76400 43.81300
C  28.29000 2.22700 43.62000
H  21.55700 -2.99000 43.27700
H  22.42700 -8.20100 47.11300
H  28.22500 -6.12400 48.80300
H  25.43200 -0.19300 43.35400
H  23.30300 -1.73000 42.11600
H  21.82600 -0.27100 43.32500
H  23.14000 0.74800 43.53200
H  22.79100 -0.52200 44.79800
H  25.05700 -2.06600 40.90800
H  26.67600 -2.16900 41.75400
H  27.12600 -0.26300 40.73000
H  25.49600 0.43700 41.03800
H  19.74100 -4.05900 43.59900
H  18.70300 -5.40000 43.98900
H  19.78900 -5.61800 42.59500
H  20.18600 -8.45000 47.49500
H  20.96300 -9.43400 46.18200
H  19.18600 -9.51600 46.52600
H  24.72500 -9.15500 47.84800
H  26.03200 -7.43400 50.04800
H  22.59800 -8.40500 49.43500
H  23.94400 -8.88300 50.48700
H  23.29000 -10.00200 49.34300
H  27.51000 -8.74100 47.95300
H  26.78700 -9.77900 49.06500
H  28.49700 -9.52700 50.36700
H  28.26300 -7.80900 50.71300
H  29.08500 -8.31200 49.24400
H  30.63500 -5.17800 47.63600
H  29.95300 -4.33100 49.07900
H  30.88600 -3.47000 47.95300
H  28.73700 -1.40400 43.64000
H  29.17700 2.78400 43.32000
H  27.82000 2.70000 44.48200
H  27.68400 2.39700 42.73100
Mg 55.79400 25.11200 45.23300
C  52.78400 26.52200 44.12900
C  54.58800 22.08300 44.12300
C  58.99900 23.96600 45.19700
C  56.89000 28.28000 46.08200
N  53.98600 24.45500 44.02400
C  52.85000 25.15100 43.93600
C  51.68000 24.26000 43.51000
C  52.18600 22.92300 44.00700
C  53.63300 23.08100 44.10200
C  51.49700 22.28900 45.31500
C  51.47500 24.26000 41.94000
C  50.07600 24.60100 41.57000
H  49.43000 24.00500 40.27400
N  56.66100 23.19600 44.87900
C  56.00400 22.12900 44.40300
C  56.98700 21.06400 44.30700
C  58.30900 21.59100 44.67500
C  58.02800 23.02600 44.91800
C  56.57100 19.58200 43.91400
C  59.58700 20.76100 44.72700
O  59.63000 19.53300 44.47700
C  60.86800 21.33000 45.17500
N  57.73800 26.03400 45.55300
C  58.87300 25.30600 45.55900
C  60.03000 26.19400 46.03400
C  59.40500 27.59700 46.03000
C  57.89600 27.30700 46.02200
C  60.71500 25.82900 47.40700
C  59.82100 28.57700 44.79000
C  60.44000 29.93800 45.22100
N  55.04800 27.00000 45.22300
C  55.55800 28.14300 45.68900
C  54.53000 29.21900 45.55300
C  53.36000 28.60200 44.96700
C  53.81200 27.33600 44.71100
C  54.54600 30.53900 46.30900
C  51.92800 28.76700 44.58500
O  51.10700 29.71100 44.68100
C  51.54200 27.44200 43.86400
C  51.14100 27.94600 42.52500
O  51.93300 28.17900 41.65700
O  49.71900 28.03100 42.55500
C  49.06800 28.48000 41.34400
H  54.10200 21.11600 43.97300
H  60.06200 23.72300 45.26100
H  57.21900 29.30400 46.27200
H  50.73900 24.49300 44.00700
H  51.91100 22.24400 43.20000
H  52.26200 22.10600 46.07000
H  51.14000 21.31400 44.98500
H  50.74100 22.91100 45.79400
H  51.83400 23.34300 41.47200
H  52.13100 25.06600 41.61200
H  50.00500 25.66000 41.32100
H  49.37300 24.31200 42.35100
H  57.01900 18.72700 44.42000
H  57.00500 19.30200 42.95400
H  55.48400 19.52200 43.85800
H  61.24200 21.96500 44.37200
H  61.57500 20.50300 45.25100
H  60.77100 21.83700 46.13500
H  60.71300 26.14700 45.18500
H  59.61600 28.04400 47.00200
H  60.14900 25.05200 47.92100
H  60.65900 26.64200 48.13000
H  61.73300 25.43900 47.36800
H  58.91100 28.75500 44.21800
H  60.48600 28.08900 44.07700
H  61.39700 30.03400 44.70900
H  60.57200 29.88100 46.30200
H  59.81500 30.74100 44.82900
H  53.62200 30.91200 46.75100
H  54.99700 31.23400 45.60100
H  55.32500 30.49500 47.07000
H  50.71100 27.05800 44.45500
H  48.89700 29.55200 41.44100
H  48.14000 27.96100 41.10700
H  49.71800 28.40200 40.47200

