158

Mg 41.38700 8.80100 29.95500
C  43.03900 10.05600 32.69800
C  39.09400 7.11200 31.95500
C  39.92500 7.42900 27.22600
C  43.86700 10.07100 27.84100
N  41.14100 8.55200 32.08500
C  41.83200 9.30700 33.03100
C  41.29900 9.03600 34.38700
C  40.19200 7.95100 34.11900
C  40.12100 7.84000 32.63300
C  40.35100 6.58400 34.95800
C  40.92000 10.34900 35.07600
C  40.66100 10.15700 36.57500
H  41.42800 11.07400 37.61700
N  39.64200 7.54000 29.63900
C  38.80100 7.04400 30.58000
C  37.68300 6.43600 29.92800
C  37.82100 6.52700 28.52600
C  39.19000 7.14500 28.42500
C  36.58800 5.65600 30.68900
C  36.83200 6.05800 27.47300
O  37.18700 6.08000 26.32000
C  35.39300 5.50300 27.80300
N  41.85000 8.63200 27.78300
C  41.08500 8.09400 26.89800
C  41.60100 8.38800 25.48300
C  42.92300 9.21500 25.69300
C  42.83700 9.39300 27.17600
C  41.79200 7.12300 24.58800
C  42.97600 10.56000 24.93600
C  44.12100 10.58700 23.92700
N  43.20300 9.83000 30.15800
C  44.08000 10.27500 29.19000
C  45.16900 10.85000 29.94300
C  44.79300 10.80000 31.29000
C  43.57700 10.16100 31.37000
C  46.31000 11.43700 29.24800
C  45.18600 11.22900 32.59800
O  46.22500 11.73900 33.03600
C  44.06500 10.72000 33.56300
C  44.68200 9.78200 34.57400
O  45.20600 8.70100 34.29600
O  44.74800 10.40800 35.79500
C  45.37000 9.58600 36.83700
H  38.51700 6.61200 32.73600
H  39.49200 7.03500 26.30500
H  44.63300 10.45100 27.16200
H  42.12100 8.60600 34.96000
H  39.21800 8.30100 34.46100
H  39.42500 6.46000 35.51900
H  41.10600 6.55100 35.74300
H  40.56500 5.79400 34.23800
H  40.02900 10.79800 34.63600
H  41.70800 11.08900 34.94200
H  40.76300 9.11400 36.87500
H  39.61100 10.36000 36.78400
H  36.62600 5.78900 31.77100
H  36.67700 4.59100 30.47400
H  35.59300 6.06700 30.51700
H  34.88400 5.17900 26.89400
H  34.87400 6.32600 28.29400
H  35.50300 4.57100 28.35700
H  40.84700 9.05800 25.07000
H  43.80100 8.59000 25.53400
H  41.71900 6.19900 25.16100
H  42.64900 7.16600 23.91500
H  40.91600 7.13200 23.94000
H  43.14900 11.35700 25.66000
H  42.04400 10.75500 24.40600
H  44.00000 11.29000 23.10300
H  44.30700 9.65100 23.39900
H  45.06900 10.90200 24.36100
H  46.78200 12.16000 29.91300
H  45.97700 12.03100 28.39700
H  47.05100 10.74000 28.85500
H  43.75000 11.59500 34.13100
H  46.44600 9.68900 36.97300
H  44.93400 8.58800 36.88800
H  45.07600 10.02000 37.79200
Mg 17.43000 52.39500 25.30700
C  19.27800 51.01700 28.01300
C  14.83500 52.98400 27.49600
C  15.82700 53.81000 22.84400
C  20.08600 51.45700 23.24900
N  17.08000 51.78400 27.46500
C  18.06000 51.51400 28.40900
C  17.67200 51.92900 29.82700
C  16.10000 51.91800 29.65000
C  15.92400 52.26100 28.09700
C  15.32900 50.68300 30.16200
C  18.38200 53.17900 30.35800
C  18.60200 53.20900 31.89500
H  17.82600 52.36800 32.84200
N  15.59100 53.20900 25.21800
C  14.69100 53.46200 26.19900
C  13.65900 54.36000 25.68500
C  13.82300 54.40800 24.28700
C  15.17400 53.84200 24.06600
C  12.64500 55.03700 26.56600
C  12.84000 54.93400 23.20900
O  13.03900 55.00000 21.99900
C  11.53300 55.56900 23.68200
N  17.88400 52.56600 23.36700
C  17.03600 53.22700 22.47800
C  17.64300 53.40200 21.07600
C  19.00100 52.57600 21.21900
C  19.00700 52.15800 22.66800
C  16.66300 52.99800 19.91300
C  20.24400 53.40000 20.71300
C  20.76700 54.46200 21.66000
N  19.29700 51.38000 25.54200
C  20.22800 51.05600 24.57100
C  21.34800 50.41200 25.23700
C  21.04200 50.38800 26.65800
C  19.77500 50.96300 26.73700
C  22.62900 50.00000 24.60200
C  21.58300 50.08100 27.91900
O  22.61000 49.47400 28.23100
C  20.45400 50.53800 28.84500
C  20.21300 49.35700 29.69100
O  19.76000 48.30700 29.31800
O  20.40100 49.66400 31.03300
C  19.95600 48.66800 31.97600
H  14.15400 53.26600 28.30100
H  15.18100 54.36900 22.16400
H  21.00700 51.26600 22.69400
H  17.87300 51.07400 30.47100
H  15.78800 52.71600 30.32400
H  15.77800 50.25100 31.05600
H  15.14700 49.97100 29.35700
H  14.37900 51.01700 30.57700
H  17.77400 54.07400 30.22700
H  19.25400 53.37500 29.73500
H  18.54700 54.24000 32.24500
H  19.60900 52.79800 31.96700
H  12.83400 56.10900 26.51400
H  12.72700 54.75300 27.61500
H  11.61700 54.81300 26.27800
H  11.60000 56.49500 24.25200
H  11.01200 54.75400 24.18400
H  10.92900 55.87400 22.82800
H  17.85200 54.45500 20.89100
H  18.81500 51.65600 20.66400
H  15.71900 52.79200 20.41600
H  16.98300 52.11100 19.36600
H  16.76300 53.85400 19.24600
H  19.97900 53.95600 19.81400
H  21.00200 52.67500 20.41800
H  20.59900 54.12600 22.68300
H  20.32600 55.45000 21.52500
H  21.84300 54.60200 21.55900
H  22.84200 50.63200 23.74000
H  22.51900 48.99800 24.18800
H  23.39500 50.09100 25.37200
H  20.96900 51.33000 29.39000
H  20.71800 47.89300 31.89000
H  18.94300 48.33400 31.75400
H  19.88900 48.97400 33.02000

