158

Mg -1.77900 17.55400 27.07200
C  -2.34200 15.24100 29.83200
C  -2.63000 20.04100 29.35800
C  -1.76800 19.65400 24.56000
C  -1.62700 14.76700 25.03800
N  -2.33100 17.70400 29.35500
C  -2.36200 16.62200 30.27600
C  -2.62700 17.12500 31.71000
C  -3.02700 18.56400 31.49300
C  -2.66700 18.83100 30.04000
C  -4.62600 18.70000 31.67600
C  -1.42800 16.77300 32.67900
C  -0.99700 17.70700 33.90400
H  -0.87000 16.91800 35.23200
N  -1.96000 19.54400 27.03600
C  -2.32600 20.35800 28.03300
C  -2.48200 21.69100 27.45300
C  -2.09300 21.63300 26.14700
C  -1.94400 20.22500 25.82800
C  -2.92400 23.00700 28.22400
C  -1.89200 22.70700 25.09900
O  -1.40900 22.57400 23.97500
C  -2.00700 24.16900 25.53400
N  -1.55400 17.23800 25.09300
C  -1.59700 18.27100 24.22300
C  -1.41200 17.79100 22.78900
C  -1.17800 16.26100 22.96800
C  -1.49800 16.03200 24.44200
C  -2.66700 18.10900 21.88200
C  0.30800 15.78900 22.70300
C  1.35200 16.58600 23.48500
N  -1.87700 15.46500 27.33700
C  -1.78000 14.41900 26.39700
C  -2.05300 13.16400 27.03200
C  -2.20600 13.48300 28.39800
C  -2.16400 14.85600 28.49700
C  -2.05800 11.91100 26.22900
C  -2.47500 12.76200 29.70700
O  -2.69600 11.63100 30.07400
C  -2.60500 13.98500 30.72700
C  -1.47400 13.66200 31.68500
O  -0.20600 13.85200 31.53800
O  -2.03000 13.09100 32.77500
C  -1.17100 12.62200 33.78500
H  -2.80900 20.88500 30.02700
H  -1.88800 20.40000 23.77100
H  -1.63200 13.95500 24.30800
H  -3.43500 16.49000 32.07200
H  -2.54500 19.31300 32.12200
H  -5.04300 17.70600 31.84200
H  -4.99600 18.88300 30.66700
H  -4.91000 19.41900 32.44400
H  -0.56800 16.76500 32.00800
H  -1.54500 15.79800 33.15100
H  -1.56100 18.61200 34.12900
H  0.08100 17.84600 33.81600
H  -2.12700 23.74400 28.31800
H  -3.22400 22.66600 29.21500
H  -3.81200 23.40500 27.73200
H  -2.99200 24.39500 25.94200
H  -1.95600 24.73300 24.60300
H  -1.13900 24.31600 26.17600
H  -0.60400 18.31900 22.28200
H  -1.96300 15.63600 22.54200
H  -2.32100 18.43200 20.90000
H  -3.29000 18.95500 22.17200
H  -3.36200 17.27300 21.79800
H  0.50800 15.87200 21.63400
H  0.50600 14.72500 22.83200
H  0.83700 17.32100 24.10300
H  2.01300 16.93000 22.69000
H  1.89200 15.83900 24.06700
H  -1.38300 12.09500 25.39300
H  -3.06700 11.70200 25.87200
H  -1.83200 11.11500 26.93900
H  -3.54900 14.09500 31.26100
H  -1.74800 11.90300 34.36700
H  -0.97900 13.53200 34.35300
H  -0.20300 12.30500 33.39500
Mg 45.06700 5.35500 48.19900
C  43.06000 8.39000 47.32400
C  42.42100 3.63900 47.58600
C  47.25500 2.85400 47.90700
C  47.81200 7.58400 48.35500
N  43.03200 5.98800 47.22300
C  42.37900 7.21500 47.12100
C  40.96300 7.07100 46.60500
C  40.73000 5.53000 46.95900
C  42.09000 5.04700 47.32900
C  39.61300 5.28000 48.04500
C  40.89200 7.36000 45.06400
C  39.64400 8.18600 44.59100
H  38.97600 7.62000 43.34300
N  44.86100 3.52800 47.87100
C  43.62600 2.99800 47.73000
C  43.81100 1.59700 47.60100
C  45.18900 1.30400 47.63000
C  45.87400 2.59100 47.83800
C  42.67300 0.58600 47.18500
C  45.82100 -0.06600 47.52400
O  45.08200 -1.00600 47.16500
C  47.26000 -0.48100 47.79100
N  47.20600 5.23900 48.29200
C  47.86300 4.08500 48.11300
C  49.34100 4.27800 48.11100
C  49.52700 5.74800 48.17800
C  48.08800 6.23900 48.24500
C  50.14100 3.39900 49.17100
C  50.30400 6.44400 46.93400
C  51.76100 6.13000 46.73900
N  45.37700 7.56200 48.00600
C  46.59200 8.27600 48.18000
C  46.34900 9.69000 48.01200
C  44.97900 9.75100 47.76900
C  44.42700 8.46500 47.71700
C  47.39400 10.75400 48.20800
C  43.83900 10.69600 47.60000
O  43.85200 11.94200 47.58300
C  42.56500 9.81400 47.29800
C  41.54100 10.08000 48.33900
O  41.30900 9.39800 49.31700
O  40.83100 11.17400 47.95200
C  39.71900 11.65800 48.79800
H  41.49600 3.06100 47.55000
H  47.92100 2.00500 47.73900
H  48.72400 8.14700 48.56500
H  40.26100 7.71500 47.13300
H  40.40000 5.04600 46.04000
H  39.06700 6.16500 48.37100
H  40.10100 4.91700 48.95000
H  38.85200 4.54500 47.78600
H  40.98600 6.36900 44.62000
H  41.82300 7.83800 44.75900
H  39.97200 9.19400 44.33800
H  38.85900 8.28500 45.34200
H  42.88800 0.12800 46.21900
H  41.63600 0.91900 47.13300
H  42.63800 -0.20400 47.93500
H  47.23400 -1.54400 48.02900
H  47.75800 0.11000 48.56000
H  47.80700 -0.37700 46.85400
H  49.77800 3.89600 47.18800
H  50.03300 6.10600 49.07500
H  49.52900 2.60600 49.60000
H  50.69400 3.93100 49.94500
H  50.80800 2.83200 48.52300
H  50.21300 7.52600 47.03300
H  49.78900 6.14100 46.02300
H  51.71200 5.50500 45.84700
H  52.13200 5.52000 47.56300
H  52.36600 7.03600 46.73700
H  46.81900 11.67900 48.25300
H  48.10800 10.87700 47.39400
H  47.95700 10.56500 49.12100
H  42.11900 9.94600 46.31200
H  39.61100 11.08800 49.72000
H  38.83700 11.63100 48.15700
H  39.90100 12.68600 49.11300

