158

Mg 2.59300 -2.04300 44.65400
C  5.52900 -0.68600 43.52600
C  0.83600 0.02100 42.58700
C  -0.26100 -3.85000 45.37900
C  4.50500 -4.48500 46.38900
N  3.12700 -0.62600 43.13100
C  4.44200 -0.17700 42.82800
C  4.42900 0.98800 41.82300
C  2.88000 1.36100 41.80200
C  2.24900 0.23200 42.61200
C  2.57800 2.80600 42.32300
C  5.02000 0.63300 40.43500
C  6.28400 1.37000 40.09100
H  6.59600 1.94100 38.66700
N  0.53500 -1.84600 44.08900
C  0.00100 -0.93500 43.18800
C  -1.32900 -1.19500 43.03900
C  -1.72800 -2.22200 43.93800
C  -0.43900 -2.71700 44.52600
C  -2.32000 -0.37400 42.14800
C  -3.13000 -2.68300 44.21400
O  -4.01000 -2.33100 43.42000
C  -3.55900 -3.77400 45.18800
N  2.23900 -3.93400 45.76100
C  0.96100 -4.37100 45.96000
C  0.92500 -5.66600 46.84700
C  2.44300 -5.99300 46.94500
C  3.10500 -4.76600 46.30700
C  0.27300 -5.65000 48.25200
C  2.93500 -7.27800 46.19600
C  3.22300 -8.40000 47.16400
N  4.64700 -2.49700 44.97600
C  5.23900 -3.44700 45.76700
C  6.66900 -3.20800 45.79000
C  6.82800 -2.14300 44.93400
C  5.55600 -1.73600 44.49700
C  7.76500 -3.94700 46.56100
C  7.84000 -1.28300 44.39700
O  9.03600 -1.21300 44.60300
C  7.06100 -0.31300 43.50500
C  7.22700 1.04600 44.07400
O  8.09100 1.79300 43.66300
O  6.38300 1.34500 45.07000
C  6.65300 2.55200 45.87600
H  0.27000 0.65400 41.90000
H  -1.15200 -4.45000 45.57400
H  5.05600 -5.17600 47.03000
H  4.95000 1.81200 42.30900
H  2.38000 1.32400 40.83400
H  2.67500 3.47900 41.47200
H  3.13900 3.16800 43.18400
H  1.53400 2.82300 42.63500
H  4.32700 0.65600 39.59400
H  5.35900 -0.39900 40.52500
H  7.14500 0.76500 40.37500
H  6.24400 2.22900 40.76100
H  -1.99800 0.66700 42.17300
H  -3.27400 -0.06800 42.57800
H  -2.52500 -0.77500 41.15600
H  -3.03500 -3.63100 46.13200
H  -3.32700 -4.71000 44.68000
H  -4.63100 -3.71700 45.37600
H  0.40800 -6.37400 46.19900
H  2.61100 -6.01000 48.02200
H  -0.81400 -5.62400 48.17300
H  0.55000 -4.73700 48.77900
H  0.50900 -6.54400 48.83000
H  3.90700 -7.09500 45.73900
H  2.20000 -7.52000 45.42800
H  2.46100 -9.17900 47.15000
H  3.23300 -8.02200 48.18600
H  4.18300 -8.85800 46.92300
H  8.29200 -4.58800 45.85300
H  7.27300 -4.49600 47.36400
H  8.41300 -3.23200 47.06800
H  7.59300 -0.33400 42.55400
H  7.68100 2.66600 46.22100
H  5.92100 2.66000 46.67600
H  6.50600 3.33500 45.13200
Mg -12.38800 39.29800 42.83300
C  -10.90900 36.36600 41.62000
C  -10.12700 41.13500 41.04400
C  -14.08400 41.98900 43.71500
C  -15.19300 37.32200 43.66500
N  -10.69600 38.82100 41.57800
C  -10.29400 37.54900 41.24900
C  -9.04900 37.57700 40.44300
C  -8.78500 39.12300 40.28300
C  -9.95400 39.71800 40.94700
C  -7.39000 39.50000 40.67600
C  -9.21600 36.86400 39.05400
C  -8.14600 35.75000 38.83800
H  -7.02800 36.12500 37.93100
N  -12.11600 41.28600 42.49600
C  -11.15900 41.86700 41.68800
C  -11.26900 43.28200 41.75100
C  -12.43600 43.58900 42.43800
C  -12.94800 42.29100 42.99500
C  -10.24300 44.21500 41.06700
C  -12.95500 44.96400 42.64100
O  -12.38900 45.94700 42.06600
C  -14.13800 45.27000 43.59600
N  -14.37300 39.53400 43.54800
C  -14.72600 40.80400 44.07000
C  -16.10600 40.82200 44.67800
C  -16.51500 39.31500 44.68300
C  -15.36100 38.69100 43.87500
C  -16.23900 41.58900 46.01100
C  -17.91500 39.00700 44.11600
C  -18.79200 38.02900 44.90400
N  -12.94900 37.27200 42.71700
C  -14.14300 36.65600 43.14700
C  -14.04600 35.26000 42.85300
C  -12.72400 35.03700 42.31400
C  -12.14400 36.34100 42.27400
C  -15.09600 34.23600 43.17300
C  -11.78100 34.06100 41.78800
O  -11.95600 32.85600 41.84400
C  -10.52900 34.88300 41.34600
C  -9.30100 34.35500 42.01200
O  -8.89500 34.66400 43.11900
O  -8.71700 33.44800 41.15500
C  -7.64100 32.66400 41.65600
H  -9.42000 41.74000 40.47300
H  -14.59900 42.89900 44.02800
H  -16.11000 36.83600 44.00600
H  -8.24000 37.11000 41.00500
H  -8.86100 39.37400 39.22500
H  -7.46300 40.52600 41.03900
H  -6.67000 39.57200 39.86100
H  -6.92600 38.84200 41.41100
H  -9.01100 37.56500 38.24500
H  -10.16900 36.37500 38.85100
H  -8.60600 34.79700 38.57500
H  -7.66700 35.49700 39.78400
H  -10.78200 44.64600 40.22200
H  -9.29300 43.82000 40.70800
H  -10.17500 45.12400 41.66400
H  -15.12300 44.94200 43.26200
H  -14.17300 46.35900 43.56300
H  -13.83900 45.02100 44.61400
H  -16.78300 41.34000 43.99900
H  -16.43400 38.89900 45.68700
H  -15.28100 42.01700 46.30500
H  -16.61900 40.96900 46.82300
H  -17.09000 42.26400 46.10200
H  -17.90900 38.46000 43.17300
H  -18.45900 39.94900 44.05700
H  -19.35100 37.20300 44.46700
H  -19.52600 38.67900 45.38000
H  -18.18900 37.62400 45.71700
H  -15.66000 34.08400 42.25300
H  -15.70300 34.62400 43.99000
H  -14.58300 33.32700 43.48900
H  -10.40500 34.81500 40.26500
H  -7.89900 32.14500 42.57900
H  -6.77700 33.31000 41.81100
H  -7.46500 31.91600 40.88300

