158

Mg 2.38500 -1.41200 43.81700
C  5.85900 -0.82800 43.27000
C  1.75500 1.06900 41.64000
C  -0.79200 -2.50500 43.74000
C  3.35300 -4.44300 45.52600
N  3.73700 -0.14000 42.52000
C  5.09800 0.02400 42.53500
C  5.53900 1.04300 41.52300
C  4.13500 1.63500 41.08000
C  3.07500 0.86900 41.87400
C  4.01200 3.12600 41.26600
C  6.34200 0.43400 40.36400
C  7.71700 1.17300 40.22900
H  8.16200 1.64000 38.80900
N  0.67700 -0.73800 42.89800
C  0.61000 0.40500 42.07500
C  -0.78600 0.67800 41.80300
C  -1.58400 -0.37500 42.39200
C  -0.57800 -1.29400 43.05000
C  -1.24100 1.82900 41.06400
C  -3.08300 -0.48200 42.35100
O  -3.81800 0.30300 41.78700
C  -3.86300 -1.64500 43.07700
N  1.48600 -3.28100 44.39900
C  0.12700 -3.35200 44.35500
C  -0.34800 -4.59600 45.15300
C  0.90300 -5.40100 45.48800
C  2.00500 -4.31100 45.17000
C  -1.26900 -4.09300 46.38000
C  1.06100 -6.69800 44.70800
C  0.95000 -8.01200 45.46300
N  4.21100 -2.42400 44.35500
C  4.39200 -3.56300 45.06900
C  5.81500 -3.77600 45.36000
C  6.41900 -2.63800 44.66200
C  5.40500 -1.90000 44.05200
C  6.46500 -4.93600 46.09300
C  7.63500 -1.97200 44.49500
O  8.72000 -2.20400 44.98000
C  7.41200 -0.77200 43.52200
C  7.97900 0.40200 44.15100
O  7.63400 0.86700 45.24800
O  8.90100 0.91900 43.33500
C  9.37600 2.27300 43.62700
H  1.47400 1.87700 40.96200
H  -1.84500 -2.78200 43.82000
H  3.62600 -5.37100 46.03100
H  6.14100 1.65000 42.20000
H  4.08300 1.50100 39.99900
H  4.98500 3.61000 41.34900
H  3.56400 3.35600 42.23200
H  3.47300 3.61100 40.45200
H  5.73900 0.42600 39.45600
H  6.69600 -0.57400 40.57800
H  8.54600 0.53000 40.52400
H  7.81400 2.06500 40.84800
H  -2.03800 2.34600 41.59900
H  -1.70300 1.48400 40.13900
H  -0.49500 2.60200 40.88100
H  -4.87000 -1.23300 43.13400
H  -3.51200 -1.63700 44.10900
H  -3.77900 -2.63900 42.63800
H  -1.01000 -5.17100 44.50600
H  1.00900 -5.50100 46.56800
H  -1.73400 -3.14500 46.10800
H  -0.65500 -3.92900 47.26600
H  -2.06300 -4.81700 46.55800
H  1.95600 -6.68200 44.08600
H  0.24000 -6.69500 43.99200
H  1.74900 -8.67700 45.13500
H  -0.02800 -8.43400 45.23200
H  0.92000 -7.79400 46.53000
H  6.36400 -4.68800 47.15000
H  7.46800 -5.04800 45.67900
H  5.93400 -5.88100 45.97900
H  7.93800 -1.05600 42.61100
H  10.19500 2.19400 44.34100
H  8.58400 2.88100 44.06400
H  9.65700 2.77400 42.70100
Mg 36.29300 0.47700 30.03500
C  33.82900 1.71300 32.28800
C  38.45600 0.43100 32.57900
C  38.53400 -0.20500 27.69500
C  33.74900 0.64500 27.39600
N  36.20900 1.16900 32.18000
C  35.09100 1.57400 32.90200
C  35.36600 1.71700 34.37300
C  36.90500 1.62800 34.32000
C  37.25900 1.04700 32.95700
C  37.57600 2.94100 34.76200
C  34.74600 0.73100 35.38900
C  34.23400 1.24700 36.68900
H  34.83000 2.44700 37.26400
N  38.21400 0.11300 30.09100
C  38.95300 0.08400 31.29700
C  40.29900 -0.31400 30.96400
C  40.34200 -0.56900 29.54900
C  39.00500 -0.24400 29.05600
C  41.34700 -0.39600 31.99400
C  41.47700 -1.16700 28.75000
O  41.45000 -1.35000 27.52400
C  42.78800 -1.54000 29.37800
N  36.12900 0.32000 27.89700
C  37.24800 0.04600 27.10200
C  36.90000 -0.32500 25.64900
C  35.37300 0.07000 25.59600
C  35.07700 0.38700 27.03200
C  37.73500 0.39400 24.55400
C  34.34800 -0.90800 24.87700
C  33.44700 -1.95200 25.58600
N  34.27900 1.20500 29.75800
C  33.35200 1.12200 28.69200
C  32.10200 1.50900 29.12400
C  32.22900 1.83000 30.45400
C  33.58100 1.58400 30.83900
C  30.87100 1.62400 28.28800
C  31.47100 2.11800 31.70200
O  30.27600 2.35300 31.95100
C  32.52000 2.09900 32.85100
C  32.57900 3.41200 33.45700
O  33.09200 4.40500 32.91500
O  31.99900 3.34400 34.72700
C  31.91300 4.64100 35.36100
H  39.13100 0.39200 33.43600
H  39.32100 -0.49400 26.99400
H  33.04600 0.72700 26.56400
H  34.98400 2.71500 34.58600
H  37.17000 0.89700 35.08300
H  38.34200 3.18600 34.02600
H  38.16900 2.84500 35.67200
H  36.94600 3.83100 34.75500
H  35.34100 -0.14700 35.64200
H  33.83900 0.38400 34.89400
H  34.15200 0.41400 37.38800
H  33.21200 1.51600 36.42200
H  41.81800 -1.37700 31.92100
H  40.95800 -0.32700 33.01000
H  41.97400 0.44400 31.69600
H  43.52500 -1.86500 28.64300
H  42.63400 -2.33500 30.10700
H  43.25600 -0.73400 29.94200
H  36.80400 -1.41000 25.62300
H  35.22200 0.99000 25.03100
H  38.47100 -0.28300 24.12000
H  38.20500 1.28800 24.96400
H  37.08900 0.76000 23.75500
H  34.94700 -1.53300 24.21600
H  33.62900 -0.27900 24.35100
H  32.46000 -1.99700 25.12700
H  33.46300 -1.89600 26.67400
H  33.97000 -2.87300 25.32700
H  30.01800 1.39600 28.92700
H  30.90600 0.98300 27.40700
H  30.87100 2.61500 27.83500
H  32.31300 1.30500 33.56800
H  31.06900 5.28200 35.10800
H  32.86000 5.15600 35.19600
H  32.02900 4.52900 36.43900

