158

Mg 50.87200 45.43800 42.37900
C  47.54700 46.21800 41.51600
C  50.24100 42.22500 41.25200
C  54.08600 44.72900 42.69200
C  51.39000 48.76500 43.00600
N  49.10300 44.42500 41.30300
C  47.85600 44.92500 41.13800
C  46.90600 43.79900 40.68000
C  47.74500 42.51200 40.96200
C  49.17100 43.06800 41.13700
C  47.31300 41.59500 42.13100
C  46.51500 43.97200 39.19600
C  45.03900 43.74900 38.87700
H  44.70800 42.90600 37.69200
N  51.97000 43.68900 42.05200
C  51.56600 42.47200 41.66600
C  52.62300 41.51100 41.64900
C  53.81100 42.20000 42.06300
C  53.32800 43.61800 42.28100
C  52.34500 40.09100 41.35700
C  55.17900 41.64500 42.27400
O  55.31400 40.42200 42.08500
C  56.38300 42.47200 42.91800
N  52.45900 46.61400 42.65400
C  53.65700 46.03700 43.01100
C  54.65000 47.10600 43.53800
C  53.91200 48.43000 43.36200
C  52.49900 47.93400 42.97700
C  55.16800 46.89100 45.04400
C  54.52200 49.40200 42.28000
C  54.65700 50.91100 42.82900
N  49.74400 47.16900 42.43300
C  50.09400 48.45600 42.68600
C  48.92000 49.35700 42.64700
C  47.88800 48.46600 42.20800
C  48.48800 47.18200 41.97500
C  48.90900 50.79500 42.91600
C  46.51000 48.47100 41.87600
O  45.63200 49.38100 41.88000
C  46.26200 46.98200 41.26500
C  44.97500 46.45800 41.83400
O  44.89600 45.87800 42.91800
O  43.94800 46.72900 40.96300
C  42.61000 46.15900 41.35400
H  50.10400 41.18700 40.94200
H  55.15600 44.57600 42.84500
H  51.50500 49.79900 43.33700
H  45.95000 43.77700 41.20400
H  47.67300 41.72800 40.20800
H  46.43500 41.97500 42.65200
H  48.21400 41.49200 42.73600
H  46.99600 40.58500 41.87400
H  47.08100 43.21100 38.65800
H  46.85000 44.95300 38.86000
H  44.75900 44.78800 38.70000
H  44.48200 43.39700 39.74500
H  51.87700 39.95300 40.38300
H  51.75000 39.63100 42.14600
H  53.27800 39.52700 41.37700
H  56.00500 42.94700 43.82400
H  56.51400 43.26000 42.17500
H  57.29600 41.88700 43.02800
H  55.56900 47.09900 42.95100
H  53.66000 48.97000 44.27400
H  56.25500 46.90200 45.12200
H  54.74700 45.93100 45.34200
H  54.65200 47.54100 45.75100
H  53.84600 49.53700 41.43600
H  55.50600 49.05800 41.96100
H  54.62600 51.05800 43.90900
H  53.92500 51.57500 42.37000
H  55.67400 51.23000 42.60200
H  49.81200 51.00200 43.49000
H  47.92000 51.07100 43.28100
H  49.03200 51.46100 42.06100
H  46.06000 47.04400 40.19500
H  41.97200 46.26500 40.47600
H  42.17700 46.69800 42.19700
H  42.68300 45.08700 41.53700
Mg 41.60100 41.20800 26.44200
C  40.91000 43.59700 28.83200
C  42.48800 39.07200 29.09900
C  42.11500 38.86200 24.19200
C  40.85700 43.51300 23.90200
N  41.87600 41.44300 28.70100
C  41.36500 42.41900 29.44700
C  41.48500 42.15100 30.93100
C  42.39000 40.87200 30.94000
C  42.28900 40.42800 29.49200
C  43.88300 41.07900 31.47100
C  40.19700 41.99800 31.77600
C  40.19200 42.75600 33.07200
H  39.47100 42.11300 34.34000
N  42.36500 39.32400 26.60800
C  42.51700 38.58600 27.77200
C  42.97200 37.29400 27.33800
C  43.02300 37.25500 25.91800
C  42.42000 38.51100 25.50300
C  43.31600 36.21200 28.35000
C  43.55000 36.15900 24.96200
O  43.70000 36.27500 23.75000
C  43.86700 34.79200 25.50600
N  41.60200 41.18100 24.32800
C  41.76800 40.01800 23.63400
C  41.46300 40.22400 22.11500
C  41.09000 41.77300 22.08600
C  41.24800 42.23600 23.52400
C  42.68700 39.76900 21.19200
C  39.70600 41.93500 21.53400
C  38.52700 41.91000 22.48700
N  41.03000 43.13700 26.33200
C  40.73100 43.97000 25.24700
C  40.35000 45.28100 25.69400
C  40.34300 45.22100 27.14200
C  40.76000 43.88400 27.45300
C  40.02400 46.56400 24.85800
C  39.93700 45.86100 28.36500
O  39.30600 46.90300 28.57400
C  40.33000 44.82200 29.55400
C  41.31600 45.52500 30.43200
O  42.39400 46.01700 30.14800
O  40.77000 45.68800 31.63300
C  41.50500 46.52700 32.57000
H  42.64700 38.32700 29.88100
H  42.01500 38.13400 23.38400
H  40.52300 44.25500 23.17400
H  42.07700 42.98800 31.30300
H  41.84900 40.13000 31.52700
H  44.00000 42.16200 31.44900
H  44.50400 40.54000 30.75600
H  44.01700 40.79500 32.51500
H  39.82900 40.97300 31.82500
H  39.40200 42.46000 31.19100
H  39.77400 43.75300 32.93600
H  41.21200 42.95400 33.40000
H  42.77000 36.33600 29.28600
H  44.37700 36.14900 28.58900
H  42.94600 35.22900 28.06000
H  44.83900 34.92600 25.98000
H  43.93600 34.09600 24.67100
H  43.03500 34.39600 26.08900
H  40.58600 39.60700 21.92200
H  41.82100 42.27500 21.45200
H  42.55900 38.74100 20.85300
H  43.61000 39.74000 21.77100
H  42.79600 40.49900 20.39000
H  39.47700 41.10400 20.86600
H  39.68500 42.89900 21.02500
H  38.90200 41.64900 23.47700
H  37.84500 41.07800 22.31200
H  38.07100 42.89900 22.52600
H  40.24100 47.46700 25.42800
H  38.96200 46.78100 24.74100
H  40.77200 46.60300 24.06600
H  39.40300 44.57000 30.06800
H  41.90800 47.45000 32.15200
H  42.36700 45.89400 32.78000
H  40.99300 46.70800 33.51500

