158

Mg -11.52200 38.27500 42.33400
C  -9.03600 35.83500 41.74700
C  -9.55900 40.53900 40.77500
C  -14.10200 40.42500 42.43300
C  -13.59900 35.71600 43.34300
N  -9.44300 38.11200 41.24300
C  -8.77100 36.96300 40.99800
C  -7.53200 37.26400 40.13900
C  -7.67500 38.89800 39.90400
C  -9.02100 39.23500 40.62800
C  -6.47100 39.65700 40.46300
C  -7.70600 36.42200 38.85300
C  -6.43100 35.62400 38.55600
H  -5.67700 36.16600 37.34000
N  -11.70000 40.26500 41.84300
C  -10.69900 41.05300 41.36000
C  -11.10400 42.45100 41.54000
C  -12.45700 42.43700 41.88400
C  -12.81100 41.02600 42.12700
C  -10.31500 43.64500 41.03300
C  -13.32700 43.67200 42.04600
O  -12.87900 44.79400 42.00700
C  -14.83000 43.57600 42.32000
N  -13.64700 38.05400 42.62200
C  -14.52200 39.10900 42.58300
C  -15.92700 38.64600 42.59400
C  -15.76900 37.08600 42.98100
C  -14.21000 36.87400 42.99900
C  -16.96600 39.35000 43.52600
C  -16.54400 36.36300 41.85700
C  -15.92700 35.64800 40.61400
N  -11.36500 36.17600 42.68600
C  -12.26800 35.32400 43.26200
C  -11.58800 34.03900 43.50000
C  -10.32000 34.18600 42.87500
C  -10.23300 35.50400 42.53500
C  -12.24700 32.77500 43.85800
C  -9.05200 33.52900 42.51900
O  -8.64600 32.38900 42.74700
C  -8.18800 34.52300 41.73300
C  -6.88700 34.53800 42.49500
O  -6.00700 33.72100 42.43700
O  -6.76500 35.78700 43.20400
C  -5.51300 35.95300 43.95100
H  -8.87300 41.30600 40.41000
H  -14.88400 41.18700 42.40800
H  -14.17300 34.86800 43.72300
H  -6.58500 37.08900 40.65000
H  -7.94000 39.20700 38.89300
H  -6.21900 40.27300 39.60000
H  -5.56100 39.15400 40.79100
H  -6.70300 40.38500 41.24100
H  -7.85200 37.17500 38.07900
H  -8.59400 35.80500 38.99100
H  -6.66600 34.57600 38.37100
H  -5.66100 35.53000 39.32200
H  -10.74600 44.19400 40.19600
H  -9.28800 43.34400 40.82500
H  -10.25600 44.34500 41.86600
H  -15.44600 43.20000 41.50300
H  -15.22500 44.58700 42.41700
H  -15.03100 43.07300 43.26600
H  -16.21700 38.84300 41.56200
H  -16.04800 36.79300 43.99300
H  -16.53900 40.17200 44.10100
H  -17.40300 38.57600 44.15700
H  -17.72500 39.68600 42.81900
H  -17.32700 37.07800 41.60200
H  -17.13900 35.65700 42.43700
H  -16.03200 34.56400 40.65900
H  -14.84200 35.71200 40.54000
H  -16.37000 36.09600 39.72400
H  -12.72000 32.83900 44.83800
H  -11.49600 32.00000 44.00800
H  -12.83000 32.56000 42.96200
H  -7.97100 34.16700 40.72600
H  -5.69600 36.65500 44.76400
H  -4.66300 36.18100 43.30700
H  -5.21100 35.00800 44.40300
Mg -9.78000 17.10500 41.57800
C  -6.28700 17.02900 41.27900
C  -9.65400 20.50600 40.79800
C  -13.07600 16.91600 40.95700
C  -9.70900 13.60500 41.84700
N  -8.04900 18.56400 41.08300
C  -6.67600 18.32500 41.05700
C  -5.93900 19.61600 40.55800
C  -7.05200 20.68300 40.90600
C  -8.37000 19.90900 40.88300
C  -6.77200 21.42600 42.22400
C  -5.72600 19.44800 38.95900
C  -4.30600 19.44800 38.50600
H  -3.78800 18.10000 37.97600
N  -11.21800 18.57800 40.99000
C  -11.00700 19.91300 40.72900
C  -12.30400 20.49600 40.45800
C  -13.27700 19.47400 40.25300
C  -12.55700 18.21500 40.72200
C  -12.42600 21.93000 40.33100
C  -14.79200 19.69000 39.88300
O  -15.14500 20.83500 39.61100
C  -15.87500 18.56400 39.87600
N  -11.23700 15.52100 41.34500
C  -12.54700 15.68100 41.22800
C  -13.27500 14.43100 41.53600
C  -12.20200 13.30600 41.27400
C  -10.96700 14.16600 41.56300
C  -13.84600 14.43200 42.95500
C  -12.21800 12.60200 39.86400
C  -12.76900 13.42700 38.64800
N  -8.30300 15.56000 41.59800
C  -8.40500 14.16000 41.79300
C  -7.12000 13.62700 42.00400
C  -6.21600 14.71400 41.77000
C  -7.03000 15.86000 41.55000
C  -6.84500 12.11600 42.15400
C  -4.83100 15.03200 41.61000
O  -3.78500 14.35900 41.63300
C  -4.91900 16.54300 41.45800
C  -4.16000 17.23800 42.50400
O  -4.65100 18.06600 43.28100
O  -2.81400 16.88100 42.43900
C  -2.09500 17.61800 43.49400
H  -9.53100 21.58000 40.64100
H  -14.16300 16.81900 40.92700
H  -9.64800 12.52000 41.95700
H  -5.03500 19.77000 41.14800
H  -7.10400 21.37200 40.06400
H  -7.15600 21.01500 43.15800
H  -7.16200 22.43700 42.11000
H  -5.69100 21.45100 42.36100
H  -6.26200 20.17900 38.35500
H  -6.27200 18.53200 38.73000
H  -3.71800 19.85900 39.32600
H  -4.22000 20.20700 37.72900
H  -13.28100 22.23900 39.73100
H  -11.52900 22.40500 39.93400
H  -12.70100 22.39300 41.27900
H  -16.78100 19.09700 39.58800
H  -15.97500 18.12200 40.86700
H  -15.66400 17.80900 39.11800
H  -14.12900 14.33800 40.86600
H  -12.24300 12.57300 42.07900
H  -13.55400 15.34900 43.46700
H  -13.62100 13.53200 43.52700
H  -14.92900 14.38300 42.84300
H  -12.74600 11.65300 39.95900
H  -11.15500 12.44600 39.67900
H  -13.50300 14.21200 38.82600
H  -13.31800 12.72600 38.01900
H  -11.92600 13.86800 38.11600
H  -7.75300 11.55200 41.94200
H  -6.56800 11.85500 43.17600
H  -6.06200 11.77200 41.47800
H  -4.29400 16.75100 40.59000
H  -1.88200 18.64600 43.20200
H  -1.12500 17.12300 43.53900
H  -2.56800 17.61900 44.47500

