158

Mg 44.16200 4.18900 48.22300
C  41.68500 6.53400 47.04800
C  41.65300 1.78700 47.95300
C  46.50100 1.76600 48.43200
C  46.57900 6.53400 47.97200
N  41.91900 4.21400 47.65500
C  41.18300 5.28000 47.18000
C  39.81100 4.85000 46.66300
C  39.76700 3.39600 47.20400
C  41.20700 3.08500 47.63200
C  38.61600 3.06400 48.27300
C  39.61300 5.01700 45.12000
C  38.13600 5.26900 44.71200
H  37.72300 4.46200 43.42300
N  44.09000 1.99700 48.28300
C  42.90700 1.27900 48.07600
C  43.32600 -0.10600 48.14300
C  44.71000 -0.17700 48.41900
C  45.20900 1.22700 48.32600
C  42.42100 -1.26900 47.85600
C  45.45700 -1.46000 48.60300
O  44.88100 -2.54200 48.62500
C  46.92900 -1.46000 48.83600
N  46.22500 4.15100 47.98500
C  46.93800 3.00400 48.30100
C  48.45600 3.28700 48.33000
C  48.51400 4.83600 48.41700
C  47.09700 5.24900 48.04100
C  49.31300 2.54000 49.46100
C  49.58300 5.44700 47.57500
C  50.37300 6.55900 48.23000
N  44.19700 6.20900 47.73500
C  45.24900 7.03200 47.74200
C  44.79300 8.36600 47.49700
C  43.40000 8.28100 47.17300
C  43.09100 6.89900 47.28400
C  45.78600 9.55600 47.45200
C  42.23700 8.90600 46.69600
O  42.08600 10.07800 46.31200
C  41.01700 7.84900 46.75800
C  39.92500 8.19200 47.68600
O  39.66900 7.74900 48.81000
O  39.20900 9.21400 47.17500
C  37.89100 9.52700 47.78400
H  40.84900 1.05200 47.87400
H  47.26000 0.98800 48.53600
H  47.41000 7.24200 48.01300
H  39.10300 5.51500 47.15700
H  39.59300 2.74900 46.34400
H  39.09400 2.73900 49.19700
H  37.98300 2.27900 47.85800
H  38.12300 4.01100 48.48900
H  39.97100 4.10400 44.64300
H  40.24500 5.85400 44.82200
H  38.09100 6.35700 44.65800
H  37.56000 4.98000 45.59100
H  42.73400 -1.78500 46.94900
H  41.43600 -0.83400 47.68800
H  42.43800 -1.97100 48.69000
H  47.46000 -1.15000 47.93600
H  47.19900 -2.50200 49.00900
H  47.25800 -0.98100 49.75900
H  48.83500 2.87600 47.39500
H  48.63600 5.03300 49.48200
H  49.67800 1.67200 48.91300
H  48.70800 2.22400 50.31100
H  50.04300 3.17900 49.95800
H  49.10400 5.80800 46.66500
H  50.20500 4.63200 47.20500
H  51.41700 6.33100 48.44300
H  49.85800 6.87800 49.13700
H  50.38000 7.40800 47.54700
H  45.12100 10.41800 47.50000
H  46.37300 9.61500 46.53500
H  46.52900 9.51700 48.24800
H  40.57100 7.83300 45.76300
H  37.68100 10.59200 47.68500
H  37.74200 9.30000 48.83900
H  37.17400 9.09200 47.08700
Mg 26.36900 50.66100 26.51600
C  24.00300 51.55000 28.95900
C  28.56500 50.01900 29.06300
C  28.57600 49.68600 24.12100
C  24.25400 51.75400 24.06100
N  26.20500 50.68300 28.71800
C  25.22400 51.04800 29.48500
C  25.35100 50.70800 30.91400
C  26.85500 50.38700 30.97700
C  27.25600 50.42400 29.49800
C  27.65400 51.45400 31.76500
C  24.39700 49.57500 31.50700
C  23.87800 49.71000 32.89900
H  24.54100 50.73300 33.79700
N  28.36600 49.96500 26.54700
C  29.04000 49.69400 27.71500
C  30.31200 49.06400 27.32000
C  30.29200 48.91200 25.96100
C  29.04900 49.52100 25.44300
C  31.33800 48.58600 28.35500
C  31.38300 48.29900 25.11100
O  31.29500 48.31700 23.87500
C  32.66600 47.80800 25.75700
N  26.35500 50.76200 24.44200
C  27.33300 50.14200 23.70200
C  26.97300 49.97000 22.24600
C  25.48200 50.63400 22.10900
C  25.27100 51.01000 23.64600
C  27.92000 50.57100 21.21500
C  24.43900 49.59400 21.67300
C  23.35800 50.21200 20.81300
N  24.52600 51.55100 26.44400
C  23.81200 51.98700 25.39300
C  22.50500 52.56400 25.83700
C  22.56900 52.39100 27.27200
C  23.84800 51.76900 27.56800
C  21.41300 52.86100 25.03500
C  21.80700 52.64000 28.47000
O  20.71500 53.14700 28.69200
C  22.76900 52.17200 29.57700
C  23.11000 53.39700 30.43400
O  23.87400 54.27500 30.19200
O  22.49900 53.21500 31.59000
C  22.28000 54.39000 32.46400
H  29.23500 49.58000 29.80500
H  29.14600 49.20800 23.32200
H  23.62100 52.03400 23.21600
H  25.14900 51.64400 31.43400
H  26.96400 49.35100 31.29900
H  28.23100 52.11400 31.11700
H  28.33500 51.00400 32.48800
H  27.07100 52.02000 32.49200
H  24.82700 48.57500 31.45600
H  23.53800 49.48500 30.84100
H  23.93500 48.74300 33.39900
H  22.81700 49.94900 32.83300
H  31.25000 47.50400 28.25400
H  31.11500 48.79100 29.40200
H  32.24600 49.14100 28.12200
H  33.37100 47.36000 25.05700
H  32.46400 47.05500 26.51900
H  33.10400 48.71600 26.17100
H  26.83600 48.92600 21.96300
H  25.46700 51.47600 21.41700
H  28.85300 50.93700 21.64200
H  27.61400 51.43100 20.62000
H  28.17300 49.77900 20.51000
H  23.98900 49.06100 22.51000
H  24.91500 48.77400 21.13400
H  22.32400 49.91000 20.97900
H  23.61800 49.99800 19.77600
H  23.37500 51.29900 20.89800
H  20.60700 52.13500 25.14500
H  21.68900 52.83400 23.98100
H  21.09800 53.86300 25.32500
H  22.30100 51.37300 30.15300
H  22.61100 55.23300 31.85800
H  22.83800 54.40000 33.40100
H  21.22300 54.53600 32.68700

