158

Mg 0.80900 8.01900 27.04600
C  1.70100 10.05200 29.73400
C  0.71900 5.37100 29.25000
C  0.58600 6.02900 24.32300
C  1.09100 10.72500 24.92000
N  1.17300 7.78100 29.18900
C  1.31000 8.76000 30.11600
C  1.08200 8.28200 31.57800
C  1.17400 6.72900 31.29000
C  0.95900 6.65000 29.78400
C  2.49100 6.03400 31.79600
C  -0.20100 8.79700 32.31200
C  -0.22000 8.91700 33.81800
H  1.00700 8.55400 34.66100
N  0.72600 5.94400 26.81400
C  0.68100 5.06100 27.87200
C  0.73000 3.70700 27.23500
C  0.62100 3.86300 25.83000
C  0.64000 5.33500 25.61900
C  0.72000 2.40600 27.98700
C  0.46400 2.90700 24.75400
O  0.45100 3.31200 23.60700
C  0.30400 1.43100 24.96600
N  1.01200 8.33200 24.88900
C  0.63900 7.39800 24.00300
C  0.61100 7.93800 22.53300
C  0.38300 9.49200 22.88400
C  0.78600 9.50700 24.33200
C  1.91000 7.69400 21.72100
C  -1.05800 9.87300 22.45000
C  -1.21500 10.86100 21.23200
N  1.45200 10.01400 27.20100
C  1.50600 10.98500 26.31000
C  1.99100 12.15300 26.90900
C  2.14000 11.83600 28.30600
C  1.78800 10.53500 28.42800
C  1.99800 13.57000 26.33700
C  2.44000 12.44300 29.58000
O  2.83300 13.51900 30.05700
C  2.10800 11.30500 30.59000
C  3.33900 11.16400 31.45700
O  4.34300 10.58200 31.16400
O  3.05600 11.79000 32.61300
C  4.04400 11.80300 33.67900
H  0.66600 4.57500 29.99500
H  0.38600 5.42700 23.43400
H  0.95300 11.58800 24.26600
H  1.99600 8.50600 32.12900
H  0.35500 6.18000 31.75400
H  3.06600 6.77200 32.35600
H  3.14800 5.85800 30.94500
H  2.19900 5.14200 32.35000
H  -1.00200 8.13000 31.99500
H  -0.39100 9.79200 31.91000
H  -0.99300 8.20000 34.09300
H  -0.63100 9.89600 34.06500
H  0.95300 2.63800 29.02600
H  1.47900 1.78400 27.51200
H  -0.25700 1.92300 27.99400
H  -0.04200 0.88600 24.08700
H  -0.37500 1.22100 25.79200
H  1.25900 1.02700 25.30200
H  -0.25200 7.51700 22.01600
H  1.15000 10.01200 22.31000
H  2.41200 8.62400 21.45200
H  1.69100 7.23700 20.75600
H  2.61600 7.12500 22.32600
H  -1.53900 10.25700 23.34900
H  -1.68000 9.02200 22.17100
H  -0.28500 10.92300 20.66700
H  -1.64400 11.83400 21.46900
H  -1.98900 10.36900 20.64300
H  2.65700 14.30700 26.79500
H  0.97700 13.93900 26.43800
H  2.20100 13.55300 25.26600
H  1.21400 11.64600 31.11300
H  4.53600 12.77500 33.72200
H  4.83600 11.05500 33.67000
H  3.52400 11.73400 34.63400
Mg 26.03800 1.59900 28.63000
C  27.81900 1.22200 31.59300
C  23.20400 1.97500 30.70300
C  24.18100 1.90700 25.85200
C  28.96400 1.14400 26.82500
N  25.68200 1.64600 30.90000
C  26.51500 1.43700 31.90300
C  25.86700 1.48400 33.29800
C  24.40400 1.85500 32.97400
C  24.38400 1.79800 31.44800
C  23.35900 0.87700 33.67000
C  26.51200 2.53900 34.23500
C  25.73200 2.93800 35.52800
H  26.42000 2.83400 36.87900
N  23.92200 1.79400 28.30800
C  22.97300 1.93400 29.27700
C  21.67000 1.99300 28.58400
C  21.93300 2.13200 27.19300
C  23.39900 1.94000 27.04100
C  20.41500 1.94500 29.32500
C  20.92600 2.30700 26.07200
O  21.31700 2.28600 24.91100
C  19.51000 2.51800 26.41100
N  26.42300 1.32000 26.61900
C  25.54900 1.63900 25.66700
C  26.17200 1.60100 24.27200
C  27.63800 1.11000 24.58400
C  27.72900 1.35800 26.14600
C  25.53400 0.70300 23.17100
C  28.65400 1.80700 23.64500
C  29.93000 1.07800 23.40200
N  27.98900 1.25400 29.05100
C  29.11200 1.08700 28.21100
C  30.28500 0.80500 28.98400
C  29.89600 0.99200 30.23200
C  28.45900 1.14800 30.29700
C  31.65300 0.53100 28.50600
C  30.36000 1.01300 31.67500
O  31.48600 0.92700 32.14300
C  29.06300 1.13200 32.51300
C  29.05000 -0.07200 33.39500
O  28.62600 -1.17500 33.13200
O  29.44400 0.29600 34.68100
C  29.16100 -0.57200 35.81700
H  22.32600 2.02400 31.35100
H  23.67300 2.27600 24.95800
H  29.81500 0.95300 26.16900
H  26.03000 0.51300 33.76600
H  24.07800 2.85000 33.27600
H  22.65200 1.34300 34.35700
H  23.88100 0.17100 34.31700
H  22.86200 0.33900 32.86300
H  26.67300 3.44000 33.64300
H  27.45300 2.14900 34.62200
H  24.93800 2.19300 35.58100
H  25.27800 3.91400 35.35800
H  19.78200 1.19300 28.85500
H  19.91900 2.89700 29.13400
H  20.30800 1.68800 30.37800
H  18.91800 2.57600 25.49800
H  19.33500 3.45100 26.94600
H  19.03200 1.71100 26.96700
H  26.10200 2.60300 23.84900
H  27.55500 0.02300 24.55800
H  25.79400 -0.34000 23.35000
H  25.85400 1.13900 22.22500
H  24.47200 0.79000 23.40400
H  28.94400 2.79200 24.01300
H  28.25700 1.95200 22.64100
H  29.89800 0.11800 23.91700
H  30.72600 1.74600 23.73400
H  30.02200 0.98300 22.32000
H  31.77600 1.20000 27.65400
H  31.69600 -0.51500 28.20200
H  32.42800 0.72200 29.24800
H  29.07000 2.05800 33.08800
H  30.00400 -0.45300 36.49700
H  29.18400 -1.62000 35.51600
H  28.14400 -0.40800 36.17300

