158

Mg 24.65400 -7.91000 48.04800
C  27.19600 -6.01500 46.98600
C  22.70100 -6.65300 45.47600
C  22.50600 -10.33200 48.62300
C  27.07600 -9.78900 50.13700
N  24.99400 -6.58100 46.31000
C  26.05800 -5.70400 46.29400
C  25.77600 -4.67500 45.16200
C  24.25600 -4.73000 44.96600
C  23.90900 -6.04600 45.66200
C  23.48000 -3.46000 45.28300
C  26.53300 -4.93500 43.79800
C  26.88300 -3.66600 42.99200
H  26.18900 -3.50200 41.64200
N  22.82200 -8.35600 47.29400
C  22.11700 -7.69600 46.21400
C  20.86100 -8.31300 46.04400
C  20.85900 -9.51600 46.80700
C  22.08600 -9.44000 47.63100
C  19.82100 -7.60600 45.15400
C  19.83000 -10.49100 46.71600
O  18.79500 -10.32600 46.08600
C  19.94200 -11.82800 47.46200
N  24.79300 -9.87800 49.30300
C  23.63500 -10.60700 49.39800
C  23.91600 -11.86400 50.20100
C  25.34500 -11.67600 50.81500
C  25.76500 -10.37100 50.07200
C  22.80700 -12.39500 51.18900
C  26.41000 -12.78900 50.56200
C  27.31600 -12.94400 51.77100
N  26.73200 -7.94000 48.54400
C  27.54900 -8.75600 49.29900
C  28.89300 -8.21100 49.30900
C  28.75600 -7.12000 48.41200
C  27.44800 -7.04300 47.92500
C  30.08200 -8.80600 50.06300
C  29.55000 -6.01400 47.81600
O  30.74100 -5.83800 47.83600
C  28.51200 -5.22200 46.84200
C  28.27700 -3.88900 47.40100
O  27.35200 -3.50400 48.16000
O  29.26100 -3.02200 46.82200
C  29.17000 -1.67300 47.13000
H  22.03000 -6.24400 44.71800
H  21.85400 -11.18800 48.80600
H  27.79800 -10.04200 50.91600
H  25.95400 -3.73500 45.68400
H  24.10200 -4.83100 43.89200
H  24.16400 -2.80400 45.82000
H  22.63600 -3.77800 45.89400
H  23.11900 -2.89500 44.42200
H  25.97300 -5.60900 43.14900
H  27.46900 -5.43000 44.05400
H  27.96900 -3.57300 42.96100
H  26.41000 -2.86900 43.56600
H  19.82500 -6.56000 45.46200
H  18.80500 -7.89500 45.42400
H  19.95000 -7.72000 44.07800
H  20.83600 -12.34200 47.10900
H  19.01100 -12.35600 47.25600
H  19.95800 -11.71800 48.54700
H  23.94300 -12.66400 49.46100
H  25.22400 -11.53400 51.88900
H  22.08400 -11.61200 51.41700
H  23.20800 -12.67900 52.16200
H  22.27200 -13.25700 50.78900
H  26.96800 -12.45700 49.68600
H  25.92200 -13.73700 50.33200
H  26.58800 -12.78400 52.56600
H  28.13400 -12.24700 51.95400
H  27.65700 -13.97900 51.76500
H  29.77600 -8.74100 51.10700
H  30.93800 -8.15100 49.90100
H  30.22600 -9.86100 49.82900
H  28.99100 -5.25500 45.86400
H  30.16600 -1.24600 47.24700
H  28.65400 -1.44300 48.06200
H  28.78700 -1.07700 46.30200
Mg 36.14900 48.82100 24.69300
C  35.95100 47.31800 27.85300
C  35.53600 51.85700 26.19300
C  36.09300 50.15100 21.73300
C  36.77000 45.65300 23.41100
N  35.68300 49.43700 26.85700
C  35.76200 48.66900 27.97000
C  35.67300 49.52300 29.23500
C  35.37200 50.93300 28.62500
C  35.57700 50.74000 27.06600
C  33.90200 51.51900 29.01400
C  37.01700 49.34800 30.05000
C  36.82400 49.32400 31.62900
H  35.55400 49.82000 32.34900
N  35.84000 50.73000 24.04400
C  35.69600 51.84400 24.86700
C  35.79300 53.02800 24.06200
C  35.96800 52.59600 22.71000
C  36.04600 51.12200 22.75600
C  35.94200 54.45500 24.71900
C  36.07600 53.48500 21.41800
O  36.40300 52.95500 20.34500
C  35.79800 55.00700 21.46000
N  36.22100 48.03900 22.83700
C  36.07600 48.76400 21.77300
C  36.35700 48.01200 20.49000
C  37.00100 46.68600 20.99200
C  36.70700 46.77000 22.54100
C  35.12700 47.72000 19.49100
C  38.42000 46.27000 20.53900
C  38.94000 44.79000 20.65700
N  36.21500 46.87900 25.49200
C  36.49100 45.68800 24.76400
C  36.63400 44.59400 25.66800
C  36.34000 45.16100 26.90200
C  36.07700 46.53400 26.70000
C  37.08800 43.20000 25.32400
C  36.16500 44.87000 28.35800
O  36.12600 43.83000 28.98500
C  35.95500 46.25000 28.99300
C  34.80800 46.14100 29.84600
O  33.65400 46.40100 29.49300
O  35.15000 45.61300 31.01600
C  34.07400 44.93400 31.69000
H  35.36300 52.79100 26.73200
H  36.11000 50.55000 20.71700
H  36.95500 44.67100 22.97000
H  34.88400 49.17200 29.89900
H  36.15500 51.57100 29.03500
H  33.94600 52.40200 29.65200
H  33.42900 50.74100 29.61300
H  33.46000 51.68000 28.03100
H  37.56200 50.27800 29.88500
H  37.64700 48.53000 29.70100
H  37.69400 49.82300 32.05600
H  36.87800 48.26100 31.86100
H  36.67500 55.06700 24.19300
H  36.29900 54.44200 25.74900
H  34.95900 54.91900 24.78800
H  35.36100 55.13100 20.46900
H  36.74700 55.50200 21.66400
H  34.99400 55.26800 22.14900
H  37.19300 48.51300 20.00200
H  36.36900 45.85200 20.68800
H  34.15300 48.03500 19.86400
H  35.06200 46.64600 19.32200
H  35.29600 48.28600 18.57400
H  39.02500 47.00200 21.07400
H  38.59700 46.49800 19.48800
H  38.10900 44.08700 20.59500
H  39.40900 44.58300 21.61800
H  39.56100 44.66500 19.77000
H  37.75200 43.20600 24.46000
H  36.27000 42.52000 25.08200
H  37.81600 42.72700 25.98300
H  36.81000 46.32800 29.66500
H  33.49100 44.33600 30.98900
H  33.35500 45.64900 32.09200
H  34.41700 44.37500 32.56000

