158

Mg 47.33200 35.68600 27.08600
C  45.65300 33.76400 29.61100
C  47.25400 38.28800 29.38000
C  48.27300 37.66400 24.69700
C  46.77100 32.89400 24.86700
N  46.72200 35.87100 29.21000
C  46.14800 34.97000 29.99200
C  46.32000 35.51500 31.44500
C  46.43600 37.02900 31.39700
C  46.89700 37.10200 29.90000
C  45.16000 37.82700 31.73000
C  47.61000 34.78400 32.05700
C  47.53900 34.61000 33.56800
H  46.90700 35.67300 34.41600
N  47.96100 37.68200 27.10500
C  47.80700 38.64600 28.11200
C  48.33600 39.87500 27.67400
C  48.59400 39.73100 26.30200
C  48.29800 38.32000 25.96100
C  48.45200 41.12000 28.54900
C  49.18000 40.71800 25.29500
O  49.50200 40.43500 24.13000
C  49.55200 42.17100 25.65700
N  47.55100 35.30500 25.05400
C  47.99400 36.31800 24.29000
C  48.13900 35.77500 22.85100
C  47.96300 34.19900 22.94400
C  47.41400 34.15000 24.34500
C  47.20600 36.47400 21.78000
C  49.22100 33.35500 22.77400
C  49.11600 31.95800 22.11700
N  46.38700 33.71700 27.16800
C  46.25600 32.73900 26.20000
C  45.49400 31.63400 26.77100
C  45.24300 32.00400 28.06500
C  45.73900 33.29700 28.30100
C  45.26800 30.34900 26.09100
C  44.69200 31.54800 29.28700
O  44.23800 30.45500 29.61900
C  44.76900 32.73400 30.25700
C  45.14800 32.22300 31.60500
O  46.13200 31.48300 31.89400
O  44.22800 32.62700 32.55600
C  44.39800 32.06300 33.94800
H  47.08300 39.14800 30.03000
H  48.49000 38.29200 23.83000
H  46.59300 32.08400 24.15700
H  45.56200 35.19900 32.16200
H  47.18700 37.40900 32.08900
H  44.38200 37.06300 31.71300
H  45.05500 38.58200 30.95100
H  45.22700 38.33900 32.68900
H  48.54000 35.29800 31.81300
H  47.67700 33.78500 31.62700
H  48.60100 34.52600 33.79900
H  47.02500 33.65800 33.69700
H  49.47900 41.47900 28.49900
H  48.16400 40.87500 29.57200
H  47.73800 41.90700 28.30900
H  48.69700 42.44900 26.27300
H  49.61100 42.76700 24.74600
H  50.45700 42.16300 26.26400
H  49.11800 36.06800 22.47200
H  47.21400 33.84000 22.23900
H  46.37600 35.83200 21.48500
H  47.77300 36.78200 20.90200
H  46.77600 37.35800 22.25100
H  49.73000 33.17700 23.72100
H  50.01700 33.86500 22.23100
H  48.04600 31.90300 21.91600
H  49.36800 31.22400 22.88200
H  49.71500 31.86400 21.21100
H  46.09000 29.95100 25.49500
H  44.62800 30.55700 25.23300
H  44.87600 29.55200 26.72200
H  43.80100 33.22300 30.36200
H  44.96400 31.14800 34.12500
H  43.35900 31.94500 34.25500
H  44.76600 32.94000 34.48000
Mg -10.90700 40.51900 39.10300
C  -9.98600 37.24500 38.46600
C  -7.58500 41.50900 38.35500
C  -11.90000 43.68000 38.63100
C  -14.22000 39.43600 39.38000
N  -9.09200 39.54900 38.31900
C  -8.92900 38.16100 38.26500
C  -7.46900 37.79300 37.87600
C  -6.67400 39.12600 38.31900
C  -7.85200 40.13800 38.33100
C  -5.94400 39.14500 39.66000
C  -7.38700 37.50200 36.31600
C  -7.16000 36.00900 35.93600
H  -8.04200 35.41900 34.90300
N  -9.88800 42.38900 38.65200
C  -8.52400 42.60200 38.34000
C  -8.27700 43.97700 38.17500
C  -9.50500 44.57700 38.31800
C  -10.52900 43.57200 38.46900
C  -6.92400 44.54600 37.99000
C  -9.65600 46.08100 38.28000
O  -8.73900 46.80700 37.92000
C  -10.94100 46.73000 38.56800
N  -12.87600 41.45500 39.02200
C  -12.98000 42.79500 38.92800
C  -14.44100 43.17100 38.96600
C  -15.25700 41.85600 39.25700
C  -14.05500 40.84100 39.24900
C  -14.91700 44.31300 39.93800
C  -16.40400 41.45300 38.26700
C  -17.70900 41.09300 38.95800
N  -11.93100 38.71500 39.16200
C  -13.29400 38.41600 39.13900
C  -13.43900 36.99400 39.03400
C  -12.16200 36.48300 38.74400
C  -11.30800 37.59500 38.78500
C  -14.80400 36.31600 39.12900
C  -11.43500 35.27000 38.38000
O  -11.84000 34.12600 38.24000
C  -9.91000 35.70400 38.24000
C  -9.15300 34.90200 39.26200
O  -9.51800 34.75400 40.43900
O  -8.18100 34.20800 38.62200
C  -7.43300 33.31600 39.50000
H  -6.53100 41.77800 38.26300
H  -12.26800 44.69600 38.47300
H  -15.23000 39.03800 39.49500
H  -7.05000 37.02800 38.53000
H  -6.05500 39.49400 37.50000
H  -4.95200 39.59400 39.60900
H  -5.59800 38.15500 39.95700
H  -6.53700 39.59700 40.45500
H  -6.60400 38.11700 35.87200
H  -8.37200 37.73500 35.91300
H  -7.22100 35.32600 36.78300
H  -6.15200 35.96200 35.52400
H  -6.48900 44.93100 38.91300
H  -6.83400 45.28600 37.19500
H  -6.27200 43.77600 37.57900
H  -10.89400 47.80800 38.71900
H  -11.16200 46.53800 39.61700
H  -11.74600 46.44000 37.89300
H  -14.70600 43.47500 37.95400
H  -15.60300 41.86900 40.29000
H  -14.08100 44.81400 40.42700
H  -15.64500 44.03300 40.69900
H  -15.36200 45.09500 39.32200
H  -16.20600 40.63800 37.57100
H  -16.65800 42.30300 37.63400
H  -17.81300 41.51500 39.95700
H  -17.89200 40.02000 39.00100
H  -18.45800 41.48600 38.27100
H  -14.73000 35.48100 39.82700
H  -15.04400 35.98800 38.11800
H  -15.52500 36.96600 39.62600
H  -9.62100 35.49600 37.21000
H  -8.04000 32.46200 39.80100
H  -6.91900 33.73000 40.36700
H  -6.63300 32.92000 38.87400

