158

Mg 1.81300 -2.68800 44.68700
C  4.90600 -1.21900 43.79800
C  0.23800 -0.16500 42.97700
C  -0.98800 -4.48900 45.05800
C  3.77000 -5.56200 45.79100
N  2.58500 -0.98800 43.50200
C  3.82300 -0.48400 43.33900
C  3.87500 0.84600 42.50600
C  2.40800 1.29600 42.69900
C  1.64800 -0.03700 43.00800
C  2.19300 2.39800 43.81900
C  4.42400 0.78600 41.05000
C  5.77400 1.59600 40.83000
H  6.91400 0.76100 40.33200
N  -0.04800 -2.39300 44.03000
C  -0.51900 -1.30600 43.40300
C  -1.89200 -1.40300 43.13600
C  -2.32600 -2.62200 43.74800
C  -1.10300 -3.21800 44.33800
C  -2.70300 -0.55400 42.27300
C  -3.70900 -3.18600 43.75900
O  -4.60900 -2.53000 43.28900
C  -4.06100 -4.55800 44.35100
N  1.44900 -4.80700 45.24900
C  0.10400 -5.20000 45.43100
C  0.07300 -6.61300 45.99200
C  1.57600 -6.90400 46.33800
C  2.36200 -5.73700 45.76500
C  -0.83400 -6.85400 47.30100
C  2.06400 -8.22200 45.65400
C  3.13200 -9.06700 46.40400
N  3.82800 -3.29200 44.93800
C  4.48500 -4.44600 45.42300
C  5.84900 -4.19800 45.51600
C  6.07600 -2.94800 44.83400
C  4.82800 -2.45800 44.52800
C  6.81000 -5.10400 46.21200
C  7.10900 -2.00500 44.37700
O  8.33500 -1.96900 44.46900
C  6.35700 -0.75700 43.76100
C  6.64100 0.51900 44.60400
O  6.14800 0.88400 45.62900
O  7.50300 1.21600 43.90500
C  8.08100 2.44600 44.49300
H  -0.19300 0.66400 42.41300
H  -1.85700 -5.14500 45.14600
H  4.33900 -6.36600 46.26100
H  4.40900 1.50300 43.19300
H  2.07600 1.64700 41.72200
H  2.44700 3.36500 43.38300
H  2.85900 2.23400 44.66500
H  1.21100 2.39700 44.29200
H  3.80000 1.24300 40.28100
H  4.49500 -0.26700 40.77900
H  6.09200 2.01000 41.78600
H  5.68900 2.41800 40.11900
H  -2.09600 0.15800 41.71600
H  -3.40100 0.03200 42.87200
H  -3.29600 -1.15300 41.58200
H  -3.49800 -5.24300 43.71700
H  -5.13800 -4.57600 44.18200
H  -3.85900 -4.63200 45.42000
H  -0.28700 -7.25700 45.19000
H  1.68200 -6.97900 47.42000
H  -0.92400 -7.90700 47.56800
H  -1.82400 -6.40900 47.20500
H  -0.41400 -6.30900 48.14700
H  2.45300 -7.98400 44.66400
H  1.19800 -8.87800 45.56400
H  3.69300 -9.55000 45.60300
H  2.76900 -9.88500 47.02600
H  3.72500 -8.51700 47.13500
H  7.08100 -5.85000 45.46500
H  6.41900 -5.59900 47.10000
H  7.66400 -4.44300 46.35700
H  6.70700 -0.75600 42.72800
H  8.07200 3.20600 43.71200
H  9.12100 2.20700 44.71800
H  7.63400 2.76600 45.43500
Mg 25.08200 1.49700 28.92400
C  27.05600 1.09600 31.82900
C  22.28500 1.70800 30.86100
C  23.41400 1.64300 26.10900
C  27.99000 0.63100 27.11100
N  24.74200 1.31500 31.12200
C  25.67600 1.32000 32.09100
C  24.99800 1.61400 33.46600
C  23.46800 1.59400 33.11600
C  23.43800 1.57100 31.60500
C  22.77600 0.33400 33.70700
C  25.43800 2.89800 34.18000
C  26.02100 2.70900 35.55300
H  25.84400 3.82800 36.58800
N  23.13800 1.55800 28.55300
C  22.10000 1.64000 29.44400
C  20.88200 1.63500 28.74000
C  21.15600 1.59200 27.38200
C  22.59300 1.54700 27.26400
C  19.57100 1.66100 29.46900
C  20.21100 1.47300 26.19900
O  20.59100 1.17400 25.11000
C  18.74300 1.68800 26.37400
N  25.67700 1.25500 26.93200
C  24.81600 1.51200 25.93600
C  25.53500 1.43800 24.58400
C  27.01900 1.34800 24.91600
C  26.89200 1.05400 26.41400
C  24.94500 0.33000 23.62600
C  27.86500 2.57600 24.62600
C  27.16700 3.95900 24.94500
N  27.16700 0.99200 29.32900
C  28.18800 0.67800 28.48500
C  29.37800 0.43200 29.26300
C  29.01600 0.67000 30.62700
C  27.65400 0.96800 30.56100
C  30.68200 -0.02800 28.66300
C  29.53400 0.76000 31.92500
O  30.65300 0.65100 32.41700
C  28.24100 1.10800 32.81200
C  28.13900 0.15600 33.94700
O  27.40700 -0.81300 34.00400
O  28.89500 0.51300 34.96200
C  28.77500 -0.10200 36.22700
H  21.42100 1.93400 31.49000
H  22.89000 1.78500 25.16200
H  28.80500 0.30000 26.46500
H  25.31100 0.76400 34.07200
H  22.94100 2.49700 33.42500
H  21.83800 0.51300 34.23300
H  23.51200 -0.24600 34.26200
H  22.53200 -0.44200 32.98100
H  24.59900 3.57200 34.35000
H  26.27000 3.36500 33.65200
H  27.09000 2.69800 35.33800
H  25.57400 1.79100 35.93400
H  18.84900 1.10400 28.87300
H  19.21700 2.68500 29.59200
H  19.62500 1.10900 30.40700
H  18.41100 1.58300 25.34100
H  18.52500 2.72600 26.62700
H  18.16100 1.10000 27.08300
H  25.33100 2.36700 24.05200
H  27.50300 0.51500 24.40600
H  24.75200 0.85000 22.68700
H  23.99600 -0.02300 24.02900
H  25.63300 -0.51400 23.62200
H  28.07100 2.57900 23.55500
H  28.89600 2.42300 24.94600
H  26.83900 4.33300 23.97500
H  27.84200 4.66800 25.42400
H  26.32200 3.81900 25.62000
H  30.92400 0.48000 27.72900
H  30.53700 -1.09100 28.47200
H  31.49900 0.13400 29.36600
H  28.42300 2.09900 33.22700
H  27.77300 0.09400 36.60800
H  29.43500 0.38600 36.94500
H  29.09100 -1.14500 36.26100

