158

Mg 2.34900 -2.79900 44.46700
C  5.52000 -1.39200 44.13100
C  1.22800 0.02100 42.53200
C  -0.73500 -4.13200 44.33600
C  3.69200 -5.72500 45.43900
N  3.31200 -0.95100 43.48700
C  4.62500 -0.61900 43.48800
C  4.94300 0.67700 42.71300
C  3.48100 1.24400 42.45600
C  2.65400 0.01400 42.84800
C  3.05600 2.54300 43.17000
C  5.84500 0.41200 41.46000
C  6.78700 1.56800 41.00000
H  7.67900 1.30000 39.79600
N  0.44200 -2.09400 43.66900
C  0.25600 -0.99500 42.91800
C  -1.12200 -0.93700 42.49300
C  -1.74700 -2.07900 42.99700
C  -0.68800 -2.82900 43.69700
C  -1.82000 0.22800 41.76800
C  -3.24200 -2.45100 42.88200
O  -3.97400 -1.79100 42.16100
C  -3.85800 -3.75900 43.51100
N  1.58400 -4.67300 44.71000
C  0.30000 -4.91400 44.78100
C  0.08700 -6.46200 45.01400
C  1.48300 -6.88000 45.64300
C  2.34700 -5.72400 45.18700
C  -1.22200 -6.87500 45.81700
C  2.00300 -8.31000 45.43600
C  3.02700 -8.87400 46.55600
N  4.22000 -3.50200 44.76600
C  4.61700 -4.69500 45.21700
C  6.03800 -4.61200 45.42600
C  6.44700 -3.30400 45.15000
C  5.30400 -2.67800 44.61600
C  6.84900 -5.74100 45.99000
C  7.52700 -2.32800 45.14200
O  8.71400 -2.46800 45.41700
C  6.95800 -1.03000 44.48400
C  7.12400 0.15000 45.42500
O  6.61000 0.29300 46.50800
O  8.02900 1.08500 44.83500
C  8.35200 2.25000 45.64900
H  0.93900 0.92500 41.99200
H  -1.67300 -4.68600 44.26500
H  4.11500 -6.65100 45.83500
H  5.49400 1.40700 43.30600
H  3.33200 1.47400 41.40100
H  2.01400 2.57700 43.48700
H  3.27700 3.42000 42.56000
H  3.62400 2.76200 44.07400
H  5.12300 0.31700 40.65000
H  6.31900 -0.54200 41.69300
H  7.48000 1.69800 41.83100
H  6.25500 2.50700 40.84600
H  -1.21800 1.12700 41.63600
H  -2.60100 0.60600 42.42800
H  -2.17000 -0.05200 40.77500
H  -3.65300 -4.59000 42.83700
H  -4.91800 -3.51400 43.43700
H  -3.56900 -3.91400 44.55100
H  -0.06200 -6.99100 44.07200
H  1.40100 -6.76100 46.72300
H  -1.93800 -7.47600 45.25700
H  -1.68900 -5.91000 46.01200
H  -0.93000 -7.21700 46.81000
H  2.60500 -8.29400 44.52800
H  1.17400 -9.01000 45.33800
H  2.72000 -9.82700 46.98600
H  3.27100 -8.12100 47.30600
H  3.90300 -9.06600 45.93700
H  7.02900 -6.55000 45.28300
H  6.33400 -6.07600 46.89000
H  7.74200 -5.29300 46.42600
H  7.51600 -1.01500 43.54800
H  7.43500 2.82900 45.76300
H  9.22500 2.73500 45.21100
H  8.62400 1.80700 46.60600
Mg 0.43400 42.49200 25.96400
C  2.28400 42.68700 29.05200
C  -2.23300 41.34800 27.80000
C  -0.99200 41.84500 23.12500
C  3.36200 43.40700 24.36000
N  0.08600 42.17500 28.26300
C  0.97000 42.32700 29.31000
C  0.16100 42.37900 30.57500
C  -1.31800 41.87700 30.19500
C  -1.15400 41.84400 28.63000
C  -1.73900 40.42800 30.70500
C  0.28300 43.64900 31.38000
C  0.58300 43.56800 32.87600
H  0.36100 42.29400 33.62000
N  -1.34500 41.76100 25.52800
C  -2.31600 41.24900 26.37500
C  -3.48400 40.77800 25.66600
C  -3.09200 40.84000 24.25700
C  -1.75200 41.49800 24.26100
C  -4.73400 40.28400 26.31900
C  -4.02500 40.48200 23.09900
O  -3.54600 40.42000 21.94100
C  -5.39700 39.91300 23.26200
N  1.14700 42.59700 24.02600
C  0.31900 42.38000 23.01400
C  1.00500 42.65600 21.64200
C  2.23900 43.46400 22.08500
C  2.27800 43.13800 23.55500
C  1.35200 41.44800 20.76600
C  2.17000 44.98600 21.95300
C  3.19000 45.60500 20.97200
N  2.43300 42.89400 26.47600
C  3.48900 43.19700 25.71100
C  4.71600 43.36900 26.42000
C  4.27000 43.13000 27.76700
C  2.88400 42.86500 27.75900
C  6.06100 43.71300 25.92600
C  4.71100 43.05600 29.09600
O  5.87600 42.98500 29.54900
C  3.40400 42.82600 30.01700
C  3.56400 41.59800 30.86900
O  3.70800 40.46200 30.46900
O  3.85700 42.08400 32.14800
C  4.38200 40.98300 33.04500
H  -3.10100 41.02800 28.38100
H  -1.42800 41.69400 22.13600
H  4.22200 43.77800 23.79800
H  0.67600 41.58600 31.11800
H  -2.17100 42.54500 30.31600
H  -1.19100 40.17000 31.61100
H  -1.42000 39.77800 29.89000
H  -2.81200 40.32100 30.86700
H  -0.67100 44.15300 31.22600
H  1.08500 44.34800 31.14100
H  -0.02400 44.30800 33.39800
H  1.60100 43.94300 32.99000
H  -4.59300 40.15400 27.39200
H  -5.16300 39.38600 25.87500
H  -5.47300 41.07700 26.20100
H  -6.07400 40.60800 23.75800
H  -5.15100 38.99500 23.79600
H  -5.80200 39.70800 22.27100
H  0.37400 43.35600 21.09400
H  3.17800 43.10000 21.66700
H  0.84100 40.57800 21.17800
H  2.43200 41.32100 20.68600
H  0.87200 41.71600 19.82500
H  2.21200 45.55200 22.88300
H  1.13700 45.13000 21.63800
H  2.64900 46.20100 20.23700
H  3.57400 44.80900 20.33300
H  4.10300 46.00700 21.41000
H  6.74100 43.10200 26.51900
H  6.27900 44.78100 25.90800
H  6.16800 43.25600 24.94200
H  3.20600 43.74700 30.56500
H  4.49200 41.24700 34.09600
H  5.35800 40.63900 32.70200
H  3.70400 40.13300 32.96500

