158

Mg 45.33700 3.82700 47.62800
C  43.46500 6.80600 47.04200
C  42.39900 2.05400 46.94000
C  47.13400 1.04100 47.18800
C  48.17000 5.71600 48.07400
N  43.19300 4.37800 47.19100
C  42.69600 5.64300 46.96800
C  41.19500 5.57900 46.55400
C  40.82400 4.06300 46.83700
C  42.20800 3.44400 47.08300
C  39.83100 3.79600 48.02200
C  40.87100 6.01100 45.03900
C  39.88800 7.19500 44.91300
H  38.82900 7.09600 43.75600
N  44.85300 1.79100 47.07300
C  43.56200 1.27800 46.89200
C  43.69900 -0.03500 46.45400
C  45.02200 -0.40900 46.40900
C  45.74300 0.80500 46.92900
C  42.55100 -0.97600 46.12400
C  45.61300 -1.84800 46.13000
O  44.82600 -2.71200 45.69000
C  47.03400 -2.22000 46.40900
N  47.32300 3.44500 47.69700
C  47.82700 2.15500 47.60200
C  49.21700 2.10100 48.14100
C  49.69900 3.64300 48.30200
C  48.31600 4.30400 48.02200
C  49.34300 1.22900 49.41300
C  50.78500 3.93500 47.23300
C  52.24300 3.98700 47.76600
N  45.83600 5.80700 47.59100
C  47.00800 6.46500 47.80000
C  46.82400 7.90200 47.65600
C  45.47200 8.04900 47.44500
C  44.90300 6.77500 47.39400
C  47.88700 8.96600 47.64900
C  44.42300 9.04000 47.18900
O  44.56500 10.23200 47.16900
C  43.08100 8.22600 47.04300
C  42.27000 8.59300 48.23600
O  42.02600 7.84100 49.20800
O  41.63200 9.85600 48.02400
C  40.30300 10.01400 48.52900
H  41.50100 1.47100 46.72700
H  47.75400 0.14500 47.26300
H  49.04800 6.27900 48.39700
H  40.61500 6.15700 47.27300
H  40.37700 3.66600 45.92500
H  39.01800 3.14900 47.68900
H  39.28300 4.71900 48.21100
H  40.34000 3.42800 48.91300
H  40.48300 5.12800 44.53100
H  41.77400 6.37600 44.54900
H  40.42000 8.12600 44.71800
H  39.34700 7.36000 45.84500
H  42.69200 -1.37700 45.12000
H  41.61500 -0.42000 46.07400
H  42.59300 -1.80200 46.83400
H  47.57100 -1.44700 45.85900
H  47.35800 -3.18500 46.01900
H  47.33100 -2.00600 47.43600
H  49.81600 1.68900 47.32900
H  50.09300 3.89700 49.28500
H  49.94200 0.32000 49.46500
H  48.38000 0.90800 49.81100
H  49.68000 1.85700 50.23800
H  50.64900 4.98600 46.98000
H  50.69200 3.27600 46.37000
H  52.62900 5.00700 47.77800
H  52.95600 3.50300 47.09800
H  52.41800 3.61600 48.77500
H  48.62400 8.64200 48.38500
H  47.51000 9.94600 47.94000
H  48.34700 8.91800 46.66200
H  42.53600 8.42700 46.12000
H  39.80800 10.78700 47.94200
H  40.44400 10.36500 49.55200
H  39.87400 9.01300 48.55300
Mg 26.85300 50.13100 26.09400
C  24.79900 51.26700 28.94500
C  29.28000 49.28100 28.39500
C  28.64200 49.14100 23.48400
C  24.46500 51.69800 24.08600
N  26.91100 50.08300 28.40600
C  25.94500 50.53600 29.35800
C  26.50900 50.28900 30.76700
C  28.01500 49.99400 30.58600
C  28.11100 49.78400 29.05700
C  29.06900 50.90500 31.32400
C  25.60400 49.19900 31.50800
C  25.00700 49.50900 32.88400
H  25.62800 50.39400 33.98800
N  28.68900 49.27000 25.94900
C  29.55000 49.02600 26.97800
C  30.67000 48.23500 26.43000
C  30.53100 48.21700 25.01100
C  29.26600 48.89500 24.74800
C  31.73900 47.54500 27.21700
C  31.38400 47.46300 23.87800
O  31.08700 47.53400 22.69000
C  32.45000 46.49200 24.20400
N  26.50700 50.43400 24.14500
C  27.45400 49.85100 23.27600
C  26.85500 49.91100 21.86000
C  25.57000 50.80600 21.91400
C  25.46800 51.00500 23.43300
C  27.78700 50.42500 20.71700
C  24.25100 50.30700 21.32800
C  23.73600 48.93000 21.76600
N  25.01300 51.19600 26.42200
C  24.22000 51.78600 25.45700
C  23.04400 52.36100 26.03900
C  23.26100 52.14900 27.44400
C  24.47400 51.41400 27.61800
C  21.97700 52.97500 25.19700
C  22.69900 52.50800 28.69700
O  21.71500 53.24100 28.92100
C  23.66200 51.84700 29.71200
C  24.02800 52.94400 30.63200
O  24.93300 53.77900 30.38500
O  23.32800 52.94400 31.81200
C  23.75100 54.02200 32.76100
H  30.01200 48.95200 29.13500
H  29.15800 48.76800 22.59800
H  23.69800 52.08600 23.41200
H  26.40500 51.29100 31.18500
H  28.21200 49.05300 31.09900
H  28.44500 51.75700 31.59500
H  29.81300 51.22400 30.59300
H  29.45700 50.33800 32.17000
H  26.23900 48.33500 31.70400
H  24.88900 48.95500 30.72300
H  24.94300 48.50400 33.30000
H  23.97700 49.83700 32.74400
H  31.95000 48.09500 28.13400
H  32.68100 47.76000 26.71200
H  31.56400 46.47200 27.30300
H  33.35000 47.06800 24.41800
H  32.55500 45.85000 23.32900
H  32.27300 45.89400 25.09700
H  26.53800 48.89600 21.61900
H  25.83300 51.80000 21.55100
H  28.70200 50.80200 21.17400
H  27.29800 51.22600 20.16300
H  28.10200 49.65500 20.01300
H  24.26300 50.09400 20.25900
H  23.52500 51.11600 21.40900
H  22.65800 49.04500 21.87400
H  24.21700 48.60500 22.68800
H  23.81100 48.18400 20.97400
H  21.34400 52.20400 24.75700
H  22.48300 53.59000 24.45300
H  21.50400 53.68500 25.87500
H  22.96700 51.12500 30.14100
H  24.17200 54.90000 32.27200
H  24.30900 53.59400 33.59500
H  22.78800 54.29300 33.19300

