158

Mg 40.48300 9.72000 30.55900
C  42.07700 11.18800 33.20600
C  37.91000 8.76000 32.77900
C  38.87100 8.39500 27.96100
C  43.34100 10.03600 28.54600
N  39.91200 10.13700 32.72500
C  40.74000 10.70500 33.59900
C  40.18300 10.65000 35.11000
C  38.95300 9.72700 34.96800
C  38.87300 9.53400 33.39100
C  39.04400 8.42100 35.88600
C  39.87500 12.10100 35.69300
C  40.69900 12.57100 36.99100
H  39.87200 13.08400 38.15700
N  38.61100 8.64500 30.35600
C  37.72600 8.38200 31.42800
C  36.56600 7.69300 30.81700
C  36.83700 7.43900 29.44400
C  38.15000 8.14100 29.15000
C  35.42600 7.24400 31.75800
C  35.98900 6.75100 28.30900
O  36.15300 6.84700 27.12700
C  34.83600 5.93200 28.79900
N  41.06200 9.35600 28.54000
C  40.13200 8.91300 27.65500
C  40.73700 8.82200 26.21300
C  42.25300 9.01500 26.48800
C  42.23200 9.52300 27.87500
C  40.41300 7.56500 25.29600
C  42.96400 9.83000 25.38900
C  42.87400 11.33700 25.59600
N  42.32700 10.45800 30.78300
C  43.39000 10.50700 29.85100
C  44.37300 11.28300 30.49500
C  43.92500 11.58600 31.78700
C  42.66500 11.03500 31.94200
C  45.71300 11.67600 29.84300
C  44.30700 12.21000 33.10200
O  45.39300 12.74700 33.36200
C  43.11600 11.88700 34.08400
C  43.80100 11.09700 35.15800
O  44.35500 9.99500 35.09100
O  43.94400 11.89600 36.31700
C  44.32500 11.15900 37.51400
H  37.24300 8.31900 33.52300
H  38.27600 8.00500 27.13200
H  44.13400 10.20700 27.81500
H  40.84200 10.14000 35.81300
H  38.05300 10.18400 35.38000
H  39.75700 7.72300 35.44700
H  38.11500 7.85300 35.84200
H  39.24000 8.57300 36.94700
H  38.84400 12.16500 36.04100
H  39.97800 12.81800 34.87800
H  41.35700 13.37500 36.66000
H  41.27400 11.68400 37.25500
H  35.16200 8.05500 32.43600
H  35.72400 6.41700 32.40300
H  34.53000 7.03300 31.17400
H  35.31900 5.21900 29.46800
H  34.43500 5.46100 27.90200
H  34.07400 6.62200 29.16100
H  40.25200 9.59800 25.62000
H  42.76400 8.05900 26.60000
H  39.92300 7.70300 24.33300
H  39.93500 6.82400 25.93700
H  41.38800 7.23700 24.93400
H  42.54600 9.55700 24.41900
H  44.02000 9.58200 25.28600
H  42.05300 11.69800 26.21600
H  42.74300 11.77700 24.60700
H  43.84000 11.68300 25.96200
H  45.51600 12.25000 28.93800
H  46.38700 10.84600 29.63300
H  46.14900 12.39900 30.53300
H  42.73500 12.79500 34.55000
H  43.95600 11.81500 38.30300
H  45.39400 10.97100 37.61300
H  43.77400 10.22000 37.55600
Mg 26.75500 50.61700 26.21700
C  24.44200 51.53100 28.83500
C  29.07600 49.79600 28.51300
C  28.75500 49.87200 23.70400
C  24.38500 51.77200 23.97700
N  26.76900 50.83500 28.45300
C  25.70400 51.08600 29.28800
C  25.99700 50.72800 30.72000
C  27.50000 50.25700 30.62200
C  27.85400 50.31200 29.07200
C  28.65700 50.96200 31.44900
C  25.01000 49.71000 31.33900
C  24.24800 50.33700 32.57500
H  24.11500 49.49700 33.87100
N  28.68300 50.04100 26.16800
C  29.52100 49.76900 27.21500
C  30.79600 49.31400 26.76600
C  30.82300 49.43900 25.39500
C  29.35700 49.84500 24.98400
C  31.77800 48.76400 27.66000
C  31.98700 49.34300 24.47100
O  31.85300 49.47700 23.29500
C  33.34900 49.14000 25.01000
N  26.53900 50.84200 24.13900
C  27.47700 50.21900 23.29700
C  27.04800 50.27600 21.84800
C  25.63900 50.92500 21.91300
C  25.47300 51.16500 23.43300
C  28.08700 51.12100 21.04200
C  24.61400 50.00200 21.27700
C  24.22600 50.22400 19.81900
N  24.84100 51.56800 26.33600
C  24.07400 51.96500 25.30300
C  22.82700 52.46900 25.82900
C  22.86300 52.33800 27.18200
C  24.11400 51.71800 27.50300
C  21.72500 53.04800 25.08000
C  22.25600 52.55700 28.49900
O  21.11900 53.03400 28.74600
C  23.25000 52.04700 29.61400
C  23.52400 53.10100 30.55900
O  24.35600 53.90800 30.30400
O  22.77500 52.91100 31.71700
C  23.07100 53.78600 32.85300
H  29.59500 49.36900 29.37300
H  29.35500 49.54400 22.85300
H  23.62500 51.91300 23.20500
H  26.12400 51.65700 31.27600
H  27.59100 49.25100 31.03000
H  29.61500 50.98100 30.93000
H  28.79000 50.52600 32.43900
H  28.44900 52.02600 31.56600
H  25.42900 48.88500 31.91500
H  24.31400 49.32400 30.59400
H  23.20600 50.49600 32.29600
H  24.61100 51.31600 32.88900
H  32.31000 47.88800 27.29000
H  31.37500 48.32500 28.57300
H  32.45300 49.56900 27.95400
H  33.93700 49.09400 24.09300
H  33.44900 48.17700 25.51200
H  33.61000 49.94400 25.69800
H  27.06600 49.27100 21.42600
H  25.46200 51.80700 21.29700
H  27.57600 51.91000 20.49000
H  28.64400 50.41100 20.43200
H  28.79600 51.57100 21.73600
H  23.70600 50.10500 21.87100
H  24.96400 48.96900 21.29200
H  24.74900 51.06500 19.36200
H  23.16000 50.44300 19.74600
H  24.61700 49.39300 19.23200
H  20.77600 52.97300 25.61000
H  21.63100 52.69600 24.05200
H  21.91500 54.11900 25.13700
H  22.91500 51.23800 30.26400
H  23.38000 54.78400 32.54400
H  23.82200 53.29300 33.47100
H  22.17400 53.89000 33.46400

