158

Mg 2.04700 -1.56800 45.14300
C  5.43100 -0.40300 44.69700
C  0.99100 1.20600 43.44300
C  -0.86100 -3.14400 44.55900
C  3.47200 -4.46000 46.56500
N  3.09600 0.11000 44.07300
C  4.49700 0.44700 44.06600
C  4.73500 1.79600 43.35100
C  3.24300 2.52400 43.41800
C  2.38800 1.24600 43.70000
C  3.03500 3.57200 44.55400
C  5.38700 1.50600 42.00500
C  4.59200 1.85000 40.72500
H  5.36300 1.46100 39.43200
N  0.33700 -0.99500 44.12400
C  0.10100 0.15200 43.44700
C  -1.26800 0.15300 42.92300
C  -1.76700 -1.15700 43.25300
C  -0.70800 -1.84300 43.95500
C  -2.00900 1.25900 42.26300
C  -3.22100 -1.58400 43.09800
O  -4.03600 -0.89800 42.45800
C  -3.86400 -2.82400 43.58900
N  1.45100 -3.51900 45.44900
C  0.14000 -3.85500 45.28500
C  -0.08900 -5.28900 45.89800
C  1.27700 -5.75900 46.40200
C  2.10200 -4.47100 46.21600
C  -1.17200 -5.44700 47.02700
C  1.93400 -6.77200 45.44800
C  1.56400 -8.28600 45.56900
N  4.06900 -2.28500 45.69000
C  4.45400 -3.48000 46.17800
C  5.86600 -3.51600 46.40700
C  6.30800 -2.29800 45.86000
C  5.18200 -1.59700 45.37400
C  6.68900 -4.62200 46.99700
C  7.43400 -1.48300 45.56300
O  8.62100 -1.62700 45.86300
C  6.93600 -0.24000 44.80400
C  7.18400 0.92100 45.72600
O  7.18300 0.93400 46.95600
O  7.84300 1.87100 45.05600
C  8.56300 2.92300 45.75300
H  0.70000 2.20500 43.11200
H  -1.75300 -3.77000 44.49200
H  4.00900 -5.35500 46.88600
H  5.50100 2.42800 43.80100
H  2.85900 2.96500 42.49900
H  3.85900 3.67100 45.26100
H  2.08600 3.52500 45.08900
H  3.05800 4.52400 44.02300
H  5.50400 0.44000 41.81400
H  6.38200 1.93900 41.90100
H  4.36900 2.91500 40.66200
H  3.69100 1.23900 40.78400
H  -2.82800 1.55000 42.92000
H  -2.44300 0.97400 41.30400
H  -1.31700 2.09400 42.14900
H  -3.41600 -3.72000 43.16000
H  -4.88900 -3.00700 43.26600
H  -3.90800 -2.91600 44.67400
H  -0.47300 -5.80200 45.01700
H  1.33500 -5.95100 47.47300
H  -0.73600 -5.99500 47.86300
H  -2.06200 -5.97600 46.68700
H  -1.41400 -4.45500 47.40800
H  3.01900 -6.70500 45.36400
H  1.53500 -6.46600 44.48100
H  1.08800 -8.69400 44.67800
H  0.87600 -8.35200 46.41100
H  2.48400 -8.86300 45.66000
H  7.75400 -4.48000 46.81100
H  6.29300 -5.57500 46.64700
H  6.54000 -4.69300 48.07500
H  7.38300 -0.19400 43.81100
H  8.58800 3.79300 45.09700
H  9.60500 2.61900 45.85800
H  8.10200 3.26600 46.67900
Mg 36.79100 49.03300 25.05200
C  37.05800 46.97800 28.00700
C  34.87900 51.12000 26.85000
C  35.87400 50.26000 22.07900
C  38.17600 46.24900 23.35800
N  36.07100 49.02400 27.20100
C  36.36800 48.22000 28.23700
C  36.01600 48.73000 29.63000
C  35.15400 50.03200 29.11700
C  35.33800 50.00700 27.62700
C  33.62700 50.08500 29.55400
C  37.24400 49.17300 30.44300
C  36.91400 49.19000 31.97400
H  35.47000 48.96300 32.47400
N  35.68700 50.64100 24.56800
C  34.95500 51.41700 25.48200
C  34.51100 52.58900 24.77200
C  34.69400 52.35000 23.36000
C  35.41500 51.07000 23.23600
C  33.86300 53.83900 25.48900
C  34.14300 53.14100 22.20300
O  34.42100 52.71800 21.08400
C  33.31300 54.38400 22.41500
N  37.15900 48.44800 23.03800
C  36.56500 49.08800 21.98400
C  36.80800 48.38900 20.60700
C  37.62800 47.12500 21.03800
C  37.67600 47.28800 22.56300
C  35.60600 48.17300 19.58600
C  39.07800 47.05900 20.45300
C  39.95700 48.24700 20.63800
N  37.53000 47.05800 25.56400
C  38.10400 46.11800 24.73800
C  38.42200 44.95000 25.57000
C  38.06900 45.24200 26.89100
C  37.54300 46.53700 26.82500
C  39.08400 43.61300 25.10800
C  38.00500 44.74000 28.30600
O  38.31800 43.62200 28.76000
C  37.25200 45.95000 29.05500
C  35.98400 45.47200 29.66800
O  34.96000 45.12000 29.10300
O  36.22200 45.27500 31.01000
C  35.25300 44.51900 31.75600
H  34.36400 51.86000 27.46700
H  35.71000 50.63300 21.06600
H  38.48300 45.32900 22.85700
H  35.47800 47.94600 30.16300
H  35.75000 50.90700 29.37800
H  33.04500 49.82000 28.67200
H  33.32300 51.04900 29.96200
H  33.46000 49.36800 30.35800
H  37.54700 50.16100 30.09800
H  38.13600 48.60400 30.18300
H  37.11000 50.21500 32.28600
H  37.63700 48.56500 32.50000
H  34.05900 54.73400 24.89900
H  34.23500 54.00000 26.50000
H  32.78200 53.72700 25.57000
H  33.80400 55.23400 22.88800
H  32.39300 54.07600 22.91300
H  32.91600 54.64900 21.43500
H  37.47100 49.01200 20.00700
H  36.99600 46.25000 20.88300
H  34.74700 48.31900 20.24100
H  35.64000 47.16800 19.16400
H  35.63700 48.80900 18.70200
H  38.95200 46.88300 19.38400
H  39.65600 46.20700 20.81200
H  39.90200 48.89400 19.76200
H  41.00000 47.97900 20.80700
H  39.62200 48.92300 21.42400
H  39.41500 43.61400 24.07000
H  38.34100 42.87600 25.41300
H  40.02800 43.48600 25.63800
H  37.82700 46.39800 29.86500
H  35.75200 44.30800 32.70200
H  35.00100 43.57900 31.26500
H  34.29500 44.97400 32.00900

