158

Mg 17.15800 51.80400 26.01600
C  19.02900 50.41200 28.69200
C  14.74200 52.91100 28.33700
C  15.32700 52.63600 23.51000
C  19.35400 50.04400 23.85800
N  16.92000 51.60000 28.26000
C  17.92100 51.16500 29.10300
C  17.57100 51.54200 30.51700
C  16.11100 52.06100 30.42000
C  15.88400 52.19100 28.91500
C  15.04000 51.11900 31.01300
C  18.61100 52.56900 31.19700
C  18.71100 52.56100 32.80600
H  17.70200 51.72500 33.59800
N  15.21500 52.68100 25.94100
C  14.45500 53.10100 26.94200
C  13.25200 53.65600 26.38000
C  13.39200 53.63000 24.95600
C  14.68400 52.93500 24.73500
C  12.07200 54.14400 27.25900
C  12.38900 54.02500 23.89400
O  12.68600 54.06400 22.70600
C  11.10800 54.55600 24.29500
N  17.35400 51.42400 23.91700
C  16.51600 52.05900 23.02700
C  16.92500 51.74500 21.56400
C  18.30500 51.07200 21.79200
C  18.32900 50.79400 23.24300
C  15.89200 50.87400 20.72700
C  19.64600 51.81900 21.39500
C  19.57200 53.36300 21.55300
N  18.90900 50.54800 26.14000
C  19.68700 49.92800 25.22700
C  20.75200 49.20000 25.88100
C  20.54700 49.35500 27.24800
C  19.41700 50.21400 27.40700
C  21.70700 48.42800 25.07500
C  21.07400 48.99200 28.57700
O  21.96200 48.24800 28.85500
C  20.14800 49.74400 29.55100
C  19.53500 48.80600 30.66700
O  18.45500 48.20900 30.55200
O  20.44100 48.71800 31.72400
C  20.07500 47.98100 32.95200
H  13.98800 53.23900 29.05600
H  14.84700 53.02700 22.61100
H  20.11000 49.63300 23.18600
H  17.55200 50.60100 31.06600
H  16.04000 53.08100 30.79600
H  14.28800 51.72300 31.52200
H  15.46000 50.44100 31.75500
H  14.44900 50.47600 30.36000
H  18.29900 53.60700 31.07900
H  19.61000 52.43100 30.78400
H  18.62500 53.59500 33.14000
H  19.74100 52.32700 33.07600
H  11.26400 53.46300 26.99500
H  11.74800 55.15800 27.02200
H  12.03800 54.03000 28.34300
H  11.29400 55.55900 24.67900
H  10.57700 53.87200 24.95600
H  10.47900 54.55100 23.40500
H  16.94300 52.71800 21.07400
H  18.27500 50.09300 21.31200
H  14.92600 50.67400 21.19000
H  16.28400 49.89200 20.46200
H  15.83200 51.46000 19.81000
H  19.78700 51.60300 20.33600
H  20.46000 51.45100 22.02000
H  20.47900 53.66000 22.08000
H  18.73700 53.50400 22.24000
H  19.46100 53.95800 20.64600
H  22.30500 49.11900 24.48200
H  21.33400 47.81400 24.25600
H  22.29900 47.91100 25.83000
H  20.58600 50.52100 30.17700
H  18.99300 48.04600 33.07200
H  20.58600 48.45300 33.79100
H  20.37200 46.93500 33.03300
Mg -5.41800 26.20600 26.01500
C  -3.89600 27.51000 28.91200
C  -7.07000 24.02800 27.92800
C  -6.54900 24.65300 23.26100
C  -3.32500 28.28200 24.08400
N  -5.34400 25.75700 28.14700
C  -4.75100 26.46900 29.14800
C  -5.24100 26.03200 30.57200
C  -6.05500 24.75100 30.20700
C  -6.19700 24.83700 28.67200
C  -5.31600 23.48800 30.82800
C  -6.11500 27.12500 31.29600
C  -6.16500 26.99400 32.82700
H  -5.54100 25.79700 33.46500
N  -6.80600 24.71700 25.59200
C  -7.39400 23.95500 26.50700
C  -8.28000 22.92000 25.90300
C  -8.08200 23.07800 24.52100
C  -7.13000 24.15100 24.40500
C  -9.14700 22.00600 26.72200
C  -8.66600 22.35700 23.31900
O  -8.29900 22.45800 22.15900
C  -9.78500 21.40200 23.65500
N  -4.95300 26.39100 23.97300
C  -5.57200 25.64000 23.07100
C  -5.13800 26.10300 21.66900
C  -4.12000 27.27200 21.87100
C  -4.17000 27.42800 23.38300
C  -4.72000 25.06500 20.63500
C  -4.49600 28.54700 21.14500
C  -4.21100 28.59700 19.65600
N  -3.93900 27.58300 26.33500
C  -3.13100 28.26000 25.43100
C  -2.19700 29.16800 26.22300
C  -2.46300 28.86300 27.59100
C  -3.54000 27.90800 27.60100
C  -1.33000 30.22400 25.66400
C  -2.12800 29.16300 28.95100
O  -1.26300 29.87200 29.43300
C  -3.03500 28.26800 29.88600
C  -2.17000 27.38800 30.79700
O  -1.86600 26.22500 30.58000
O  -1.96500 27.93400 31.98900
C  -1.28400 27.16700 33.02300
H  -7.44300 23.25100 28.59900
H  -6.98200 24.31200 22.31900
H  -2.75700 29.03200 23.52900
H  -4.39200 25.78100 31.20700
H  -7.05300 24.73000 30.64400
H  -4.33200 23.75600 31.21300
H  -5.08700 22.78200 30.02900
H  -5.95300 22.99500 31.56200
H  -7.14800 26.83500 31.10200
H  -5.88000 28.10600 30.88500
H  -7.22000 27.09900 33.08000
H  -5.68500 27.89700 33.20400
H  -10.10400 21.96900 26.20200
H  -9.29400 22.39900 27.72800
H  -8.75000 20.99300 26.65900
H  -10.57000 21.96600 24.16000
H  -9.45600 20.54300 24.23900
H  -10.14800 20.95100 22.73100
H  -6.01600 26.58600 21.23900
H  -3.16700 26.84000 21.56400
H  -3.66200 25.13100 20.38100
H  -5.24300 25.10200 19.67900
H  -4.92500 24.08000 21.05400
H  -3.84400 29.29700 21.59400
H  -5.56300 28.72600 21.28000
H  -5.03700 28.60200 18.94500
H  -3.62100 27.74200 19.32400
H  -3.65800 29.53500 19.60200
H  -2.04500 31.04200 25.74600
H  -0.99100 29.93100 24.67000
H  -0.35800 30.43700 26.11000
H  -3.68300 28.87200 30.52200
H  -0.21500 27.11200 32.82000
H  -1.77000 26.21600 33.23900
H  -1.39600 27.82500 33.88500

