158

Mg 8.97300 2.86800 27.65500
C  9.88100 1.12100 30.60600
C  7.51500 5.22800 29.69200
C  7.57500 4.12500 24.90500
C  10.16900 0.17000 25.85800
N  8.89100 3.19800 29.89200
C  9.32500 2.34800 30.90100
C  9.16400 3.09200 32.25700
C  8.32300 4.36800 31.97800
C  8.24100 4.25200 30.42600
C  7.00900 4.59900 32.69900
C  10.42600 3.20300 33.10900
C  10.39600 4.29300 34.28500
H  11.21400 3.92800 35.50200
N  7.65700 4.45300 27.31400
C  7.24000 5.36400 28.28600
C  6.52300 6.37000 27.59600
C  6.42900 6.08200 26.20300
C  7.19500 4.81300 26.07200
C  6.01600 7.49800 28.39700
C  5.80000 6.86700 25.10100
O  5.87900 6.60700 23.90500
C  4.84700 7.96600 25.47400
N  8.61000 2.05700 25.68700
C  8.29400 2.87800 24.72200
C  8.51500 2.32700 23.28400
C  9.55100 1.24400 23.63600
C  9.43700 1.13400 25.18200
C  7.21300 1.81500 22.66100
C  11.02300 1.57200 23.20500
C  11.79900 0.46000 22.44100
N  9.90000 1.07300 28.07300
C  10.38800 0.10900 27.24800
C  11.05400 -0.93300 28.05800
C  10.91800 -0.55300 29.38600
C  10.12800 0.65700 29.35400
C  11.76100 -2.05200 27.60100
C  11.26900 -0.82600 30.72900
O  12.04800 -1.67200 31.18400
C  10.66200 0.22600 31.57800
C  9.88900 -0.26200 32.72300
O  8.70900 -0.42400 32.68300
O  10.77000 -0.51300 33.74800
C  10.11400 -1.00600 34.94500
H  7.17900 6.05100 30.32500
H  7.23500 4.64900 24.01000
H  10.68100 -0.51600 25.18000
H  8.64200 2.32100 32.82400
H  8.96100 5.24200 32.10700
H  7.16600 4.30100 33.73500
H  6.26100 4.04000 32.13600
H  6.73900 5.65100 32.78600
H  11.15100 3.67000 32.44200
H  10.63000 2.18900 33.45400
H  9.37100 4.54900 34.55100
H  10.92900 5.13600 33.84700
H  6.13600 8.47300 27.92400
H  6.43100 7.64000 29.39500
H  4.93700 7.38400 28.50900
H  5.40200 8.81500 25.87200
H  4.24600 7.60500 26.30900
H  4.10000 8.19000 24.71300
H  8.95500 3.16200 22.73900
H  9.32100 0.27000 23.20400
H  7.27700 0.72700 22.64700
H  7.17800 2.16000 21.62700
H  6.30700 2.19500 23.13200
H  11.59300 2.08600 23.97900
H  10.99600 2.37200 22.46500
H  11.53600 0.69500 21.41000
H  11.42800 -0.54100 22.66000
H  12.85200 0.61400 22.67600
H  12.61100 -1.58700 27.10300
H  11.27000 -2.77500 26.95000
H  11.90400 -2.63200 28.51300
H  11.54900 0.78900 31.87000
H  10.55900 -1.95200 35.25300
H  9.02700 -1.04700 35.00600
H  10.42100 -0.23600 35.65300
Mg 23.49900 -7.38800 46.57200
C  26.10900 -5.21800 45.53100
C  21.45100 -5.78900 44.43700
C  21.41200 -10.04800 46.78000
C  26.00000 -9.22200 48.35800
N  23.89400 -5.78900 45.04300
C  24.89700 -4.89400 44.96900
C  24.59800 -3.81300 43.91700
C  23.05200 -3.87100 43.84800
C  22.73700 -5.25000 44.44400
C  22.36100 -2.70100 44.74700
C  25.35500 -4.14200 42.50000
C  26.11100 -2.96600 41.94400
H  25.78100 -2.64100 40.52200
N  21.62700 -7.85400 45.82600
C  20.90900 -6.93200 45.06800
C  19.58600 -7.59200 44.94500
C  19.70900 -8.95600 45.36000
C  20.92800 -9.02500 45.97700
C  18.40400 -6.93200 44.37800
C  18.70900 -9.93900 45.08300
O  17.70000 -9.78000 44.39100
C  18.87000 -11.40500 45.52100
N  23.69700 -9.34200 47.40300
C  22.67200 -10.19200 47.42900
C  23.05000 -11.57400 48.11300
C  24.45200 -11.29400 48.70100
C  24.71400 -9.81800 48.15100
C  22.10100 -12.11400 49.20600
C  25.54100 -12.29100 48.34500
C  25.74000 -13.39400 49.42800
N  25.56600 -7.20300 47.04500
C  26.40900 -8.00500 47.80000
C  27.77900 -7.42300 47.81600
C  27.69300 -6.36400 46.86500
C  26.34500 -6.31200 46.44100
C  28.99000 -8.06100 48.45800
C  28.39200 -5.26100 46.32200
O  29.54900 -4.87300 46.51400
C  27.40800 -4.52900 45.33300
C  27.37400 -3.08800 45.74200
O  26.78700 -2.74300 46.78200
O  27.97500 -2.21600 44.82700
C  28.01600 -0.78800 45.33800
H  20.69400 -5.20000 43.91500
H  20.82500 -10.93300 47.03600
H  26.72800 -9.68700 49.02500
H  24.94400 -2.85200 44.29700
H  22.56800 -3.76100 42.87800
H  21.86800 -3.19300 45.58500
H  21.63500 -2.15400 44.14600
H  23.08900 -2.09000 45.28100
H  24.52200 -4.28600 41.81200
H  25.97100 -5.03300 42.62100
H  27.17500 -3.20100 41.98900
H  26.02100 -2.14800 42.65800
H  18.82100 -5.93800 44.21700
H  17.58000 -6.88500 45.08900
H  18.02700 -7.27900 43.41600
H  18.71800 -11.49000 46.59700
H  19.82500 -11.81800 45.19500
H  18.16000 -11.99100 44.93700
H  23.00100 -12.30400 47.30400
H  24.45100 -11.18100 49.78500
H  22.67400 -12.24900 50.12400
H  21.73000 -13.08000 48.86400
H  21.34200 -11.37900 49.47700
H  26.47400 -11.75300 48.18100
H  25.40400 -12.87200 47.43300
H  25.03700 -13.24600 50.24800
H  26.76700 -13.37700 49.79200
H  25.74700 -14.43500 49.10400
H  29.83700 -7.37900 48.52800
H  29.29500 -8.98500 47.96600
H  28.73400 -8.35600 49.47600
H  27.84500 -4.53100 44.33500
H  28.90000 -0.64400 45.95800
H  27.07700 -0.50400 45.81300
H  28.11900 -0.04200 44.55100

