158

Mg 8.73500 3.41000 28.21700
C  9.94900 1.86800 31.10200
C  7.03500 5.61600 30.03200
C  7.26100 4.39100 25.30600
C  10.01300 0.54600 26.37300
N  8.66100 3.78200 30.37200
C  9.17700 3.06400 31.37500
C  8.81600 3.56200 32.77700
C  7.61900 4.57900 32.37700
C  7.81900 4.74900 30.87100
C  6.08200 4.18600 32.76300
C  10.03100 4.29700 33.53500
C  10.41600 3.82100 35.07100
H  9.26700 3.70600 36.03100
N  7.43700 4.84300 27.69900
C  6.88000 5.71700 28.62700
C  6.06600 6.74100 27.93100
C  6.07200 6.37900 26.56200
C  6.98100 5.15400 26.46900
C  5.31400 7.79700 28.74200
C  5.39700 7.08000 25.43900
O  5.40600 6.71500 24.28800
C  4.71000 8.32900 25.71100
N  8.46700 2.46900 26.10400
C  8.00000 3.26200 25.13200
C  8.49200 2.70000 23.72900
C  9.29800 1.36200 24.10900
C  9.18800 1.40700 25.63500
C  7.47500 2.74200 22.58300
C  10.73400 1.22400 23.46500
C  11.08100 -0.19800 23.01900
N  9.93200 1.66300 28.62700
C  10.35800 0.60200 27.77300
C  11.14900 -0.34800 28.52600
C  11.02500 0.08300 29.88900
C  10.21100 1.28300 29.83300
C  11.84000 -1.52400 28.00400
C  11.30300 -0.23900 31.27900
O  12.01600 -1.06800 31.80500
C  10.52800 0.84900 32.10200
C  9.49900 0.17700 32.89600
O  8.65000 -0.61300 32.47700
O  9.72200 0.41000 34.21700
C  8.91300 -0.24500 35.28900
H  6.47300 6.27400 30.69800
H  6.83900 4.83000 24.40000
H  10.52500 -0.27600 25.86700
H  8.43200 2.77500 33.42500
H  7.75700 5.55600 32.83900
H  5.62500 4.72700 33.59100
H  6.14200 3.12100 32.98900
H  5.33600 4.26300 31.97200
H  9.80800 5.36100 33.61300
H  10.92900 4.06800 32.96100
H  11.03500 4.63800 35.44300
H  11.03500 2.92300 35.06000
H  5.81200 8.73200 28.48400
H  5.37200 7.76400 29.83000
H  4.28300 7.69400 28.40200
H  5.41000 9.01700 26.18500
H  3.84800 8.15500 26.35400
H  4.32900 8.76300 24.78700
H  9.34400 3.35500 23.55000
H  8.69800 0.51100 23.78700
H  6.56400 3.12200 23.04500
H  7.33700 1.78700 22.07700
H  7.69400 3.57100 21.91000
H  11.56400 1.52200 24.10600
H  10.81000 1.91300 22.62300
H  12.01300 -0.06100 22.47100
H  10.23900 -0.50200 22.39700
H  11.15200 -0.85400 23.88600
H  12.69300 -1.20100 27.40600
H  11.20300 -2.24000 27.48400
H  12.30600 -1.96000 28.88700
H  11.25900 1.32600 32.75500
H  9.47300 -1.00400 35.83500
H  8.00100 -0.69300 34.89400
H  8.51400 0.50500 35.97200
Mg 42.48700 41.63500 26.35500
C  42.08900 43.84800 29.08500
C  43.47400 39.29400 28.67600
C  43.91500 39.77900 23.82600
C  42.10200 44.29000 24.16400
N  42.68200 41.55100 28.71000
C  42.47300 42.55500 29.57700
C  42.44000 42.06700 31.04600
C  42.91200 40.59600 30.82500
C  43.08700 40.42300 29.33000
C  44.17800 40.11100 31.61500
C  40.98400 42.30500 31.65200
C  40.65800 41.34200 32.79500
H  39.83700 41.77600 34.06800
N  43.39700 39.78300 26.21000
C  43.62300 38.92500 27.32500
C  43.97900 37.60900 26.79500
C  44.16800 37.76400 25.40300
C  43.78500 39.15200 25.07900
C  44.14100 36.41200 27.69100
C  44.62500 36.76500 24.40800
O  45.00700 37.05900 23.28500
C  44.61200 35.32800 24.77400
N  42.92300 42.04900 24.22600
C  43.45500 41.03800 23.44100
C  43.34100 41.44900 21.92100
C  42.56600 42.85500 22.01200
C  42.47200 43.08600 23.54100
C  44.61500 41.44700 20.98500
C  41.17700 42.94500 21.37700
C  40.28700 41.74000 21.71400
N  42.06300 43.56600 26.54900
C  41.81900 44.51100 25.59300
C  41.40500 45.73300 26.22600
C  41.50400 45.48000 27.55700
C  41.92300 44.17400 27.72700
C  41.09200 46.97300 25.46100
C  41.39700 46.21700 28.83500
O  41.14800 47.33700 29.11800
C  41.65900 45.05300 29.93100
C  42.78200 45.51000 30.80000
O  43.95600 45.63900 30.40400
O  42.46200 45.67100 32.12500
C  43.45900 46.31500 32.95600
H  43.56500 38.45300 29.36600
H  44.26600 39.12500 23.02600
H  41.94700 45.18100 23.55200
H  43.16000 42.63500 31.63500
H  42.12600 39.85500 30.97400
H  45.08000 40.19300 31.00900
H  44.10300 39.05300 31.86400
H  44.24200 40.73800 32.50500
H  40.18200 42.52800 30.94800
H  41.09000 43.23800 32.20500
H  41.54700 40.73300 32.95700
H  39.90100 40.70700 32.33400
H  43.33900 35.68100 27.58800
H  44.03700 36.66100 28.74700
H  45.11700 35.95500 27.52700
H  43.75500 35.02900 25.37800
H  45.48300 35.21400 25.41900
H  44.76100 34.72800 23.87600
H  42.67500 40.80000 21.35300
H  43.30100 43.50500 21.53700
H  44.38100 41.10200 19.97700
H  45.43000 40.80200 21.31500
H  45.07000 42.40300 20.72700
H  41.29900 43.08900 20.30300
H  40.82400 43.82800 21.90900
H  40.24600 40.97300 20.94100
H  39.34800 42.22900 21.97600
H  40.70300 41.12200 22.51000
H  40.83100 47.76100 26.16700
H  40.23800 46.84100 24.79600
H  41.99300 47.33900 24.96900
H  40.85100 44.83800 30.63000
H  44.31400 45.64800 33.07300
H  42.87000 46.51000 33.85200
H  43.83500 47.26300 32.57200

