158

Mg 16.92000 -1.96300 27.46000
C  16.04300 0.28300 30.12400
C  18.71200 -3.81200 29.88500
C  17.82300 -3.96500 25.08500
C  15.42100 0.21400 25.20200
N  17.41700 -1.77200 29.80000
C  16.74900 -0.84400 30.60200
C  17.12500 -1.19800 32.05300
C  18.27800 -2.31000 31.96300
C  18.07100 -2.73000 30.48600
C  19.79300 -2.00600 32.32100
C  15.83400 -1.62300 32.77900
C  15.55100 -0.95800 34.12700
H  16.79300 -0.47400 34.79900
N  18.10500 -3.60900 27.45600
C  18.77600 -4.19300 28.50100
C  19.57200 -5.31400 28.00200
C  19.31700 -5.38500 26.58800
C  18.40100 -4.29000 26.34300
C  20.41000 -6.30300 28.87200
C  19.81300 -6.41100 25.52300
O  19.71100 -6.22700 24.29600
C  20.68500 -7.61700 26.01900
N  16.65300 -1.89100 25.37500
C  17.04100 -2.90600 24.62200
C  16.85400 -2.52500 23.18500
C  15.81400 -1.37100 23.24100
C  15.97800 -0.92300 24.62600
C  18.20500 -2.16200 22.57600
C  14.35100 -1.75600 22.90900
C  14.08800 -1.91900 21.36100
N  16.04600 -0.09400 27.59200
C  15.44200 0.68600 26.52900
C  14.80900 1.80900 27.18400
C  14.97300 1.69300 28.59100
C  15.77300 0.56400 28.76100
C  14.04200 2.88800 26.49100
C  14.61700 2.23700 29.85800
O  13.69500 2.99400 30.08000
C  15.38500 1.40600 30.91900
C  16.40500 2.26200 31.44300
O  17.55300 2.30100 30.97500
O  15.95600 2.77700 32.57500
C  16.77700 3.75300 33.36400
H  19.37300 -4.42500 30.50100
H  18.17000 -4.54500 24.22700
H  14.81000 0.79700 24.51000
H  17.62900 -0.34500 32.50800
H  17.89000 -3.20400 32.45000
H  20.39200 -2.13900 31.42100
H  20.14700 -2.64100 33.13300
H  19.93900 -0.99600 32.70500
H  15.80900 -2.69100 32.99500
H  14.89700 -1.46600 32.24400
H  15.03300 -1.71600 34.71500
H  14.79200 -0.17700 34.17500
H  21.46800 -6.34600 28.61500
H  20.00400 -7.31100 28.79200
H  20.30900 -6.04500 29.92700
H  21.61800 -7.35800 26.52000
H  20.93000 -8.33300 25.23400
H  20.10700 -8.25400 26.68900
H  16.39800 -3.32900 22.60700
H  16.08800 -0.48500 22.66800
H  18.65900 -3.06800 22.17400
H  18.89800 -1.69700 23.27700
H  17.98600 -1.45300 21.77700
H  13.65600 -0.97200 23.21100
H  14.01900 -2.57900 23.54100
H  13.66800 -0.99100 20.97400
H  13.45300 -2.78400 21.17000
H  14.99700 -2.22300 20.84200
H  13.18500 2.48400 25.95300
H  14.65400 3.44900 25.78500
H  13.65200 3.57900 27.23900
H  14.75300 0.95500 31.68400
H  17.48200 4.36300 32.80000
H  17.38300 3.18400 34.06900
H  16.11500 4.43800 33.89500
Mg -12.06200 15.74600 42.47800
C  -8.55600 16.57300 42.78300
C  -12.52600 19.23100 41.95300
C  -15.07400 15.04200 41.70100
C  -11.08700 12.32200 42.96600
N  -10.58500 17.62600 42.19600
C  -9.25400 17.67900 42.36100
C  -8.73800 19.11900 42.22400
C  -10.04200 19.96100 42.54100
C  -11.16000 18.87900 42.15100
C  -10.05400 20.38900 44.02500
C  -8.07900 19.45800 40.83400
C  -6.56400 19.84900 40.85800
H  -5.78300 18.85700 39.97900
N  -13.60700 16.96900 41.92500
C  -13.61000 18.36000 41.81500
C  -14.92600 18.73900 41.46700
C  -15.74300 17.57000 41.48000
C  -14.83400 16.44700 41.74600
C  -15.25800 20.14100 41.02500
C  -17.22400 17.52600 41.22300
O  -17.85400 18.48800 40.84200
C  -18.06700 16.26900 41.36400
N  -12.86100 13.96400 42.33600
C  -14.21800 13.94000 42.13100
C  -14.69700 12.44700 41.97300
C  -13.41200 11.62100 42.26900
C  -12.38100 12.70300 42.55400
C  -15.98300 12.08600 42.87500
C  -13.03600 10.61100 41.10100
C  -12.87900 9.08100 41.48700
N  -10.18600 14.66500 42.73500
C  -10.01700 13.26000 43.02300
C  -8.63900 12.99000 43.08100
C  -8.03600 14.26300 43.04200
C  -9.00900 15.23800 42.91200
C  -7.94800 11.68100 43.14400
C  -6.73900 14.93500 43.14100
O  -5.59600 14.48500 43.28700
C  -7.05700 16.47600 42.96400
C  -6.71900 17.15500 44.19800
O  -7.22500 16.96700 45.26700
O  -5.64800 17.99900 43.98500
C  -5.06800 18.59400 45.17200
H  -12.72000 20.30500 41.98600
H  -16.10500 14.70500 41.57400
H  -10.75700 11.28600 43.06500
H  -7.99400 19.37600 42.97800
H  -10.04500 20.86600 41.93300
H  -9.49000 19.66300 44.61000
H  -11.08600 20.31100 44.36700
H  -9.72000 21.42000 44.13800
H  -8.60100 20.29800 40.37600
H  -8.16000 18.51500 40.29300
H  -6.17700 19.72000 41.86900
H  -6.38000 20.84100 40.44700
H  -15.39100 20.20500 39.94500
H  -14.59100 20.95400 41.31300
H  -16.22700 20.39800 41.45300
H  -19.11300 16.57500 41.38600
H  -17.79200 15.83500 42.32500
H  -17.92300 15.62400 40.49700
H  -15.09300 12.34400 40.96300
H  -13.38600 11.10900 43.23100
H  -16.84400 11.79600 42.27300
H  -16.28900 12.91200 43.51700
H  -15.82900 11.28800 43.60200
H  -12.13000 10.83500 40.53700
H  -13.86400 10.56700 40.39300
H  -13.38500 8.46100 40.74700
H  -13.38600 8.91000 42.43600
H  -11.87900 8.74200 41.75900
H  -7.27300 11.34700 42.35700
H  -8.64100 10.85300 43.28900
H  -7.37900 11.65600 44.07400
H  -6.44500 16.84800 42.14200
H  -5.06800 17.80900 45.92800
H  -5.66400 19.46000 45.46000
H  -4.04200 18.90400 44.97800

