158

Mg -0.47800 6.94400 26.60400
C  0.27400 8.82700 29.46000
C  -0.67100 4.15600 28.65500
C  -0.88800 4.89000 23.85600
C  -0.13700 9.73700 24.62700
N  -0.18400 6.52700 28.88100
C  -0.04200 7.46600 29.80300
C  0.07300 6.88000 31.20900
C  -0.23000 5.38800 30.95900
C  -0.32600 5.28800 29.40300
C  0.74500 4.40500 31.61200
C  -0.80200 7.57300 32.31200
C  -0.14800 7.82000 33.77600
H  1.11500 7.01600 34.14100
N  -0.73900 4.81500 26.27700
C  -0.83800 3.92400 27.29300
C  -1.15700 2.65500 26.77400
C  -1.25000 2.77300 25.38900
C  -0.87800 4.18400 25.09400
C  -1.29000 1.37300 27.67100
C  -1.70000 1.79400 24.37100
O  -1.68400 2.07500 23.20100
C  -2.21100 0.43200 24.79000
N  -0.43300 7.20100 24.51800
C  -0.70400 6.29200 23.55700
C  -0.80900 6.94600 22.16100
C  -0.74500 8.51100 22.49400
C  -0.47800 8.48900 24.01500
C  0.36600 6.52400 21.23100
C  -2.05500 9.25500 22.07200
C  -1.88200 10.27900 20.98400
N  0.03300 8.85700 26.88700
C  0.10600 9.94000 26.03400
C  0.60400 11.11600 26.72100
C  0.66000 10.69500 28.05900
C  0.31200 9.34200 28.14400
C  0.83300 12.44800 26.18200
C  1.00200 11.17100 29.35600
O  1.45800 12.21800 29.78100
C  0.56000 10.02900 30.36700
C  1.70300 9.96500 31.35300
O  2.77000 9.50600 31.16000
O  1.28200 10.61900 32.43000
C  2.27900 10.99100 33.38300
H  -0.85600 3.42500 29.44500
H  -1.12000 4.26000 22.99500
H  0.10200 10.66100 24.09800
H  1.12800 6.97900 31.46700
H  -1.24000 5.08000 31.23000
H  1.28900 3.93800 30.79000
H  0.21400 3.70600 32.25700
H  1.46200 4.90200 32.26600
H  -1.80900 7.15700 32.33900
H  -0.98900 8.60800 32.02700
H  -0.90300 7.53400 34.50800
H  0.05300 8.88000 33.93300
H  -2.33000 1.04800 27.65200
H  -0.84500 1.48300 28.66000
H  -0.64200 0.70700 27.10000
H  -1.46000 -0.25500 25.18100
H  -2.73700 -0.03700 23.95900
H  -3.11900 0.60900 25.36500
H  -1.81000 6.62500 21.87300
H  0.07300 8.92000 21.90100
H  0.15800 5.49300 20.94500
H  1.29700 6.71400 21.76500
H  0.44000 7.20100 20.37900
H  -2.50500 9.64900 22.98300
H  -2.88200 8.62400 21.74600
H  -1.04600 9.98400 20.34900
H  -1.66300 11.28700 21.33800
H  -2.72300 10.26200 20.29200
H  1.90600 12.58400 26.04200
H  0.57100 13.21100 26.91400
H  0.18800 12.68000 25.33400
H  -0.30900 10.38600 30.92100
H  3.24800 11.23300 32.94900
H  2.33400 10.16300 34.09000
H  1.87400 11.82400 33.95800
Mg 7.46500 2.80300 28.09900
C  8.80700 1.32200 30.95700
C  5.26000 4.52100 30.09400
C  6.06400 3.97200 25.27900
C  9.62500 0.90900 26.14500
N  7.02900 2.76700 30.25600
C  7.82800 2.29100 31.25800
C  7.38100 2.68600 32.67100
C  6.15700 3.61500 32.37000
C  6.13100 3.67800 30.79500
C  4.87500 3.22300 33.00700
C  8.49400 3.33900 33.50400
C  8.48700 2.80700 34.99200
H  8.78400 3.92100 35.99900
N  5.94700 4.20500 27.76800
C  5.14300 4.76400 28.68200
C  4.25400 5.70400 28.09600
C  4.59100 5.66000 26.67900
C  5.54700 4.52200 26.49000
C  3.35500 6.56600 28.85100
C  4.18900 6.49700 25.52800
O  4.60100 6.44000 24.37100
C  3.14900 7.58800 25.93600
N  7.75500 2.45100 25.94300
C  7.02100 3.01600 25.07900
C  7.39100 2.67200 23.64000
C  8.59000 1.72000 23.87000
C  8.64600 1.69700 25.39300
C  6.20400 1.96400 22.82500
C  9.99300 2.18600 23.26800
C  10.70300 3.31800 23.89600
N  8.85200 1.30700 28.41200
C  9.66700 0.68100 27.54300
C  10.55700 -0.28300 28.19300
C  10.33400 -0.01100 29.56100
C  9.25600 0.93800 29.63600
C  11.62400 -1.15200 27.57800
C  10.73900 -0.37300 30.90600
O  11.64200 -1.05900 31.34500
C  9.77100 0.55200 31.88400
C  9.02800 -0.34100 32.82000
O  8.10400 -0.98400 32.50000
O  9.67300 -0.36800 34.05400
C  9.27900 -1.34000 35.08200
H  4.65500 5.12600 30.77300
H  5.52300 4.18100 24.35400
H  10.34200 0.31800 25.57200
H  7.04100 1.78800 33.18700
H  6.41000 4.61100 32.73200
H  4.68200 3.95600 33.79000
H  4.97000 2.26700 33.52200
H  3.99900 3.32900 32.36700
H  8.34200 4.41300 33.39800
H  9.52000 3.23700 33.14900
H  9.19500 2.00700 35.21000
H  7.45100 2.53900 35.19500
H  3.79100 7.56400 28.80800
H  3.22600 6.35000 29.91200
H  2.34400 6.57500 28.44300
H  2.25200 7.11000 26.33100
H  2.91900 8.09000 24.99600
H  3.54800 8.38000 26.57000
H  7.81100 3.53700 23.12700
H  8.41600 0.69100 23.55800
H  5.25100 2.12000 23.33000
H  6.31900 0.89700 22.63600
H  6.10300 2.39900 21.83100
H  9.80000 2.55400 22.26100
H  10.67500 1.35800 23.07400
H  10.25800 3.72100 24.80600
H  10.68500 4.11200 23.15000
H  11.72600 3.06400 24.17300
H  11.12800 -2.10500 27.39300
H  12.44200 -1.34900 28.27100
H  11.96400 -0.79000 26.60700
H  10.39500 1.21700 32.48000
H  8.64700 -2.12400 34.66500
H  8.70200 -0.82400 35.84900
H  10.21800 -1.64400 35.54500

