158

Mg 30.75900 58.71700 38.91000
C  27.62400 57.12300 38.33300
C  32.40000 55.90800 37.78400
C  33.59200 60.61600 38.55700
C  28.98500 61.72600 39.41300
N  30.05100 56.81200 38.02300
C  28.72500 56.32000 38.00400
C  28.73000 54.90800 37.47100
C  30.19700 54.46800 37.58000
C  31.00500 55.81600 37.81500
C  30.42400 53.44700 38.71100
C  28.26200 54.89600 35.99800
C  26.83300 54.35600 35.58900
H  25.95700 55.30200 34.75300
N  32.72600 58.30000 38.45000
C  33.19200 57.07700 38.12800
C  34.64200 57.15400 38.16200
C  35.08200 58.43200 38.34300
C  33.81700 59.25200 38.44800
C  35.57700 55.99000 37.98900
C  36.49300 58.96800 38.42600
O  37.41900 58.25400 38.04600
C  36.74400 60.27800 38.98300
N  31.14000 60.95500 38.84200
C  32.41000 61.44300 38.78500
C  32.40200 62.98800 38.93300
C  30.86600 63.33100 39.22900
C  30.31100 61.93800 39.18200
C  33.38000 63.68400 39.92600
C  30.20500 64.26700 38.21700
C  29.47100 65.53200 38.66600
N  28.67100 59.29200 38.89100
C  28.14200 60.58100 39.15900
C  26.67200 60.42800 39.20500
C  26.41200 59.07300 38.88800
C  27.65800 58.46700 38.77700
C  25.77400 61.54100 39.55200
C  25.39600 58.05200 38.75600
O  24.20900 58.19200 38.80500
C  26.15500 56.74600 38.26900
C  25.76800 55.59800 39.11800
O  26.06700 55.53300 40.28900
O  24.93400 54.72800 38.45400
C  24.30700 53.67800 39.27900
H  33.00000 55.01800 37.58200
H  34.41400 61.33200 38.49100
H  28.40700 62.57700 39.78100
H  28.03200 54.23700 37.97200
H  30.61100 54.07400 36.65100
H  31.13700 52.66800 38.44300
H  29.51000 53.04000 39.14200
H  30.83200 53.94200 39.59300
H  28.94100 54.27100 35.41700
H  28.32000 55.92600 35.64700
H  26.32600 54.05700 36.50600
H  26.76700 53.43300 35.01400
H  35.12600 55.05700 37.65200
H  36.06100 55.76700 38.94000
H  36.38600 56.20700 37.29100
H  37.77200 60.50600 39.26500
H  36.10800 60.40600 39.85900
H  36.52600 61.05400 38.24900
H  32.59600 63.36100 37.92700
H  30.72700 63.56600 40.28400
H  34.06500 62.99100 40.41300
H  32.81400 64.25500 40.66100
H  33.99200 64.37900 39.35000
H  29.59100 63.62800 37.58200
H  31.03200 64.61900 37.60000
H  29.79700 66.41800 38.12000
H  29.64600 65.59400 39.74000
H  28.38500 65.47900 38.59100
H  26.37300 62.19400 40.18800
H  24.84000 61.23300 40.02300
H  25.44500 62.04300 38.64300
H  25.80300 56.64400 37.24300
H  23.91100 54.10700 40.19900
H  25.19500 53.19400 39.68700
H  23.73600 53.02200 38.62200
Mg -0.33800 43.86800 26.35200
C  1.82400 43.51700 29.03500
C  -2.80400 42.26100 28.22200
C  -2.09300 43.71600 23.55100
C  2.41100 45.00300 24.44700
N  -0.42100 43.00100 28.38500
C  0.49600 43.12300 29.38100
C  -0.00000 42.72800 30.74700
C  -1.38800 42.04000 30.35800
C  -1.58800 42.42800 28.86500
C  -1.51500 40.53600 30.81700
C  -0.21100 43.94300 31.73500
C  0.73900 43.94500 32.94200
H  0.62300 42.92100 34.04400
N  -2.28700 43.18600 26.01300
C  -3.12300 42.56400 26.85500
C  -4.34800 42.24500 26.17200
C  -4.09600 42.59400 24.75100
C  -2.77300 43.17900 24.67700
C  -5.41000 41.40500 26.69200
C  -5.02000 42.35100 23.57400
O  -4.55000 42.35900 22.46700
C  -6.41800 41.97800 23.60500
N  0.06500 44.44400 24.29900
C  -0.89400 44.32800 23.37500
C  -0.42900 45.06500 22.14500
C  1.00300 45.59700 22.53000
C  1.15800 44.99400 23.83200
C  -0.53700 44.27100 20.79600
C  0.95700 47.20800 22.50400
C  1.11900 47.85600 21.08500
N  1.74300 44.19700 26.61500
C  2.70200 44.57400 25.74300
C  3.88300 44.55100 26.40200
C  3.69100 44.25900 27.72800
C  2.30000 43.91900 27.79300
C  5.31800 44.78200 25.86300
C  4.33600 44.01300 28.96100
O  5.46600 44.15500 29.39700
C  3.06400 43.68200 29.97100
C  3.41600 42.41300 30.57500
O  3.26800 41.27300 30.18800
O  4.18000 42.68400 31.72500
C  4.65900 41.54800 32.55800
H  -3.56500 41.87200 28.90200
H  -2.75700 43.83900 22.69300
H  3.29600 45.37900 23.92800
H  0.69800 42.01200 31.17900
H  -2.24100 42.59800 30.74300
H  -0.65700 40.12300 31.34700
H  -1.52100 39.90600 29.92700
H  -2.44400 40.33600 31.35100
H  -1.25400 43.97100 32.04900
H  -0.01500 44.82200 31.12000
H  0.87600 44.89500 33.45800
H  1.72200 43.96500 32.47200
H  -6.39100 41.87900 26.72800
H  -5.23300 41.08300 27.71800
H  -5.37100 40.53700 26.03300
H  -7.03700 42.43800 24.37600
H  -6.41100 40.89700 23.74900
H  -6.85100 42.14400 22.61900
H  -1.14300 45.88900 22.14100
H  1.79900 45.18500 21.91000
H  -1.15800 44.87500 20.13500
H  -0.97900 43.31100 21.06500
H  0.39600 44.09500 20.26100
H  1.82800 47.46300 23.10600
H  0.06800 47.57500 23.01700
H  1.18400 47.11000 20.29400
H  2.07100 48.38700 21.06100
H  0.37900 48.63200 20.88700
H  5.45800 45.86200 25.80700
H  5.43900 44.43400 24.83700
H  6.07300 44.25500 26.44700
H  2.99200 44.52500 30.65800
H  4.97900 41.83300 33.56000
H  5.42600 41.06300 31.95400
H  3.86500 40.81700 32.71000

