158

Mg 8.86000 3.33300 27.91200
C  9.91600 1.62100 30.92800
C  7.25800 5.45900 29.76300
C  7.24400 4.28100 25.08300
C  10.23000 0.64000 26.09700
N  8.38700 3.23800 30.04800
C  9.11500 2.77400 31.14300
C  8.90400 3.57400 32.40200
C  7.72500 4.49500 32.00900
C  7.76300 4.40000 30.48100
C  6.34700 4.31200 32.63600
C  10.26900 4.31300 32.86100
C  10.13800 4.85000 34.30300
H  10.99400 4.08500 35.30500
N  7.41600 4.70900 27.50500
C  6.96500 5.59200 28.41800
C  6.15200 6.58000 27.72000
C  6.14500 6.32000 26.28500
C  6.95100 5.06200 26.21400
C  5.44700 7.69000 28.50700
C  5.38900 7.06200 25.19700
O  5.51000 6.68500 24.00500
C  4.67900 8.33100 25.55000
N  8.82900 2.67100 25.88700
C  8.10500 3.22500 24.89400
C  8.46200 2.70500 23.55200
C  9.51700 1.64400 23.88100
C  9.48800 1.59800 25.39000
C  7.21300 2.17600 22.77200
C  10.94700 1.90700 23.33000
C  11.31000 1.08500 22.09300
N  9.97300 1.47500 28.31400
C  10.42700 0.51000 27.45900
C  11.02800 -0.55200 28.29400
C  10.85900 -0.19400 29.63800
C  10.16100 1.05500 29.63100
C  11.78400 -1.69700 27.71300
C  11.16200 -0.47700 31.03800
O  11.83500 -1.31200 31.52300
C  10.63800 0.64800 31.86400
C  9.60700 0.01700 32.75100
O  8.47100 -0.21700 32.37500
O  10.14400 -0.46300 33.85300
C  9.38500 -1.20600 34.82400
H  7.04500 6.37500 30.31800
H  6.69400 4.65700 24.21800
H  10.62600 -0.18200 25.49700
H  8.57300 2.85500 33.15200
H  8.08600 5.50900 32.18100
H  5.67100 3.84900 31.91700
H  6.00800 5.31700 32.88900
H  6.38600 3.74200 33.56400
H  10.40400 5.19000 32.22900
H  11.16600 3.72100 32.68000
H  9.09200 4.98000 34.58100
H  10.57000 5.85000 34.32400
H  5.91000 8.66600 28.35900
H  5.47000 7.57500 29.59000
H  4.36900 7.62900 28.35600
H  3.84100 8.20500 26.23600
H  4.27100 8.83600 24.67500
H  5.41100 9.00700 25.99300
H  8.94200 3.46100 22.93100
H  9.09300 0.65600 23.70200
H  7.10300 1.14200 22.44500
H  7.19300 2.67800 21.80400
H  6.31400 2.57200 23.24300
H  11.75000 1.70900 24.03900
H  10.92200 2.89800 22.87800
H  11.33700 1.60400 21.13500
H  10.52700 0.32700 22.11200
H  12.29200 0.62300 22.19600
H  11.37100 -1.79300 26.70800
H  11.54100 -2.57100 28.31700
H  12.81800 -1.35600 27.66800
H  11.38700 1.01800 32.56500
H  10.16800 -1.82800 35.25800
H  8.63900 -1.77700 34.27100
H  8.94800 -0.47700 35.50700
Mg 35.27100 0.92000 29.19000
C  33.35600 1.99900 31.93300
C  38.04200 1.08900 31.38700
C  37.25300 0.76800 26.55200
C  32.44700 1.22100 27.17300
N  35.65300 1.50900 31.41300
C  34.65900 1.80300 32.26500
C  35.28300 1.79500 33.64100
C  36.83300 1.69400 33.48000
C  36.79600 1.24000 32.00800
C  37.58800 3.00000 33.76600
C  34.60200 0.67100 34.48200
C  33.98800 1.01200 35.85000
H  34.64300 2.17200 36.64500
N  37.41600 0.87400 28.96500
C  38.35600 0.92600 29.98900
C  39.71300 0.85300 29.43500
C  39.44100 0.77300 27.99000
C  38.00600 0.84900 27.73500
C  41.04800 0.88000 30.23400
C  40.51800 0.42700 26.96900
O  40.21200 0.07500 25.83900
C  41.96800 0.39300 27.32700
N  34.88300 0.63000 27.22500
C  35.85700 0.69300 26.23800
C  35.26700 0.52900 24.83600
C  33.75500 0.54000 25.07400
C  33.66200 0.76200 26.60500
C  35.78200 1.48600 23.71000
C  32.90300 -0.76300 24.63300
C  32.82000 -0.99100 23.12600
N  33.31300 1.48400 29.41400
C  32.25500 1.55800 28.50300
C  31.05700 1.88000 29.17900
C  31.40600 2.05100 30.53500
C  32.80100 1.85200 30.65100
C  29.72300 2.08800 28.52100
C  30.87000 2.43100 31.82400
O  29.74700 2.69400 32.14800
C  32.12200 2.36100 32.76700
C  32.25600 3.64600 33.51900
O  33.09000 4.53900 33.30300
O  31.33500 3.56700 34.58100
C  31.50900 4.67900 35.53200
H  38.92600 0.98200 32.02000
H  37.87700 0.76300 25.65600
H  31.67500 1.57500 26.48700
H  34.95400 2.71800 34.11700
H  37.24700 0.89800 34.10000
H  36.99200 3.87500 34.02500
H  38.22300 3.28700 32.92700
H  38.33400 2.87300 34.55000
H  35.25300 -0.19200 34.62600
H  33.78600 0.26600 33.88400
H  34.13200 0.16600 36.52200
H  32.90900 1.09200 35.72400
H  41.25100 -0.17100 30.43700
H  40.99300 1.41700 31.18100
H  41.82300 1.37300 29.64700
H  42.34800 1.32400 27.74800
H  42.44300 0.09500 26.39200
H  42.06000 -0.49300 27.95600
H  35.53300 -0.47200 24.49700
H  33.30400 1.35300 24.50400
H  36.11100 2.43600 24.13200
H  34.99500 1.67900 22.98100
H  36.60500 0.94100 23.24700
H  31.86200 -0.57600 24.89700
H  33.27300 -1.70100 25.04700
H  33.07700 -2.00700 22.82500
H  33.48000 -0.27500 22.63600
H  31.78200 -0.78600 22.86600
H  29.77200 1.34700 27.72300
H  29.51200 3.01900 27.99600
H  28.98300 1.66400 29.20000
H  31.81000 1.61500 33.49800
H  31.40100 4.32200 36.55600
H  30.82000 5.52000 35.44700
H  32.50900 5.11300 35.50900

