158

Mg 26.13000 0.93900 28.80700
C  28.14200 0.42100 31.71600
C  23.55000 1.64300 30.79500
C  24.21200 0.73000 26.03800
C  28.77600 -0.37800 26.93000
N  25.89700 1.20600 31.07800
C  26.80700 0.95300 32.05200
C  26.30500 1.21300 33.46300
C  24.78600 1.53400 33.11600
C  24.73800 1.53800 31.53100
C  23.75700 0.47900 33.69000
C  27.06800 2.34400 34.24100
C  27.46500 2.06800 35.72900
H  26.68300 2.92500 36.84000
N  24.14900 1.22500 28.50200
C  23.25200 1.55400 29.42100
C  21.95300 1.46100 28.88500
C  22.05500 1.14500 27.48000
C  23.56100 1.07900 27.27300
C  20.69500 1.76500 29.62500
C  20.96700 0.92900 26.47300
O  21.20400 0.74300 25.27400
C  19.54200 1.09900 26.93600
N  26.37000 0.23000 26.82500
C  25.53000 0.44900 25.78700
C  26.07100 0.31000 24.39100
C  27.59900 0.18800 24.75100
C  27.59000 0.02500 26.28700
C  25.46500 -0.66500 23.36600
C  28.52900 1.33900 24.40800
C  29.84600 0.91100 23.85300
N  28.04200 0.15100 29.18400
C  28.93300 -0.36700 28.29800
C  30.21600 -0.60600 29.02600
C  29.98000 -0.31200 30.34600
C  28.65300 0.16000 30.38300
C  31.54100 -1.02700 28.37900
C  30.47700 -0.35000 31.79200
O  31.55000 -0.64400 32.27300
C  29.33300 0.10800 32.68400
C  28.84700 -1.05400 33.48600
O  27.88100 -1.75000 33.18200
O  29.62100 -1.13800 34.64100
C  29.02300 -2.09300 35.60100
H  22.68800 1.82700 31.44000
H  23.78100 0.83000 25.03900
H  29.68700 -0.51800 26.34500
H  26.50600 0.31000 34.03900
H  24.57500 2.51300 33.54600
H  23.77300 -0.52200 33.25900
H  22.74700 0.88400 33.62100
H  24.01000 0.23200 34.72100
H  26.50900 3.27800 34.28700
H  27.97800 2.56500 33.68300
H  28.51200 2.36700 35.74600
H  27.30300 1.00000 35.87800
H  20.06600 2.51300 29.14200
H  20.86200 2.18500 30.61600
H  20.14900 0.86400 29.90600
H  18.95000 0.79400 26.07300
H  19.30800 2.13600 27.17900
H  19.13500 0.28800 27.53900
H  25.98700 1.27600 23.89300
H  28.06400 -0.71800 24.36100
H  26.20600 -1.27900 22.85500
H  24.93000 -0.13800 22.57600
H  24.68100 -1.23100 23.87000
H  28.51800 2.08200 25.20500
H  28.05500 1.83100 23.55900
H  29.95200 1.11400 22.78700
H  30.07700 -0.14600 23.98000
H  30.60300 1.51100 24.35900
H  32.34700 -1.04900 29.11300
H  31.77800 -0.26100 27.64000
H  31.48100 -2.00400 27.90100
H  29.67400 0.88400 33.36900
H  29.14700 -3.15900 35.40700
H  27.94800 -2.02600 35.76500
H  29.31500 -1.89200 36.63100
Mg 9.15600 46.85400 25.64900
C  6.82300 47.04500 28.25100
C  11.61400 47.88900 27.69500
C  11.34200 47.25500 22.91600
C  6.52000 46.60300 23.42800
N  9.11000 47.57400 27.70300
C  8.14100 47.34800 28.62900
C  8.60500 47.68100 30.06600
C  10.09400 48.22100 29.78100
C  10.36800 47.87100 28.25300
C  10.37800 49.73300 30.05500
C  8.50100 46.42500 31.02300
C  9.55100 46.29200 32.25700
H  8.96000 45.88900 33.59100
N  11.23700 47.25700 25.38800
C  12.12800 47.57500 26.38200
C  13.49000 47.76700 25.85300
C  13.42500 47.47500 24.45400
C  11.97700 47.33400 24.20600
C  14.64000 48.12900 26.77700
C  14.50000 47.34700 23.43900
O  14.25100 46.94200 22.28800
C  15.92100 47.56000 23.81800
N  8.91500 46.97800 23.48200
C  9.95200 47.11400 22.58100
C  9.47900 47.04000 21.16200
C  7.94700 46.77600 21.35500
C  7.77300 46.76300 22.83200
C  9.99800 48.09000 20.21400
C  7.39700 45.49400 20.65900
C  6.20600 45.78500 19.72700
N  7.03700 46.77600 25.75900
C  6.15700 46.61200 24.77300
C  4.84100 46.61600 25.38100
C  5.06900 46.71800 26.74600
C  6.42300 46.88300 26.92300
C  3.50300 46.46600 24.72700
C  4.39500 46.74100 28.00200
O  3.20900 46.57500 28.23400
C  5.52600 47.01700 29.13400
C  5.50000 45.75800 30.05000
O  5.94000 44.64400 29.68500
O  4.91000 46.05700 31.24600
C  4.98900 45.05100 32.36500
H  12.33900 48.23100 28.43700
H  11.96200 47.44000 22.03700
H  5.76200 46.28300 22.70900
H  7.95200 48.40800 30.54900
H  10.79200 47.61500 30.35800
H  11.21500 49.68900 30.75100
H  9.47400 50.06800 30.56500
H  10.67100 50.49600 29.33400
H  8.55700 45.47500 30.49200
H  7.46900 46.46800 31.37300
H  10.09200 47.22000 32.44300
H  10.29600 45.55800 31.95000
H  15.28300 48.90400 26.35900
H  15.30700 47.27400 26.88200
H  14.27700 48.31000 27.78900
H  16.55500 47.27000 22.98000
H  16.11300 47.11400 24.79400
H  15.99100 48.63100 24.00900
H  9.93100 46.11600 20.80400
H  7.50600 47.73100 21.06600
H  11.02000 48.38500 20.45400
H  9.54000 49.04900 20.45600
H  9.92500 47.86600 19.15000
H  7.01300 44.85000 21.45000
H  8.17900 44.90100 20.18500
H  5.32200 45.60200 20.33900
H  6.26600 45.18200 18.82100
H  6.24000 46.86800 19.61000
H  3.11200 45.51500 25.09000
H  3.60900 46.67600 23.66300
H  2.71000 47.11400 25.09800
H  5.44800 47.92700 29.72800
H  5.97900 44.63000 32.54400
H  4.18400 44.31800 32.30900
H  4.93900 45.55800 33.32800

