158

Mg 48.52600 16.24000 28.43700
C  46.36300 16.13500 31.31500
C  50.59700 18.27900 30.11400
C  50.26900 16.49600 25.66500
C  45.82900 14.62300 26.69300
N  48.46700 16.96600 30.58200
C  47.54800 16.78900 31.54200
C  48.05400 17.44300 32.83100
C  49.19600 18.43400 32.34700
C  49.47300 17.86100 30.94700
C  48.86500 19.98800 32.34100
C  48.45100 16.41100 33.84400
C  47.66600 16.54600 35.18500
H  47.91900 17.79100 35.99500
N  50.19000 17.22200 27.98700
C  50.92500 17.96300 28.80400
C  52.11600 18.38600 28.10900
C  52.09400 17.84000 26.78600
C  50.82700 17.16300 26.74800
C  53.17000 19.26600 28.85400
C  53.21600 17.91400 25.73500
O  53.03600 17.49100 24.55000
C  54.57400 18.43300 26.18300
N  48.07200 15.76000 26.43700
C  48.98100 15.92900 25.48400
C  48.30200 15.66000 24.09500
C  46.95000 14.99300 24.41600
C  46.96400 15.03800 25.96200
C  48.14100 16.91500 23.25100
C  46.84000 13.56600 23.92900
C  45.61400 13.27800 22.98900
N  46.58000 15.49800 28.85000
C  45.61000 14.78800 28.09000
C  44.41900 14.50100 28.87900
C  44.68200 15.04400 30.13000
C  45.98400 15.54400 30.07600
C  43.26300 13.76600 28.43800
C  44.15200 15.17700 31.49400
O  43.04700 14.78900 31.93200
C  45.27100 15.89400 32.32100
C  44.69700 17.13700 32.88200
O  44.55500 18.16700 32.27900
O  44.19600 16.85600 34.16300
C  43.34200 17.86000 34.86500
H  51.30300 18.90600 30.66300
H  50.83200 16.52200 24.73000
H  45.10300 14.09100 26.07400
H  47.18200 17.99000 33.19000
H  50.13400 18.30900 32.88900
H  47.80400 20.05400 32.58400
H  49.17500 20.35900 31.36400
H  49.31000 20.59900 33.12600
H  49.49900 16.47500 34.14000
H  48.41500 15.37800 33.49700
H  47.84200 15.68700 35.83200
H  46.59100 16.61100 35.02000
H  53.74500 19.95000 28.23100
H  53.83700 18.65000 29.45900
H  52.64000 19.88900 29.57400
H  54.90400 18.02800 27.14000
H  54.52700 19.51900 26.26800
H  55.34200 18.18500 25.45000
H  49.00100 14.95600 23.64400
H  46.03500 15.52700 24.16000
H  47.11400 17.27800 23.20800
H  48.30800 16.66200 22.20400
H  48.82500 17.70400 23.56300
H  46.78600 12.95900 24.83200
H  47.72300 13.19700 23.40600
H  44.95000 14.13300 22.86800
H  45.02700 12.45800 23.40400
H  45.94000 12.91700 22.01400
H  42.49200 13.88500 29.19900
H  43.54400 12.71400 28.38200
H  42.88400 14.21900 27.52200
H  45.68500 15.31000 33.14300
H  43.84300 18.21200 35.76600
H  42.39300 17.37000 35.08300
H  43.15900 18.74300 34.25200
Mg 30.28100 57.51800 40.15000
C  27.33900 55.73100 39.28100
C  32.09900 55.18000 38.46200
C  32.82700 59.65500 40.18700
C  28.13800 60.16100 41.13500
N  29.77100 55.73900 38.89000
C  28.52200 55.16500 38.78400
C  28.61000 53.76100 38.23100
C  30.11900 53.56100 38.21500
C  30.74500 54.91400 38.58800
C  30.73800 52.42800 39.07800
C  27.80800 53.53300 36.90400
C  27.33500 54.68000 35.95700
H  27.76700 54.59700 34.52700
N  32.25000 57.35900 39.52400
C  32.83700 56.33900 38.83100
C  34.22900 56.59700 38.58200
C  34.43700 57.90600 39.13900
C  33.14900 58.37700 39.68800
C  35.11900 55.54100 38.03800
C  35.77500 58.68800 39.04300
O  36.76300 58.22300 38.53100
C  35.83800 60.13200 39.48500
N  30.50300 59.59000 40.49200
C  31.63600 60.26300 40.49400
C  31.55200 61.66800 41.14300
C  30.15200 61.70600 41.65100
C  29.52400 60.45000 41.00900
C  32.64600 62.13700 42.14700
C  29.30500 63.05200 41.53600
C  29.10500 63.92000 42.77600
N  28.16900 57.91400 40.16800
C  27.44000 59.07000 40.52700
C  26.04000 58.84600 40.49500
C  25.96900 57.50500 39.97200
C  27.30700 57.01600 39.82100
C  24.92700 59.73000 41.03200
C  25.03900 56.50000 39.69500
O  23.78700 56.42900 39.74700
C  25.87000 55.32200 39.15400
C  25.54100 54.00600 39.91500
O  26.17700 53.69400 40.88900
O  24.58500 53.31100 39.27800
C  24.49200 51.91200 39.79400
H  32.73100 54.43800 37.97000
H  33.65200 60.35800 40.32400
H  27.50400 60.92900 41.58500
H  28.20100 53.16300 39.04500
H  30.51200 53.36200 37.21800
H  30.01200 51.80400 39.60000
H  31.54000 52.71800 39.75700
H  31.20800 51.63900 38.49200
H  26.85500 53.03900 37.09500
H  28.32700 52.78100 36.31000
H  27.56700 55.59400 36.50400
H  26.24600 54.72000 35.98700
H  36.15900 55.86200 37.97600
H  34.59200 55.02500 37.23500
H  35.06600 54.83800 38.87000
H  36.82700 60.57700 39.37100
H  35.56400 60.09700 40.53900
H  35.16800 60.68300 38.82500
H  31.66700 62.39200 40.33700
H  30.08300 61.55900 42.72900
H  33.29400 62.98300 41.92000
H  33.22900 61.22100 42.24100
H  32.23400 62.30300 43.14200
H  28.34200 62.93600 41.03900
H  29.94500 63.59300 40.83800
H  28.05900 64.14300 42.98800
H  29.69700 64.83000 42.68000
H  29.43000 63.42000 43.68800
H  25.22600 60.73500 40.73500
H  24.79900 59.78500 42.11300
H  24.00600 59.53900 40.48100
H  25.55600 55.30700 38.11000
H  23.83500 52.02500 40.65700
H  25.41300 51.41200 40.09400
H  23.97400 51.26900 39.08300

