158

Mg 40.30800 8.35900 29.65900
C  42.28400 9.71500 32.23200
C  37.95900 7.53700 31.98000
C  38.55700 6.78800 27.19100
C  42.90700 9.03100 27.45000
N  40.27500 8.51100 31.82900
C  41.10300 9.24500 32.70600
C  40.50200 9.36200 34.03800
C  39.31100 8.40400 34.09500
C  39.12800 8.14500 32.50300
C  39.54200 7.07300 34.84900
C  40.04300 10.82800 34.47900
C  39.60000 10.93500 35.97000
H  40.52300 11.68500 36.86200
N  38.45500 7.35200 29.64600
C  37.61500 7.19200 30.67100
C  36.44800 6.37900 30.20700
C  36.57000 6.38600 28.80700
C  37.90600 6.86900 28.48900
C  35.32500 6.00200 31.12500
C  35.54900 6.00300 27.67000
O  35.71700 6.17500 26.48400
C  34.23100 5.39200 28.10000
N  40.74400 7.84100 27.63700
C  39.88200 7.16600 26.85400
C  40.36300 7.14300 25.38100
C  41.70900 7.95600 25.40700
C  41.83100 8.36000 26.94700
C  40.59300 5.65200 24.90200
C  41.74800 9.14400 24.39000
C  40.90300 10.28200 24.58900
N  42.26800 9.13000 29.72800
C  43.19900 9.42700 28.75600
C  44.39100 9.95400 29.31600
C  44.03700 10.24100 30.69300
C  42.72300 9.64900 30.88900
C  45.61300 10.20700 28.57100
C  44.46800 10.76200 31.96400
O  45.53100 11.27300 32.34300
C  43.30600 10.52100 32.90900
C  43.83700 9.81100 34.08500
O  44.28600 8.68100 33.94400
O  43.59400 10.51600 35.22400
C  44.01900 9.87700 36.45400
H  37.22400 7.43800 32.78200
H  38.11000 6.20800 26.38200
H  43.68800 9.17900 26.70100
H  41.27300 9.00700 34.72300
H  38.43400 8.89900 34.51100
H  40.49100 7.05400 35.38500
H  39.51500 6.16600 34.24500
H  38.86800 7.07000 35.70600
H  39.28100 11.20400 33.79600
H  40.89100 11.46200 34.22300
H  39.48900 9.94300 36.40900
H  38.62300 11.41700 35.94500
H  35.57400 6.23900 32.15900
H  35.22900 4.91600 31.10200
H  34.40500 6.53100 30.87700
H  33.77200 6.09000 28.80000
H  34.54400 4.47800 28.60400
H  33.59100 5.25600 27.22800
H  39.56300 7.39800 24.68600
H  42.57200 7.37800 25.07800
H  40.58700 5.69800 23.81300
H  39.74500 5.03500 25.20000
H  41.48700 5.21100 25.34200
H  41.69200 8.56000 23.47100
H  42.75500 9.53100 24.54700
H  40.16200 10.13500 23.80300
H  41.40700 11.21000 24.31800
H  40.46800 10.34400 25.58600
H  45.56800 11.17400 28.07000
H  45.74100 9.46600 27.78200
H  46.45300 10.25700 29.26400
H  42.83200 11.41100 33.32400
H  45.06700 10.08300 36.67300
H  43.80600 8.81200 36.54400
H  43.41300 10.29300 37.25900
Mg 47.23600 35.53100 28.45900
C  45.54600 33.65500 31.10000
C  47.36900 38.08200 30.70000
C  48.03900 37.44400 25.89300
C  46.49600 32.88200 26.25200
N  46.42200 35.85100 30.71700
C  46.03900 34.88800 31.55300
C  46.24100 35.35800 33.00200
C  46.35200 36.93600 32.72600
C  46.83500 36.97000 31.36500
C  45.02700 37.64600 32.95500
C  47.39400 34.75400 33.75100
C  47.22600 34.67500 35.31100
H  46.00600 35.44900 35.90500
N  47.67300 37.49800 28.25700
C  47.77100 38.39600 29.36300
C  48.36000 39.64000 28.89100
C  48.60300 39.43800 27.49400
C  48.20000 38.09700 27.16300
C  48.68800 40.78800 29.73300
C  49.34300 40.43700 26.50500
O  49.64200 40.11200 25.41100
C  49.76200 41.82900 26.96000
N  47.19300 35.18900 26.35900
C  47.61200 36.18000 25.52400
C  47.43000 35.70000 24.05500
C  47.16200 34.24000 24.19800
C  47.00500 34.07700 25.69400
C  46.28000 36.54400 23.47300
C  48.20300 33.25000 23.60100
C  47.54500 32.15700 22.73200
N  46.37000 33.58900 28.61900
C  46.20100 32.63700 27.64900
C  45.64800 31.42600 28.26100
C  45.35100 31.76900 29.56600
C  45.73700 33.13800 29.72300
C  45.23100 30.24300 27.55000
C  44.77900 31.30200 30.85800
O  44.27000 30.20000 31.08300
C  44.84100 32.46600 31.82800
C  45.46500 31.99100 33.08200
O  46.65500 31.69800 33.20300
O  44.50900 31.66300 34.07900
C  44.99400 31.12500 35.35400
H  47.42900 39.00700 31.27700
H  48.29500 38.13600 25.08800
H  46.23700 32.03300 25.61700
H  45.38200 35.00600 33.57300
H  47.12000 37.40400 33.34300
H  45.07200 38.10900 33.94100
H  44.18200 36.95900 32.97900
H  44.97900 38.44200 32.21100
H  48.24600 35.38200 33.49200
H  47.74200 33.77200 33.43100
H  48.10700 35.19100 35.69200
H  47.20100 33.63800 35.64500
H  48.05700 41.63300 29.45700
H  49.76100 40.97700 29.76200
H  48.54800 40.63000 30.80300
H  49.06900 42.34000 27.62700
H  49.93600 42.40500 26.05100
H  50.72900 41.68800 27.44200
H  48.34700 35.97400 23.53400
H  46.23400 33.91700 23.72600
H  46.04100 37.21700 24.29500
H  45.33400 36.01700 23.34600
H  46.64300 37.01100 22.55700
H  48.76500 32.70200 24.35700
H  48.96900 33.68800 22.96100
H  46.55000 32.42700 22.37700
H  47.53100 31.20200 23.25600
H  48.15000 32.03700 21.83300
H  46.05100 29.94300 26.89800
H  44.34200 30.37300 26.93200
H  45.05300 29.36200 28.16600
H  43.78900 32.62700 32.06000
H  45.95000 31.56100 35.64500
H  45.04400 30.04700 35.50600
H  44.27800 31.49800 36.08600

