158

Mg 16.43500 -2.11900 28.26200
C  15.45900 0.06000 30.73900
C  18.21900 -4.01100 30.59800
C  17.74000 -4.00000 25.73100
C  15.02400 0.01600 25.84900
N  16.86200 -2.00100 30.34300
C  16.29300 -1.01400 31.13100
C  16.82300 -1.13500 32.57900
C  17.84200 -2.32300 32.47200
C  17.62800 -2.82000 31.00600
C  19.32300 -1.97300 32.65000
C  15.67800 -1.42700 33.57100
C  15.88800 -0.76900 34.96300
H  17.31500 -0.20900 35.34000
N  17.72100 -3.83800 28.22900
C  18.27800 -4.54500 29.26700
C  18.97600 -5.76700 28.82200
C  18.86900 -5.64500 27.36600
C  18.10100 -4.44500 27.01400
C  19.45500 -6.82000 29.77600
C  19.40500 -6.66100 26.37200
O  19.31900 -6.52300 25.14900
C  20.27800 -7.78900 26.83500
N  16.44600 -1.93700 26.08500
C  17.03800 -2.83600 25.35500
C  16.71100 -2.58300 23.83500
C  15.82300 -1.31000 23.85300
C  15.71500 -1.05000 25.32200
C  18.11700 -2.40400 23.13200
C  14.42100 -1.58000 23.11800
C  14.60900 -2.00600 21.66900
N  15.23500 -0.38100 28.24800
C  14.74100 0.38700 27.21600
C  14.11500 1.54700 27.83200
C  14.30600 1.41200 29.15900
C  15.05500 0.25800 29.37600
C  13.55400 2.70700 27.09200
C  14.04600 1.99600 30.50600
O  13.27000 2.91400 30.88500
C  14.84100 1.15400 31.60100
C  15.82500 2.07100 32.40400
O  16.86500 2.58800 32.00200
O  15.25800 2.44100 33.55600
C  15.93900 3.50200 34.27900
H  18.83700 -4.60400 31.27500
H  18.04400 -4.51300 24.81700
H  14.50700 0.53100 25.03600
H  17.36800 -0.24700 32.89700
H  17.55400 -3.14900 33.12300
H  19.92600 -2.22200 31.77700
H  19.71000 -2.45000 33.55000
H  19.48400 -0.92900 32.91900
H  15.53600 -2.50600 33.62500
H  14.77400 -1.00200 33.13600
H  15.53600 -1.47700 35.71300
H  15.25200 0.08500 35.19700
H  19.97200 -7.68800 29.36500
H  18.60100 -7.08000 30.40100
H  20.06800 -6.35600 30.54900
H  20.75400 -8.31000 26.00400
H  19.61000 -8.50900 27.30700
H  21.12400 -7.48500 27.45200
H  16.28900 -3.48900 23.40000
H  16.35000 -0.56000 23.26400
H  18.23800 -3.19000 22.38700
H  18.89100 -2.31400 23.89500
H  18.14400 -1.41600 22.67200
H  13.87200 -0.63900 23.16300
H  13.82100 -2.31400 23.65700
H  13.88500 -1.44100 21.08100
H  14.58000 -3.08400 21.51000
H  15.64600 -1.73600 21.47000
H  13.90500 3.64000 27.53200
H  12.47400 2.83100 27.00500
H  14.04000 2.85700 26.12800
H  14.02700 0.77800 32.22100
H  16.02700 4.30300 33.54500
H  16.88700 3.21200 34.73400
H  15.24900 3.78200 35.07500
Mg -5.36000 24.95200 26.09100
C  -3.78200 26.03800 28.94000
C  -7.27800 22.79200 28.05300
C  -6.27400 23.40400 23.32400
C  -3.01900 26.87500 24.11500
N  -5.55800 24.57300 28.21600
C  -4.92400 25.24700 29.16200
C  -5.35700 24.90900 30.52400
C  -6.24800 23.63400 30.21000
C  -6.37100 23.60500 28.77400
C  -5.71400 22.33700 30.79200
C  -6.05500 26.04800 31.19800
C  -5.89100 26.16000 32.77100
H  -5.11700 25.08200 33.55800
N  -6.73000 23.41200 25.72400
C  -7.42100 22.71200 26.61200
C  -8.31600 21.91100 25.92500
C  -8.09300 22.15600 24.51000
C  -6.94400 22.94000 24.45400
C  -9.32900 21.05200 26.56800
C  -8.86800 21.46200 23.33900
O  -8.45500 21.54600 22.19000
C  -10.06600 20.55000 23.55800
N  -4.61200 25.08600 24.00700
C  -5.21300 24.28500 23.09800
C  -4.66500 24.59900 21.63700
C  -3.61200 25.75700 21.89700
C  -3.79100 25.94900 23.44500
C  -4.13800 23.42000 20.86700
C  -3.98000 27.13100 21.20800
C  -3.32600 27.24100 19.79400
N  -3.72400 26.17200 26.39400
C  -2.91700 26.94700 25.52500
C  -2.04400 27.79900 26.39000
C  -2.39100 27.42100 27.74700
C  -3.40300 26.48300 27.65100
C  -1.08800 28.78100 25.93000
C  -2.05200 27.70500 29.05300
O  -1.11900 28.37200 29.42900
C  -3.01900 26.89400 30.02100
C  -2.19000 26.17900 30.99400
O  -1.59200 25.15200 30.74400
O  -2.00800 26.85000 32.12800
C  -1.13800 26.28800 33.14800
H  -7.91900 22.07900 28.57600
H  -6.56000 22.96600 22.36500
H  -2.33800 27.48000 23.51200
H  -4.43100 24.63700 31.03200
H  -7.16700 23.70300 30.79100
H  -4.74700 22.45800 31.28000
H  -5.47600 21.60500 30.02100
H  -6.32300 21.84400 31.55000
H  -7.12200 25.90100 31.03200
H  -5.87400 27.03300 30.76800
H  -6.94000 26.06300 33.05200
H  -5.56000 27.17700 32.98300
H  -9.63100 20.16300 26.01600
H  -10.24300 21.63400 26.68600
H  -8.95000 20.69500 27.52600
H  -10.84000 21.14000 24.04900
H  -9.69700 19.65500 24.05700
H  -10.46200 20.19000 22.60900
H  -5.55200 24.99800 21.14600
H  -2.61600 25.45700 21.57200
H  -4.83100 23.28400 20.03600
H  -4.18700 22.50900 21.46300
H  -3.10200 23.59200 20.57400
H  -3.73000 28.02200 21.78400
H  -5.06200 27.06700 21.09300
H  -4.07700 27.28000 19.00400
H  -2.61600 26.45500 19.53600
H  -2.75800 28.16900 19.84800
H  -0.87800 29.41100 26.79500
H  -1.74400 29.36400 25.28300
H  -0.18000 28.35800 25.50100
H  -3.65300 27.61800 30.53200
H  -0.07300 26.45000 32.97900
H  -1.20800 25.20100 33.19400
H  -1.48000 26.69900 34.09800

