158

Mg 17.16500 -0.78500 28.41000
C  16.25100 1.29900 31.12700
C  18.94700 -2.78700 30.51000
C  18.29200 -2.52200 25.69300
C  15.39800 1.36700 26.37900
N  17.69100 -0.55500 30.51600
C  17.17800 0.26200 31.44400
C  17.57100 -0.14900 32.85700
C  18.71500 -1.19000 32.55400
C  18.56300 -1.56400 31.07500
C  20.15500 -0.63500 32.73700
C  16.39100 -0.83300 33.72800
C  16.15000 -0.06100 35.04900
H  17.32900 0.19900 35.99600
N  18.38900 -2.47500 28.13300
C  18.93000 -3.20900 29.18800
C  19.60300 -4.37500 28.64000
C  19.33300 -4.38400 27.22100
C  18.62400 -3.13200 26.92800
C  20.48300 -5.35500 29.45900
C  19.79000 -5.47900 26.15800
O  19.68400 -5.29300 24.95300
C  20.43300 -6.76500 26.62500
N  16.92200 -0.61200 26.42600
C  17.50300 -1.41000 25.44600
C  17.16300 -0.94300 23.98900
C  16.13900 0.16400 24.31100
C  16.12700 0.33000 25.80200
C  18.47900 -0.44600 23.32100
C  14.65800 -0.09500 23.70300
C  13.62500 -0.89800 24.55900
N  16.12900 0.97800 28.62000
C  15.43800 1.76100 27.70100
C  14.84600 2.88800 28.36900
C  15.07500 2.73900 29.69200
C  15.85800 1.56800 29.79600
C  14.00400 3.99300 27.71500
C  14.83800 3.31900 31.02400
O  14.21700 4.27500 31.39900
C  15.57700 2.35100 32.03700
C  16.53800 3.23900 32.77200
O  17.68100 3.55600 32.45600
O  15.92200 3.65600 33.94000
C  16.58600 4.44100 34.93000
H  19.33700 -3.51900 31.22100
H  18.62200 -3.15100 24.86400
H  14.94000 2.12700 25.74200
H  17.96100 0.74300 33.34800
H  18.70700 -2.15400 33.06300
H  20.21000 0.29100 33.30900
H  20.68100 -0.42800 31.80500
H  20.70800 -1.39400 33.29000
H  16.61600 -1.89400 33.83100
H  15.50900 -0.70200 33.10200
H  15.43200 -0.62900 35.64100
H  15.75400 0.92200 34.79300
H  19.86500 -6.19700 29.77100
H  20.72900 -4.85600 30.39700
H  21.35600 -5.60200 28.85500
H  21.43000 -6.61300 27.03800
H  20.63100 -7.42100 25.77800
H  19.72600 -7.25300 27.29600
H  16.71900 -1.85600 23.59200
H  16.35000 1.13700 23.86700
H  19.31200 -0.59100 24.00900
H  18.43400 0.59600 23.00300
H  18.51600 -1.00700 22.38800
H  14.85700 -0.59100 22.75300
H  14.28800 0.89700 23.44600
H  13.88700 -1.13200 25.59100
H  13.38400 -1.82800 24.04500
H  12.72600 -0.28200 24.55100
H  13.16300 3.61200 27.13600
H  14.57900 4.59100 27.00700
H  13.71200 4.64900 28.53400
H  14.85200 1.86700 32.69300
H  16.03400 5.35500 35.14500
H  17.61100 4.64500 34.61800
H  16.61000 3.84200 35.84000
Mg 45.30100 3.88100 47.82600
C  43.37100 6.77700 47.33100
C  42.60500 2.00400 46.92200
C  47.27500 1.15200 47.77000
C  48.21600 5.92300 47.72600
N  43.21600 4.36900 47.22800
C  42.60700 5.57900 46.95300
C  41.23200 5.45000 46.29600
C  41.01700 3.84600 46.53100
C  42.37400 3.35100 46.97100
C  39.83400 3.38200 47.42100
C  41.27800 5.97700 44.89100
C  40.09000 6.83000 44.37900
H  39.55600 6.49800 42.99600
N  44.95600 1.80400 47.55900
C  43.74100 1.21100 47.20100
C  43.95100 -0.21000 46.93200
C  45.36800 -0.47200 47.14800
C  45.97800 0.85300 47.56200
C  42.86200 -0.97700 46.26600
C  45.97900 -1.84900 46.86600
O  45.22600 -2.76400 46.58200
C  47.40300 -1.98100 46.94100
N  47.49900 3.62300 47.75700
C  48.00000 2.33300 47.81000
C  49.53500 2.41000 47.61300
C  49.81200 3.93400 47.43300
C  48.43100 4.56900 47.67900
C  50.41100 1.58800 48.64900
C  50.47800 4.31200 46.03300
C  51.86400 4.98200 45.87900
N  45.76700 5.92500 47.83000
C  46.94700 6.59200 47.79800
C  46.62000 8.08000 47.66100
C  45.23300 8.15400 47.66500
C  44.76500 6.84900 47.67300
C  47.63000 9.19500 47.59600
C  44.16900 9.09300 47.62100
O  44.18100 10.35100 47.64200
C  42.82600 8.17700 47.31500
C  41.79400 8.37500 48.38600
O  41.59300 7.64800 49.29700
O  41.05100 9.52300 48.10300
C  39.86900 9.84400 48.87800
H  41.73900 1.41000 46.62500
H  48.00200 0.33700 47.74400
H  49.11200 6.54400 47.66500
H  40.44500 5.90700 46.89500
H  40.94600 3.45800 45.51500
H  38.95500 3.35000 46.77900
H  39.71400 4.07400 48.25400
H  40.10500 2.39900 47.80900
H  41.62200 5.13300 44.29400
H  42.21700 6.51300 44.75100
H  40.42100 7.86300 44.27700
H  39.15800 6.72600 44.93600
H  41.83900 -0.60900 46.34700
H  42.88000 -2.00500 46.62900
H  43.12500 -0.93400 45.20900
H  47.81000 -1.79800 47.93500
H  47.74200 -1.22000 46.23800
H  47.75100 -2.94600 46.57400
H  49.73800 1.92600 46.65800
H  50.49000 4.28400 48.21200
H  49.76400 1.08200 49.36500
H  51.09900 2.30700 49.09400
H  50.87400 0.79200 48.06600
H  49.82100 5.08500 45.63400
H  50.45000 3.44900 45.36800
H  52.54900 4.31400 45.35800
H  52.15000 5.07000 46.92700
H  51.68600 5.91100 45.33800
H  47.09300 10.14200 47.54600
H  48.15500 9.17200 46.64000
H  48.40600 9.11800 48.35800
H  42.29300 8.48600 46.41500
H  39.01500 9.63500 48.23400
H  39.90800 10.91800 49.06000
H  39.59400 9.41000 49.83900

