158

Mg 36.41200 49.28100 24.47400
C  36.53500 47.39400 27.42500
C  35.04600 51.76700 26.13900
C  35.95100 50.75600 21.47700
C  37.50900 46.33600 22.70700
N  35.79300 49.51800 26.54700
C  36.02900 48.66400 27.60400
C  35.70500 49.35400 28.94700
C  35.02200 50.67000 28.42100
C  35.25500 50.63600 26.89800
C  33.55600 50.94700 28.87300
C  36.92600 49.56400 29.88800
C  36.84400 49.30400 31.41600
H  35.45400 49.35800 32.07500
N  35.73800 51.08200 23.89300
C  35.19200 51.95800 24.76000
C  34.84500 53.12400 24.03700
C  35.21500 52.86800 22.67700
C  35.64100 51.53800 22.62300
C  34.17800 54.27800 24.69700
C  34.92000 53.80200 21.52000
O  35.12000 53.42800 20.34700
C  34.44300 55.19700 21.70400
N  36.48900 48.52600 22.36900
C  36.40600 49.48400 21.40000
C  36.90200 48.90700 20.05200
C  37.42200 47.48200 20.40300
C  37.19300 47.46400 21.92900
C  35.82900 48.87700 18.96600
C  38.89900 47.14600 19.98700
C  39.95700 48.15500 20.50400
N  36.82200 47.23900 24.91900
C  37.42600 46.27300 24.15700
C  37.66800 45.14000 24.98800
C  37.30000 45.55700 26.26800
C  36.81800 46.87700 26.18900
C  38.15500 43.77400 24.62100
C  37.11100 45.14800 27.65000
O  37.27300 44.05100 28.16700
C  36.69400 46.41200 28.48300
C  35.39300 46.07800 29.23500
O  34.23500 46.41100 28.93500
O  35.72800 45.31600 30.32200
C  34.56300 44.88200 31.05400
H  34.55400 52.55100 26.71900
H  36.00500 51.29900 20.53100
H  37.96700 45.55100 22.10000
H  34.93700 48.79600 29.48400
H  35.57500 51.53100 28.79700
H  33.54200 51.89300 29.41500
H  33.23600 50.17100 29.56900
H  32.87100 51.12000 28.04300
H  37.36200 50.56300 29.86000
H  37.75300 48.99200 29.46800
H  37.37100 50.10100 31.94200
H  37.40500 48.37900 31.54400
H  34.65900 55.18800 24.33900
H  34.24400 54.41900 25.77600
H  33.13000 54.20500 24.40800
H  33.59400 55.33100 22.37500
H  34.33300 55.76300 20.78000
H  35.23500 55.58400 22.34500
H  37.66600 49.51600 19.57000
H  36.95600 46.60000 19.96300
H  34.83400 49.06500 19.36900
H  35.99500 47.95900 18.40300
H  35.97900 49.79700 18.40000
H  39.02800 47.26700 18.91200
H  39.18600 46.12000 20.21900
H  39.52300 48.60700 21.39600
H  40.22600 48.89200 19.74800
H  40.82100 47.56300 20.80700
H  38.21600 43.17000 25.52600
H  39.04100 43.75100 23.98700
H  37.37300 43.38500 23.96800
H  37.48800 46.52200 29.22100
H  34.90500 44.33300 31.93100
H  33.90600 44.18200 30.53600
H  33.93000 45.71000 31.37500
Mg -11.44800 37.90500 43.00500
C  -9.75200 35.03000 41.77300
C  -9.01600 39.85800 41.36800
C  -13.45300 40.68400 43.28200
C  -13.93800 35.90100 44.24200
N  -9.68800 37.48700 41.72500
C  -9.22300 36.27400 41.33900
C  -7.99900 36.38500 40.44100
C  -7.54200 37.86700 40.67400
C  -8.81000 38.45100 41.39700
C  -6.14500 38.07100 41.49300
C  -8.20700 35.91200 38.92400
C  -7.26300 34.75000 38.43800
H  -6.30200 35.08900 37.29300
N  -11.24400 39.99600 42.44300
C  -10.20000 40.53600 41.72300
C  -10.38300 42.00800 41.75600
C  -11.59600 42.31700 42.44000
C  -12.20800 40.99300 42.71800
C  -9.40400 43.07000 41.11400
C  -12.17400 43.72900 42.69600
O  -11.62100 44.70900 42.29600
C  -13.41400 43.96200 43.57000
N  -13.40400 38.23600 43.56900
C  -14.03700 39.43800 43.57000
C  -15.46600 39.34500 44.12000
C  -15.64900 37.78300 44.43200
C  -14.24200 37.26500 43.99700
C  -15.82900 40.16200 45.39600
C  -16.74900 37.04100 43.45300
C  -17.53800 35.86400 44.04500
N  -11.85100 35.82200 42.97500
C  -12.85200 35.17300 43.55900
C  -12.56900 33.72000 43.63900
C  -11.39300 33.62000 42.89200
C  -11.01000 34.92100 42.50400
C  -13.44700 32.75400 44.28900
C  -10.33200 32.64000 42.43600
O  -10.23800 31.45800 42.60600
C  -9.22300 33.60500 41.63700
C  -7.84500 33.26400 42.26400
O  -7.26800 32.20300 42.18900
O  -7.31300 34.36400 42.89400
C  -5.96300 34.28500 43.50700
H  -8.21200 40.41700 40.88500
H  -14.14200 41.52700 43.20400
H  -14.68800 35.32000 44.78300
H  -7.20300 35.70700 40.75000
H  -7.49400 38.31700 39.68200
H  -5.44000 38.53900 40.80600
H  -5.66500 37.17000 41.87500
H  -6.40600 38.68700 42.35300
H  -7.97200 36.77400 38.30100
H  -9.23100 35.56700 38.77400
H  -7.92200 33.93600 38.13500
H  -6.61100 34.39100 39.23400
H  -9.82700 43.58900 40.25300
H  -8.44200 42.62400 40.86100
H  -9.28800 43.89000 41.82200
H  -14.30400 43.67400 43.01100
H  -13.34200 45.04200 43.70100
H  -13.36000 43.47300 44.54200
H  -16.04300 39.77200 43.30000
H  -15.89400 37.57900 45.47400
H  -16.46500 40.95400 45.00000
H  -14.89300 40.54800 45.79900
H  -16.30900 39.60700 46.20200
H  -16.24300 36.56800 42.61200
H  -17.43900 37.74300 42.98500
H  -17.73200 36.09300 45.09300
H  -16.90800 34.98100 43.93600
H  -18.48600 35.72700 43.52300
H  -13.23500 31.68400 44.28100
H  -14.39100 32.88800 43.76000
H  -13.45600 33.03800 45.34100
H  -9.32600 33.20400 40.62800
H  -5.49700 33.31400 43.34600
H  -6.16200 34.38600 44.57400
H  -5.40600 35.18200 43.23600

