158

Mg 24.03900 -4.62300 46.08400
C  26.18400 -2.22300 44.52300
C  21.54100 -3.29400 44.10100
C  22.22000 -7.25400 46.76400
C  26.83900 -5.95500 47.69600
N  23.88300 -3.00400 44.37700
C  24.92700 -2.17000 44.04000
C  24.38900 -1.01700 43.12100
C  22.82400 -1.26900 43.21100
C  22.70800 -2.60600 43.95700
C  22.01300 -0.09100 43.72300
C  25.00800 -1.24800 41.64800
C  25.02000 -0.04400 40.77200
H  24.39700 -0.30000 39.37000
N  22.17600 -5.20400 45.56400
C  21.26100 -4.51600 44.70000
C  20.02100 -5.30400 44.62300
C  20.17500 -6.46100 45.47800
C  21.51000 -6.29200 46.06600
C  18.91500 -4.79100 43.77100
C  19.09700 -7.55400 45.71100
O  18.07900 -7.45800 45.03900
C  19.21400 -8.55200 46.79100
N  24.43100 -6.27800 47.12300
C  23.52300 -7.30000 47.26500
C  24.10400 -8.56100 47.85900
C  25.41700 -7.96100 48.44300
C  25.58100 -6.62800 47.76000
C  23.26100 -9.34900 48.89600
C  26.59000 -8.98100 48.33700
C  27.65800 -8.92200 49.45100
N  26.15500 -4.20400 46.20700
C  27.13100 -4.79600 46.92100
C  28.42900 -4.17800 46.66200
C  28.07100 -3.10900 45.73000
C  26.68900 -3.14200 45.51200
C  29.69600 -4.72000 46.97900
C  28.62000 -1.98400 44.92200
O  29.76600 -1.63600 44.75100
C  27.46400 -1.36900 44.08600
C  27.24300 0.11400 44.40300
O  26.79400 0.55800 45.44700
O  27.54500 0.85500 43.35600
C  27.45800 2.32000 43.53300
H  20.67100 -2.76100 43.71300
H  21.67100 -8.18500 46.91900
H  27.66100 -6.44500 48.22000
H  24.66200 -0.06400 43.57300
H  22.44200 -1.53900 42.22700
H  22.72000 0.73800 43.75000
H  21.66600 -0.35400 44.72200
H  21.23200 0.05800 42.97800
H  24.43000 -1.97800 41.08200
H  26.02600 -1.63400 41.70800
H  25.99700 0.40500 40.59600
H  24.41500 0.68600 41.31000
H  19.08900 -5.24000 42.79200
H  18.87400 -3.70900 43.64500
H  17.92100 -5.18800 43.97800
H  18.34000 -9.20200 46.83200
H  19.33100 -8.17600 47.80700
H  20.01100 -9.26000 46.56300
H  24.40200 -9.24500 47.06400
H  25.13700 -7.74500 49.47400
H  22.60400 -10.18900 48.67400
H  22.70100 -8.55500 49.39000
H  23.95600 -9.68600 49.66500
H  27.12000 -8.74200 47.41500
H  26.26500 -10.01600 48.22500
H  27.95400 -9.91100 49.80100
H  27.28300 -8.36200 50.30700
H  28.41800 -8.34200 48.92700
H  30.49100 -4.05900 46.63400
H  29.76700 -5.76300 46.66900
H  29.74600 -4.62700 48.06400
H  27.67400 -1.68100 43.06300
H  27.93500 2.62700 44.46300
H  26.41000 2.59700 43.64800
H  28.02500 2.81100 42.74200
Mg -11.82700 38.11300 41.34100
C  -9.55400 35.45800 40.96500
C  -9.48800 40.17900 39.86300
C  -14.27400 40.32600 40.89500
C  -14.15100 35.81000 42.66200
N  -9.83800 37.75300 40.35200
C  -9.05400 36.64800 40.33100
C  -7.69400 36.85700 39.66200
C  -7.64900 38.38500 39.77100
C  -9.04600 38.84200 39.96200
C  -6.57900 38.94100 40.75800
C  -7.61900 36.20100 38.21500
C  -6.24800 35.53700 37.88200
H  -5.42000 36.16000 36.83100
N  -11.88700 40.02100 40.38200
C  -10.80900 40.75700 40.04700
C  -11.21100 42.11000 39.79400
C  -12.63000 42.19900 40.03800
C  -12.98500 40.77000 40.45200
C  -10.23700 43.25100 39.45500
C  -13.47900 43.46800 39.95400
O  -13.00600 44.53400 39.58600
C  -14.99700 43.42100 40.05600
N  -13.92500 38.03000 41.73400
C  -14.72100 39.10100 41.44100
C  -16.20400 38.87200 41.77600
C  -16.10400 37.37500 42.32500
C  -14.65200 37.01600 42.22400
C  -16.85000 39.87000 42.74800
C  -16.94900 36.40900 41.48200
C  -18.44500 36.50700 41.65200
N  -11.85100 36.05200 41.87900
C  -12.80800 35.26600 42.54700
C  -12.21000 33.95000 42.82000
C  -10.95900 34.00700 42.16700
C  -10.82000 35.21700 41.54000
C  -12.95700 32.91300 43.60000
C  -9.75400 33.26900 41.92400
O  -9.42300 32.13300 42.31500
C  -8.81100 34.16700 41.05900
C  -7.58500 34.19300 41.83100
O  -6.74900 33.30300 41.79500
O  -7.41900 35.36300 42.49100
C  -6.31000 35.22000 43.38100
H  -8.70200 40.88600 39.59100
H  -15.04600 41.07100 40.69000
H  -14.86200 35.12800 43.13400
H  -6.82600 36.52300 40.23000
H  -7.29000 38.85200 38.85400
H  -5.99600 38.13800 41.21000
H  -7.16800 39.38500 41.56100
H  -5.97000 39.69900 40.26600
H  -7.84800 36.99800 37.50800
H  -8.37400 35.41700 38.15700
H  -6.47600 34.50400 37.61700
H  -5.62800 35.44300 38.77400
H  -10.42900 43.61100 38.44400
H  -9.19400 43.04100 39.21800
H  -10.28600 44.04100 40.20400
H  -15.51000 44.37200 39.91200
H  -15.22100 42.98100 41.02800
H  -15.31100 42.66800 39.33400
H  -16.83700 38.85300 40.88800
H  -16.28500 37.32400 43.39800
H  -17.28500 39.34200 43.59700
H  -17.56400 40.48200 42.19700
H  -16.12000 40.57400 43.14800
H  -16.60600 35.37600 41.54700
H  -16.75900 36.71800 40.45400
H  -18.73600 35.46700 41.80000
H  -18.97100 36.92900 40.79600
H  -18.66900 37.09900 42.54000
H  -12.42400 32.56400 44.48500
H  -13.14100 32.02700 42.99300
H  -13.87000 33.36500 43.98900
H  -8.73500 33.65200 40.10100
H  -5.42100 35.20200 42.75100
H  -6.33900 34.29900 43.96300
H  -6.29200 36.07300 44.06000

