158

Mg 0.07600 8.17200 26.72700
C  0.79000 10.40500 29.33100
C  -0.41300 5.71100 29.03000
C  0.06700 5.91500 24.14600
C  0.79600 10.70000 24.43100
N  0.36800 7.99500 28.92700
C  0.56900 9.05100 29.76300
C  0.24800 8.69000 31.27300
C  0.09100 7.14700 31.10100
C  0.04500 6.90800 29.58400
C  1.25800 6.26200 31.73400
C  -1.05200 9.40600 31.76100
C  -1.23500 9.60200 33.27200
H  -0.03600 9.30700 34.11000
N  -0.11100 6.14300 26.57600
C  -0.48500 5.35700 27.68700
C  -0.73600 4.05800 27.17800
C  -0.67800 4.05200 25.73200
C  -0.19200 5.40500 25.38900
C  -1.04400 2.88300 28.16200
C  -0.98900 2.96400 24.70300
O  -0.89700 3.03000 23.49300
C  -1.49100 1.65500 25.18900
N  0.64500 8.27300 24.61200
C  0.41400 7.23300 23.72700
C  0.67500 7.57900 22.31500
C  0.50000 9.21600 22.31600
C  0.59700 9.44900 23.87000
C  1.90000 6.99300 21.65200
C  -0.81500 9.71800 21.74200
C  -0.69400 10.88900 20.73300
N  0.71400 10.10600 26.70300
C  0.85200 11.09700 25.76800
C  1.19300 12.33300 26.36300
C  1.10200 12.10600 27.71200
C  0.80200 10.77000 27.92500
C  1.38000 13.63900 25.64600
C  1.24700 12.76100 29.01500
O  1.55300 13.87200 29.28300
C  1.11000 11.67000 30.12700
C  2.34600 11.66300 30.90000
O  3.37400 11.09000 30.53300
O  2.14500 12.30800 32.10600
C  3.28600 12.34100 33.06800
H  -0.74600 5.02700 29.81400
H  -0.09200 5.29800 23.26000
H  0.66600 11.57000 23.78300
H  1.16500 8.94900 31.80200
H  -0.80000 6.74900 31.58800
H  0.90600 5.46600 32.39100
H  1.88100 6.94800 32.30800
H  1.91200 5.83100 30.97700
H  -1.84200 8.72100 31.45400
H  -1.26100 10.36700 31.29100
H  -2.04400 8.93800 33.57600
H  -1.56600 10.61900 33.48300
H  -0.82600 3.00700 29.22300
H  -0.63400 1.95700 27.75800
H  -2.12500 2.75900 28.21500
H  -1.85500 1.15000 24.29400
H  -2.35500 1.79900 25.83800
H  -0.68200 1.26200 25.80400
H  -0.11000 7.11300 21.72000
H  1.38200 9.65600 21.84900
H  2.61800 6.78600 22.44600
H  2.26200 7.59900 20.82200
H  1.67000 6.00500 21.25400
H  -1.48400 10.11800 22.50400
H  -1.20400 8.81200 21.27900
H  0.28900 10.99600 20.27300
H  -0.92200 11.83000 21.23300
H  -1.40200 10.74200 19.91700
H  0.86000 13.70800 24.69100
H  2.41600 13.95500 25.52900
H  1.09900 14.45700 26.31000
H  0.25200 11.91800 30.75100
H  4.12800 12.51200 32.39600
H  3.37900 11.32200 33.44200
H  3.09300 12.97300 33.93500
Mg -10.57000 17.27100 40.92400
C  -7.24300 16.77300 40.95500
C  -10.09000 20.61600 40.46400
C  -13.90200 17.62800 40.63100
C  -10.98000 13.78100 40.37400
N  -8.88900 18.51900 40.76900
C  -7.64600 18.08800 40.76300
C  -6.62600 19.20700 40.35400
C  -7.49200 20.54000 40.55400
C  -8.94000 19.88300 40.55100
C  -7.25300 21.38900 41.80900
C  -6.12200 19.11200 38.88500
C  -4.70000 18.64100 38.53600
H  -4.55000 17.30100 37.75100
N  -11.88800 18.88300 40.71700
C  -11.50200 20.20400 40.50000
C  -12.53500 21.10800 40.53500
C  -13.75800 20.32500 40.48800
C  -13.26800 18.85100 40.63500
C  -12.31900 22.59800 40.33400
C  -15.19200 20.84600 40.22100
O  -15.42100 22.02600 39.91600
C  -16.35300 19.96400 40.56300
N  -12.14800 15.92000 40.58900
C  -13.41600 16.31200 40.52800
C  -14.39900 15.17100 40.37600
C  -13.47500 14.04400 39.82200
C  -12.10900 14.59700 40.26300
C  -15.12100 14.85300 41.72600
C  -13.51900 13.83900 38.34000
C  -13.94600 12.42300 37.95600
N  -9.41800 15.56100 40.81000
C  -9.70700 14.17700 40.75700
C  -8.44200 13.39600 40.81900
C  -7.48800 14.37900 40.88200
C  -8.07100 15.64300 41.04800
C  -8.21900 11.92300 40.74500
C  -6.00900 14.61200 40.89500
O  -5.09400 13.85300 40.78500
C  -5.86400 16.22800 41.10100
C  -5.22600 16.40100 42.46400
O  -5.58200 15.88700 43.50800
O  -4.18000 17.29900 42.31600
C  -3.48000 17.55000 43.63900
H  -9.85200 21.66300 40.26200
H  -14.99100 17.70700 40.63000
H  -11.07400 12.72800 40.10100
H  -5.77300 19.23800 41.03200
H  -7.37700 21.22900 39.71800
H  -8.13700 21.53600 42.43000
H  -6.91700 22.35900 41.44200
H  -6.45500 20.92200 42.38600
H  -6.28000 20.06100 38.37200
H  -6.73400 18.32400 38.44600
H  -4.12200 18.57600 39.45900
H  -4.17400 19.36000 37.90800
H  -11.84400 22.94800 41.25100
H  -13.13400 23.20200 39.93500
H  -11.54500 22.79900 39.59300
H  -16.64500 19.24400 39.79900
H  -17.26700 20.54200 40.69800
H  -16.17800 19.39400 41.47500
H  -15.16700 15.55900 39.70700
H  -13.74500 13.11800 40.33000
H  -16.19000 14.78200 41.52600
H  -14.80900 15.60500 42.45100
H  -14.94700 13.88600 42.19800
H  -12.57700 14.13400 37.87700
H  -14.18200 14.60900 37.94400
H  -14.84500 12.60800 37.36700
H  -14.23500 11.78600 38.79100
H  -13.11000 11.93500 37.45400
H  -7.18800 11.63400 40.94800
H  -8.42300 11.64300 39.71100
H  -8.75100 11.39200 41.53400
H  -5.17000 16.61100 40.35300
H  -2.79900 18.37900 43.44600
H  -2.85100 16.70600 43.92500
H  -4.11600 17.85400 44.47000

