158

Mg 42.94400 2.80400 47.65200
C  40.61900 5.27500 47.19000
C  40.38900 0.43600 47.47100
C  45.16900 0.44600 46.86600
C  45.48100 5.21200 47.04700
N  40.80000 2.84200 47.32300
C  40.06600 3.99800 47.15200
C  38.58000 3.70000 46.83200
C  38.53100 2.17200 47.11500
C  40.00600 1.77600 47.34300
C  37.52700 1.74900 48.20100
C  38.35900 4.11700 45.35100
C  37.20900 5.12700 45.03700
H  37.43200 6.06800 43.80500
N  42.86400 0.72400 47.42700
C  41.71800 -0.04000 47.41900
C  42.05800 -1.51000 47.20300
C  43.48000 -1.51000 46.94800
C  43.92300 -0.08400 47.13500
C  41.02500 -2.59800 47.20400
C  44.28100 -2.78400 46.68300
O  43.77400 -3.90700 46.57900
C  45.74200 -2.76000 46.46600
N  45.01800 2.78300 47.11400
C  45.75000 1.69400 46.83100
C  47.25700 1.94000 46.57000
C  47.35600 3.50800 46.71400
C  45.84600 3.86100 46.93000
C  48.21200 1.11000 47.47600
C  47.96200 4.20900 45.41400
C  48.86200 5.44800 45.69800
N  43.06600 4.88900 47.29200
C  44.14100 5.71100 47.18900
C  43.69700 7.03400 46.93000
C  42.30300 6.97200 47.03100
C  42.00500 5.57700 47.24000
C  44.58100 8.26000 46.88600
C  41.03600 7.68200 46.95300
O  40.75500 8.84300 46.76500
C  39.92100 6.63100 47.09600
C  39.25400 6.83300 48.45200
O  39.75200 6.48900 49.55200
O  37.93900 7.29600 48.32600
C  37.19500 7.54600 49.58500
H  39.60000 -0.30900 47.35100
H  45.83600 -0.32200 46.46700
H  46.20300 6.02500 46.95000
H  37.90600 4.20700 47.52300
H  38.33600 1.56500 46.23100
H  37.06300 2.63300 48.63700
H  38.06600 1.30100 49.03500
H  36.72300 1.13900 47.78800
H  38.06900 3.18900 44.85900
H  39.31900 4.36000 44.89500
H  37.05600 5.79200 45.88600
H  36.34300 4.50300 44.81700
H  41.33800 -3.33700 46.46700
H  40.04900 -2.25500 46.85900
H  40.97400 -3.20800 48.10600
H  46.10400 -2.19000 45.61000
H  46.17900 -3.75600 46.40000
H  46.13300 -2.26100 47.35300
H  47.40600 1.52400 45.57400
H  48.00400 3.86000 47.51700
H  47.60000 0.80000 48.32400
H  48.91800 1.78300 47.96400
H  48.67500 0.31300 46.89600
H  47.16800 4.65500 44.81400
H  48.52100 3.51800 44.78400
H  49.45900 5.75300 44.83900
H  49.50400 5.33700 46.57200
H  48.26800 6.27000 46.09800
H  45.21300 8.22000 45.99900
H  45.22200 8.36100 47.76200
H  43.97800 9.16800 46.87300
H  39.15300 6.82800 46.34800
H  37.49100 6.88900 50.40300
H  36.13800 7.43500 49.34500
H  37.35100 8.58500 49.87500
Mg -4.71000 24.88500 25.89800
C  -2.89500 26.44500 28.51000
C  -5.74400 22.63400 28.13800
C  -6.36400 23.56000 23.47800
C  -3.11000 27.13100 23.59900
N  -4.38200 24.69000 28.05300
C  -3.73700 25.46100 28.90800
C  -4.07600 25.15900 30.39300
C  -4.71200 23.78900 30.22100
C  -5.03000 23.67700 28.69900
C  -3.79800 22.64000 30.70000
C  -5.09600 26.25700 30.88800
C  -5.02300 26.43000 32.44500
H  -4.62300 25.24700 33.33500
N  -5.95700 23.33100 25.82300
C  -6.18600 22.45900 26.80500
C  -6.88600 21.29000 26.27300
C  -7.15200 21.52100 24.88800
C  -6.50300 22.84300 24.68500
C  -7.47300 20.16700 27.20700
C  -7.97400 20.77300 23.87000
O  -8.26500 21.27700 22.79500
C  -8.54000 19.38100 24.18300
N  -4.89400 25.48400 23.85500
C  -5.60800 24.67200 23.08000
C  -5.41300 24.85400 21.57000
C  -4.45400 26.09600 21.58900
C  -4.14200 26.31500 23.10200
C  -4.76600 23.59500 20.95100
C  -5.03800 27.31400 20.89200
C  -4.20500 27.76200 19.70800
N  -3.25400 26.41700 25.96600
C  -2.73200 27.24400 24.96000
C  -1.81700 28.22400 25.60100
C  -1.89100 27.99400 26.96000
C  -2.70600 26.81700 27.16700
C  -1.15400 29.33600 24.90500
C  -1.31900 28.43300 28.27200
O  -0.48100 29.30400 28.51300
C  -2.11000 27.48400 29.37200
C  -1.12500 26.79200 30.22600
O  -0.24700 26.06900 29.92100
O  -1.44600 27.11700 31.52900
C  -0.58300 26.72300 32.66100
H  -6.19400 21.91500 28.82500
H  -6.88100 23.15500 22.60600
H  -2.74800 27.77800 22.79800
H  -3.20600 25.19000 31.04900
H  -5.58100 23.72400 30.87500
H  -4.41900 22.01600 31.34300
H  -3.02700 22.96900 31.39700
H  -3.37200 22.06800 29.87500
H  -6.11700 26.03300 30.57900
H  -4.87600 27.24400 30.48100
H  -5.99400 26.69100 32.86800
H  -4.25600 27.17400 32.65800
H  -6.79500 19.31400 27.22400
H  -8.48300 20.06100 26.81200
H  -7.56900 20.64600 28.18100
H  -7.72700 18.71800 24.47700
H  -8.98600 19.06900 23.23800
H  -9.25800 19.37500 25.00300
H  -6.42100 24.99700 21.18000
H  -3.50400 25.85900 21.10900
H  -4.70600 22.74900 21.63600
H  -3.78200 23.71000 20.49700
H  -5.38900 23.37600 20.08400
H  -5.10600 28.16900 21.56400
H  -6.06800 27.18200 20.56000
H  -4.82600 28.36900 19.04900
H  -3.96900 26.88800 19.10000
H  -3.36100 28.31900 20.11500
H  -0.08400 29.24000 25.08800
H  -1.34700 30.35600 25.23800
H  -1.28700 29.15600 23.83800
H  -2.73100 28.17300 29.94600
H  0.22300 27.45300 32.73700
H  -0.05100 25.81200 32.38400
H  -0.98800 26.68500 33.67200

