158

Mg 46.86200 34.90700 26.21800
C  45.37700 33.77600 29.00400
C  47.59100 37.91400 27.74200
C  48.12400 36.06800 23.25100
C  46.10800 31.85400 24.59000
N  46.46000 35.74600 28.09500
C  46.04500 35.00300 29.13000
C  46.12200 35.80900 30.43300
C  46.65900 37.23000 29.97100
C  46.95900 36.88100 28.53800
C  45.67500 38.46600 30.05400
C  47.10900 35.11000 31.40600
C  46.81400 35.09700 32.89000
H  45.95800 36.21200 33.49000
N  47.77200 36.79400 25.57200
C  47.88100 37.88900 26.33700
C  48.49400 38.92900 25.56600
C  48.72900 38.41200 24.25000
C  48.27700 37.02200 24.33100
C  48.83900 40.24600 26.13600
C  49.34000 39.12000 23.01900
O  49.52400 38.60300 21.87600
C  50.04700 40.41900 23.22200
N  46.94600 34.14300 24.16200
C  47.68700 34.78800 23.18100
C  47.73700 33.93200 21.92400
C  46.95700 32.59000 22.29100
C  46.74700 32.80100 23.78400
C  47.25700 34.57800 20.63200
C  47.87500 31.34100 22.08300
C  48.56700 31.18100 20.71300
N  45.91200 33.14100 26.63800
C  45.66600 31.98200 25.88800
C  44.95100 31.11400 26.69000
C  44.72600 31.75500 27.87700
C  45.39100 32.99700 27.83300
C  44.62100 29.73800 26.27700
C  44.14400 31.58600 29.17500
O  43.46000 30.70800 29.64700
C  44.59900 32.95400 29.97600
C  45.17800 32.37500 31.20100
O  46.26700 31.81300 31.35700
O  44.20900 32.54000 32.16100
C  44.40900 31.69300 33.33800
H  47.89400 38.78600 28.32400
H  48.42500 36.52300 22.30400
H  45.88500 30.92800 24.05600
H  45.13400 35.83100 30.89200
H  47.53700 37.60800 30.49500
H  44.69300 38.25500 30.47700
H  45.51100 38.91200 29.07300
H  46.08000 39.25100 30.69300
H  48.10100 35.56200 31.38100
H  47.18200 34.09100 31.02700
H  47.81200 35.16100 33.32500
H  46.36100 34.15400 33.19400
H  48.38800 41.11700 25.66000
H  49.89700 40.47900 26.25200
H  48.38000 40.34800 27.12000
H  49.31500 41.22500 23.16700
H  50.84700 40.64800 22.51800
H  50.50000 40.48800 24.21100
H  48.80700 33.81100 21.75200
H  46.05300 32.44200 21.70000
H  46.63400 35.42700 20.91100
H  46.62700 33.81400 20.17400
H  48.08300 34.87400 19.98600
H  47.30300 30.44000 22.30600
H  48.64600 31.30900 22.85200
H  49.28900 30.36800 20.78800
H  49.18900 32.03900 20.45900
H  47.79800 31.03700 19.95400
H  43.60000 29.77500 25.89900
H  44.62800 28.97700 27.05800
H  45.35200 29.40500 25.54000
H  43.67400 33.49100 30.18500
H  44.63100 32.48400 34.05400
H  45.12200 30.86800 33.31000
H  43.40500 31.31700 33.53500
Mg 26.48300 50.93100 26.31000
C  24.71700 52.06500 28.92000
C  28.73800 49.70500 28.39300
C  28.00600 49.81900 23.66400
C  24.21600 52.73100 24.08900
N  26.86400 51.18800 28.47000
C  25.82200 51.40800 29.37000
C  26.16200 50.87800 30.82300
C  27.59700 50.32500 30.68300
C  27.76600 50.41900 29.07700
C  28.69100 51.06500 31.52300
C  25.08200 49.99200 31.46100
C  24.48000 50.26600 32.83000
H  25.51300 50.91100 33.71700
N  28.14300 49.86200 26.04200
C  28.99300 49.48000 26.99100
C  30.07500 48.79600 26.38600
C  29.79000 48.67800 25.03500
C  28.59600 49.43300 24.84700
C  31.23300 48.19300 27.31400
C  30.49100 47.75100 24.06500
O  30.06700 47.62700 22.93500
C  31.69100 46.88800 24.50600
N  26.32800 51.49000 24.13000
C  27.01100 50.71400 23.21600
C  26.54200 50.86100 21.75900
C  25.28500 51.74300 21.98800
C  25.24600 52.04100 23.48700
C  27.61600 51.38200 20.77000
C  23.95200 51.05000 21.63400
C  22.74900 51.89300 21.15100
N  24.92100 52.24200 26.37900
C  24.07900 52.88900 25.46100
C  23.01100 53.60600 26.16200
C  23.25100 53.28600 27.48000
C  24.41000 52.48900 27.59200
C  21.90400 54.51400 25.61700
C  22.70300 53.41500 28.79400
O  21.78100 53.95200 29.35300
C  23.72600 52.67300 29.80500
C  24.23900 53.86000 30.55700
O  25.17800 54.54700 30.16000
O  23.49200 54.01200 31.71300
C  24.17900 54.81800 32.69200
H  29.37500 49.12000 29.05900
H  28.49500 49.31500 22.82700
H  23.53500 53.15700 23.34900
H  26.33500 51.77900 31.41100
H  27.56100 49.29800 31.04700
H  29.33500 50.43800 32.14000
H  28.28600 51.79100 32.22800
H  29.29200 51.70800 30.88000
H  25.43100 48.96400 31.35800
H  24.23100 50.11100 30.79000
H  24.17000 49.32400 33.28300
H  23.60800 50.92000 32.81400
H  31.21300 48.36000 28.39100
H  32.21000 48.60200 27.05800
H  31.13100 47.11300 27.21100
H  31.26800 46.07100 25.09000
H  32.54700 47.37300 24.97600
H  32.04200 46.50600 23.54700
H  26.21000 49.88700 21.39800
H  25.43600 52.71200 21.51300
H  28.56300 51.28600 21.30000
H  27.37500 52.41100 20.50200
H  27.58200 50.82800 19.83100
H  23.65100 50.36300 22.42500
H  24.26100 50.40600 20.81100
H  22.46400 51.58500 20.14500
H  22.94900 52.96400 21.18900
H  21.90900 51.67000 21.80800
H  21.34100 54.06400 24.79900
H  22.45500 55.35900 25.20400
H  21.35600 54.69200 26.54200
H  23.22900 52.01200 30.51500
H  23.57000 55.03600 33.57000
H  24.48700 55.76400 32.24700
H  25.11300 54.36200 33.01900

