158

Mg 47.74300 15.25700 27.45700
C  45.58600 14.98000 30.26100
C  49.63000 17.39900 29.32100
C  49.68800 15.36100 24.87100
C  45.40400 13.32400 25.67300
N  47.65100 16.02900 29.57900
C  46.73400 15.74600 30.60800
C  47.05500 16.42200 31.94000
C  48.13400 17.47000 31.43200
C  48.57600 16.87000 30.03300
C  47.54500 18.90200 31.32500
C  47.60500 15.38400 32.98300
C  47.07400 15.58500 34.42900
H  48.12600 15.43800 35.58000
N  49.44000 16.22300 27.15900
C  50.08600 17.02800 28.04200
C  51.34700 17.36900 27.45700
C  51.38200 16.84600 26.10500
C  50.11600 16.13900 25.98100
C  52.45500 18.04000 28.22800
C  52.46600 16.86600 25.02800
O  52.28300 16.37500 23.88100
C  53.76200 17.54800 25.22100
N  47.54000 14.44700 25.55600
C  48.56300 14.61700 24.61900
C  48.28800 13.87500 23.35200
C  46.90800 13.13900 23.62500
C  46.61500 13.67100 25.07700
C  48.18100 14.78500 22.11300
C  47.02200 11.62400 23.65200
C  47.61100 10.85300 22.48000
N  45.85300 14.40300 27.87600
C  45.03900 13.68200 27.03400
C  43.82300 13.35300 27.74600
C  43.97000 13.80200 29.09000
C  45.25300 14.48200 29.05500
C  42.58300 12.54200 27.12700
C  43.40100 13.87100 30.37800
O  42.27800 13.55400 30.74300
C  44.50100 14.59000 31.28300
C  43.80900 15.71400 31.95500
O  43.72600 16.87200 31.56900
O  43.48200 15.32400 33.27300
C  42.97300 16.40400 34.18300
H  50.24600 18.05100 29.94300
H  50.46300 15.08100 24.15500
H  44.63600 12.75300 25.14900
H  46.23400 16.97400 32.39800
H  49.06500 17.47800 32.00100
H  48.29400 19.64700 31.59200
H  46.65900 18.93600 31.95900
H  47.33900 19.27700 30.32200
H  48.68900 15.48800 32.94200
H  47.28700 14.37800 32.70800
H  46.40800 14.76700 34.70200
H  46.60400 16.54400 34.64900
H  51.94000 18.42200 29.10900
H  52.86600 18.81500 27.58000
H  53.11900 17.27400 28.63000
H  53.64800 18.62600 25.33100
H  54.33500 17.28700 24.33100
H  54.12500 17.16900 26.17700
H  49.11100 13.20100 23.11500
H  46.12200 13.42800 22.92800
H  49.19700 14.73500 21.72300
H  47.94600 15.83600 22.28300
H  47.57800 14.21800 21.40400
H  46.00400 11.29300 23.86000
H  47.64000 11.35700 24.50900
H  46.92400 10.08600 22.12200
H  48.58100 10.47700 22.80600
H  47.88000 11.43300 21.59700
H  42.21400 11.63700 27.61100
H  42.76900 12.24100 26.09600
H  41.65600 13.11600 27.15500
H  44.72500 13.91600 32.11000
H  42.80000 15.92000 35.14500
H  42.02700 16.88300 33.93400
H  43.70600 17.19700 34.33400
Mg 29.24800 59.74700 41.48900
C  26.09100 58.80900 40.37800
C  30.44100 56.78900 40.13700
C  32.26900 61.00200 41.68600
C  27.90300 62.79200 42.51600
N  28.43300 58.15400 40.22400
C  27.03000 57.91100 39.95500
C  26.85800 56.53300 39.23900
C  28.16600 55.85600 39.68300
C  29.12900 57.02500 40.01800
C  27.94500 54.86400 40.88700
C  26.53800 56.65400 37.65600
C  25.30200 55.87800 37.13200
H  25.03000 55.82700 35.62000
N  31.12300 58.94600 41.07100
C  31.45200 57.72800 40.48400
C  32.82500 57.60100 40.51000
C  33.40200 58.85400 40.89000
C  32.24900 59.70600 41.17200
C  33.47600 56.31300 40.01200
C  34.90700 59.12900 40.86300
O  35.62500 58.20700 40.64000
C  35.46600 60.56900 41.09500
N  29.95400 61.68200 42.03300
C  31.29800 61.92700 42.02800
C  31.56600 63.39300 42.62800
C  30.12900 63.82100 43.03000
C  29.25800 62.74700 42.43400
C  32.70400 63.54700 43.67500
C  29.81200 65.33800 42.77400
C  29.17200 65.62300 41.39600
N  27.36200 60.64900 41.65800
C  26.97300 61.88000 42.08900
C  25.48300 61.91700 42.05000
C  25.10200 60.76900 41.31700
C  26.29100 60.09500 41.06000
C  24.65300 62.97800 42.43000
C  24.02100 59.97300 40.89800
O  22.81500 60.11700 40.97300
C  24.64800 58.71600 40.18700
C  24.04800 57.48000 40.73000
O  24.36500 56.97200 41.78200
O  23.01100 56.98000 39.95300
C  22.46800 55.71100 40.34000
H  30.77500 55.80800 39.79400
H  33.24500 61.45300 41.87900
H  27.48700 63.75300 42.82800
H  25.94100 56.03200 39.54900
H  28.58200 55.28200 38.85500
H  28.67300 54.06500 40.74700
H  26.93300 54.46000 40.91200
H  28.23000 55.36600 41.81100
H  27.39600 56.34800 37.05700
H  26.49700 57.72100 37.43700
H  24.41800 56.31300 37.59900
H  25.17800 54.86800 37.52300
H  33.91100 56.54700 39.04100
H  32.80200 55.45700 39.99400
H  34.27400 56.06200 40.71100
H  34.83000 61.14300 40.42000
H  36.54200 60.60500 40.92400
H  35.33700 60.73700 42.16400
H  31.83300 63.94500 41.72700
H  30.07500 63.80000 44.11800
H  33.67500 63.40000 43.20200
H  32.67500 62.87500 44.53300
H  32.85600 64.58400 43.97300
H  30.69400 65.95300 42.95600
H  29.11300 65.48900 43.59700
H  28.10600 65.77000 41.57100
H  29.25100 64.83100 40.65200
H  29.52000 66.60700 41.08100
H  23.69100 62.77200 41.96100
H  25.13600 63.88300 42.06100
H  24.37000 63.01900 43.48200
H  24.47400 58.76100 39.11100
H  23.25800 55.04700 39.98900
H  21.63500 55.41700 39.70100
H  22.27800 55.50000 41.39200

