158

Mg -10.28500 38.53900 41.60800
C  -8.77700 35.62700 40.32300
C  -7.95300 40.39800 39.89700
C  -12.12600 41.33400 42.23100
C  -12.84000 36.59200 42.98700
N  -8.67900 38.00500 40.08400
C  -8.18600 36.76300 39.86200
C  -7.02000 36.85900 38.83100
C  -6.51400 38.30500 39.19500
C  -7.81700 38.99400 39.75100
C  -5.35700 38.38400 40.20600
C  -7.61200 36.68600 37.40400
C  -7.00900 35.53000 36.51200
H  -6.46300 35.98000 35.14400
N  -9.99800 40.54800 41.24000
C  -8.96600 41.10900 40.55300
C  -9.16600 42.59300 40.53200
C  -10.31500 42.96600 41.26100
C  -10.91400 41.61200 41.64500
C  -8.10400 43.57000 39.87500
C  -10.79600 44.25500 41.61700
O  -10.05700 45.24500 41.46300
C  -12.03600 44.42900 42.45900
N  -12.19300 38.81800 42.32400
C  -12.72200 40.12200 42.52100
C  -14.13000 40.12600 43.08300
C  -14.35400 38.53600 43.22800
C  -13.05700 37.94200 42.82500
C  -14.49400 40.95000 44.34100
C  -15.51500 38.06600 42.40300
C  -16.86100 38.12900 43.11100
N  -10.73700 36.51100 41.69100
C  -11.74800 35.83300 42.40500
C  -11.47300 34.40100 42.32700
C  -10.39900 34.31300 41.46300
C  -9.97100 35.61400 41.08700
C  -12.15400 33.28100 43.09800
C  -9.51400 33.29800 40.80600
O  -9.51700 32.12800 40.90500
C  -8.41100 34.12800 40.00300
C  -7.04400 33.79700 40.51500
O  -6.57800 34.31600 41.53300
O  -6.37900 32.95600 39.66600
C  -4.96700 32.61600 39.99500
H  -7.14800 40.91600 39.37100
H  -12.77500 42.19400 42.40700
H  -13.62900 35.96300 43.40400
H  -6.36500 36.00000 38.98000
H  -6.20900 38.83600 38.29300
H  -4.97300 37.36400 40.21200
H  -5.60300 38.57300 41.25100
H  -4.59800 39.08000 39.84800
H  -7.51600 37.66100 36.92600
H  -8.68100 36.47800 37.44000
H  -7.85500 34.86800 36.32600
H  -6.18700 35.03400 37.02800
H  -7.95200 44.44200 40.51100
H  -8.45500 43.89300 38.89500
H  -7.13300 43.07400 39.89900
H  -11.80900 43.87800 43.37200
H  -12.95900 44.14500 41.95500
H  -12.12500 45.48900 42.69500
H  -14.61900 40.56900 42.21500
H  -14.54500 38.37000 44.28900
H  -15.33200 40.64000 44.96500
H  -14.82700 41.93600 44.01800
H  -13.53600 40.92100 44.86100
H  -15.36500 37.07500 41.97400
H  -15.69100 38.83000 41.64500
H  -17.63300 38.76900 42.68300
H  -16.86700 38.28400 44.19000
H  -17.26600 37.12500 42.99100
H  -13.22500 33.14800 42.95100
H  -11.89400 33.32600 44.15500
H  -11.67700 32.36700 42.74300
H  -8.57500 34.02600 38.93000
H  -4.45000 33.42200 40.51600
H  -4.35100 32.42600 39.11600
H  -4.87000 31.70600 40.58700
Mg -11.70400 16.19500 41.59300
C  -8.62000 14.54100 41.35200
C  -10.33400 18.80500 39.86500
C  -14.79700 17.55900 41.45500
C  -13.00300 13.17800 42.81900
N  -9.64300 16.59400 40.75700
C  -8.53600 15.75800 40.73900
C  -7.35000 16.38000 40.07800
C  -7.96600 17.83500 39.65900
C  -9.39700 17.78500 40.18800
C  -7.24400 19.13200 40.12200
C  -6.73000 15.65200 38.87300
C  -5.15300 15.88500 38.84600
H  -4.57200 16.59500 37.60600
N  -12.38800 18.00200 40.85500
C  -11.70200 18.91800 40.21400
C  -12.54800 20.01200 39.93400
C  -13.83400 19.79100 40.49000
C  -13.73200 18.41500 40.98500
C  -11.97600 21.21200 39.19700
C  -15.10800 20.65000 40.46100
O  -15.06300 21.78800 39.94500
C  -16.39400 20.28400 41.16500
N  -13.65700 15.49600 42.08900
C  -14.75900 16.19100 41.90900
C  -16.06300 15.34000 42.20600
C  -15.45100 13.94800 42.63500
C  -13.92100 14.19600 42.51200
C  -16.92700 15.93600 43.37900
C  -15.96300 12.75200 41.84400
C  -15.83500 11.42200 42.64000
N  -11.06200 14.26100 42.09900
C  -11.69400 13.15100 42.61900
C  -10.73900 12.06800 42.67200
C  -9.51700 12.55100 42.16700
C  -9.78200 13.90400 41.85900
C  -11.11400 10.67500 43.18800
C  -8.07300 12.21800 41.97900
O  -7.43500 11.21900 42.32300
C  -7.44200 13.53400 41.51900
C  -6.48300 13.93800 42.52200
O  -6.69100 14.16900 43.74200
O  -5.30300 14.19500 41.87000
C  -4.21100 14.90000 42.60900
H  -9.89200 19.61900 39.28600
H  -15.84200 17.85900 41.35100
H  -13.49000 12.29200 43.23300
H  -6.57000 16.42500 40.83800
H  -7.95400 17.94700 38.57500
H  -6.41200 18.91700 40.79200
H  -7.94400 19.71200 40.72200
H  -6.93600 19.62600 39.20100
H  -7.15800 16.08000 37.96500
H  -6.97000 14.59000 38.82900
H  -4.60800 14.98600 39.13100
H  -4.87400 16.49200 39.70800
H  -12.74300 21.93800 38.92600
H  -11.42900 20.99300 38.28000
H  -11.43800 21.76200 39.96900
H  -16.82400 19.49700 40.54400
H  -17.11200 21.09700 41.05800
H  -16.21800 19.86500 42.15600
H  -16.64000 15.29400 41.28300
H  -15.77500 13.78300 43.66300
H  -16.66300 16.98800 43.48600
H  -16.73400 15.59700 44.39700
H  -18.00600 15.95600 43.22500
H  -15.41000 12.74400 40.90500
H  -17.02000 12.75700 41.57700
H  -16.66400 10.75000 42.41600
H  -15.69100 11.65200 43.69500
H  -14.98000 10.94800 42.15500
H  -10.27200 10.01100 42.98800
H  -12.02400 10.46400 42.62600
H  -11.42100 10.54500 44.22600
H  -6.97500 13.34900 40.55200
H  -4.42300 15.27900 43.60900
H  -3.89300 15.78200 42.05400
H  -3.37400 14.21600 42.74500

