158

Mg 3.22600 -0.91100 44.03200
C  5.61000 1.57900 43.72700
C  0.93100 1.07000 42.53500
C  1.09000 -3.56600 43.95600
C  5.92900 -3.24100 44.78600
N  3.27800 1.13400 43.08300
C  4.27600 2.00900 43.29000
C  3.90200 3.41700 42.90900
C  2.37300 3.22300 42.67700
C  2.15600 1.66700 42.74700
C  1.38900 3.97900 43.61600
C  4.74600 3.98300 41.71700
C  4.62700 3.24900 40.33600
H  5.78400 2.37900 39.80400
N  1.25100 -1.19400 43.42200
C  0.45500 -0.22700 42.86600
C  -0.86900 -0.80300 42.54900
C  -0.84700 -2.14900 43.01900
C  0.56000 -2.33300 43.55300
C  -1.96200 -0.08000 41.95500
C  -1.95700 -3.17000 42.87100
O  -2.99300 -2.83700 42.33200
C  -1.92000 -4.62900 43.45200
N  3.45500 -3.10800 44.28800
C  2.38600 -3.93100 44.37400
C  2.77300 -5.35300 44.69300
C  4.29300 -5.19900 45.03200
C  4.62500 -3.77500 44.60700
C  1.93900 -5.98200 45.77200
C  5.16600 -6.36000 44.40600
C  6.23800 -7.05500 45.28000
N  5.30500 -0.92200 44.35400
C  6.31800 -1.83900 44.61900
C  7.61000 -1.28800 44.67000
C  7.33000 0.10600 44.36500
C  5.98800 0.23700 44.10900
C  8.92500 -2.03700 44.79900
C  7.99000 1.41900 44.26900
O  9.13500 1.80600 44.46000
C  6.87900 2.36300 43.83000
C  6.72400 3.40700 44.89400
O  7.11000 4.56900 44.76800
O  6.19900 2.89300 46.06600
C  6.55800 3.59100 47.31200
H  0.15300 1.80700 42.32600
H  0.46300 -4.45900 43.94100
H  6.68500 -3.99600 45.01000
H  3.99800 4.18400 43.67700
H  2.19900 3.55400 41.65300
H  1.91900 4.39100 44.47500
H  0.67300 3.28300 44.05400
H  0.78600 4.68800 43.05000
H  5.77400 4.26000 41.95100
H  4.35100 4.99400 41.61600
H  4.54200 4.01600 39.56700
H  3.66400 2.74400 40.39900
H  -2.13400 -0.16500 40.88200
H  -1.74300 0.98600 41.90600
H  -2.84800 -0.12500 42.58800
H  -1.34900 -5.25000 42.76200
H  -2.95300 -4.96300 43.54200
H  -1.50200 -4.51600 44.45300
H  2.68700 -6.00400 43.82400
H  4.41700 -5.32500 46.10700
H  1.20900 -6.68300 45.36800
H  1.31200 -5.24500 46.27300
H  2.54900 -6.60000 46.43200
H  5.70300 -5.89600 43.57800
H  4.54600 -7.03900 43.81900
H  6.13100 -8.13300 45.40500
H  6.10100 -6.68900 46.29700
H  7.22500 -6.76100 44.92300
H  9.69900 -1.54100 44.21400
H  8.88600 -3.02400 44.33900
H  9.21800 -2.14900 45.84300
H  7.32300 2.79300 42.93200
H  5.65500 4.03000 47.73600
H  7.21500 4.45900 47.25600
H  6.92100 2.96400 48.12600
Mg -9.69100 17.56600 42.58300
C  -6.39700 16.71800 42.02300
C  -8.89900 20.71600 41.46400
C  -13.06400 18.14600 42.30700
C  -10.49900 14.21000 43.07500
N  -7.84900 18.61200 41.90500
C  -6.58400 18.09100 41.81500
C  -5.48100 19.04200 41.39200
C  -6.31400 20.31900 41.16100
C  -7.79100 19.86600 41.51600
C  -5.82100 21.64000 42.01300
C  -4.63400 18.72800 40.14400
C  -5.41300 17.90500 38.99900
H  -5.40200 18.60300 37.62400
N  -10.80800 19.21000 42.21500
C  -10.30000 20.41600 41.73400
C  -11.41900 21.38000 41.61100
C  -12.61900 20.62600 41.89500
C  -12.19500 19.26900 42.14600
C  -11.24700 22.80800 41.16500
C  -13.95300 21.29400 41.96300
O  -14.18800 22.34700 41.36700
C  -15.13400 20.59900 42.63400
N  -11.54300 16.33500 42.61700
C  -12.75500 16.87100 42.66000
C  -13.81500 15.90000 43.15400
C  -12.99600 14.60900 43.48300
C  -11.54700 15.11000 43.01400
C  -14.63200 16.44400 44.41000
C  -13.43400 13.39000 42.61900
C  -13.84000 12.20100 43.48200
N  -8.69600 15.80400 42.68800
C  -9.10600 14.50500 42.88300
C  -7.96900 13.61100 42.94300
C  -6.89200 14.47700 42.61200
C  -7.37400 15.73700 42.38400
C  -7.88900 12.13700 43.40100
C  -5.46400 14.52100 42.42100
O  -4.75400 13.60200 42.51200
C  -5.03300 16.01300 41.99500
C  -4.19800 16.42600 43.16100
O  -3.01200 16.84300 43.11600
O  -4.91800 16.31600 44.30900
C  -4.33100 16.51100 45.59700
H  -8.69100 21.70000 41.03900
H  -14.14100 18.32100 42.34800
H  -10.72400 13.15800 43.26300
H  -4.83100 19.11400 42.26400
H  -6.44200 20.60100 40.11600
H  -5.54200 22.40100 41.28500
H  -4.94900 21.39500 42.61800
H  -6.55300 22.09400 42.68200
H  -3.78700 18.21100 40.59300
H  -4.30000 19.69100 39.75700
H  -6.43800 17.71200 39.31600
H  -4.99600 16.91500 38.81600
H  -10.33400 23.34600 41.42300
H  -11.97400 23.50400 41.58400
H  -11.33900 22.83400 40.07900
H  -14.83000 20.03600 43.51600
H  -15.62700 19.87300 41.98800
H  -15.92000 21.33400 42.80800
H  -14.45000 15.81700 42.27200
H  -13.02600 14.42500 44.55700
H  -15.71600 16.36900 44.32200
H  -14.43500 17.48400 44.66800
H  -14.35600 15.77600 45.22600
H  -12.57100 13.14600 42.00000
H  -14.29800 13.61900 41.99600
H  -14.92800 12.22500 43.54500
H  -13.40000 12.32100 44.47200
H  -13.59200 11.23000 43.05300
H  -7.16600 11.66400 42.73700
H  -8.87100 11.66400 43.36400
H  -7.60300 12.11700 44.45300
H  -4.47200 15.94200 41.06300
H  -4.93700 15.95500 46.31200
H  -4.31000 17.57600 45.82600
H  -3.28900 16.19000 45.62100

