158

Mg 16.82900 -1.22100 28.54200
C  15.82600 0.53400 31.30900
C  18.96200 -2.96600 30.57200
C  18.18300 -2.59600 25.77100
C  14.95600 0.86500 26.48200
N  17.32000 -1.14000 30.72700
C  16.82400 -0.43000 31.65000
C  17.31500 -0.81500 33.04700
C  18.63900 -1.60000 32.75100
C  18.36400 -1.88900 31.30600
C  20.06200 -1.10100 33.13600
C  16.28900 -1.39800 34.02000
C  16.31800 -0.77300 35.44600
H  17.61600 -0.22100 35.93000
N  18.28600 -2.68500 28.28700
C  19.06300 -3.34800 29.21900
C  19.99500 -4.25700 28.47000
C  19.68400 -4.21500 27.10800
C  18.69100 -3.14000 26.97800
C  21.06300 -5.13800 29.22900
C  20.26800 -5.07600 25.90400
O  19.89600 -5.07800 24.72700
C  21.39800 -6.02400 26.13800
N  16.55600 -0.98400 26.37900
C  17.25100 -1.61000 25.48100
C  16.86200 -1.18400 24.06800
C  15.69600 -0.25700 24.27800
C  15.75000 -0.04200 25.80200
C  18.09500 -0.60600 23.16800
C  14.26700 -0.70600 23.85000
C  14.02300 -0.66800 22.34200
N  15.67300 0.37500 28.74100
C  14.93200 1.09500 27.85000
C  14.07200 2.10400 28.55200
C  14.38600 1.83600 29.90300
C  15.37400 0.81100 29.98500
C  13.12400 3.17300 27.93000
C  14.07700 2.20100 31.29700
O  13.20800 2.98900 31.70700
C  14.98600 1.44000 32.20000
C  15.88200 2.41200 32.82100
O  16.93200 2.76400 32.39300
O  15.25800 2.90000 33.94600
C  16.11800 3.80500 34.75600
H  19.69000 -3.56400 31.12500
H  18.55500 -3.05900 24.85500
H  14.48300 1.62200 25.85300
H  17.72600 0.09500 33.48700
H  18.44900 -2.52100 33.30200
H  20.57500 -0.78800 32.22600
H  20.61700 -1.88400 33.65400
H  19.93300 -0.24100 33.79300
H  16.33500 -2.48300 34.11100
H  15.30800 -1.29700 33.55500
H  16.02400 -1.50600 36.19700
H  15.58800 0.03200 35.36800
H  21.21600 -4.86700 30.27400
H  21.99300 -4.81300 28.76400
H  20.86600 -6.20800 29.17200
H  22.34200 -5.50900 26.31700
H  21.51600 -6.59100 25.21400
H  21.11700 -6.71200 26.93500
H  16.46200 -2.11700 23.67100
H  15.96600 0.68700 23.80600
H  18.59100 -1.44900 22.68700
H  18.85900 -0.22700 23.84800
H  17.61200 0.09800 22.49000
H  13.54900 0.00600 24.25600
H  14.07600 -1.76000 24.05100
H  13.37100 0.13800 22.00500
H  13.67900 -1.64700 22.00700
H  14.95700 -0.45300 21.82500
H  13.61600 3.56600 27.04000
H  12.96600 4.06800 28.53200
H  12.20400 2.66800 27.63500
H  14.39400 0.92200 32.95500
H  16.02100 3.52000 35.80300
H  15.81200 4.83400 34.57100
H  17.16600 3.67600 34.48600
Mg 46.90800 16.30100 27.66900
C  45.11700 15.99700 30.68400
C  49.49500 17.88000 29.44600
C  48.55900 16.57700 24.84700
C  44.05900 14.94100 26.04600
N  47.28100 16.85800 29.86900
C  46.41700 16.60500 30.87100
C  46.98500 17.16200 32.17300
C  48.22200 18.00200 31.77600
C  48.33400 17.58600 30.28100
C  47.97300 19.53300 32.04300
C  47.17600 15.99900 33.20800
C  47.35100 16.44300 34.65300
H  47.23200 17.94900 35.08900
N  48.76200 17.06000 27.24500
C  49.67600 17.63600 28.04100
C  50.93200 17.83600 27.35600
C  50.68000 17.55800 26.02700
C  49.24300 17.07900 25.99300
C  52.16300 18.31600 28.05800
C  51.66800 17.49100 24.77300
O  51.33600 17.15900 23.65200
C  53.01100 18.02400 24.94300
N  46.30400 15.94500 25.70800
C  47.20400 16.12200 24.66700
C  46.60100 15.70800 23.31200
C  45.25300 14.99400 23.83100
C  45.21300 15.23500 25.29100
C  46.54500 16.93100 22.35900
C  45.31600 13.46700 23.49200
C  44.50200 13.17500 22.22300
N  45.02100 15.51700 28.18400
C  43.94800 15.08100 27.42600
C  42.80100 14.82800 28.23800
C  43.20900 15.13200 29.55300
C  44.54000 15.62200 29.45400
C  41.45200 14.27100 27.79000
C  42.83100 15.11800 30.84500
O  41.81000 14.56100 31.31100
C  43.98400 15.76300 31.74600
C  43.46100 16.95700 32.39900
O  43.26700 18.05600 31.88600
O  43.17400 16.62900 33.73400
C  42.81400 17.71900 34.63600
H  50.15200 18.49700 30.06400
H  49.17100 16.40200 23.95900
H  43.26700 14.49600 25.44000
H  46.16800 17.77400 32.55500
H  49.06900 17.79800 32.43100
H  48.87900 20.09500 32.27100
H  47.28200 19.66100 32.87600
H  47.52500 19.93100 31.13200
H  48.09500 15.49300 32.91300
H  46.32100 15.32400 33.16700
H  48.39000 16.23100 34.90700
H  46.64600 15.83400 35.21800
H  51.91900 19.37800 28.02400
H  53.11200 17.95600 27.66000
H  52.19100 18.14600 29.13400
H  53.46700 17.28300 25.60000
H  53.02700 19.04100 25.33500
H  53.61400 17.94000 24.03900
H  47.22500 14.94100 22.85300
H  44.55000 15.58100 23.24000
H  47.20200 17.69900 22.76700
H  45.52700 17.30600 22.25400
H  46.87900 16.71700 21.34400
H  44.87700 12.95100 24.34500
H  46.30700 13.01400 23.48500
H  45.15000 12.56600 21.59200
H  44.31600 14.09700 21.67200
H  43.54800 12.67000 22.37200
H  40.64200 14.64900 28.41300
H  41.42800 13.19200 27.93800
H  41.14500 14.38300 26.75000
H  44.09500 14.99800 32.51500
H  41.86900 18.10600 34.25400
H  43.59500 18.46700 34.49500
H  42.82400 17.53700 35.71000

