158

Mg 47.60200 25.38500 28.98800
C  48.40200 27.46900 31.72800
C  46.15700 23.12600 31.38700
C  47.34900 23.08300 26.61500
C  49.36400 27.45100 26.93500
N  47.55800 25.21800 31.29600
C  47.71000 26.32200 32.15200
C  47.09700 26.11200 33.51600
C  46.55400 24.60800 33.50200
C  46.75800 24.25000 31.93700
C  47.41400 23.66500 34.43400
C  45.94300 27.13100 33.91700
C  45.92300 27.72700 35.38200
H  46.87900 27.20500 36.48400
N  46.84300 23.39200 28.96300
C  46.26000 22.71100 30.01000
C  45.67100 21.48400 29.51900
C  45.99600 21.41500 28.11900
C  46.70300 22.66900 27.78400
C  45.02400 20.47600 30.26900
C  45.74100 20.30000 27.14400
O  46.15700 20.34100 25.95400
C  44.82400 19.09700 27.45100
N  48.41400 25.21500 27.09900
C  48.11800 24.23400 26.25100
C  48.65700 24.46000 24.89300
C  49.08100 25.92000 24.95600
C  48.99400 26.23800 26.42700
C  49.71900 23.40900 24.39100
C  48.24300 26.83700 24.05900
C  48.97100 27.72100 22.98100
N  48.71500 27.11800 29.24600
C  49.30100 27.89700 28.30700
C  49.85800 29.17900 28.88400
C  49.59100 29.00800 30.28700
C  48.85800 27.78200 30.36600
C  50.59900 30.14100 28.07500
C  49.63100 29.61100 31.61100
O  50.05200 30.71100 31.89300
C  48.92600 28.58800 32.53700
C  49.85500 28.19400 33.62100
O  50.49400 27.15500 33.78100
O  49.94900 29.28000 34.45200
C  50.77100 29.18200 35.67900
H  45.57800 22.48300 32.05300
H  47.27500 22.31800 25.83900
H  49.77600 28.10600 26.16400
H  47.83700 26.14100 34.31500
H  45.50300 24.50100 33.76900
H  46.80600 23.38700 35.29600
H  48.38400 24.04100 34.75900
H  47.58000 22.75500 33.85800
H  44.95700 26.70400 33.73100
H  46.04600 27.98800 33.25100
H  44.91300 27.81400 35.78000
H  46.22400 28.75300 35.17000
H  44.73700 20.63400 31.30900
H  45.47400 19.48800 30.36800
H  44.06600 20.31400 29.77600
H  45.25600 18.52700 28.27400
H  44.65100 18.54000 26.53000
H  43.91000 19.50200 27.88400
H  47.84200 24.38800 24.17200
H  50.11100 26.11100 24.65500
H  49.42700 22.81400 23.52600
H  49.91800 22.70800 25.20300
H  50.65900 23.87700 24.09900
H  47.64000 27.50000 24.67900
H  47.54300 26.31400 23.40800
H  48.57200 27.45300 22.00300
H  50.03500 27.56400 23.16000
H  48.81400 28.75200 23.29600
H  50.84900 29.73600 27.09400
H  51.45700 30.42100 28.68600
H  50.11700 31.11900 28.08600
H  48.10100 29.12000 33.00900
H  51.76500 28.78200 35.48000
H  50.24500 28.57800 36.42000
H  50.95700 30.16900 36.10100
Mg -1.62700 34.29800 26.00500
C  -3.34100 32.76300 28.52800
C  -0.40900 36.59000 28.23700
C  -0.21700 36.01300 23.38000
C  -3.32000 32.24500 23.60000
N  -1.98800 34.71400 28.11100
C  -2.60600 33.86500 28.96100
C  -2.34800 34.21000 30.45700
C  -1.44900 35.50600 30.35500
C  -1.29700 35.67200 28.82200
C  -1.95800 36.74400 31.05300
C  -1.85400 33.02500 31.33900
C  -2.67200 32.70100 32.59500
H  -1.97900 32.35600 34.03200
N  -0.32700 35.96900 25.83500
C  0.01700 36.78000 26.89700
C  1.03500 37.71900 26.42200
C  1.24600 37.36900 25.04500
C  0.21200 36.37500 24.66000
C  1.70500 38.77600 27.34600
C  2.31500 37.93900 24.06100
O  2.33300 37.54900 22.87800
C  3.35600 38.86600 24.55100
N  -1.97100 34.35900 23.83800
C  -1.11700 35.06100 23.04600
C  -1.52200 34.76600 21.56400
C  -2.06800 33.30700 21.68200
C  -2.48800 33.26700 23.15100
C  -2.51200 35.80200 20.93000
C  -1.13200 32.16700 21.14000
C  -0.02900 31.62600 22.10200
N  -2.92000 32.77900 25.98000
C  -3.57200 32.06900 24.98300
C  -4.52400 31.13100 25.60800
C  -4.32400 31.30100 27.03700
C  -3.44500 32.39700 27.18200
C  -5.58300 30.19600 24.97900
C  -4.74200 30.78000 28.28600
O  -5.34600 29.76800 28.58700
C  -4.15200 31.74100 29.42400
C  -5.38700 32.28000 30.10800
O  -5.95400 33.22800 29.66900
O  -5.54800 31.76100 31.32000
C  -6.62000 32.31000 32.18300
H  0.16400 37.08900 29.02200
H  0.25600 36.57800 22.57300
H  -3.65200 31.55000 22.82600
H  -3.33200 34.48000 30.84100
H  -0.43000 35.36100 30.71300
H  -1.08600 37.08800 31.60900
H  -2.70600 36.48600 31.80300
H  -2.27300 37.57300 30.41900
H  -0.80700 33.10000 31.63400
H  -1.76000 32.14000 30.71000
H  -3.26500 31.80400 32.41400
H  -3.37500 33.51400 32.77500
H  1.44100 38.79900 28.40300
H  1.45300 39.76700 26.96900
H  2.78800 38.66900 27.28400
H  2.87200 39.69500 25.06800
H  4.01800 39.29700 23.80000
H  4.01500 38.27800 25.19000
H  -0.63400 34.83400 20.93500
H  -2.98400 33.20400 21.10100
H  -3.49300 35.39300 20.68800
H  -2.13100 36.12200 19.96000
H  -2.54300 36.63000 21.63800
H  -0.53000 32.46700 20.28300
H  -1.76600 31.34200 20.81200
H  -0.15300 32.12400 23.06400
H  1.00000 31.78900 21.78200
H  -0.12600 30.55100 22.25200
H  -6.53200 30.22600 25.51400
H  -5.22700 29.22600 25.32500
H  -5.60700 30.41000 23.91000
H  -3.54700 31.10200 30.06600
H  -7.12800 31.43200 32.58200
H  -7.37100 32.85200 31.60900
H  -6.12900 32.90300 32.95500

