158

Mg 29.04300 58.14100 42.00000
C  26.85800 56.07000 40.31300
C  31.67900 56.52400 40.21600
C  31.18900 60.59700 42.91500
C  26.32300 59.89000 43.19600
N  29.17100 56.68900 40.18000
C  28.13700 55.93400 39.76000
C  28.53900 54.76300 38.77100
C  30.07200 54.74100 39.24200
C  30.32800 56.03200 39.94800
C  30.53800 53.47900 40.00400
C  28.29800 55.14400 37.33800
C  27.34500 54.20900 36.60000
H  27.22800 54.14200 35.12100
N  31.13700 58.53000 41.66300
C  32.02100 57.73200 40.95500
C  33.37100 58.19400 41.21900
C  33.20900 59.41500 42.02100
C  31.78900 59.56300 42.20800
C  34.61900 57.41700 40.73800
C  34.39900 60.26500 42.48000
O  35.54900 59.89700 42.21400
C  34.23900 61.53800 43.35900
N  28.81600 59.92200 42.87000
C  29.86600 60.78600 43.23200
C  29.28700 62.09400 43.76100
C  27.80300 61.71000 44.06600
C  27.62400 60.45400 43.25800
C  30.05000 62.78400 44.93700
C  26.75300 62.86700 43.75700
C  25.61500 62.99000 44.76000
N  26.90100 57.92200 42.08400
C  25.94400 58.69800 42.55500
C  24.63300 58.06700 42.24100
C  24.97000 56.99600 41.43700
C  26.37800 56.96600 41.30400
C  23.31200 58.64900 42.65300
C  24.36300 55.94700 40.61800
O  23.19500 55.66100 40.50900
C  25.60700 55.27200 39.94900
C  25.66900 53.88000 40.50400
O  26.40100 53.46300 41.38300
O  24.66600 53.14900 39.89700
C  24.65100 51.74800 40.40200
H  32.49300 55.93100 39.79400
H  31.92800 61.32200 43.26500
H  25.42200 60.44900 43.45900
H  28.04000 53.84000 39.06600
H  30.70100 54.69200 38.35300
H  30.52800 53.76900 41.05400
H  31.51600 53.13700 39.66400
H  29.79500 52.70700 39.80500
H  29.24500 55.05700 36.80500
H  27.98100 56.17400 37.17300
H  26.33900 54.39300 36.97700
H  27.57700 53.18600 36.89800
H  34.42800 56.46200 40.24900
H  35.28300 57.07300 41.53100
H  35.15600 58.01800 40.00500
H  33.81500 62.26500 42.66600
H  35.23400 61.77900 43.73400
H  33.69400 61.10600 44.19800
H  29.30000 62.81900 42.94700
H  27.69400 61.40500 45.10600
H  29.42300 62.94100 45.81500
H  30.36900 63.75900 44.57100
H  30.99300 62.35600 45.27700
H  26.37500 62.64100 42.76000
H  27.27100 63.82000 43.64900
H  25.55400 64.01900 45.11300
H  25.67900 62.36200 45.64800
H  24.68600 62.79500 44.22500
H  23.35000 59.62900 42.17800
H  23.20400 58.84100 43.72100
H  22.53200 58.02600 42.21500
H  25.35500 55.25400 38.88900
H  24.46700 51.76300 41.47600
H  25.58300 51.22000 40.20200
H  23.79800 51.31000 39.88400
Mg 6.61300 53.22600 40.94100
C  5.72300 49.79400 40.46800
C  9.55300 52.71100 39.60900
C  6.89800 56.54000 41.06300
C  3.05800 53.67400 41.82600
N  7.39700 51.41200 39.98500
C  6.93000 50.14700 39.87100
C  8.03100 49.29900 39.24400
C  9.35000 50.09400 39.62500
C  8.75800 51.52000 39.73100
C  10.08600 49.74000 40.92900
C  8.01100 48.87900 37.78600
C  7.49300 49.90300 36.73000
H  6.69700 49.31800 35.55600
N  8.08500 54.49500 40.46000
C  9.30200 54.10200 39.87400
C  10.15600 55.24400 39.90200
C  9.37200 56.36200 40.23200
C  8.05000 55.84200 40.62000
C  11.57500 55.12900 39.42400
C  9.86400 57.77700 40.18700
O  11.06400 57.99100 39.95400
C  9.00900 58.95800 40.41600
N  5.07000 54.88800 41.29300
C  5.54900 56.13300 41.41700
C  4.38800 57.12000 41.75100
C  3.18200 56.17200 42.08900
C  3.77500 54.81500 41.61800
C  4.58100 58.06800 42.98500
C  1.75100 56.51800 41.49800
C  1.32600 55.97200 40.10100
N  4.77100 52.01900 41.30000
C  3.47000 52.35100 41.69400
C  2.70000 51.16700 42.05400
C  3.54300 50.18500 41.47600
C  4.77600 50.73600 41.03000
C  1.31600 50.99600 42.61700
C  3.60900 48.77700 41.12600
O  2.80500 47.87900 41.32500
C  5.07900 48.45100 40.51700
C  4.89000 47.84200 39.18900
O  4.42600 48.40000 38.19900
O  5.19300 46.52100 39.22000
C  5.03000 45.74900 37.99100
H  10.58900 52.58000 39.29000
H  6.98500 57.61100 41.25900
H  2.03200 53.83200 42.16600
H  8.22600 48.36500 39.77000
H  10.14000 49.96600 38.88400
H  11.17100 49.72400 40.82600
H  9.71800 48.77800 41.28600
H  9.78600 50.52000 41.62900
H  7.33100 48.03200 37.69300
H  9.02600 48.63300 37.47200
H  8.31900 50.43200 36.25400
H  6.89700 50.69800 37.17700
H  11.64600 55.89100 38.64800
H  11.85100 54.13600 39.07000
H  12.35200 55.38400 40.14500
H  9.54200 59.77700 39.93300
H  8.93400 59.20800 41.47400
H  8.06500 58.82400 39.88800
H  4.13900 57.58500 40.79700
H  3.11600 55.93300 43.15000
H  3.81800 58.02100 43.76200
H  4.45500 59.03400 42.49500
H  5.56900 57.99700 43.43900
H  1.76500 57.59900 41.35600
H  0.90800 56.23600 42.12900
H  1.10000 56.82600 39.46300
H  0.44400 55.33100 40.12700
H  2.16700 55.52000 39.57700
H  1.40200 50.21700 43.37400
H  0.60600 50.66100 41.86100
H  0.78800 51.87000 42.99900
H  5.51600 47.68500 41.15700
H  4.49100 44.81500 38.15400
H  6.00500 45.48500 37.58300
H  4.51900 46.24600 37.16600

