158

Mg 2.27800 -1.47400 43.58100
C  5.73800 -0.90200 43.44300
C  1.75400 1.32400 41.62300
C  -0.97300 -2.44500 43.28700
C  3.01800 -4.60400 45.18200
N  3.61500 -0.06500 42.48000
C  4.99700 0.04500 42.64200
C  5.54700 1.14400 41.70300
C  4.29100 2.02700 41.50900
C  3.14100 1.03300 41.82200
C  4.22500 3.49800 41.95700
C  6.12600 0.56100 40.37000
C  7.46400 1.21800 39.96000
H  7.70200 1.47400 38.45600
N  0.66200 -0.56500 42.76300
C  0.62600 0.56100 42.01300
C  -0.72400 0.87900 41.73400
C  -1.55100 -0.09500 42.21200
C  -0.62600 -1.16600 42.72600
C  -1.27500 2.19900 41.03100
C  -3.07400 -0.18300 42.12700
O  -3.70000 0.83500 41.81100
C  -3.90800 -1.28100 42.49900
N  1.21300 -3.31300 44.02000
C  -0.15100 -3.44700 43.88700
C  -0.58300 -4.83300 44.22000
C  0.63600 -5.44200 44.97500
C  1.71900 -4.42200 44.58800
C  -1.95700 -4.93000 44.96900
C  1.08600 -6.86800 44.40800
C  1.49400 -7.77500 45.63300
N  4.02200 -2.63700 44.09000
C  4.12900 -3.82000 44.88300
C  5.50800 -4.01300 45.25500
C  6.15000 -2.84700 44.73600
C  5.22600 -2.10100 44.02600
C  6.11500 -5.12900 45.87300
C  7.40800 -2.12500 44.65500
O  8.48500 -2.44000 45.15100
C  7.22500 -0.87100 43.81000
C  7.55200 0.31400 44.65000
O  6.79500 0.87700 45.41400
O  8.79800 0.81000 44.25100
C  9.04100 2.21200 44.69600
H  1.38700 2.25800 41.19100
H  -2.02200 -2.70900 43.13300
H  3.23200 -5.35800 45.94200
H  6.26300 1.80300 42.19400
H  4.24300 2.26900 40.44700
H  4.27300 4.21900 41.14100
H  5.06200 3.74900 42.60900
H  3.27000 3.45600 42.48000
H  5.44500 0.70200 39.53000
H  6.18800 -0.52200 40.48400
H  8.26100 0.60000 40.37500
H  7.55300 2.14800 40.52200
H  -1.87900 1.83200 40.20200
H  -0.50500 2.91000 40.73100
H  -2.01300 2.67400 41.67700
H  -4.93900 -0.94500 42.39200
H  -3.64700 -1.68600 43.47700
H  -3.79500 -2.10600 41.79500
H  -0.62500 -5.39200 43.28500
H  0.44900 -5.31400 46.04200
H  -2.58600 -4.05600 44.80200
H  -1.71200 -4.91800 46.03100
H  -2.49000 -5.86400 44.78700
H  1.87600 -6.82300 43.65900
H  0.18200 -7.38900 44.09300
H  2.50800 -8.10200 45.40700
H  0.78600 -8.60400 45.60500
H  1.56500 -7.19500 46.55300
H  6.39600 -5.90300 45.15800
H  5.35700 -5.60900 46.49200
H  6.93200 -4.78000 46.50500
H  7.89300 -0.91100 42.95000
H  10.04600 2.45600 44.35100
H  8.99500 2.32100 45.78000
H  8.38700 2.98400 44.29000
Mg 26.63200 49.87700 26.58800
C  24.39100 50.93800 29.03500
C  28.84400 49.01200 29.00700
C  28.70400 48.84600 24.19000
C  24.41600 51.00100 24.22500
N  26.54400 50.08300 28.75500
C  25.50300 50.31200 29.58600
C  25.81600 49.87900 31.02400
C  27.32100 49.43400 30.93300
C  27.57900 49.48400 29.41400
C  28.27100 50.37300 31.70900
C  24.78900 48.84500 31.60200
C  23.80500 49.44900 32.61400
H  23.74100 48.77300 34.03900
N  28.51000 49.06300 26.56200
C  29.26200 48.79800 27.70300
C  30.48600 48.17900 27.28500
C  30.51200 48.27800 25.84800
C  29.21200 48.74600 25.47200
C  31.57000 47.69100 28.17600
C  31.64300 48.06700 24.82700
O  31.56800 48.38800 23.62400
C  32.96200 47.59300 25.41200
N  26.68200 50.05200 24.47000
C  27.57000 49.46600 23.66600
C  27.07500 49.41900 22.20900
C  25.60900 49.95600 22.36700
C  25.58200 50.34700 23.77500
C  27.96500 50.27100 21.19800
C  24.53200 48.88500 21.95900
C  24.34400 47.75200 22.94500
N  24.84300 50.74900 26.52100
C  24.08300 51.28100 25.53600
C  22.89900 51.92300 26.03200
C  22.99700 51.84000 27.41900
C  24.15700 51.12700 27.66600
C  21.84700 52.67600 25.27100
C  22.33300 52.23900 28.63000
O  21.34200 52.92900 28.82400
C  23.13800 51.47800 29.78600
C  23.49800 52.56800 30.81000
O  24.47000 53.30400 30.77400
O  22.53200 52.56200 31.73900
C  22.69000 53.66300 32.73700
H  29.42400 48.46600 29.75400
H  29.36900 48.63300 23.35000
H  23.60500 51.16600 23.51200
H  25.81700 50.76500 31.66000
H  27.34900 48.45200 31.40600
H  29.05300 50.79600 31.07900
H  28.85500 49.91100 32.50500
H  27.74800 51.24000 32.11200
H  25.38700 48.11200 32.14400
H  24.23100 48.40700 30.77400
H  22.79900 49.47200 32.19500
H  23.98600 50.50100 32.83400
H  31.80000 46.63700 28.02500
H  31.48000 47.84700 29.25100
H  32.39100 48.37100 27.94900
H  33.38100 48.24000 26.18300
H  33.55800 47.42500 24.51500
H  32.71600 46.65200 25.90400
H  27.03300 48.35200 21.99200
H  25.46900 50.78200 21.67000
H  28.95500 50.48200 21.60200
H  27.50500 51.19900 20.86000
H  28.16600 49.69000 20.29800
H  24.71300 48.68200 20.90400
H  23.59800 49.44300 22.01400
H  25.07300 47.90000 23.74200
H  24.44300 46.84800 22.34400
H  23.35900 47.72400 23.41100
H  20.92600 52.81100 25.83800
H  21.63900 52.09400 24.37300
H  22.29200 53.58600 24.87000
H  22.49100 50.70300 30.19800
H  23.47600 53.27900 33.38800
H  21.79100 53.76100 33.34500
H  22.89100 54.57800 32.17900

