158

Mg 17.01000 51.72800 25.63200
C  18.74500 50.57800 28.51800
C  14.44800 52.63600 27.71800
C  15.43600 52.77000 22.95600
C  19.44300 50.18800 23.61600
N  16.70000 51.67300 27.91800
C  17.56600 51.23500 28.90500
C  16.99400 51.52100 30.31600
C  15.46500 51.86500 29.97300
C  15.53200 52.03300 28.41300
C  14.41200 50.79200 30.35400
C  17.81200 52.62000 31.01500
C  18.00200 52.38300 32.50100
H  16.86000 52.93000 33.34600
N  15.21300 52.74500 25.38500
C  14.30200 53.00600 26.34400
C  13.21000 53.76300 25.72200
C  13.39400 53.74600 24.29600
C  14.71100 53.09200 24.12800
C  12.12000 54.34600 26.61600
C  12.49000 54.26000 23.16900
O  12.96900 54.37700 22.05000
C  11.03900 54.64000 23.37500
N  17.32200 51.38600 23.52400
C  16.60500 52.03600 22.64300
C  17.11600 51.87200 21.20800
C  18.59800 51.37900 21.49300
C  18.40400 50.87600 22.93900
C  16.26100 50.93300 20.35700
C  19.75000 52.46000 21.40700
C  20.91400 52.06700 20.47700
N  18.62600 50.52700 25.92100
C  19.52600 49.95800 25.01100
C  20.66200 49.35100 25.69900
C  20.40400 49.55200 27.07700
C  19.17400 50.36200 27.17000
C  21.76500 48.64300 24.92500
C  20.94200 49.35200 28.38600
O  21.90700 48.73300 28.72500
C  19.76500 49.93700 29.38600
C  19.28800 48.79000 30.21600
O  18.81600 47.70300 29.78200
O  19.36300 49.13800 31.58200
C  18.93600 48.14400 32.59800
H  13.52500 52.90200 28.23800
H  14.98200 53.20800 22.06500
H  20.30800 49.96000 22.99000
H  17.12800 50.59600 30.87700
H  15.24000 52.88700 30.27800
H  14.68400 50.44500 31.35100
H  14.35500 49.93400 29.68400
H  13.48500 51.36600 30.37200
H  17.46500 53.65000 30.92700
H  18.83600 52.55800 30.64600
H  19.01900 52.56500 32.84800
H  17.95500 51.29800 32.59400
H  11.20400 53.79200 26.41000
H  12.03800 55.36600 26.24100
H  12.22500 54.24200 27.69600
H  10.63000 53.82900 23.97700
H  10.48100 54.94300 22.48800
H  10.89800 55.53600 23.98000
H  17.23700 52.82200 20.68800
H  18.90900 50.66500 20.73000
H  15.68000 51.53900 19.66100
H  15.66000 50.29300 21.00300
H  16.94600 50.36000 19.73100
H  20.13700 52.72800 22.39000
H  19.40800 53.37700 20.92700
H  20.81200 51.02200 20.18700
H  21.79900 52.17700 21.10300
H  20.96400 52.68100 19.57800
H  22.29600 47.98800 25.61500
H  22.43900 49.34400 24.43300
H  21.33100 47.92300 24.23100
H  20.17200 50.71900 30.02600
H  17.86300 48.33800 32.60600
H  19.39100 48.44100 33.54300
H  19.15000 47.13900 32.23500
Mg -11.09100 16.35400 40.77300
C  -7.56900 16.22400 40.89900
C  -10.75400 19.81100 40.56900
C  -14.31400 16.67600 40.10600
C  -11.05300 12.95400 40.23000
N  -9.28800 17.83400 40.50500
C  -7.97800 17.52300 40.65500
C  -7.07000 18.78200 40.66400
C  -8.18700 19.96600 40.82900
C  -9.47500 19.16400 40.62400
C  -8.11700 20.76600 42.23700
C  -6.39400 18.88400 39.23000
C  -4.89100 18.62200 39.04600
H  -4.38800 17.63000 38.03000
N  -12.41700 18.00700 40.53000
C  -12.05300 19.39900 40.43600
C  -13.26200 20.19900 40.29500
C  -14.39200 19.35700 40.14900
C  -13.78200 17.94000 40.21800
C  -13.18500 21.70100 40.04300
C  -15.90300 19.70900 39.92500
O  -16.28200 20.91100 39.84500
C  -16.92000 18.71400 39.88700
N  -12.44300 15.03900 40.12100
C  -13.76200 15.36300 40.06700
C  -14.64700 14.07900 39.95400
C  -13.63300 12.97000 39.78700
C  -12.27900 13.69200 40.00000
C  -15.74700 13.85200 41.05200
C  -13.66600 12.39200 38.37800
C  -13.62100 10.90200 38.08500
N  -9.62600 14.82700 40.73300
C  -9.77800 13.52000 40.61300
C  -8.52400 12.87100 40.94300
C  -7.57900 13.86200 41.13000
C  -8.34600 15.05900 40.89600
C  -8.22500 11.34900 40.94500
C  -6.18500 14.23100 41.41000
O  -5.14800 13.55200 41.52200
C  -6.15600 15.80300 41.34300
C  -5.61000 16.49800 42.60100
O  -4.46200 16.89500 42.72200
O  -6.59400 16.70900 43.56100
C  -6.15000 17.70600 44.57700
H  -10.68400 20.89400 40.69600
H  -15.38600 16.62800 39.90200
H  -11.03700 11.87100 40.09800
H  -6.25800 18.92100 41.37800
H  -8.02800 20.77400 40.11600
H  -7.44700 20.21200 42.89500
H  -9.01900 20.78700 42.84800
H  -7.84200 21.81800 42.16000
H  -6.65600 19.82600 38.74800
H  -6.98000 18.27300 38.54400
H  -4.49800 18.39500 40.03700
H  -4.45100 19.58100 38.77100
H  -12.18000 22.08900 39.88000
H  -13.74500 22.24700 40.80200
H  -13.61200 21.95200 39.07200
H  -16.86300 18.24900 38.90200
H  -17.84700 19.21700 40.16200
H  -16.66500 18.03100 40.69700
H  -15.07800 14.28300 38.97400
H  -13.62800 12.18900 40.54600
H  -15.74600 14.80300 41.58500
H  -15.64400 13.00300 41.72800
H  -16.72200 13.69200 40.59100
H  -12.88700 12.85500 37.77100
H  -14.55700 12.82700 37.92400
H  -13.39500 10.42600 39.03900
H  -12.86600 10.78400 37.30800
H  -14.58100 10.54700 37.71100
H  -9.14800 10.82800 40.69000
H  -7.82800 11.09600 41.92800
H  -7.45700 11.14900 40.19700
H  -5.44600 16.04500 40.55300
H  -6.89300 17.71500 45.37400
H  -6.08300 18.71600 44.17100
H  -5.15400 17.49700 44.96700

