158

Mg 54.75600 24.42900 44.70200
C  52.41200 26.91600 43.78400
C  52.44100 22.07000 43.87800
C  57.19300 22.31700 44.10700
C  56.99400 27.02900 45.48200
N  52.66600 24.43400 43.71300
C  51.92200 25.58900 43.59500
C  50.51800 25.17000 43.27700
C  50.42400 23.72700 43.83000
C  51.96600 23.34800 43.80400
C  49.73400 23.49100 45.27500
C  50.28700 25.15700 41.75100
C  48.76500 25.14600 41.33600
H  48.41000 24.88400 39.81800
N  54.77100 22.48800 44.11200
C  53.72300 21.62400 43.88800
C  54.14800 20.22800 43.79800
C  55.57500 20.30700 43.84800
C  55.92200 21.75100 43.98300
C  53.15800 18.99000 43.61600
C  56.50500 19.14100 43.78500
O  56.08200 17.98500 43.59400
C  58.04800 19.26200 43.83000
N  56.89000 24.73100 44.53500
C  57.67400 23.59900 44.40100
C  59.03600 23.82600 45.02800
C  59.04700 25.44000 45.24500
C  57.55000 25.75900 45.13200
C  59.25800 23.10200 46.32800
C  59.95800 26.16800 44.22200
C  59.30300 26.59300 42.83600
N  54.69500 26.55700 44.85800
C  55.68700 27.40300 45.20400
C  55.12600 28.72700 45.18000
C  53.87900 28.61800 44.64300
C  53.67400 27.23900 44.40500
C  55.88900 29.92600 45.46500
C  52.69200 29.34300 44.28000
O  52.34300 30.52400 44.32200
C  51.72100 28.25900 43.62900
C  51.33900 28.56000 42.22400
O  52.08900 28.64600 41.27300
O  49.94700 28.78200 42.11600
C  49.43100 29.09600 40.77000
H  51.71200 21.25800 43.83900
H  58.04500 21.63400 44.13300
H  57.74700 27.76800 45.76500
H  49.89600 25.84200 43.86800
H  49.91600 23.10400 43.09400
H  50.49100 23.54400 46.05700
H  49.22600 22.53100 45.36800
H  49.06100 24.28200 45.60600
H  50.81100 24.34000 41.25400
H  50.66500 26.11100 41.38500
H  48.28300 26.08800 41.59800
H  48.33000 24.29000 41.85300
H  53.68400 18.21500 43.05800
H  52.22300 19.21100 43.10000
H  52.85400 18.58600 44.58100
H  58.44000 19.82000 42.97900
H  58.51400 18.27900 43.88900
H  58.40300 19.61900 44.79700
H  59.78900 23.51600 44.30400
H  59.35900 25.70200 46.25600
H  60.07300 22.39700 46.16200
H  58.31000 22.70300 46.68900
H  59.66500 23.71900 47.12900
H  60.81900 25.53700 44.00100
H  60.35900 27.05100 44.71900
H  58.30500 26.17400 42.70400
H  59.84900 25.99900 42.10200
H  59.32900 27.68000 42.76200
H  55.35100 30.87000 45.55600
H  56.81000 29.92700 44.88100
H  56.28600 29.74500 46.46300
H  50.81600 28.36500 44.22700
H  48.53600 29.67200 41.00500
H  49.16800 28.14100 40.31300
H  50.03300 29.73600 40.12400
Mg 6.12800 55.01500 41.14900
C  3.71800 52.51100 41.14800
C  8.35400 52.59300 40.04800
C  8.32100 57.44000 40.46700
C  3.72000 57.35900 41.84900
N  5.93200 52.83400 40.43400
C  4.88500 52.06600 40.52900
C  5.27700 50.61100 40.10900
C  6.75000 50.53900 40.11400
C  7.05500 52.10500 40.18600
C  7.44700 49.63700 41.16900
C  4.61100 50.44900 38.67500
C  4.19200 49.07200 38.24300
H  4.95600 48.47600 37.04400
N  8.17700 55.04400 40.45900
C  8.90000 53.97500 40.11400
C  10.22900 54.30200 39.75900
C  10.30500 55.71200 39.90400
C  8.94400 56.19700 40.33500
C  11.20900 53.18300 39.31400
C  11.47300 56.49100 39.59700
O  12.49900 55.96500 39.20400
C  11.36700 57.97400 39.72200
N  5.99800 57.04600 40.96100
C  6.99600 57.88100 40.65000
C  6.58800 59.29200 40.62900
C  5.11200 59.26800 40.98400
C  4.88500 57.79100 41.24600
C  7.44500 60.09200 41.62900
C  4.16000 59.69000 39.80700
C  2.96500 60.61500 40.09700
N  4.12300 55.00000 41.44600
C  3.29500 56.01200 41.94700
C  2.06500 55.44100 42.37300
C  2.20500 54.08600 42.09800
C  3.42900 53.86800 41.50900
C  0.92200 56.24700 42.90200
C  1.52200 52.87700 42.12700
O  0.47100 52.58200 42.63800
C  2.50700 51.75800 41.46500
C  1.77200 51.05400 40.42400
O  1.17800 51.62300 39.51300
O  1.71500 49.65400 40.56400
C  0.86000 48.99700 39.60800
H  8.98700 51.73900 39.79900
H  8.89800 58.24300 40.00300
H  2.91600 58.05800 42.08700
H  4.80600 49.84500 40.72500
H  7.08500 50.26400 39.11300
H  6.93900 48.69400 41.37200
H  7.60300 50.29400 42.02500
H  8.43700 49.56600 40.72000
H  5.33800 50.78700 37.93600
H  3.70800 51.04000 38.52600
H  3.14500 49.10100 37.93900
H  4.31800 48.41800 39.10600
H  10.63500 52.53600 38.65100
H  11.51400 52.57200 40.16400
H  12.02000 53.49000 38.65300
H  12.34200 58.44700 39.83800
H  10.77500 58.14000 40.62300
H  10.90300 58.38900 38.82800
H  6.75700 59.81100 39.68500
H  4.89400 59.71700 41.95400
H  7.95100 59.44900 42.34900
H  6.90300 60.92900 42.06900
H  8.26600 60.55800 41.08300
H  3.61800 58.81300 39.45100
H  4.64300 59.99400 38.87900
H  2.10900 60.10800 39.65300
H  3.17400 61.47500 39.46100
H  2.79700 60.90400 41.13500
H  0.55100 56.97200 42.17700
H  1.24100 56.71700 43.83100
H  0.16900 55.47700 43.07700
H  2.69200 51.06900 42.28900
H  1.46200 48.15400 39.26900
H  0.54800 49.54800 38.72100
H  0.05500 48.55000 40.19100

