158

Mg 30.11100 58.58200 40.01300
C  27.29700 56.41400 39.19200
C  32.29100 56.06200 39.16600
C  32.52500 60.83100 40.31600
C  27.77600 61.10600 40.32100
N  29.83600 56.51100 39.39900
C  28.63500 55.80900 39.23300
C  28.87300 54.36400 38.76400
C  30.44100 54.30600 38.68200
C  30.91600 55.69900 39.13000
C  30.94400 53.14700 39.40300
C  28.07600 53.79300 37.45100
C  28.15900 54.85800 36.29900
H  29.20000 54.67100 35.12700
N  32.21000 58.42700 39.77100
C  32.86200 57.30900 39.46000
C  34.25400 57.66100 39.49200
C  34.43700 58.95800 40.03500
C  33.01600 59.52200 40.07600
C  35.42500 56.73700 39.16400
C  35.60800 59.74900 40.46100
O  36.71200 59.30200 40.31800
C  35.51600 61.00100 41.21000
N  30.14600 60.74500 40.10900
C  31.24000 61.39200 40.37000
C  31.00700 62.88200 40.69700
C  29.46500 62.99100 40.77100
C  29.10200 61.50200 40.44500
C  31.69800 63.32100 42.05600
C  28.90700 63.91200 39.64500
C  28.43900 65.33600 40.10100
N  27.93300 58.83300 39.73600
C  27.16400 59.93200 39.91100
C  25.78800 59.55100 39.71200
C  25.87200 58.20300 39.33000
C  27.14500 57.78900 39.51000
C  24.62200 60.47600 39.76800
C  25.01500 57.11700 38.90500
O  23.77800 57.05400 38.72100
C  25.95300 55.91400 38.85300
C  25.53900 54.68600 39.54400
O  25.96000 54.28300 40.59100
O  24.62400 53.90600 38.74100
C  24.37700 52.55300 39.25300
H  33.00300 55.25000 39.00600
H  33.26600 61.61300 40.49500
H  27.04200 61.86400 40.60300
H  28.36500 53.90800 39.61300
H  30.68800 54.23100 37.62300
H  31.61500 53.38800 40.22600
H  31.54700 52.60700 38.67300
H  30.09100 52.63800 39.85100
H  27.10300 53.35900 37.68200
H  28.81800 53.01500 37.26800
H  28.38800 55.82400 36.74800
H  27.12800 54.95400 35.95700
H  36.22600 57.15300 38.55400
H  35.11300 55.91900 38.51500
H  35.86300 56.36400 40.09000
H  35.49200 61.76300 40.43000
H  36.48200 61.18500 41.68000
H  34.84100 61.03300 42.06600
H  31.36600 63.47400 39.85500
H  29.11200 63.34100 41.74200
H  30.94800 63.75700 42.71500
H  32.38300 64.13500 41.81800
H  32.11200 62.45300 42.56900
H  28.11700 63.37600 39.11900
H  29.65600 64.27400 38.94000
H  28.46800 65.39000 41.18900
H  27.41100 65.54800 39.80900
H  29.07000 66.12800 39.69700
H  23.74100 59.98100 40.17700
H  24.51300 60.80400 38.73400
H  24.75100 61.38900 40.35000
H  25.94400 55.74800 37.77600
H  24.17200 52.40000 40.31300
H  25.05000 51.76100 38.92400
H  23.49400 52.27800 38.67700
Mg 36.79400 50.35800 25.32900
C  36.74700 48.54500 28.30500
C  35.23200 52.88700 26.95700
C  36.37300 51.92100 22.35700
C  37.61300 47.39800 23.64900
N  35.91300 50.49900 27.35300
C  36.22000 49.76300 28.49400
C  35.73200 50.40200 29.76300
C  34.95800 51.67600 29.24700
C  35.32900 51.71700 27.79300
C  33.44500 51.77600 29.53900
C  36.86400 50.58100 30.82600
C  36.64800 50.07500 32.23200
H  36.16400 51.16800 33.18900
N  36.07400 52.23400 24.72500
C  35.51900 53.11500 25.59900
C  35.28500 54.38500 24.92600
C  35.55800 54.13100 23.51100
C  35.99400 52.75000 23.45300
C  34.84000 55.65500 25.62100
C  35.40200 54.95700 22.28200
O  35.71300 54.53600 21.18800
C  34.94900 56.44100 22.31500
N  36.82100 49.69100 23.31200
C  36.82300 50.64600 22.28600
C  37.31100 49.98700 20.99300
C  38.05000 48.62800 21.45400
C  37.51200 48.56400 22.85100
C  36.28000 49.84000 19.88700
C  39.57100 48.74300 21.46900
C  40.31000 47.79400 20.47900
N  37.10800 48.33700 25.76200
C  37.35400 47.23200 24.99800
C  37.62600 46.01000 25.83000
C  37.39700 46.51000 27.12900
C  36.97400 47.87500 27.05400
C  38.11800 44.68600 25.35200
C  37.41100 46.19800 28.49200
O  37.90500 45.15100 29.00500
C  36.89600 47.42000 29.27700
C  35.57600 46.98000 29.74200
O  34.64300 46.61900 29.06500
O  35.65500 46.99800 31.15500
C  34.40900 46.67200 31.84900
H  34.83000 53.72700 27.52700
H  36.45200 52.39900 21.37900
H  38.09500 46.60500 23.07400
H  35.00200 49.67200 30.11100
H  35.42200 52.54700 29.71100
H  32.91400 51.95000 28.60300
H  33.34900 52.62700 30.21300
H  32.97400 50.94000 30.05600
H  37.09400 51.64000 30.94400
H  37.80800 50.16200 30.47700
H  37.68000 49.91000 32.54200
H  36.02900 49.18300 32.32900
H  35.20300 56.54200 25.10300
H  35.25000 55.77700 26.62400
H  33.75700 55.54000 25.59900
H  33.99200 56.42100 22.83700
H  34.65100 56.72000 21.30500
H  35.55400 57.21000 22.79600
H  38.10600 50.64200 20.63800
H  37.84600 47.72000 20.88600
H  36.40800 50.64900 19.16700
H  35.29100 49.98600 20.31900
H  36.34400 48.88700 19.36300
H  40.05500 48.53100 22.42300
H  39.90100 49.74900 21.21200
H  40.62300 46.90100 21.01900
H  41.22600 48.27600 20.13800
H  39.67800 47.48100 19.64700
H  38.47800 44.08800 26.19000
H  38.98000 44.71400 24.68600
H  37.34900 44.27000 24.70100
H  37.49100 47.82500 30.09600
H  33.74400 47.50300 31.61500
H  34.57000 46.49300 32.91200
H  33.97500 45.86100 31.26500

