158

Mg 47.37100 34.56200 27.12100
C  45.81800 32.84600 29.79800
C  47.58400 37.27300 29.34300
C  48.59100 36.42400 24.55100
C  46.83900 31.96300 25.03300
N  47.07300 34.96000 29.44500
C  46.38000 34.08600 30.25000
C  46.34500 34.55900 31.72900
C  46.49400 36.13400 31.49600
C  47.14500 36.15800 30.01200
C  45.25500 37.04900 31.66800
C  47.59300 33.92600 32.56500
C  47.34900 33.35100 33.87000
H  48.13800 34.04900 34.97800
N  48.12300 36.56100 27.02600
C  48.10500 37.48700 28.04200
C  48.66700 38.72800 27.49100
C  48.95100 38.54600 26.15200
C  48.60800 37.14000 25.81800
C  49.10300 39.90700 28.44500
C  49.56000 39.56100 25.22600
O  50.05200 39.27800 24.11600
C  49.91000 41.03200 25.76300
N  47.67300 34.27800 25.07400
C  48.13600 35.15000 24.17800
C  48.15000 34.69500 22.72400
C  47.62000 33.20700 22.97900
C  47.41800 33.10300 24.49300
C  47.15700 35.60000 21.90500
C  48.57400 32.16400 22.43600
C  49.65500 31.72000 23.39100
N  46.52600 32.77800 27.31300
C  46.41200 31.81400 26.35300
C  45.68500 30.67300 26.95200
C  45.40800 31.05500 28.30000
C  46.01400 32.33300 28.44900
C  45.34200 29.39000 26.29300
C  44.68900 30.66500 29.49600
O  44.12900 29.56600 29.74700
C  44.78200 31.92600 30.45200
C  45.13000 31.28600 31.74900
O  46.18800 30.87600 32.12400
O  43.98900 31.27500 32.42700
C  44.07900 30.57900 33.75000
H  47.60200 38.17800 29.95500
H  49.09800 37.00300 23.77600
H  46.66100 31.02900 24.49500
H  45.43100 34.30200 32.26500
H  47.26900 36.60600 32.10000
H  45.20000 37.70600 32.53600
H  44.37200 36.41200 31.61400
H  45.23600 37.73100 30.81800
H  48.36200 34.69800 32.57400
H  47.98600 33.15600 31.90000
H  47.67500 32.31600 33.96600
H  46.28200 33.36600 34.09400
H  49.25000 39.58400 29.47600
H  48.50000 40.80100 28.28800
H  50.11600 40.16200 28.13600
H  49.02500 41.48000 26.21500
H  50.22900 41.52500 24.84400
H  50.75800 41.05500 26.44700
H  49.14700 34.75500 22.28800
H  46.59600 33.12600 22.61500
H  46.86800 36.42000 22.56200
H  46.31300 35.07400 21.46100
H  47.78800 36.11500 21.18000
H  49.00000 32.58900 21.52700
H  48.00900 31.26900 22.17400
H  50.52600 31.54200 22.76100
H  49.44500 30.79600 23.92900
H  49.90400 32.58100 24.01300
H  44.75600 28.68700 26.88500
H  46.22100 28.87200 25.90700
H  44.69900 29.59300 25.43700
H  43.83300 32.46100 30.43500
H  44.51900 29.59800 33.57100
H  43.11300 30.56300 34.25700
H  44.73000 31.10900 34.44500
Mg -0.02300 43.14700 26.22300
C  2.12200 43.06300 29.02000
C  -2.57600 42.06600 28.18600
C  -1.80700 42.92100 23.45000
C  2.76100 44.13000 24.29900
N  -0.25500 42.79500 28.36500
C  0.80600 42.75100 29.31600
C  0.21600 42.32900 30.69000
C  -1.24900 41.77000 30.36700
C  -1.40900 42.25400 28.86600
C  -1.45900 40.21200 30.46200
C  0.15500 43.50500 31.66600
C  0.65100 43.19300 33.08300
H  0.15000 41.85800 33.74500
N  -1.91200 42.59200 25.85500
C  -2.78400 42.20800 26.79500
C  -4.04600 41.98300 26.07700
C  -3.81800 42.04700 24.67900
C  -2.44500 42.57000 24.62100
C  -5.32300 41.53500 26.81200
C  -4.78200 41.81200 23.54100
O  -4.48400 42.12300 22.37200
C  -6.19700 41.22300 23.81700
N  0.41800 43.46600 24.13300
C  -0.50700 43.37800 23.15600
C  0.01800 43.82500 21.78000
C  1.41800 44.38800 22.15700
C  1.53300 43.98600 23.63300
C  -0.05500 42.61900 20.75400
C  1.60200 45.83000 21.91100
C  0.97000 46.44900 20.65800
N  1.97900 43.62300 26.52000
C  2.98300 44.02800 25.70200
C  4.19800 44.14600 26.40200
C  3.86300 43.84600 27.71800
C  2.54500 43.48100 27.77100
C  5.56600 44.30900 25.85900
C  4.38200 43.75200 29.11500
O  5.50900 44.03500 29.60600
C  3.22400 43.28200 30.03900
C  3.65900 42.04900 30.67100
O  3.95500 40.97700 30.24700
O  3.77500 42.32500 32.04900
C  4.26200 41.28000 32.97400
H  -3.41100 41.59600 28.71000
H  -2.33000 42.76800 22.50300
H  3.62000 44.43000 23.69500
H  0.83900 41.56300 31.15100
H  -1.90000 42.20500 31.12600
H  -0.50500 39.74800 30.71200
H  -1.79900 39.60700 29.62100
H  -2.04600 40.05200 31.36700
H  -0.82800 43.97500 31.68000
H  0.83700 44.29000 31.33900
H  0.38800 44.00100 33.76600
H  1.74000 43.21200 33.04300
H  -5.21700 41.44700 27.89300
H  -5.69600 40.61600 26.35900
H  -6.09400 42.29300 26.67600
H  -6.87300 41.28900 22.96500
H  -6.64300 41.96300 24.48100
H  -6.23100 40.20300 24.20200
H  -0.67000 44.58900 21.41900
H  2.18000 43.77800 21.67100
H  0.92700 42.53000 20.28900
H  -0.81700 42.89100 20.02400
H  -0.22500 41.68300 21.28500
H  2.68800 45.92600 21.89900
H  1.16400 46.29200 22.79600
H  0.46600 45.77500 19.96600
H  1.75800 46.92600 20.07600
H  0.28500 47.20500 21.04300
H  6.14600 43.41400 26.08700
H  6.02500 45.26000 26.13100
H  5.63500 44.26100 24.77200
H  3.00400 43.99100 30.83700
H  4.71500 41.62400 33.90400
H  5.04400 40.67200 32.52000
H  3.40100 40.65300 33.20600

