158

Mg 48.11100 15.45900 28.28500
C  45.86500 15.92400 30.89900
C  50.39100 17.19100 30.04500
C  50.01900 15.42100 25.48200
C  45.49100 14.04400 26.36600
N  48.03000 16.51600 30.16200
C  47.07600 16.46700 31.13300
C  47.55300 17.14200 32.42500
C  48.84600 17.80000 31.97000
C  49.16400 17.06400 30.64400
C  48.92100 19.38900 31.87400
C  47.57200 16.21900 33.63100
C  47.38200 16.90300 34.96600
H  47.37600 18.38900 35.11100
N  49.91600 16.23000 27.85500
C  50.71100 16.91900 28.69600
C  51.96500 17.18600 28.08700
C  51.95000 16.68800 26.79200
C  50.60900 16.04300 26.64800
C  52.99200 17.96300 28.86800
C  52.98400 16.78900 25.63800
O  52.69300 16.25200 24.55200
C  54.33400 17.39800 25.84300
N  47.74900 14.95300 26.16900
C  48.75200 14.91800 25.28200
C  48.29700 14.36400 23.89800
C  46.82300 13.83600 24.22700
C  46.64900 14.31400 25.68800
C  48.31400 15.40900 22.82600
C  46.48900 12.30800 24.02900
C  47.14200 11.32500 24.94300
N  46.12600 14.91200 28.57500
C  45.19100 14.31300 27.75100
C  44.01200 14.07400 28.49400
C  44.21600 14.70200 29.73200
C  45.53000 15.21400 29.73000
C  42.77300 13.45300 27.98100
C  43.54600 14.94500 30.99700
O  42.38100 14.73600 31.34200
C  44.60500 15.72400 31.91200
C  43.99500 16.91200 32.50600
O  44.05800 18.02100 32.04300
O  43.37800 16.55800 33.65700
C  42.79200 17.64400 34.43600
H  51.07800 17.78500 30.65200
H  50.67100 15.26200 24.62100
H  44.70300 13.45600 25.89000
H  46.83900 17.95200 32.57000
H  49.67600 17.47700 32.59800
H  49.39900 19.79200 32.76700
H  47.99000 19.92600 31.69200
H  49.55800 19.65100 31.02900
H  48.51700 15.67700 33.67800
H  46.80500 15.44500 33.63700
H  48.15900 16.43800 35.57200
H  46.38100 16.59000 35.26200
H  53.89300 18.17300 28.29200
H  53.19300 17.34400 29.74300
H  52.41100 18.83000 29.18400
H  54.03300 18.43700 25.97700
H  54.95400 17.29300 24.95200
H  54.84500 16.96700 26.70300
H  48.98100 13.58000 23.57100
H  46.10700 14.38800 23.61800
H  48.28800 16.39300 23.29200
H  47.56000 15.46200 22.04000
H  49.33100 15.48700 22.44200
H  47.01200 12.04400 23.11000
H  45.41200 12.14000 24.05900
H  47.80400 10.63500 24.42200
H  46.31100 10.79400 25.40600
H  47.79100 11.85400 25.64000
H  42.90600 13.07000 26.96900
H  42.02000 14.24100 27.97800
H  42.52300 12.58700 28.59300
H  44.92500 15.06800 32.72200
H  42.68900 18.65700 34.04700
H  43.47700 17.70400 35.28200
H  41.87700 17.24600 34.87400
Mg 9.37000 48.34100 25.73300
C  7.12600 49.09100 28.37300
C  11.92300 49.23500 27.69900
C  11.36200 47.88600 23.04300
C  6.54800 48.20000 23.57400
N  9.47300 49.18200 27.79000
C  8.46600 49.22300 28.73400
C  9.05800 49.46300 30.17200
C  10.53000 49.87700 29.81600
C  10.66900 49.36000 28.36900
C  10.88800 51.38800 29.91800
C  8.75000 48.21300 31.13900
C  9.78500 48.01700 32.27500
H  9.41600 47.07800 33.41000
N  11.37600 48.52700 25.40200
C  12.29500 48.87000 26.36800
C  13.61800 48.62700 25.87000
C  13.44400 48.13000 24.55000
C  12.04100 48.20400 24.22400
C  14.90700 48.90600 26.64300
C  14.53600 47.67200 23.61000
O  14.36900 47.18100 22.51100
C  15.98300 47.83300 24.03500
N  8.99100 47.93900 23.67400
C  10.01400 47.73500 22.76400
C  9.32900 47.30600 21.44300
C  7.81000 47.45300 21.65700
C  7.81000 48.01100 22.97000
C  9.90900 48.02400 20.21700
C  7.15600 46.16400 21.49300
C  7.44300 45.00600 22.44600
N  7.25000 48.54500 25.88800
C  6.24500 48.37700 24.95900
C  4.95000 48.49100 25.64000
C  5.31400 48.79700 26.99700
C  6.68200 48.77200 27.08600
C  3.56800 48.26400 25.01000
C  4.75400 49.13600 28.27400
O  3.60500 49.29000 28.65200
C  5.88500 49.13900 29.26700
C  5.54000 47.89000 30.15500
O  5.62300 46.72000 29.77800
O  5.05200 48.31500 31.34700
C  4.26800 47.26400 32.11500
H  12.76500 49.54900 28.31900
H  11.99000 47.79300 22.15500
H  5.70500 48.09300 22.88900
H  8.53900 50.31700 30.60700
H  11.19000 49.21000 30.37000
H  10.12000 51.94200 30.45800
H  10.90200 51.64300 28.85900
H  11.87000 51.48100 30.38200
H  8.82200 47.32000 30.51800
H  7.72000 48.19700 31.49400
H  10.05800 48.86300 32.90600
H  10.66500 47.48100 31.92100
H  14.71200 49.15700 27.68600
H  15.42100 49.80400 26.30100
H  15.66900 48.12700 26.60200
H  16.08900 47.05700 24.79300
H  16.18300 48.84500 24.39000
H  16.61100 47.68700 23.15700
H  9.67500 46.27400 21.38600
H  7.43500 48.13700 20.89500
H  10.45300 47.33800 19.56700
H  10.56900 48.82000 20.56300
H  9.11700 48.48400 19.62600
H  7.43800 45.84500 20.49000
H  6.07600 46.31000 21.45400
H  8.10900 44.37200 21.86300
H  6.49500 44.50400 22.64000
H  7.93400 45.32500 23.36600
H  2.82500 47.65300 25.52300
H  3.72800 47.85300 24.01400
H  3.21700 49.28400 24.85500
H  5.75900 50.02900 29.88400
H  3.44700 46.82600 31.54800
H  3.87900 47.64300 33.06000
H  4.98400 46.46900 32.32300

