158

Mg -2.31900 17.09100 25.67800
C  -2.93300 14.83400 28.26100
C  -2.63400 19.70400 27.87300
C  -2.18500 19.22900 23.07000
C  -2.02200 14.34900 23.53800
N  -2.91400 17.25100 27.80100
C  -2.91100 16.20500 28.68400
C  -3.05700 16.66800 30.11400
C  -3.15800 18.23700 29.93000
C  -2.88300 18.47500 28.47000
C  -4.47100 18.99600 30.33700
C  -1.77700 16.26800 30.96800
C  -1.44200 17.21100 32.16900
H  -1.09500 16.64800 33.58100
N  -2.48000 19.15700 25.48100
C  -2.47500 20.06700 26.50300
C  -2.65200 21.40500 25.94200
C  -2.50400 21.30700 24.59000
C  -2.31400 19.84600 24.31100
C  -2.87700 22.64000 26.76000
C  -2.60400 22.41100 23.55400
O  -2.43100 22.23000 22.31700
C  -2.73400 23.91600 24.00200
N  -2.20900 16.90200 23.60100
C  -2.13000 17.85900 22.66300
C  -2.18200 17.34200 21.23400
C  -1.69900 15.91100 21.43400
C  -1.98300 15.70200 22.97300
C  -3.57500 17.40700 20.50500
C  -0.29400 15.72900 20.93400
C  0.81700 16.25400 21.84500
N  -2.59300 14.97200 25.72700
C  -2.31500 13.95600 24.85700
C  -2.32400 12.63400 25.46300
C  -2.75900 12.98400 26.81600
C  -2.77600 14.35200 26.92300
C  -2.29400 11.32200 24.77900
C  -3.03400 12.41600 28.08200
O  -3.00600 11.21800 28.42400
C  -3.12500 13.60300 29.01900
C  -2.05800 13.30000 30.02000
O  -0.85700 13.58900 29.85100
O  -2.53600 12.63700 31.12200
C  -1.56600 12.13600 32.14600
H  -2.70000 20.45300 28.66500
H  -2.19600 19.94400 22.24500
H  -1.71400 13.42300 23.05000
H  -3.98700 16.40000 30.61500
H  -2.34800 18.78400 30.41300
H  -4.94900 19.60100 29.56600
H  -4.24800 19.70700 31.13300
H  -5.22600 18.26400 30.62200
H  -0.90500 16.00300 30.37000
H  -2.08800 15.35700 31.47900
H  -2.27600 17.88400 32.37100
H  -0.68700 17.85400 31.71800
H  -3.63900 23.26500 26.29500
H  -1.99000 23.23400 26.98000
H  -3.29000 22.27500 27.70100
H  -3.74300 23.94900 24.41400
H  -2.65600 24.47400 23.06900
H  -1.93000 24.19100 24.68400
H  -1.54800 18.04100 20.68900
H  -2.33800 15.19500 20.91700
H  -4.09700 18.26400 20.93000
H  -4.18900 16.51100 20.58900
H  -3.39000 17.79100 19.50200
H  -0.20700 16.11200 19.91700
H  -0.24900 14.65600 20.75300
H  1.65200 16.57200 21.22200
H  1.10000 15.40100 22.46200
H  0.53100 17.04600 22.53600
H  -3.25300 11.16100 24.28700
H  -2.26200 10.59300 25.58900
H  -1.42600 11.23500 24.12500
H  -4.03600 13.50800 29.60900
H  -1.15200 11.15300 31.92000
H  -1.93300 12.07800 33.17100
H  -0.64900 12.72400 32.13400
Mg 2.51900 -1.96500 44.54900
C  5.62100 -1.04100 43.35800
C  1.04300 0.27700 42.32700
C  -0.37000 -3.34800 45.20000
C  4.18000 -4.59400 46.38500
N  3.24500 -0.66200 42.84300
C  4.57300 -0.32800 42.71400
C  4.76400 0.78700 41.70900
C  3.29200 1.34300 41.56800
C  2.44100 0.31100 42.28400
C  3.04100 2.72300 42.12700
C  5.43200 0.28200 40.42600
C  6.76700 0.90900 40.01000
H  6.75000 1.80600 38.74800
N  0.54700 -1.50100 43.91000
C  0.18100 -0.58300 43.05000
C  -1.27500 -0.54000 43.02200
C  -1.71500 -1.58100 43.85800
C  -0.48000 -2.21100 44.39600
C  -2.05100 0.37300 42.19800
C  -3.09600 -1.89100 44.24900
O  -4.04800 -1.27300 43.77300
C  -3.50200 -2.94500 45.24800
N  2.02900 -3.74300 45.67900
C  0.70700 -4.05700 45.74200
C  0.49200 -5.37200 46.50800
C  1.98900 -5.85300 46.84400
C  2.80700 -4.67700 46.28700
C  -0.41600 -5.22100 47.79500
C  2.31700 -7.27400 46.23000
C  2.05600 -8.54500 47.01600
N  4.47900 -2.62500 44.93200
C  4.97100 -3.70200 45.65900
C  6.45900 -3.63000 45.60100
C  6.74700 -2.57200 44.76400
C  5.48700 -2.06500 44.32200
C  7.37700 -4.68300 46.23300
C  7.77000 -1.76800 44.15900
O  9.02900 -1.80800 44.27900
C  7.00100 -0.68000 43.34500
C  7.40700 0.64700 43.91500
O  6.72900 1.32000 44.66200
O  8.60500 1.03700 43.36100
C  9.10700 2.22300 44.04000
H  0.54300 1.09700 41.80600
H  -1.31400 -3.88100 45.33100
H  4.67900 -5.30500 47.04700
H  5.39600 1.59100 42.08700
H  2.87100 1.46900 40.57000
H  3.89300 3.32500 41.81200
H  3.02800 2.66500 43.21500
H  2.11100 3.05700 41.66600
H  4.82400 0.80200 39.68600
H  5.26800 -0.79500 40.39600
H  7.42400 0.04000 39.97200
H  7.11100 1.59700 40.78300
H  -1.59400 1.35600 42.08400
H  -3.00800 0.61700 42.65900
H  -2.34300 -0.07300 41.24800
H  -2.92900 -2.65000 46.12700
H  -3.35400 -3.98500 44.96100
H  -4.56000 -2.86200 45.49900
H  -0.02400 -5.96600 45.75400
H  2.08400 -6.04000 47.91300
H  -0.72300 -4.18700 47.95600
H  0.10700 -5.44400 48.72600
H  -1.23500 -5.93400 47.88600
H  3.32000 -7.29000 45.80300
H  1.56600 -7.30800 45.44100
H  1.50300 -8.15000 47.86800
H  2.96200 -9.07700 47.30700
H  1.46400 -9.24300 46.42500
H  6.98600 -4.90000 47.22700
H  8.36100 -4.22300 46.14100
H  7.29500 -5.61400 45.67200
H  7.40600 -0.75300 42.33600
H  9.22600 2.08000 45.11400
H  8.58100 3.13500 43.76100
H  10.11600 2.27800 43.63000

