158

Mg 42.96200 4.00400 46.84100
C  41.42800 7.41600 46.60300
C  39.88200 2.78100 46.14000
C  44.38900 1.02700 46.65200
C  46.05800 5.69200 47.02900
N  40.96500 5.14000 46.27800
C  40.47800 6.40400 46.44900
C  39.00700 6.56000 46.21200
C  38.55500 5.04000 46.38100
C  39.89300 4.23600 46.25700
C  37.87500 4.78500 47.79700
C  38.64800 7.30700 44.92400
C  39.53500 6.93200 43.73900
H  38.93800 6.89400 42.26400
N  42.24700 2.23800 46.35800
C  40.96500 1.90300 46.13200
C  40.84600 0.42900 45.97200
C  42.11900 -0.14200 46.13400
C  43.02200 1.04900 46.38100
C  39.51800 -0.25500 45.54400
C  42.42500 -1.63300 46.07500
O  41.59100 -2.46700 45.70500
C  43.73200 -2.18000 46.45300
N  45.03700 3.45900 46.74400
C  45.28300 2.14600 46.78700
C  46.84300 2.04000 46.52500
C  47.36600 3.49500 46.91300
C  46.09900 4.27600 46.81200
C  47.51400 0.93200 47.41300
C  48.51200 4.04200 45.97800
C  49.35500 5.16200 46.54700
N  43.59200 6.01900 46.83000
C  44.84500 6.51100 46.95200
C  44.89900 7.99300 46.95200
C  43.53800 8.38500 46.89200
C  42.80200 7.18400 46.81300
C  46.18100 8.82300 47.19000
C  42.68300 9.56000 46.79600
O  42.93800 10.74300 46.84700
C  41.23400 8.96200 46.53000
C  40.24200 9.40200 47.48400
O  39.87600 8.82300 48.52200
O  39.63000 10.51000 46.92200
C  38.41700 11.00100 47.66700
H  38.89900 2.37700 45.89000
H  44.79100 0.02300 46.50300
H  47.03600 6.15800 47.16500
H  38.54300 7.02900 47.07900
H  37.93100 4.82700 45.51400
H  37.04100 4.09900 47.64900
H  37.52500 5.72900 48.21500
H  38.55300 4.23100 48.44600
H  38.50700 8.37800 45.07000
H  37.64100 6.98200 44.66300
H  39.79600 5.88000 43.85200
H  40.43600 7.54200 43.79400
H  38.86500 0.34700 44.91300
H  38.95800 -0.56000 46.42700
H  39.79900 -1.08300 44.89300
H  44.11800 -1.69600 47.35000
H  44.42900 -2.01100 45.63200
H  43.49600 -3.22900 46.63200
H  47.01600 1.80300 45.47500
H  47.65900 3.61600 47.95600
H  46.82300 0.14300 47.70900
H  47.93300 1.33400 48.33500
H  48.29100 0.41000 46.85400
H  47.95400 4.46300 45.14200
H  49.16800 3.25100 45.61500
H  50.39500 4.85900 46.66800
H  49.04900 5.35500 47.57600
H  49.17500 5.98500 45.85600
H  46.88800 8.64700 46.37900
H  46.74100 8.56000 48.08600
H  46.07300 9.90800 47.17700
H  40.91000 9.31000 45.54900
H  37.59100 10.37300 48.00100
H  37.99900 11.81700 47.07800
H  38.80100 11.46300 48.57700
Mg 30.28800 57.98200 40.62500
C  27.61000 55.79200 39.43900
C  32.50200 55.76900 39.12100
C  32.60300 60.33800 40.92900
C  27.68600 60.29200 41.36600
N  30.03400 55.96200 39.61400
C  28.86300 55.37900 39.10100
C  29.20100 54.01800 38.43900
C  30.73800 53.94800 38.58100
C  31.17000 55.33200 39.07800
C  31.20600 52.91100 39.64500
C  28.81600 53.94200 36.91300
C  29.12700 55.20600 35.98600
H  28.07900 55.62800 34.90800
N  32.30000 58.06200 40.11800
C  32.96300 57.05500 39.48400
C  34.39700 57.42100 39.36300
C  34.51100 58.71900 39.98500
C  33.12000 59.09300 40.39600
C  35.57000 56.60100 38.81300
C  35.78800 59.64000 40.15100
O  36.93300 59.19600 39.85500
C  35.61000 61.01400 40.86000
N  30.16300 59.96000 41.29800
C  31.27100 60.75300 41.25900
C  30.89200 62.22200 41.62000
C  29.32800 62.16800 41.72900
C  29.00600 60.72900 41.38200
C  31.54300 62.74900 42.93600
C  28.54300 63.24400 40.97600
C  28.23600 62.98400 39.52100
N  28.12200 58.01400 40.58900
C  27.25500 59.05900 40.85300
C  25.90600 58.63900 40.67600
C  26.01600 57.44000 40.11100
C  27.35900 57.09300 40.04600
C  24.73700 59.51100 41.14200
C  25.21700 56.32900 39.63400
O  24.01700 56.20300 39.49200
C  26.19200 55.23100 39.13400
C  25.95800 54.06000 40.10400
O  25.75700 54.18200 41.32700
O  25.76400 52.82000 39.50400
C  25.08800 51.84100 40.38400
H  33.18500 55.08500 38.61300
H  33.29400 61.18300 40.94800
H  26.89300 61.04100 41.32900
H  28.77600 53.12900 38.90400
H  31.25300 53.83900 37.62600
H  30.32100 52.75100 40.26100
H  32.05600 53.34800 40.16800
H  31.56500 51.95000 39.27600
H  27.75200 53.81000 36.71900
H  29.35700 53.06100 36.56600
H  29.96800 54.96100 35.33800
H  29.50700 56.06500 36.53900
H  36.16200 57.11500 38.05600
H  35.20300 55.77900 38.19900
H  36.06100 56.14400 39.67200
H  35.36900 61.83400 40.18400
H  36.61300 61.21300 41.23700
H  34.94700 60.96000 41.72400
H  31.22000 62.84700 40.78900
H  28.98000 62.22300 42.76000
H  32.38600 62.13000 43.24300
H  30.81900 62.84100 43.74500
H  31.99300 63.72000 42.72800
H  29.19100 64.11900 41.02100
H  27.66900 63.50400 41.57200
H  27.17500 62.78200 39.37800
H  28.72400 62.08200 39.15100
H  28.54000 63.88300 38.98500
H  24.32300 60.02800 40.27700
H  25.01400 60.22200 41.92100
H  23.95500 58.87300 41.55500
H  25.95000 54.92300 38.11700
H  24.38900 51.34400 39.71200
H  24.54800 52.12600 41.28600
H  25.83700 51.07500 40.58700

