158

Mg 6.92600 55.56100 40.31500
C  4.34400 53.18700 39.88600
C  9.22200 52.99500 39.82900
C  9.29300 57.77400 40.14000
C  4.50100 57.99100 41.07300
N  6.75300 53.34300 39.50700
C  5.60600 52.60200 39.53700
C  5.94400 51.21800 38.99300
C  7.48900 51.14000 39.30800
C  7.85500 52.56600 39.61100
C  7.98600 50.33300 40.49900
C  5.49400 51.02900 37.49500
C  4.56100 49.83300 37.19300
H  4.77500 48.95900 35.92400
N  8.98400 55.43000 39.86600
C  9.75100 54.23700 39.81600
C  11.08400 54.58500 39.65800
C  11.16900 55.97500 39.58000
C  9.79900 56.44500 39.82700
C  12.28800 53.59600 39.46300
C  12.40200 56.77400 39.33900
O  13.44000 56.15300 39.13700
C  12.44400 58.27600 39.38800
N  6.82900 57.63200 40.44800
C  8.03800 58.27100 40.50200
C  7.88400 59.60500 41.08500
C  6.28900 59.87400 41.02400
C  5.76100 58.40500 40.82300
C  8.40900 59.71000 42.54700
C  5.95100 60.79400 39.81800
C  5.33500 62.16700 40.19900
N  4.88000 55.68600 40.46600
C  4.02800 56.70200 40.81800
C  2.69600 56.23100 40.96700
C  2.79600 54.82300 40.72800
C  4.08600 54.56300 40.23600
C  1.47600 56.98700 41.42800
C  2.06900 53.62100 40.73500
O  0.91100 53.33800 41.03900
C  2.99800 52.50200 40.12000
C  2.39500 52.08400 38.90100
O  2.66000 52.58300 37.83600
O  1.52600 51.04500 39.25500
C  0.74000 50.54600 38.21200
H  9.92100 52.17800 39.63900
H  10.09900 58.49200 40.30300
H  3.84300 58.76000 41.48200
H  5.47700 50.46900 39.63200
H  7.98300 51.00300 38.34600
H  9.01500 50.04300 40.28700
H  7.44400 49.38800 40.53000
H  7.90600 50.86900 41.44500
H  6.36300 51.06800 36.83800
H  5.02700 51.94300 37.12900
H  3.62000 50.27900 36.87200
H  4.42900 49.15300 38.03500
H  12.77200 53.66000 38.48800
H  12.23000 52.52500 39.65800
H  13.08300 54.03200 40.06800
H  11.98600 58.74100 38.51500
H  13.52100 58.44500 39.38800
H  12.18600 58.64700 40.38000
H  8.58800 60.19600 40.50000
H  5.98900 60.23100 42.00900
H  7.63400 60.05300 43.23300
H  9.36000 60.24000 42.59800
H  8.70000 58.73700 42.94300
H  5.31800 60.28600 39.09100
H  6.83500 61.01700 39.22100
H  4.74200 62.12700 41.11300
H  4.51000 62.21200 39.48900
H  5.98400 63.03600 40.30900
H  0.71400 56.21500 41.53700
H  1.06400 57.65000 40.66700
H  1.62500 57.51800 42.36800
H  3.07100 51.66800 40.81800
H  0.20300 49.66800 38.57000
H  1.28000 50.21800 37.32400
H  0.01600 51.26800 37.83400
Mg 1.44700 42.71600 24.70400
C  2.40600 42.87600 27.98300
C  -1.69200 41.56400 25.73400
C  0.63100 41.78500 21.44900
C  4.60300 43.50400 23.59400
N  0.53600 42.15700 26.68700
C  1.03900 42.50300 27.87100
C  -0.04800 42.30400 28.93000
C  -1.28700 41.80000 28.16500
C  -0.80300 41.76300 26.81000
C  -1.79600 40.37900 28.64300
C  -0.20200 43.59900 29.73800
C  -0.49300 43.38600 31.24300
H  -1.08600 42.05100 31.76600
N  -0.30200 41.93200 23.70900
C  -1.45200 41.56400 24.33900
C  -2.46000 41.25100 23.36600
C  -1.82300 41.35800 22.06800
C  -0.44700 41.72700 22.34500
C  -3.93300 40.92300 23.74700
C  -2.37100 41.18200 20.68400
O  -1.71700 41.24600 19.66500
C  -3.83000 40.67800 20.59500
N  2.43900 42.64500 22.76800
C  1.94600 42.17900 21.65600
C  3.05800 42.03100 20.55400
C  4.16400 43.04200 21.11400
C  3.70400 43.16500 22.55000
C  3.50400 40.56700 20.47700
C  4.13700 44.46100 20.54900
C  4.92300 44.59700 19.23000
N  3.21600 43.06100 25.59700
C  4.42500 43.39700 25.08200
C  5.29200 43.68600 26.17200
C  4.57800 43.50200 27.35000
C  3.32600 43.09800 26.92300
C  6.68600 44.15600 26.13500
C  4.68200 43.50100 28.85100
O  5.56500 43.73900 29.66700
C  3.23000 43.00400 29.28000
C  3.42000 41.70200 30.01100
O  4.51600 41.03600 30.01800
O  2.36000 41.27300 30.78600
C  2.42000 40.17500 31.71500
H  -2.68400 41.33900 26.13100
H  0.47800 41.35600 20.45700
H  5.51700 43.85000 23.10700
H  0.30000 41.50900 29.58900
H  -2.06400 42.54100 28.35300
H  -1.48200 39.65700 27.89000
H  -2.87900 40.46200 28.73200
H  -1.34100 40.05800 29.58000
H  -1.00600 44.21900 29.34000
H  0.64500 44.28000 29.64900
H  -1.05000 44.28300 31.51500
H  0.45200 43.47100 31.77900
H  -4.59600 41.72300 23.41600
H  -4.09300 40.74400 24.81000
H  -4.20700 39.98500 23.26300
H  -4.19200 40.82200 19.57700
H  -4.58500 41.13300 21.23700
H  -3.80900 39.59800 20.74100
H  2.64400 42.26000 19.57200
H  5.18000 42.64900 21.15000
H  4.47900 40.49800 20.95900
H  3.55100 40.30700 19.41900
H  2.85500 39.83900 20.96400
H  4.66400 44.99300 21.34200
H  3.12500 44.86000 20.48800
H  4.97700 45.63600 18.90500
H  4.65000 43.96000 18.38900
H  5.94300 44.30900 19.48300
H  7.36400 43.35000 25.85500
H  6.91100 44.72800 27.03400
H  6.76400 44.72100 25.20600
H  2.65500 43.68400 29.90800
H  2.46500 39.24400 31.15100
H  1.39500 40.08800 32.07400
H  3.19600 40.35900 32.45800

