158

Mg 16.43300 -1.36000 28.53800
C  15.76400 0.93600 31.08300
C  18.39800 -3.12600 30.51900
C  17.50400 -3.02900 25.79300
C  14.94600 1.10600 26.25700
N  16.86800 -1.16200 30.55100
C  16.57000 -0.10000 31.46200
C  17.04600 -0.43600 32.86600
C  18.18000 -1.49900 32.55500
C  17.78200 -1.99700 31.12500
C  19.71500 -1.04800 32.63800
C  15.94400 -0.99900 33.81200
C  15.68800 -0.34200 35.14300
H  16.92700 0.35600 35.82800
N  17.61900 -2.99900 28.26200
C  18.28800 -3.67300 29.22400
C  18.89200 -4.90100 28.68000
C  18.72100 -4.79000 27.27800
C  17.87700 -3.56300 27.00800
C  19.80600 -5.77300 29.52500
C  19.37500 -5.64800 26.18200
O  19.26900 -5.47500 24.98600
C  20.20700 -6.81100 26.56700
N  16.15000 -1.11600 26.42000
C  16.81400 -1.84000 25.50900
C  16.54400 -1.35300 24.06900
C  15.46400 -0.26200 24.22500
C  15.48300 -0.05200 25.73700
C  17.82700 -0.84800 23.38000
C  14.13400 -0.65900 23.55200
C  13.50600 0.55900 22.79600
N  15.27900 0.53700 28.58200
C  14.80700 1.43300 27.68900
C  14.08700 2.42200 28.32900
C  14.44400 2.29300 29.66400
C  15.23900 1.11500 29.79000
C  13.18300 3.44500 27.58700
C  14.17000 2.82200 30.96000
O  13.46900 3.74800 31.31700
C  15.14200 2.05700 31.90300
C  16.14100 3.10300 32.37000
O  17.31100 3.16100 32.03200
O  15.52000 3.96500 33.32800
C  16.34100 5.04200 33.86400
H  19.00900 -3.67700 31.23700
H  17.83900 -3.59300 24.92000
H  14.53000 1.80900 25.53200
H  17.43800 0.53400 33.17100
H  18.01000 -2.30000 33.27400
H  19.97700 -0.90200 31.59000
H  20.24300 -1.82000 33.19800
H  19.79500 -0.01700 32.98300
H  16.01500 -2.07000 34.00300
H  15.09100 -0.81600 33.15900
H  15.09300 -0.96900 35.80700
H  15.02300 0.47600 34.86700
H  19.67300 -5.57800 30.59000
H  20.83000 -5.55800 29.22000
H  19.63400 -6.79600 29.19300
H  20.75000 -7.10300 25.66800
H  19.56200 -7.60400 26.94400
H  20.99400 -6.44700 27.22800
H  16.20900 -2.18600 23.45200
H  15.74100 0.68900 23.77100
H  17.84600 0.22100 23.16700
H  18.01100 -1.39300 22.45400
H  18.66400 -1.10700 24.02900
H  13.49800 -0.80500 24.42500
H  14.23700 -1.52600 22.89900
H  14.15700 1.31700 22.36000
H  12.84500 1.01600 23.53200
H  12.90600 0.21000 21.95600
H  13.36000 4.47800 27.88500
H  12.20100 3.26200 28.02400
H  13.23400 3.27100 26.51300
H  14.58200 1.72300 32.77600
H  16.46500 5.81500 33.10600
H  17.32400 4.62400 34.08400
H  16.05900 5.36200 34.86700
Mg -1.70900 33.58900 27.29200
C  -3.74500 31.91400 29.60200
C  -0.62400 35.63500 29.80900
C  -0.15800 35.44500 25.01200
C  -3.19600 31.73700 24.68900
N  -2.11500 33.75100 29.46700
C  -2.94000 32.92700 30.19700
C  -2.90600 33.35200 31.66400
C  -2.07600 34.66100 31.62900
C  -1.54700 34.70000 30.21800
C  -2.90700 35.86200 32.09000
C  -2.35500 32.18100 32.53800
C  -3.22800 31.76900 33.69000
H  -2.63300 31.67000 35.10600
N  -0.46900 35.22700 27.43600
C  -0.09000 35.96200 28.53000
C  0.76600 37.04900 28.13300
C  0.93200 36.89400 26.79800
C  0.10200 35.83200 26.33300
C  1.28300 38.15500 29.14600
C  1.80800 37.78000 25.82900
O  2.02700 37.57700 24.65700
C  2.65200 38.89400 26.39700
N  -1.65400 33.57800 25.28200
C  -1.05000 34.52300 24.51000
C  -1.28700 34.36200 22.96100
C  -2.00300 32.98600 22.90200
C  -2.29000 32.70900 24.39200
C  -2.06800 35.47700 22.34600
C  -1.23500 31.89000 22.09000
C  -0.21000 31.07400 22.95400
N  -3.18600 32.09800 27.11400
C  -3.67400 31.40800 25.97500
C  -4.53500 30.35600 26.42400
C  -4.50900 30.53200 27.83700
C  -3.78900 31.62900 28.18600
C  -5.20300 29.37200 25.69500
C  -5.13500 30.02100 29.01500
O  -5.83000 29.04200 29.08300
C  -4.68300 30.93800 30.28900
C  -5.93000 31.55100 30.70400
O  -6.71100 32.21400 30.02800
O  -6.22600 31.20300 31.96200
C  -7.29600 31.76400 32.75400
H  -0.27700 36.37700 30.53200
H  0.24800 36.09700 24.23600
H  -3.52000 31.07200 23.88500
H  -3.93600 33.48400 31.99500
H  -1.30500 34.49800 32.38200
H  -2.54800 36.70800 31.50400
H  -2.80500 36.05100 33.15900
H  -3.97800 35.84500 31.88900
H  -1.40400 32.40600 33.02000
H  -2.13800 31.35800 31.85600
H  -3.54100 30.75700 33.43400
H  -4.14800 32.34000 33.81300
H  2.35300 38.27400 28.97400
H  1.10400 37.98300 30.20800
H  0.67100 39.05100 29.03600
H  2.11400 39.55200 27.07900
H  3.08700 39.46000 25.57400
H  3.46200 38.36200 26.89500
H  -0.33100 34.29000 22.44300
H  -3.01300 33.02600 22.49400
H  -2.73800 35.07800 21.58500
H  -1.37800 36.15600 21.84500
H  -2.58700 35.89700 23.20800
H  -0.70000 32.25700 21.21400
H  -2.00400 31.21900 21.70600
H  0.67900 30.71100 22.44000
H  -0.65500 30.15600 23.33800
H  0.20300 31.76000 23.69400
H  -4.56100 28.90300 24.94900
H  -6.00700 29.83000 25.11900
H  -5.52800 28.58800 26.37900
H  -4.19500 30.30000 31.02600
H  -8.11600 32.23300 32.21000
H  -6.90400 32.56200 33.38500
H  -7.70500 31.04800 33.46600

