158

Mg 1.53600 42.01600 26.28000
C  3.78700 41.98900 29.12600
C  -0.99600 41.35700 28.36300
C  -0.14800 41.40900 23.57000
C  4.56900 42.08400 24.36200
N  1.44600 41.85900 28.50500
C  2.41000 41.92700 29.43900
C  1.76800 41.80300 30.81900
C  0.32000 41.27100 30.51000
C  0.23200 41.56700 29.05400
C  0.06600 39.77600 30.87100
C  1.84900 43.08800 31.72700
C  2.21200 42.91600 33.19200
H  1.80600 41.62400 33.86600
N  -0.29900 41.52100 26.05100
C  -1.24700 41.36000 26.99100
C  -2.51900 41.05200 26.40600
C  -2.24800 40.91400 24.98100
C  -0.85000 41.29100 24.78800
C  -3.82800 40.98800 27.20800
C  -3.25800 40.55300 23.94600
O  -3.02700 40.59900 22.73600
C  -4.61400 40.22400 24.45100
N  2.12700 41.93200 24.23300
C  1.17900 41.81600 23.28800
C  1.85500 41.96400 21.90600
C  3.28700 42.47600 22.25200
C  3.39000 42.10300 23.72400
C  1.85700 40.59200 21.17500
C  3.57100 44.01000 22.00000
C  4.58500 44.39500 20.93100
N  3.75200 41.99200 26.64500
C  4.80800 42.08400 25.73400
C  6.13200 42.24800 26.39600
C  5.77500 42.20100 27.76600
C  4.33400 42.07200 27.81000
C  7.46900 42.33000 25.78600
C  6.28300 42.19600 29.06900
O  7.40200 42.28100 29.46300
C  4.95400 42.21600 30.02200
C  5.18100 41.21100 31.09400
O  4.94900 39.97600 30.97800
O  5.62000 41.81600 32.19200
C  6.11500 40.88700 33.21800
H  -1.80000 40.97300 28.99400
H  -0.74000 41.20900 22.67500
H  5.43900 42.29100 23.73600
H  2.36100 41.04800 31.33600
H  -0.46000 41.76800 31.08600
H  -0.20000 39.15600 30.01500
H  -0.79700 39.68200 31.53000
H  0.88900 39.32600 31.42700
H  1.03000 43.79600 31.59600
H  2.66600 43.71900 31.37500
H  1.53700 43.60000 33.70700
H  3.29200 43.03200 33.27700
H  -3.76900 41.30600 28.24900
H  -4.11900 39.93700 27.21100
H  -4.60200 41.64100 26.80400
H  -5.12800 41.14000 24.73900
H  -4.61400 39.48000 25.24800
H  -5.19500 39.74000 23.66600
H  1.49900 42.85100 21.38300
H  3.99000 41.91300 21.63800
H  1.16600 39.88000 21.62800
H  2.79900 40.09300 21.40200
H  1.63000 40.57300 20.10900
H  3.97400 44.35700 22.95200
H  2.60500 44.48700 21.83300
H  5.39400 44.86800 21.48800
H  4.13800 45.09300 20.22300
H  4.92700 43.52200 20.37500
H  7.76200 43.37300 25.66800
H  7.59500 41.82500 24.82800
H  8.17000 41.85600 26.47300
H  4.89600 43.21300 30.45900
H  6.67200 40.10900 32.69500
H  5.38800 40.30600 33.78400
H  6.73100 41.47300 33.90000
Mg -2.22700 33.61000 26.57800
C  -4.07400 32.15100 29.38200
C  -0.76200 35.74300 28.73900
C  -1.05000 35.15200 23.91400
C  -4.46500 31.60700 24.44000
N  -2.43300 33.84400 28.83600
C  -3.16200 33.09500 29.80900
C  -2.83500 33.54300 31.24000
C  -1.85600 34.73900 30.92900
C  -1.59000 34.77600 29.35700
C  -2.28500 36.08500 31.56100
C  -2.31800 32.38300 32.14900
C  -2.81800 32.34400 33.55700
H  -1.84000 32.24400 34.78400
N  -1.04900 35.28400 26.32500
C  -0.42500 35.96100 27.35900
C  0.53200 36.96600 26.80700
C  0.56000 36.64400 25.39100
C  -0.57400 35.67700 25.16400
C  1.40400 37.98900 27.51100
C  1.38900 37.35000 24.37900
O  1.22800 37.21800 23.14200
C  2.43900 38.33400 24.84400
N  -2.92300 33.55400 24.36900
C  -2.08300 34.26300 23.51400
C  -2.38400 33.77200 22.06600
C  -3.40300 32.62500 22.24500
C  -3.53400 32.45000 23.77000
C  -2.93600 35.01500 21.29600
C  -3.04000 31.39600 21.43200
C  -2.05500 30.41500 22.05400
N  -3.83600 32.13200 26.79300
C  -4.58700 31.44500 25.86000
C  -5.54100 30.54500 26.47900
C  -5.37500 30.78000 27.86300
C  -4.32900 31.71800 28.02500
C  -6.46800 29.63800 25.73300
C  -5.83500 30.39000 29.15900
O  -6.67800 29.55700 29.45900
C  -5.03100 31.29800 30.14400
C  -6.02500 32.10400 30.85900
O  -6.95900 32.66600 30.28900
O  -5.92300 31.93800 32.22600
C  -7.09900 32.32200 33.00100
H  -0.20200 36.42500 29.38200
H  -0.40200 35.50400 23.10800
H  -5.13000 30.86900 23.98600
H  -3.79200 33.88700 31.63100
H  -0.84300 34.71200 31.33200
H  -3.14100 35.94500 32.22200
H  -2.53200 36.66700 30.67300
H  -1.46800 36.54100 32.11900
H  -1.22900 32.41000 32.11000
H  -2.64000 31.41500 31.76500
H  -3.45600 31.46300 33.62600
H  -3.45500 33.20500 33.75900
H  2.46700 37.74600 27.51200
H  1.09400 37.90700 28.55300
H  1.28400 39.05600 27.32300
H  1.94500 39.22200 25.24000
H  2.97800 38.62000 23.94100
H  3.16800 37.88600 25.51900
H  -1.46200 33.48800 21.55600
H  -4.37000 32.96000 21.87000
H  -2.85800 35.92500 21.89200
H  -3.93000 34.86700 20.87200
H  -2.37300 35.25600 20.39500
H  -2.57400 31.78300 20.52600
H  -3.88400 30.82000 21.05000
H  -1.36100 30.16900 21.25000
H  -2.58400 29.51200 22.36100
H  -1.54300 30.90000 22.88500
H  -6.96700 30.26700 24.99600
H  -7.18800 29.27400 26.46600
H  -5.94000 28.87600 25.16000
H  -4.55500 30.52800 30.75000
H  -7.77300 31.46600 33.02300
H  -7.51700 33.28700 32.71600
H  -6.67800 32.35300 34.00600

