158

Mg 53.52500 24.27400 43.99600
C  50.72200 26.68400 43.48300
C  51.17600 21.80800 43.20100
C  56.05000 22.29700 43.54100
C  55.52100 27.05800 44.12400
N  51.23800 24.34500 43.32400
C  50.32500 25.32900 43.27100
C  48.95000 24.71500 42.91500
C  49.04500 23.25300 43.28500
C  50.62800 23.08300 43.34500
C  48.31800 22.66500 44.51500
C  48.50400 25.18700 41.49100
C  49.23800 24.47900 40.30100
H  50.05500 25.30200 39.36200
N  53.59000 22.30800 43.52500
C  52.56400 21.48600 43.13000
C  53.13300 20.18900 42.76400
C  54.49700 20.21300 43.13900
C  54.77100 21.63500 43.42300
C  52.37000 19.01000 42.11100
C  55.39300 19.01600 43.38100
O  54.91400 17.88900 43.10500
C  56.80300 19.05200 43.89200
N  55.46900 24.57000 43.90300
C  56.35300 23.59000 43.71700
C  57.80000 24.17300 43.81400
C  57.55900 25.68400 43.85100
C  56.07200 25.76500 43.90900
C  58.66500 23.51800 44.96900
C  58.15900 26.57600 42.68000
C  58.77200 27.97900 43.11900
N  53.25700 26.41300 43.98300
C  54.21200 27.41000 44.03000
C  53.60500 28.72700 44.07600
C  52.26700 28.51300 43.88400
C  52.11500 27.07400 43.78600
C  54.37200 29.96800 44.38300
C  51.01200 29.11400 43.88800
O  50.69100 30.23700 44.22600
C  50.01700 28.12100 43.43700
C  49.68400 28.53300 42.02300
O  50.41200 28.35500 41.09700
O  48.39300 28.98400 41.86400
C  47.96300 29.51900 40.59200
H  50.46400 21.00100 43.01700
H  56.99600 21.79300 43.33500
H  56.13600 27.91900 44.39600
H  48.21300 25.12400 43.60600
H  48.67300 22.60400 42.49200
H  47.75300 23.46700 44.98900
H  48.96400 22.23300 45.28000
H  47.60600 21.87600 44.27300
H  48.57200 26.24400 41.23700
H  47.45700 24.89100 41.41900
H  48.48500 24.03100 39.65300
H  49.84500 23.61700 40.57900
H  52.68500 18.78800 41.09100
H  51.35100 19.37900 41.99000
H  52.30300 18.07000 42.65800
H  57.51100 19.13400 43.06800
H  56.98800 18.06900 44.32700
H  56.89000 19.85600 44.62300
H  58.30700 23.76900 42.93700
H  57.90000 26.19100 44.75400
H  58.26800 22.57300 45.34100
H  59.03200 24.25300 45.68500
H  59.51800 23.14900 44.39900
H  57.35800 26.70700 41.95200
H  58.94600 25.93000 42.29000
H  58.25300 28.72300 42.51400
H  59.85500 28.06800 43.03200
H  58.49000 28.13400 44.16100
H  53.61100 30.69600 44.66400
H  55.04100 30.22700 43.56200
H  55.04900 29.79400 45.21900
H  49.15700 28.15600 44.10700
H  46.89100 29.65900 40.72900
H  48.16900 28.84600 39.75900
H  48.43200 30.47500 40.35800
Mg 48.02600 35.52300 27.60600
C  46.25500 33.53100 29.99100
C  48.29300 37.94900 30.19400
C  49.43700 37.57000 25.35000
C  47.62800 33.12100 25.24800
N  47.25300 35.77500 29.79700
C  46.68100 34.76500 30.59000
C  46.67600 35.08200 32.05900
C  47.04400 36.61600 32.12900
C  47.55700 36.84900 30.65200
C  45.94700 37.58300 32.70600
C  47.78700 34.28200 32.73000
C  47.76200 34.01400 34.24700
H  46.92500 34.91400 35.19100
N  48.71000 37.45000 27.75300
C  48.64400 38.29600 28.89900
C  49.23600 39.57500 28.51800
C  49.75600 39.42200 27.19600
C  49.31500 38.07700 26.70800
C  49.27300 40.77700 29.42400
C  50.48300 40.46600 26.38600
O  50.84000 40.28400 25.20100
C  51.05300 41.67500 27.05100
N  48.20200 35.52000 25.48400
C  48.89100 36.47000 24.78900
C  49.30600 35.99200 23.38300
C  48.90400 34.49700 23.41300
C  48.17800 34.34100 24.78100
C  48.64200 36.95100 22.30500
C  50.03600 33.38800 23.17400
C  49.94000 32.66900 21.79300
N  46.92400 33.87900 27.45500
C  46.92800 32.92100 26.47300
C  46.22500 31.73400 26.85200
C  45.80200 32.04700 28.21100
C  46.36600 33.25700 28.57000
C  46.03000 30.50200 26.08900
C  45.15100 31.40200 29.33000
O  44.63000 30.26700 29.39700
C  45.22100 32.53800 30.47900
C  45.50900 31.88200 31.79500
O  46.22400 30.88700 31.91500
O  44.72300 32.50800 32.68300
C  44.44200 31.92400 34.01400
H  48.54600 38.71700 30.92800
H  49.94900 38.15300 24.58200
H  47.68100 32.28400 24.54900
H  45.72800 34.91500 32.57200
H  47.94400 36.67300 32.74100
H  46.07000 37.67500 33.78500
H  44.98000 37.09800 32.57600
H  45.93000 38.57200 32.24800
H  48.74800 34.74600 32.50900
H  47.88500 33.26600 32.34800
H  48.79000 34.22900 34.53600
H  47.54800 32.96200 34.43900
H  48.91700 41.67500 28.92000
H  50.28000 40.96300 29.79800
H  48.62400 40.58600 30.27900
H  51.68700 42.13000 26.29000
H  51.75300 41.37300 27.83100
H  50.26900 42.35200 27.39000
H  50.38700 36.11000 23.44700
H  48.17000 34.36400 22.61800
H  48.02400 36.31100 21.67500
H  49.27900 37.64400 21.75600
H  47.92800 37.57800 22.84100
H  50.14100 32.60400 23.92400
H  50.94400 33.98900 23.13600
H  48.92900 32.75600 21.39700
H  50.17000 31.62000 21.98000
H  50.44200 33.11100 20.93200
H  44.97100 30.29500 25.93900
H  46.38200 29.61800 26.62000
H  46.59300 30.46500 25.15600
H  44.25600 33.04400 30.46300
H  43.38800 31.64700 34.00700
H  44.74000 32.62700 34.79200
H  45.00800 30.99600 34.10000

