158

Mg 5.66300 53.71600 42.62400
C  5.09400 50.36200 41.85900
C  8.47000 53.66900 40.94200
C  5.74700 56.99000 42.94200
C  2.32500 53.72500 43.83300
N  6.54900 52.17500 41.37000
C  6.24500 50.84800 41.20100
C  7.29100 50.05200 40.37800
C  8.43600 51.13900 40.42500
C  7.78300 52.44800 40.97900
C  9.61900 50.74000 41.41700
C  6.74100 49.75700 39.00400
C  7.11700 48.48800 38.41600
H  6.46200 48.05200 37.08600
N  6.97100 55.19500 42.08600
C  8.13400 54.93900 41.46000
C  8.99000 56.16300 41.45700
C  8.19600 57.20700 42.08900
C  6.87200 56.49000 42.41500
C  10.28100 56.24400 40.72300
C  8.57500 58.63100 42.34300
O  9.71900 58.99800 41.99300
C  7.76600 59.59700 43.16300
N  4.13100 55.24000 43.12100
C  4.49600 56.53100 43.22800
C  3.36800 57.38400 43.81500
C  2.23600 56.27800 44.05400
C  2.93200 55.00200 43.63800
C  3.77900 58.34900 45.00700
C  0.87000 56.43700 43.24600
C  -0.36500 56.63100 44.26200
N  4.09900 52.37200 42.96400
C  2.87700 52.52700 43.48500
C  2.22600 51.25800 43.62700
C  3.09600 50.33600 43.00800
C  4.22100 51.06800 42.57600
C  0.91600 51.01400 44.26500
C  3.33200 48.97200 42.66600
O  2.62000 47.93300 42.82100
C  4.71300 48.87300 41.98600
C  4.61800 48.02000 40.77000
O  4.11900 48.35600 39.70400
O  5.06000 46.75700 41.03600
C  4.67700 45.75100 40.12600
H  9.41500 53.71500 40.39900
H  5.79400 58.07400 43.06300
H  1.36000 53.73300 44.34300
H  7.68100 49.17000 40.88500
H  8.89200 51.31300 39.45000
H  9.55600 51.37600 42.30000
H  10.60800 50.99600 41.03500
H  9.67400 49.66800 41.60800
H  7.24900 50.44400 38.32700
H  5.69300 50.03200 38.88300
H  6.92500 47.73600 39.18200
H  8.19900 48.61600 38.40000
H  10.58300 55.32500 40.22300
H  11.07300 56.71900 41.30200
H  10.10100 57.03500 39.99500
H  8.26700 60.55900 43.26800
H  7.66100 59.18900 44.16900
H  6.80500 59.76600 42.67700
H  3.06400 57.92200 42.91800
H  2.07900 56.25300 45.13300
H  4.86200 58.38500 45.12400
H  3.26200 57.94000 45.87500
H  3.40100 59.33900 44.75500
H  0.68600 55.50000 42.72000
H  0.80200 57.34700 42.65100
H  0.00900 56.50200 45.27800
H  -1.16600 55.97700 43.91600
H  -0.68300 57.67300 44.23700
H  1.00200 50.59500 45.26800
H  0.29700 50.29100 43.73400
H  0.33900 51.93400 44.35900
H  5.41600 48.36300 42.64600
H  3.59500 45.72400 40.25800
H  5.23800 44.86600 40.42400
H  5.01200 45.94100 39.10700
Mg -6.17300 25.51300 26.13500
C  -4.64300 26.68800 28.94900
C  -8.33500 23.84800 28.00500
C  -7.18300 23.85300 23.32100
C  -3.62900 27.10800 24.16100
N  -6.22400 25.10300 28.21100
C  -5.64300 25.82500 29.25000
C  -6.28700 25.42400 30.58800
C  -7.26000 24.24600 30.23800
C  -7.30400 24.38600 28.72400
C  -6.75800 22.83100 30.63300
C  -6.89900 26.62100 31.43000
C  -6.74500 26.60900 32.93600
H  -6.12400 25.33500 33.61600
N  -7.60900 24.03700 25.67800
C  -8.41000 23.51600 26.58700
C  -9.26400 22.57200 26.04300
C  -8.88300 22.46300 24.66800
C  -7.83300 23.44100 24.47100
C  -10.35700 21.81500 26.90400
C  -9.47900 21.58700 23.60400
O  -9.06500 21.70200 22.43700
C  -10.71500 20.83500 23.88800
N  -5.57900 25.58900 24.10600
C  -6.06900 24.68500 23.13300
C  -5.33600 24.74300 21.80800
C  -4.29500 25.87800 22.03000
C  -4.53100 26.27200 23.49900
C  -4.71200 23.38700 21.42800
C  -4.30600 27.02000 20.92200
C  -3.02400 27.38700 20.17600
N  -4.59600 26.79800 26.42000
C  -3.69200 27.35100 25.55500
C  -2.87500 28.32200 26.30400
C  -3.22400 28.05600 27.65900
C  -4.15000 27.06100 27.69700
C  -1.74600 29.21100 25.84300
C  -2.89500 28.42800 29.02800
O  -2.07500 29.27400 29.48000
C  -3.89300 27.55600 29.94100
C  -3.14600 26.80300 30.92500
O  -2.74700 25.63000 30.83300
O  -2.89100 27.51300 32.05900
C  -1.96400 27.00800 33.06600
H  -9.13600 23.49100 28.65600
H  -7.55600 23.34800 22.42800
H  -2.89300 27.70500 23.61900
H  -5.44100 25.12100 31.20600
H  -8.19100 24.42800 30.77500
H  -6.02100 23.08800 31.39400
H  -6.30200 22.40500 29.73900
H  -7.58500 22.23000 31.01000
H  -7.97800 26.64200 31.27700
H  -6.53100 27.53500 30.96400
H  -7.70800 26.77100 33.42100
H  -6.23100 27.54300 33.16300
H  -10.30700 22.14600 27.94200
H  -10.11300 20.75700 26.81400
H  -11.33100 22.09300 26.50300
H  -10.53800 19.92700 24.46500
H  -11.11300 20.55400 22.91300
H  -11.50200 21.45100 24.32200
H  -5.98400 25.11700 21.01500
H  -3.26900 25.51200 22.08400
H  -5.03500 22.64900 22.16100
H  -3.63200 23.27300 21.33400
H  -5.09100 23.13600 20.43700
H  -4.54600 27.96700 21.40400
H  -5.06600 26.83400 20.16300
H  -2.17700 26.79500 20.52200
H  -2.74000 28.43500 20.07900
H  -3.11200 27.28400 19.09400
H  -2.23800 30.16900 25.67100
H  -1.38500 28.94000 24.85100
H  -1.09800 29.34500 26.70900
H  -4.50600 28.23700 30.53000
H  -1.66600 25.96300 32.97700
H  -2.50600 27.12200 34.00500
H  -1.09100 27.64200 33.22200

