158

Mg 47.18200 17.14100 27.47800
C  45.46500 17.30500 30.49100
C  49.64800 19.20200 28.91700
C  48.60600 17.72200 24.39400
C  44.31100 16.21700 25.91400
N  47.51400 18.06300 29.52100
C  46.71000 17.88500 30.56700
C  47.34100 18.47000 31.82200
C  48.52300 19.32700 31.25900
C  48.61500 18.86100 29.79600
C  48.39000 20.82600 31.51900
C  47.67200 17.38100 32.86400
C  47.26900 17.79100 34.36800
H  47.24700 19.34100 34.67300
N  49.05400 17.97500 26.84100
C  49.88000 18.80300 27.54300
C  50.96900 19.23800 26.67200
C  50.69700 18.66600 25.37300
C  49.41100 18.01800 25.50700
C  52.04900 20.18800 27.05400
C  51.65000 18.72300 24.07400
O  51.13200 18.48700 22.93500
C  53.11900 19.04900 24.17100
N  46.67400 16.80300 25.48300
C  47.29500 17.23300 24.44500
C  46.49100 17.22000 23.15300
C  45.27800 16.35600 23.57900
C  45.36700 16.49800 25.08500
C  46.09100 18.71000 22.74700
C  45.21900 14.84200 23.17000
C  44.13900 14.40500 22.22900
N  45.30300 16.55600 28.08700
C  44.23500 16.17600 27.30800
C  43.08100 15.89400 28.14800
C  43.52800 16.23100 29.44500
C  44.82200 16.76400 29.33500
C  41.76600 15.44800 27.84200
C  43.10500 16.34000 30.83200
O  42.02300 16.12800 31.32600
C  44.35300 16.98300 31.59200
C  43.87600 18.14000 32.39300
O  43.61400 19.25200 31.99000
O  43.80400 17.81300 33.71600
C  43.08800 18.79400 34.48700
H  50.38400 19.83400 29.42000
H  48.89000 18.02200 23.38300
H  43.40400 15.82200 25.45200
H  46.63500 19.23800 32.14100
H  49.44100 18.99700 31.74500
H  47.51800 21.15400 32.08500
H  48.47700 21.25100 30.51900
H  49.24800 21.19100 32.08400
H  48.71800 17.08300 32.79400
H  47.14300 16.45700 32.63400
H  48.05500 17.35000 34.98100
H  46.30600 17.35000 34.62300
H  51.68900 20.69700 27.94900
H  52.23500 20.85600 26.21300
H  52.98200 19.64400 27.19900
H  53.33300 18.58500 25.13400
H  53.10300 20.13800 24.16000
H  53.70200 18.61300 23.35900
H  47.07500 16.77300 22.34800
H  44.37400 16.89500 23.29600
H  45.13800 18.74100 22.21800
H  46.95400 19.13600 22.23600
H  45.89900 19.25400 23.67200
H  45.18500 14.26000 24.09100
H  46.06900 14.58000 22.53900
H  44.40100 14.72900 21.22100
H  43.22500 14.91200 22.53700
H  44.01600 13.33500 22.39500
H  41.81000 14.35900 27.82300
H  41.47500 15.84700 26.87000
H  41.05800 15.71000 28.62900
H  44.67900 16.15500 32.22200
H  42.09800 18.95200 34.06000
H  43.64600 19.71400 34.30900
H  43.14900 18.56300 35.55100
Mg 10.46100 48.17900 26.19200
C  8.36600 47.80000 29.00900
C  12.78600 49.41200 28.01700
C  12.06900 48.66500 23.25400
C  7.47500 47.32800 24.30500
N  10.39900 48.71000 28.25700
C  9.60000 48.24300 29.28000
C  10.19800 48.64200 30.66300
C  11.44000 49.42700 30.24100
C  11.56500 49.16100 28.73200
C  11.60600 50.94600 30.60100
C  10.54800 47.45300 31.62400
C  9.96900 47.48100 33.07100
H  10.49200 46.44900 34.14300
N  12.21000 48.89800 25.74500
C  13.16000 49.25200 26.65100
C  14.49100 49.22800 26.05100
C  14.25500 49.08400 24.69300
C  12.79900 48.81800 24.47400
C  15.71500 49.56400 26.82600
C  15.23100 49.03900 23.55900
O  14.89600 48.88800 22.40800
C  16.67800 49.30600 23.82200
N  9.92600 47.98500 24.05400
C  10.73900 48.33400 23.02800
C  10.01400 48.32000 21.68600
C  8.69200 47.58300 22.04200
C  8.63800 47.70900 23.58900
C  9.85300 49.74000 21.19100
C  8.49100 46.15500 21.37400
C  9.30100 45.05000 22.00000
N  8.36600 47.53000 26.46700
C  7.37900 47.20200 25.66700
C  6.14600 46.92200 26.43200
C  6.49000 47.15100 27.71300
C  7.82900 47.52400 27.69400
C  4.77100 46.56300 25.91300
C  5.94100 47.06600 29.07700
O  4.89300 46.61700 29.55300
C  7.21100 47.49200 29.96000
C  7.45700 46.27500 30.77400
O  7.96500 45.20400 30.37800
O  7.02400 46.51300 32.00500
C  7.00900 45.33000 32.85500
H  13.58400 49.63200 28.72900
H  12.61800 48.88400 22.33600
H  6.68600 46.93300 23.66200
H  9.64100 49.44200 31.14900
H  12.40700 49.07600 30.60100
H  12.33800 51.00500 31.40600
H  10.75600 51.52200 30.96900
H  11.95100 51.44000 29.69300
H  11.63000 47.32900 31.56100
H  10.09700 46.60100 31.11500
H  8.88200 47.55400 33.07400
H  10.29500 48.41200 33.53500
H  16.20400 50.43500 26.39200
H  16.30800 48.64900 26.84400
H  15.36500 49.84700 27.81800
H  16.92700 50.36700 23.80300
H  17.14500 48.58000 23.15700
H  17.00100 49.04200 24.83000
H  10.37300 47.58800 20.96200
H  7.78500 48.10300 21.73600
H  8.82300 50.09100 21.25300
H  9.85600 49.78900 20.10200
H  10.64700 50.39500 21.55000
H  8.64000 46.15100 20.29400
H  7.42300 45.97300 21.48700
H  9.76400 45.41000 22.91900
H  10.04400 44.71000 21.27800
H  8.62600 44.27500 22.36200
H  4.88700 45.64300 25.34000
H  4.31800 47.41300 25.40400
H  4.16000 46.25700 26.76200
H  6.91800 48.30300 30.62700
H  6.73000 45.62300 33.86800
H  8.01400 44.91200 32.90000
H  6.24000 44.63300 32.52300

