158

Mg 0.93700 8.60600 27.20700
C  1.56200 10.73900 29.91900
C  0.46400 6.00600 29.39300
C  0.21800 6.69200 24.51300
C  1.59000 11.20900 25.09100
N  1.17300 8.37800 29.44700
C  1.24500 9.42000 30.32400
C  1.03700 8.92400 31.77500
C  0.90400 7.34300 31.64900
C  0.79600 7.20400 30.12500
C  2.23800 6.48600 32.06700
C  -0.24600 9.52100 32.50500
C  -0.77300 8.93800 33.86800
H  0.17100 8.49400 34.93700
N  0.42500 6.60200 27.01500
C  0.31600 5.70800 28.01200
C  -0.12600 4.40000 27.48600
C  -0.05600 4.54900 26.02600
C  0.20800 6.01200 25.80400
C  -0.44700 3.20600 28.41700
C  -0.23500 3.49100 25.04000
O  -0.13100 3.71200 23.83900
C  -0.58800 2.04200 25.46300
N  0.98400 8.92600 25.08500
C  0.52400 8.03900 24.20600
C  0.60200 8.44400 22.73500
C  0.81200 9.94100 22.96600
C  1.24800 10.05000 24.42000
C  1.66300 7.72300 21.82900
C  -0.38900 10.76900 22.62600
C  -0.06600 12.15400 22.05200
N  1.58000 10.58400 27.39100
C  1.85200 11.54100 26.44800
C  2.10600 12.79700 27.09200
C  2.03900 12.51500 28.46100
C  1.73200 11.18800 28.59200
C  2.53600 14.02100 26.42300
C  2.18300 13.09200 29.79100
O  2.58100 14.22100 30.10900
C  1.74900 11.99800 30.77700
C  2.69900 11.86100 31.94300
O  3.80100 11.38600 31.93200
O  2.09700 12.45800 33.05900
C  2.85500 12.26200 34.35100
H  0.48400 5.11200 30.02000
H  -0.02000 6.11400 23.61800
H  1.65500 12.07700 24.43200
H  1.89300 9.23000 32.37500
H  0.03000 7.01900 32.21300
H  2.07800 5.90100 32.97300
H  3.02200 7.16200 32.40700
H  2.55700 5.75200 31.32600
H  -1.08500 9.30300 31.84500
H  -0.09800 10.59600 32.61700
H  -1.39600 8.08400 33.60000
H  -1.51700 9.59400 34.31900
H  -0.98000 2.40000 27.91200
H  -1.10200 3.67500 29.15200
H  0.55100 2.95100 28.77200
H  -0.58800 1.42900 24.56200
H  -1.59600 2.06300 25.87900
H  0.16300 1.70900 26.17900
H  -0.33700 8.18000 22.24800
H  1.62900 10.34100 22.36500
H  1.31300 7.29000 20.89200
H  2.07100 6.92700 22.45100
H  2.36500 8.50500 21.54100
H  -0.93700 10.95200 23.55100
H  -1.14600 10.38600 21.94100
H  -0.19900 12.25600 20.97500
H  0.92000 12.46400 22.39700
H  -0.72900 12.90400 22.48500
H  1.71100 14.61400 26.02800
H  3.14600 13.67600 25.58800
H  3.10500 14.65100 27.10700
H  0.76000 12.28600 31.13300
H  3.14800 13.16900 34.88000
H  3.81600 11.74900 34.36200
H  2.17100 11.75500 35.03200
Mg 41.57800 8.96700 29.39900
C  43.27000 10.27300 32.14500
C  39.31200 7.74400 31.64000
C  39.88300 7.61300 26.89900
C  44.00600 10.15100 27.35600
N  41.37400 8.96200 31.71800
C  42.09800 9.67800 32.60700
C  41.57300 9.52400 34.05200
C  40.42900 8.50400 33.85200
C  40.33600 8.41100 32.28100
C  40.56400 7.16400 34.54100
C  41.15600 10.83400 34.76800
C  40.24800 10.78700 36.09400
H  40.54000 11.73800 37.22400
N  39.82500 7.79100 29.24600
C  39.00300 7.45800 30.25100
C  37.84300 6.73300 29.79400
C  37.94400 6.68300 28.34200
C  39.25200 7.42100 28.09100
C  36.81100 6.13800 30.75300
C  37.03100 6.04600 27.36400
O  37.16600 6.28600 26.19400
C  35.86200 5.39200 27.75500
N  41.89800 8.95900 27.40900
C  41.05000 8.35400 26.52100
C  41.58700 8.45400 25.08700
C  42.81200 9.41900 25.20300
C  42.93900 9.54800 26.75200
C  41.89700 7.16800 24.29200
C  42.63500 10.78500 24.46900
C  43.86400 11.27900 23.70400
N  43.29000 9.95300 29.60600
C  44.19900 10.38200 28.67900
C  45.24900 11.15100 29.29000
C  44.92000 11.04900 30.70300
C  43.74600 10.34200 30.80800
C  46.25400 11.82700 28.47600
C  45.33200 11.51300 32.04700
O  46.33500 12.10000 32.45000
C  44.27300 11.04400 33.05500
C  45.01600 10.31500 34.18200
O  45.51500 9.21000 34.03500
O  44.94700 10.97500 35.33600
C  45.69500 10.42100 36.46700
H  38.59900 7.29200 32.33300
H  39.32900 7.16400 26.07100
H  44.66800 10.57900 26.60100
H  42.31200 9.13000 34.74900
H  39.47200 8.84600 34.24600
H  39.55200 6.84700 34.79200
H  41.16700 7.36600 35.42600
H  40.98600 6.39700 33.89200
H  40.66800 11.49800 34.05400
H  42.04300 11.41500 35.02200
H  40.41700 9.79200 36.50500
H  39.17400 10.87800 35.93200
H  36.91900 5.05400 30.74600
H  35.89600 6.49800 30.28300
H  36.96000 6.41200 31.79700
H  35.73700 4.53600 27.09200
H  34.99700 6.05400 27.79600
H  35.87100 4.95600 28.75400
H  40.80000 8.93600 24.50800
H  43.74300 8.93900 24.90200
H  42.20500 6.32300 24.90700
H  42.63500 7.25200 23.49500
H  40.91100 6.95100 23.88000
H  42.53100 11.55000 25.23900
H  41.80500 10.67500 23.77100
H  44.37500 10.42500 23.25900
H  44.51700 11.80600 24.40100
H  43.45900 12.00500 22.99900
H  47.06100 11.11200 28.31500
H  46.79300 12.57700 29.05500
H  45.90600 12.22800 27.52400
H  43.85100 11.98100 33.41600
H  45.15800 9.55800 36.86000
H  45.83600 11.20300 37.21400
H  46.68900 10.17300 36.09700

