158

Mg 1.06900 -0.98500 45.68100
C  4.30300 0.47900 45.31300
C  -0.24300 1.59300 44.01900
C  -1.82300 -2.79800 45.54500
C  2.78900 -3.87200 46.85800
N  1.99500 0.80100 44.73200
C  3.22600 1.28700 44.86600
C  3.36600 2.69800 44.20400
C  1.83600 3.07100 44.07300
C  1.10000 1.78300 44.33700
C  1.28500 4.26400 45.01800
C  4.15100 2.85100 42.80700
C  4.29400 4.33800 42.40100
H  3.60400 4.87300 41.14100
N  -0.80400 -0.65400 44.90500
C  -1.15000 0.46400 44.26400
C  -2.58900 0.44100 43.90100
C  -3.04000 -0.84700 44.28800
C  -1.87400 -1.51700 44.93600
C  -3.36800 1.56000 43.17200
C  -4.48200 -1.38700 44.07300
O  -5.28000 -0.72600 43.38000
C  -4.89600 -2.75600 44.62700
N  0.54500 -2.97500 46.15900
C  -0.71900 -3.41100 46.15800
C  -0.93400 -4.81700 46.75100
C  0.56300 -5.25000 46.99900
C  1.39300 -3.93600 46.70000
C  -1.79600 -4.81300 48.06300
C  0.87600 -6.50700 46.05100
C  1.35400 -7.74900 46.95800
N  3.08000 -1.56100 46.24300
C  3.67600 -2.72500 46.75500
C  5.10400 -2.60900 46.73200
C  5.40600 -1.38700 46.23400
C  4.17300 -0.79200 45.92200
C  6.06900 -3.56500 47.32900
C  6.43500 -0.52000 45.81500
O  7.62900 -0.77300 45.81300
C  5.80600 0.75700 45.21000
C  6.30200 1.90300 46.03400
O  6.06600 2.05600 47.22800
O  7.10300 2.75400 45.25300
C  7.52800 4.02500 45.84900
H  -0.73600 2.45100 43.55700
H  -2.66200 -3.48100 45.39700
H  3.18600 -4.85600 47.11800
H  3.88700 3.25700 44.98100
H  1.54400 3.37600 43.06800
H  2.11900 4.92300 45.25600
H  0.76500 3.92400 45.91300
H  0.61900 4.85700 44.39100
H  3.67100 2.31500 41.98800
H  5.17300 2.56000 43.04700
H  5.36200 4.51700 42.27200
H  4.06700 4.98100 43.25100
H  -2.95000 2.47000 43.60200
H  -4.45100 1.55400 43.29000
H  -3.20200 1.61700 42.09600
H  -4.30200 -3.47600 44.06500
H  -5.91300 -3.01200 44.32800
H  -4.88800 -2.87500 45.71100
H  -1.43000 -5.47300 46.03500
H  0.77400 -5.52700 48.03200
H  -2.43700 -3.95100 48.25100
H  -1.09500 -4.90500 48.89200
H  -2.37500 -5.73500 48.00800
H  1.61100 -6.25900 45.28600
H  0.02600 -6.89200 45.48800
H  1.05500 -8.69100 46.50000
H  1.09100 -7.80500 48.01400
H  2.43800 -7.83700 46.87900
H  6.93500 -3.64000 46.67200
H  5.74100 -4.60400 47.31800
H  6.47700 -3.27200 48.29700
H  6.08500 0.75600 44.15600
H  8.20600 3.84500 46.68400
H  6.70700 4.70900 46.06400
H  8.14100 4.60400 45.15900
Mg 23.98300 -4.62700 45.68300
C  25.80200 -2.10800 44.00500
C  21.19900 -3.67700 43.80500
C  22.37100 -7.27900 46.80900
C  27.02200 -5.83000 47.02300
N  23.51000 -2.99100 44.12900
C  24.44600 -2.08100 43.61500
C  23.77400 -1.15500 42.61000
C  22.22400 -1.58800 42.75800
C  22.28600 -2.80900 43.60400
C  21.41200 -0.45000 43.50700
C  24.22700 -1.48800 41.16700
C  25.20800 -0.44100 40.43900
H  24.95600 -0.33500 39.00400
N  22.00500 -5.32500 45.37200
C  21.03100 -4.81800 44.58400
C  19.80100 -5.56800 44.73900
C  20.06800 -6.55700 45.61500
C  21.56100 -6.47700 45.92100
C  18.52500 -5.14200 44.05700
C  19.01200 -7.45200 46.17700
O  17.79600 -7.42300 45.90700
C  19.47700 -8.59300 47.01000
N  24.65400 -6.37600 46.74000
C  23.72000 -7.27700 47.17200
C  24.37000 -8.27800 48.09600
C  25.82400 -7.85100 48.29100
C  25.89700 -6.63300 47.32400
C  23.57900 -8.64200 49.40800
C  27.01600 -8.88300 48.22200
C  27.58300 -9.29400 49.59000
N  26.06400 -4.04300 45.68400
C  27.15000 -4.67800 46.15500
C  28.33300 -3.88700 45.83200
C  27.81000 -2.88100 45.00700
C  26.45100 -3.08500 44.83900
C  29.78900 -4.09200 46.20500
C  28.21200 -1.73600 44.26600
O  29.33900 -1.27400 44.14800
C  26.94600 -1.15600 43.56900
C  26.83100 0.28900 43.72400
O  26.00400 0.83400 44.41200
O  27.70300 0.90100 42.82300
C  27.62500 2.38200 42.59200
H  20.31500 -3.21900 43.35600
H  21.90200 -8.17300 47.22700
H  27.95200 -6.14000 47.50400
H  24.08900 -0.13000 42.80500
H  21.77000 -1.84000 41.79900
H  22.15600 0.33500 43.64400
H  21.00200 -0.80200 44.45300
H  20.53500 -0.05100 42.99700
H  23.37000 -1.53700 40.49500
H  24.79100 -2.42100 41.14400
H  26.23700 -0.78700 40.54100
H  25.21300 0.54100 40.91200
H  17.59100 -5.70300 44.08400
H  18.58700 -4.93300 42.98900
H  18.30400 -4.17300 44.50500
H  18.57400 -9.10900 47.33700
H  19.77700 -8.07700 47.92200
H  20.23100 -9.18900 46.49700
H  24.28600 -9.22800 47.56900
H  25.90800 -7.34000 49.25000
H  23.94700 -8.37600 50.39900
H  23.41900 -9.71800 49.34200
H  22.58200 -8.21300 49.30400
H  27.77700 -8.47200 47.55800
H  26.67300 -9.78700 47.71900
H  28.67000 -9.34700 49.54000
H  27.16300 -10.28700 49.74800
H  27.30300 -8.55600 50.34200
H  30.35400 -3.29200 45.72500
H  30.12200 -5.05700 45.82200
H  29.86900 -4.13400 47.29100
H  27.05300 -1.24400 42.48800
H  27.24600 2.88600 43.48100
H  27.01700 2.61300 41.71800
H  28.60900 2.73600 42.28500

