158

Mg 48.20600 16.69300 28.24300
C  46.39500 16.23800 31.16500
C  50.59100 18.42500 30.09700
C  49.91200 17.29100 25.40800
C  45.76100 15.03200 26.56900
N  48.32700 17.37700 30.38900
C  47.58800 16.91800 31.44600
C  48.06000 17.37500 32.87600
C  49.38200 18.15700 32.40100
C  49.44700 17.96600 30.84300
C  49.51700 19.67600 32.88200
C  48.31500 16.14300 33.74900
C  48.32300 16.27800 35.21300
H  47.78500 17.57800 35.77200
N  50.01400 17.74800 27.81400
C  50.89600 18.31800 28.75800
C  52.09900 18.73400 28.02100
C  51.84300 18.62800 26.57600
C  50.54500 17.88300 26.50100
C  53.41700 19.18800 28.75900
C  52.61100 19.12000 25.35600
O  52.24900 18.92000 24.19300
C  53.87800 19.78700 25.60600
N  47.79800 16.33300 26.22400
C  48.67100 16.65000 25.23300
C  48.11600 16.20900 23.92300
C  46.87700 15.32300 24.26900
C  46.81600 15.51900 25.78000
C  47.86200 17.39000 22.90000
C  46.86600 13.82400 23.79600
C  46.31800 13.58100 22.42700
N  46.37900 15.77300 28.68500
C  45.49900 15.16000 27.91200
C  44.30500 14.87300 28.73400
C  44.64000 15.21700 29.95700
C  45.92400 15.74100 29.89500
C  43.01100 14.29900 28.31100
C  44.22300 15.22200 31.37300
O  43.12700 14.94300 31.82200
C  45.32600 15.81000 32.20800
C  44.62000 16.92900 32.84800
O  44.33000 17.99100 32.30600
O  44.31200 16.63300 34.14900
C  43.62700 17.72700 34.85300
H  51.37100 18.84000 30.73900
H  50.52500 17.36200 24.50800
H  44.95300 14.65900 25.93600
H  47.20100 17.97900 33.17200
H  50.27200 17.71500 32.84800
H  48.62800 20.07000 33.37200
H  49.77800 20.37000 32.08200
H  50.25300 19.75000 33.68300
H  49.26300 15.76200 33.36900
H  47.56800 15.35800 33.62700
H  49.36800 16.10400 35.47000
H  47.85800 15.40000 35.66000
H  53.95000 19.93400 28.17000
H  53.97800 18.25400 28.74700
H  53.09800 19.62800 29.70400
H  53.67000 20.79700 25.96000
H  54.40100 19.74100 24.65100
H  54.53500 19.21700 26.26300
H  48.93800 15.64300 23.48400
H  45.93600 15.69100 23.86100
H  46.80200 17.47900 22.66300
H  48.39000 17.24700 21.95700
H  48.21100 18.33200 23.32400
H  46.28700 13.30900 24.56300
H  47.89100 13.45800 23.85800
H  46.30000 14.57800 21.98800
H  45.27500 13.26600 22.39000
H  46.89500 12.90400 21.79600
H  42.83300 14.82100 27.37100
H  42.31700 14.55200 29.11300
H  43.07100 13.22300 28.14500
H  45.65500 15.17400 33.02900
H  42.56300 17.61200 34.64600
H  43.86700 18.73800 34.52600
H  43.82600 17.53800 35.90800
Mg 36.11400 48.49300 25.16400
C  36.64300 46.70600 28.14800
C  34.60300 50.96500 26.77500
C  35.48700 50.07800 22.14300
C  37.74100 45.90100 23.36100
N  35.52700 48.67800 27.20200
C  35.87800 47.87600 28.25400
C  35.60400 48.61700 29.56000
C  34.77400 49.85100 29.13800
C  34.91000 49.80300 27.57900
C  33.26400 49.86800 29.64200
C  36.93800 48.99800 30.32200
C  36.82900 49.12100 31.85000
H  35.47600 49.10200 32.54600
N  35.23000 50.31300 24.55100
C  34.67000 51.15900 25.43200
C  34.22700 52.34400 24.74400
C  34.47200 52.13200 23.36900
C  35.04700 50.80900 23.26100
C  33.68300 53.54900 25.49000
C  34.24000 53.06600 22.19000
O  34.64200 52.88100 21.02300
C  33.34200 54.27300 22.38100
N  36.55300 48.07300 23.05500
C  36.07600 48.79000 22.06700
C  36.44800 48.11300 20.71600
C  37.52100 47.09200 21.07600
C  37.38200 47.06300 22.62800
C  35.15500 47.75200 19.96000
C  39.00200 47.43400 20.58300
C  39.59100 46.43200 19.56800
N  36.90700 46.59700 25.60900
C  37.60000 45.70400 24.79000
C  37.97100 44.59900 25.55400
C  37.59900 44.88200 26.89400
C  36.95800 46.16400 26.83100
C  38.60000 43.25500 24.98600
C  37.65800 44.42600 28.34400
O  37.94000 43.30200 28.84800
C  37.06800 45.61200 29.18300
C  35.85200 45.05800 29.83400
O  34.83900 44.73000 29.19200
O  36.02700 44.99400 31.22000
C  34.76100 44.86700 31.95000
H  34.14100 51.77800 27.33900
H  35.21900 50.55100 21.19600
H  38.21300 45.00600 22.95000
H  34.95700 47.93400 30.11100
H  35.23000 50.73300 29.58700
H  33.02800 48.93900 30.16000
H  32.56800 49.85700 28.80200
H  33.09600 50.74600 30.26600
H  37.22600 49.99300 29.98400
H  37.65600 48.24200 30.00500
H  37.38600 49.94600 32.29300
H  37.26100 48.16900 32.15900
H  33.46900 54.46300 24.93700
H  34.31600 53.85400 26.32300
H  32.71600 53.35900 25.95500
H  32.39200 54.11300 22.89000
H  33.14200 54.80200 21.44900
H  33.83100 55.07700 22.93100
H  36.86000 48.91000 20.09600
H  37.27600 46.08400 20.74300
H  34.45700 47.24300 20.62400
H  35.43800 47.13600 19.10600
H  34.60000 48.62300 19.61300
H  39.56700 47.63800 21.49300
H  39.10200 48.44600 20.19000
H  39.89800 46.98800 18.68200
H  39.01600 45.53800 19.32700
H  40.40300 45.91500 20.07900
H  39.37400 43.45400 24.24500
H  37.79800 42.59100 24.66400
H  39.08800 42.81600 25.85600
H  37.73100 45.94600 29.98100
H  35.04700 44.64300 32.97800
H  34.06600 44.07200 31.68000
H  34.21300 45.79000 31.75900

