158

Mg 3.00300 -1.53100 43.55300
C  6.43600 -0.87800 43.25600
C  2.44900 1.06400 41.22500
C  -0.23300 -2.44000 43.22800
C  3.61100 -4.47800 45.27800
N  4.33000 -0.14300 42.33700
C  5.64100 -0.05100 42.41900
C  6.16900 0.88500 41.35100
C  4.92000 1.74200 40.90400
C  3.80900 0.84200 41.53100
C  4.88600 3.22600 41.34200
C  6.83300 0.06900 40.17900
C  8.30200 0.44300 39.82300
H  8.44500 1.11100 38.49200
N  1.30600 -0.77600 42.47800
C  1.31100 0.37500 41.66100
C  -0.04100 0.66400 41.22100
C  -0.90700 -0.38500 41.67200
C  0.04600 -1.28700 42.43800
C  -0.44400 1.86900 40.49700
C  -2.44800 -0.50400 41.51200
O  -3.10800 0.49900 41.15700
C  -3.32700 -1.71700 41.86800
N  1.88600 -3.34000 43.98900
C  0.57700 -3.37100 43.94700
C  -0.02500 -4.55100 44.64200
C  1.23300 -5.20900 45.25400
C  2.34300 -4.25900 44.80400
C  -1.19200 -4.13100 45.59800
C  1.42800 -6.69400 44.90300
C  1.40600 -7.63300 46.05700
N  4.65700 -2.49200 44.19000
C  4.78800 -3.70800 44.87600
C  6.22500 -3.83400 45.23000
C  6.82900 -2.69000 44.57500
C  5.89600 -1.97400 43.95100
C  6.92500 -4.91800 45.96400
C  8.12300 -2.13200 44.38200
O  9.25100 -2.46600 44.76000
C  7.93400 -0.89200 43.48900
C  8.26500 0.32300 44.25100
O  7.97300 0.51100 45.37200
O  8.96800 1.21100 43.41900
C  8.89300 2.58700 43.84500
H  2.37500 1.99200 40.65300
H  -1.25700 -2.81800 43.25000
H  3.81100 -5.39200 45.84100
H  6.81800 1.55200 41.91800
H  4.90100 1.69600 39.81500
H  5.04800 3.93300 40.52800
H  5.59200 3.40700 42.15300
H  3.94000 3.42300 41.84600
H  6.26100 0.19500 39.25900
H  6.90100 -0.97400 40.48800
H  8.92600 -0.45200 39.82700
H  8.68300 1.08400 40.61800
H  -1.12700 2.50800 41.05800
H  -0.78500 1.57600 39.50400
H  0.37800 2.53500 40.23500
H  -4.36900 -1.53400 41.60600
H  -3.25800 -1.77500 42.95400
H  -2.91700 -2.63900 41.45700
H  -0.49700 -5.03200 43.78500
H  1.12700 -5.12300 46.33500
H  -1.04600 -3.06300 45.76300
H  -1.15000 -4.82500 46.43800
H  -2.12000 -4.29400 45.05000
H  2.44700 -6.81300 44.53400
H  0.79200 -7.11500 44.12400
H  0.78400 -8.51000 45.88000
H  1.03000 -7.19500 46.98100
H  2.40300 -7.99700 46.30400
H  7.72800 -5.34100 45.36000
H  6.26500 -5.78000 46.05900
H  7.13900 -4.55400 46.96900
H  8.57700 -1.03100 42.62000
H  8.90400 3.21700 42.95500
H  9.71400 2.88900 44.49400
H  7.91600 2.71300 44.31300
Mg -12.73500 37.97700 41.74500
C  -10.56700 35.43900 40.58300
C  -10.53600 40.21400 40.19000
C  -15.09300 40.41800 41.94700
C  -15.13300 35.58900 42.36800
N  -10.73000 37.87000 40.60900
C  -10.02400 36.66500 40.33200
C  -8.71100 36.97400 39.59400
C  -8.66900 38.52600 39.70100
C  -10.00200 38.95000 40.17800
C  -7.56700 39.16000 40.59600
C  -8.60900 36.27100 38.16800
C  -7.21800 35.60200 37.93000
H  -6.30700 36.22800 36.87500
N  -12.76100 40.10200 41.29800
C  -11.75500 40.73200 40.67500
C  -12.05000 42.17200 40.78400
C  -13.32500 42.19800 41.38000
C  -13.78300 40.86500 41.55900
C  -11.19100 43.36600 40.16900
C  -14.06100 43.50100 41.74000
O  -13.62800 44.61600 41.57200
C  -15.39300 43.52400 42.41400
N  -14.84900 38.03200 41.98700
C  -15.58800 39.17300 42.23300
C  -17.00600 38.86700 42.66600
C  -17.02900 37.30300 42.65000
C  -15.56800 36.96700 42.39500
C  -17.46900 39.41200 43.98800
C  -18.16600 36.68700 41.68700
C  -17.79200 36.18300 40.25600
N  -12.83200 35.89000 41.77200
C  -13.91500 35.04000 41.98100
C  -13.40000 33.67200 41.90200
C  -12.07400 33.81900 41.41100
C  -11.81400 35.16300 41.23600
C  -14.13400 32.39700 42.20700
C  -10.95200 33.02700 40.88600
O  -10.67700 31.83100 40.72700
C  -9.86800 34.09000 40.52000
C  -8.86400 33.87300 41.56300
O  -9.04400 33.61900 42.74900
O  -7.63700 34.18300 40.98700
C  -6.51900 33.93200 41.90800
H  -9.85400 40.94900 39.75700
H  -15.90500 41.13800 42.06900
H  -15.97700 34.91100 42.51000
H  -7.90500 36.57800 40.21200
H  -8.52100 38.89400 38.68600
H  -7.23000 38.40400 41.30500
H  -7.70200 40.08600 41.15500
H  -6.76200 39.45200 39.92100
H  -8.74700 37.09000 37.46200
H  -9.36600 35.51600 37.95300
H  -7.29400 34.55900 37.62100
H  -6.67700 35.50300 38.87100
H  -10.87600 43.16700 39.14500
H  -10.29100 43.57700 40.74700
H  -11.71300 44.30900 40.01000
H  -16.16700 43.21600 41.71100
H  -15.60400 44.57400 42.61400
H  -15.41700 42.94800 43.33900
H  -17.65200 39.28800 41.89600
H  -17.21100 36.87700 43.63600
H  -18.24000 40.14900 43.76300
H  -16.68200 39.95100 44.51700
H  -18.01800 38.68500 44.58600
H  -18.96700 37.41400 41.55300
H  -18.62900 35.94200 42.33400
H  -16.72000 36.34000 40.13300
H  -18.28200 36.75800 39.47000
H  -18.00800 35.12500 40.10800
H  -14.91200 32.50400 42.96300
H  -13.43900 31.58200 42.41200
H  -14.53400 32.21200 41.21000
H  -9.39800 33.88600 39.55800
H  -5.73500 33.82400 41.15800
H  -6.60700 32.98900 42.44800
H  -6.35800 34.81700 42.52300

