158

Mg 37.01600 49.96800 25.13100
C  37.42400 47.91700 27.94600
C  35.58100 52.33400 27.32900
C  35.76900 51.56100 22.47600
C  37.81600 47.23000 23.26200
N  36.60100 50.11800 27.44300
C  36.96600 49.19600 28.33000
C  36.83600 49.69300 29.75700
C  35.94900 51.01300 29.65500
C  36.08900 51.19400 28.08000
C  34.57600 50.83900 30.19900
C  38.11800 49.95500 30.60400
C  38.06500 49.88100 32.08800
H  36.63500 49.96600 32.86000
N  35.99500 51.73000 24.84300
C  35.52900 52.55000 25.91700
C  35.05200 53.80900 25.33500
C  35.02600 53.64100 23.90400
C  35.58100 52.27100 23.63000
C  34.48500 55.03000 26.20700
C  34.53300 54.57100 22.81600
O  34.50800 54.23000 21.63300
C  33.97200 55.90500 23.13600
N  36.80500 49.43900 23.18200
C  36.29600 50.31400 22.20400
C  36.43900 49.68100 20.79600
C  37.35900 48.45700 21.08000
C  37.34500 48.36800 22.60000
C  35.21900 49.17400 20.11100
C  38.81400 48.48200 20.49400
C  39.94300 49.04200 21.42700
N  37.62800 47.96300 25.42400
C  37.83700 46.95000 24.61100
C  38.13700 45.70800 25.33000
C  37.93100 46.01400 26.67100
C  37.68600 47.38200 26.64200
C  38.43000 44.34200 24.75900
C  37.99900 45.45500 27.98600
O  38.25500 44.31500 28.39300
C  37.72100 46.67700 28.87400
C  36.50600 46.29600 29.67400
O  35.36600 46.12500 29.22300
O  36.90900 46.03500 30.95100
C  35.84500 45.47400 31.76700
H  34.97400 53.01300 27.93100
H  35.27300 52.04700 21.63300
H  37.95900 46.42500 22.53700
H  36.35300 48.89000 30.31400
H  36.37300 51.87900 30.16400
H  34.44900 51.18200 31.22600
H  34.34000 49.77700 30.27400
H  33.87400 51.22000 29.45800
H  38.54400 50.87500 30.20500
H  38.77600 49.19000 30.19300
H  38.68800 50.69900 32.44900
H  38.56500 48.97600 32.43400
H  34.33400 55.94500 25.63400
H  35.11700 55.30100 27.05200
H  33.46600 54.93600 26.58200
H  34.77200 56.52100 23.54700
H  33.15800 55.91200 23.86100
H  33.57700 56.31100 22.20500
H  37.04900 50.36000 20.20100
H  37.03600 47.54000 20.58700
H  34.39000 49.34500 20.79800
H  35.13300 48.10700 19.90600
H  35.08000 49.74600 19.19300
H  38.71900 49.27100 19.74800
H  38.96600 47.51800 20.00900
H  40.43000 49.89700 20.95800
H  40.65900 48.26200 21.68400
H  39.64200 49.50200 22.36800
H  39.10200 43.92500 25.51000
H  38.82000 44.41500 23.74300
H  37.68000 43.55100 24.75300
H  38.55700 46.96000 29.51400
H  35.20500 46.25500 32.17600
H  36.33700 45.09600 32.66300
H  35.34900 44.64700 31.25700
Mg -2.14500 33.84400 26.92200
C  -3.75600 32.05400 29.53900
C  -0.38600 35.51300 29.39000
C  -1.23700 35.90500 24.61300
C  -4.11100 32.01600 24.56000
N  -2.15200 33.81600 29.19800
C  -2.89400 33.03600 30.06500
C  -2.55200 33.31500 31.55000
C  -1.41900 34.44300 31.45700
C  -1.27500 34.63000 29.92600
C  -1.91700 35.79800 32.03900
C  -2.04800 31.97400 32.18500
C  -1.17100 31.94000 33.53400
H  -1.67900 31.07700 34.68500
N  -0.89100 35.45800 26.98300
C  -0.18000 35.93500 28.06700
C  0.77800 36.91200 27.53300
C  0.49300 37.07000 26.14500
C  -0.56900 36.16000 25.84000
C  1.70300 37.73100 28.41100
C  1.24800 37.82700 25.08300
O  1.04100 37.83800 23.90000
C  2.59000 38.45800 25.46800
N  -2.75700 33.98300 24.88500
C  -2.19400 35.01700 24.14000
C  -2.56100 34.87000 22.69400
C  -3.33400 33.47000 22.64600
C  -3.46200 33.11500 24.06900
C  -3.40000 36.06000 22.14900
C  -2.73200 32.38300 21.67500
C  -1.81900 31.27700 22.28400
N  -3.59200 32.27000 26.95800
C  -4.26800 31.64700 25.99400
C  -5.21900 30.68600 26.53800
C  -5.03600 30.80600 27.95000
C  -3.99600 31.74000 28.12400
C  -6.22100 29.80200 25.68200
C  -5.46500 30.33900 29.23700
O  -6.30200 29.57700 29.57800
C  -4.46900 31.08500 30.28000
C  -5.46100 31.65000 31.20900
O  -6.25200 32.55300 30.91000
O  -5.50000 30.99000 32.44000
C  -6.76500 31.16800 33.23200
H  0.29900 35.89600 30.14900
H  -0.78400 36.47200 23.79700
H  -4.69200 31.31700 23.95400
H  -3.46800 33.58500 32.07600
H  -0.58400 34.15300 32.09600
H  -2.55000 35.57700 32.89800
H  -2.52500 36.34200 31.31600
H  -1.12500 36.42200 32.45500
H  -1.48900 31.46400 31.40000
H  -2.96200 31.47900 32.51200
H  -0.99200 32.95700 33.88200
H  -0.17200 31.52500 33.40500
H  1.35700 38.76200 28.48600
H  2.69800 37.78700 27.96800
H  1.81200 37.31000 29.41000
H  2.90900 39.01600 24.58700
H  3.27000 37.61900 25.61400
H  2.72400 39.15100 26.29900
H  -1.69100 34.73900 22.05100
H  -4.34100 33.63400 22.26300
H  -3.47500 36.81900 22.92700
H  -4.41300 35.82700 21.82000
H  -3.00500 36.54600 21.25700
H  -2.13600 32.81300 20.86900
H  -3.62700 31.94100 21.23700
H  -1.39000 31.56000 23.24500
H  -1.11600 31.04400 21.48400
H  -2.44700 30.40800 22.48000
H  -6.30800 29.89900 24.59900
H  -7.25800 29.97400 25.96800
H  -6.19800 28.73600 25.91000
H  -3.92600 30.30400 30.81500
H  -6.80100 31.99600 33.94000
H  -6.89500 30.24200 33.79200
H  -7.62900 31.17300 32.56700

