158

Mg 43.82100 4.11100 48.06400
C  41.74700 6.74000 47.08800
C  41.17500 1.91500 47.66200
C  45.85400 1.41600 48.85400
C  46.46000 6.17000 48.22400
N  41.74900 4.34900 47.39800
C  41.03900 5.54100 47.06600
C  39.64400 5.24200 46.44300
C  39.45000 3.70200 46.90300
C  40.90800 3.24600 47.37300
C  38.38500 3.49200 48.02400
C  39.76000 5.43200 44.87500
C  38.51800 6.10100 44.15900
H  38.12400 5.62800 42.75100
N  43.54300 1.92400 48.27100
C  42.34600 1.30100 48.20100
C  42.51900 -0.06600 48.51900
C  43.85500 -0.24800 48.70700
C  44.48400 1.08900 48.65900
C  41.47000 -1.16500 48.43100
C  44.49100 -1.61700 49.03400
O  43.80200 -2.65500 48.80600
C  45.81500 -1.79700 49.49400
N  45.96800 3.75900 48.23700
C  46.52300 2.58100 48.58200
C  48.02300 2.80200 48.73700
C  48.20700 4.34900 48.80100
C  46.76800 4.80000 48.46200
C  48.71400 2.16100 50.00100
C  49.26100 5.05800 47.83600
C  50.11700 6.16200 48.42600
N  44.09800 6.03500 47.64900
C  45.27100 6.74700 47.82400
C  45.05800 8.13300 47.39700
C  43.65700 8.17100 47.15600
C  43.11100 6.83200 47.32200
C  46.09300 9.29900 47.32700
C  42.53000 9.03400 46.79500
O  42.44700 10.24000 46.52200
C  41.21800 8.15400 46.65500
C  40.21700 8.67800 47.53000
O  40.01900 8.30600 48.66200
O  39.36800 9.57300 46.85200
C  38.13600 9.95700 47.63500
H  40.24700 1.33800 47.65800
H  46.46200 0.56100 49.15800
H  47.32000 6.83100 48.35300
H  38.95200 5.94900 46.90200
H  39.12900 3.07900 46.06800
H  38.85700 3.05800 48.90500
H  37.62000 2.96400 47.45500
H  37.96500 4.44600 48.34300
H  39.98100 4.43400 44.49600
H  40.67100 5.97500 44.62400
H  38.61600 7.18600 44.18400
H  37.67200 5.87800 44.80800
H  41.49400 -1.85700 49.27300
H  41.72800 -1.63800 47.48300
H  40.45900 -0.78100 48.29900
H  46.54400 -1.48200 48.74800
H  45.93900 -2.85800 49.71000
H  45.93400 -1.21100 50.40500
H  48.51000 2.51700 47.80500
H  48.35700 4.66500 49.83300
H  49.25500 2.97900 50.47700
H  49.44700 1.43000 49.66000
H  47.97600 1.80900 50.72200
H  48.69000 5.49300 47.01600
H  49.90000 4.25100 47.47700
H  49.95000 6.33900 49.48800
H  49.88700 7.06200 47.85700
H  51.18900 5.97100 48.36500
H  45.80500 9.96100 48.14400
H  45.97500 9.79200 46.36200
H  47.14900 9.07400 47.47600
H  40.89600 8.14100 45.61400
H  37.36600 10.18300 46.89600
H  38.22900 10.89000 48.19000
H  37.63200 9.11600 48.11300
Mg 47.19200 24.33300 28.61300
C  48.22400 26.68800 30.99600
C  46.27300 22.22800 31.08300
C  46.87600 21.96700 26.24200
C  48.71100 26.41300 26.06900
N  47.37500 24.40600 30.82400
C  47.64500 25.48600 31.60100
C  47.25200 25.24100 33.06200
C  46.83400 23.72400 33.08600
C  46.77600 23.48700 31.60900
C  47.74800 22.67800 33.91000
C  46.21300 26.26900 33.62600
C  46.47500 26.75300 35.09600
H  45.25300 26.79000 36.04200
N  46.42900 22.41200 28.61300
C  46.19700 21.73300 29.77700
C  45.70800 20.39200 29.39800
C  46.03600 20.23200 28.02600
C  46.47200 21.58100 27.52700
C  45.15400 19.43100 30.44000
C  46.03900 18.99300 27.11700
O  46.34800 18.99300 25.92900
C  45.44600 17.77800 27.66300
N  47.78900 24.20200 26.38200
C  47.37300 23.09900 25.69900
C  47.58000 23.37500 24.22200
C  47.91500 24.91800 24.15900
C  48.15200 25.22200 25.63700
C  48.42400 22.35000 23.47900
C  46.80000 25.73700 23.51600
C  45.51300 25.98700 24.25300
N  48.29000 26.16600 28.46800
C  48.78500 26.88800 27.43900
C  49.42300 28.04200 27.89400
C  49.19200 28.06400 29.29400
C  48.54800 26.83600 29.60300
C  49.89900 29.17900 27.06200
C  49.27300 28.79000 30.55400
O  49.73300 29.92400 30.70800
C  48.62200 27.90700 31.64200
C  49.73400 27.59700 32.62700
O  50.62200 26.77700 32.42300
O  49.59500 28.36400 33.76200
C  50.45400 27.97100 34.88900
H  45.82200 21.61000 31.86200
H  46.71400 21.26500 25.42100
H  48.91900 27.16000 25.30000
H  48.11400 25.41100 33.70700
H  45.85400 23.75900 33.56200
H  47.27400 22.07800 34.68800
H  48.60000 23.15400 34.39500
H  48.25600 22.00300 33.22200
H  45.30900 25.67400 33.75000
H  46.18800 27.19500 33.05100
H  46.89400 27.74800 34.94500
H  47.27100 26.21800 35.61400
H  45.94800 18.81500 30.86400
H  44.32100 18.78100 30.17200
H  44.62100 20.01400 31.19100
H  45.33400 16.96600 26.94400
H  44.44000 17.99800 28.02000
H  46.04100 17.30200 28.44200
H  46.57600 23.17900 23.84400
H  48.83700 25.04100 23.59000
H  47.91900 21.86400 22.64400
H  48.75200 21.50300 24.08200
H  49.37500 22.78600 23.17200
H  46.54400 25.21700 22.59300
H  47.15000 26.75600 23.35200
H  45.63200 26.92600 24.79400
H  45.25600 25.24500 25.00900
H  44.64600 26.14200 23.61100
H  50.35000 28.85900 26.12200
H  50.55800 29.70700 27.75000
H  48.95300 29.67600 26.85100
H  47.81500 28.44600 32.13800
H  50.54400 28.76300 35.63200
H  51.49300 27.71000 34.69200
H  50.07600 27.08300 35.39400

