158

Mg 40.62300 8.20300 28.99700
C  42.47500 9.51900 31.82400
C  38.40700 6.81700 31.07900
C  39.47300 6.28100 26.38500
C  43.33300 9.16400 26.92000
N  40.52300 8.14800 31.15700
C  41.28300 8.83700 32.14300
C  40.59800 8.72000 33.57600
C  39.43600 7.70300 33.23600
C  39.45600 7.46800 31.74900
C  39.52900 6.47400 34.05900
C  40.08900 10.12900 34.00500
C  39.89500 10.39200 35.54600
H  40.75200 11.39600 36.25300
N  39.00900 6.93700 28.68900
C  38.17800 6.49600 29.71900
C  37.13100 5.72400 29.12500
C  37.36800 5.73600 27.74800
C  38.63200 6.37900 27.50600
C  36.00600 4.98800 29.97400
C  36.55400 5.14300 26.57200
O  36.96900 5.17500 25.42800
C  35.15700 4.61900 26.87100
N  41.29300 7.77600 26.95100
C  40.70400 6.96500 26.12000
C  41.50300 6.78800 24.86000
C  42.50800 7.97600 24.86400
C  42.37800 8.38800 26.35100
C  42.25300 5.37100 24.85200
C  42.12700 9.15700 23.94200
C  41.32100 10.43800 24.46900
N  42.52900 9.16500 29.25500
C  43.45700 9.57900 28.30400
C  44.45800 10.38200 29.00400
C  44.13300 10.36900 30.38500
C  42.91800 9.65200 30.45000
C  45.69000 10.94900 28.28400
C  44.53600 10.83300 31.63500
O  45.49900 11.44600 32.02000
C  43.47500 10.29200 32.67600
C  44.05700 9.49300 33.76500
O  45.17200 8.95100 33.80800
O  43.31400 9.58300 34.90300
C  43.96500 9.10900 36.18000
H  37.71700 6.36700 31.79600
H  39.24000 5.75600 25.45600
H  44.20600 9.49600 26.35500
H  41.31200 8.32900 34.30100
H  38.48400 8.15300 33.51600
H  40.45600 6.41600 34.62900
H  39.44700 5.59100 33.42600
H  38.76100 6.52800 34.83000
H  39.13900 10.14400 33.47000
H  40.62800 10.92000 33.48400
H  39.89600 9.42000 36.04000
H  38.89600 10.82900 35.53000
H  35.04200 5.03700 29.46700
H  35.85000 5.33100 30.99700
H  36.20400 3.91700 29.99600
H  35.09500 3.88500 27.67500
H  34.67700 4.10400 26.03800
H  34.61200 5.51100 27.18000
H  40.86300 6.82600 23.97900
H  43.54700 7.71600 24.65900
H  41.78000 4.67700 25.54600
H  43.31000 5.45100 25.10400
H  42.21800 4.89200 23.87400
H  41.70000 8.87700 22.97900
H  43.14600 9.46200 23.70400
H  41.66500 11.35400 23.98700
H  41.62500 10.64600 25.49500
H  40.24600 10.41600 24.28800
H  45.52800 11.24300 27.24700
H  46.56600 10.30300 28.34400
H  45.96700 11.80200 28.90400
H  42.97300 11.15700 33.11000
H  44.25800 8.07900 35.97900
H  43.27400 9.19600 37.01900
H  44.79900 9.73300 36.50100
Mg 47.09300 16.20200 28.62200
C  44.87200 15.55000 31.29500
C  48.66900 18.48900 30.59200
C  48.75600 17.19900 25.84000
C  44.79100 14.47000 26.41800
N  46.71300 16.99800 30.79300
C  45.83600 16.45800 31.69000
C  46.16700 17.09800 33.07900
C  47.34900 18.04100 32.77500
C  47.57900 17.87100 31.29800
C  47.20700 19.60300 33.11200
C  46.43100 16.09500 34.20300
C  46.44000 16.56500 35.59600
H  47.66900 16.35000 36.56100
N  48.63600 17.49900 28.28200
C  49.14100 18.33400 29.24500
C  50.19000 19.13100 28.65300
C  50.23900 18.89100 27.23900
C  49.13300 17.82900 27.00000
C  51.11300 20.03300 29.44200
C  51.05000 19.53200 26.12200
O  50.88300 19.23900 24.91200
C  52.08300 20.56900 26.29200
N  46.86900 15.77300 26.52500
C  47.71400 16.31300 25.61000
C  47.24600 15.90600 24.18100
C  46.07900 14.94700 24.39900
C  45.85100 15.12700 25.85900
C  47.01400 17.08800 23.24000
C  46.26200 13.49200 23.93000
C  47.16800 12.46900 24.78600
N  45.21000 15.17700 28.77900
C  44.42600 14.52100 27.80700
C  43.26300 13.87800 28.47000
C  43.39300 14.19700 29.84600
C  44.57200 15.02100 29.95700
C  42.22400 13.11800 27.74500
C  42.86700 13.92800 31.16000
O  41.88700 13.25900 31.56300
C  43.84400 14.77000 32.12800
C  42.96000 15.68000 32.94500
O  42.23100 16.56700 32.51500
O  43.11200 15.32600 34.25700
C  42.23000 15.92600 35.29800
H  49.24900 19.18300 31.20400
H  49.36000 17.49100 24.97900
H  44.18400 13.90600 25.70700
H  45.40700 17.77700 33.46800
H  48.24600 17.81200 33.34900
H  48.15200 19.96200 33.52100
H  46.42600 19.73000 33.86200
H  46.94800 20.20100 32.23800
H  47.44800 15.75500 34.00600
H  45.83300 15.18500 34.14800
H  45.59400 16.19600 36.17600
H  46.38100 17.65100 35.67800
H  51.15100 19.79800 30.50600
H  50.86000 21.09100 29.37600
H  52.11000 19.72800 29.12600
H  51.54700 21.51100 26.40800
H  52.77400 20.61200 25.45000
H  52.66500 20.40700 27.19900
H  48.08900 15.33700 23.78900
H  45.17500 15.18100 23.83500
H  47.64300 17.94000 23.50000
H  46.02200 17.53800 23.20000
H  47.25500 16.85700 22.20300
H  46.77000 13.47100 22.96600
H  45.30200 13.02800 23.70600
H  47.52500 12.83900 25.74700
H  47.99400 12.12600 24.16300
H  46.59900 11.54900 24.92000
H  42.44600 12.05100 27.76500
H  42.19200 13.47600 26.71600
H  41.35100 13.51700 28.26000
H  44.41300 14.03000 32.69100
H  41.69000 15.15200 35.84200
H  41.50100 16.66100 34.95900
H  42.91400 16.34400 36.03700

