158

Mg 49.38600 35.61300 28.22600
C  46.81900 33.86500 29.86700
C  49.36500 37.95100 30.76800
C  51.17600 37.49600 26.18200
C  48.76200 33.36600 25.47100
N  48.34600 35.75600 30.05300
C  47.39600 34.93500 30.63500
C  47.20100 35.19200 32.16800
C  47.70800 36.68800 32.25500
C  48.55000 36.79100 30.94700
C  46.52300 37.63200 32.24200
C  48.13800 34.23200 32.99800
C  47.92200 34.27900 34.51000
H  46.93000 35.31000 35.14900
N  50.22000 37.47200 28.41900
C  50.08100 38.30100 29.55600
C  50.75600 39.57100 29.27800
C  51.19200 39.51700 27.85700
C  50.87700 38.10800 27.41800
C  50.82800 40.73900 30.26500
C  51.78800 40.59700 26.98500
O  51.92800 40.45100 25.81300
C  52.05900 41.96100 27.55200
N  49.93900 35.36900 26.14200
C  50.81400 36.26900 25.58500
C  51.33300 35.82800 24.24100
C  50.48300 34.48400 24.00100
C  49.66100 34.35900 25.24200
C  51.07100 36.85100 23.09800
C  51.39800 33.18800 23.75800
C  50.82200 32.18200 22.74200
N  48.18100 33.86800 27.77500
C  48.04700 33.06000 26.65800
C  46.90500 32.09200 26.86400
C  46.38400 32.38300 28.07100
C  47.25400 33.35900 28.58500
C  46.44200 31.06200 25.82400
C  45.38000 31.95800 28.99800
O  44.59400 30.99400 28.99000
C  45.56700 32.98400 30.19100
C  45.61600 32.27400 31.43300
O  46.59100 31.61200 31.84200
O  44.43900 32.41500 32.07700
C  44.32700 31.79600 33.40300
H  49.47100 38.69300 31.56200
H  51.70400 38.11900 25.45800
H  48.58000 32.70500 24.62100
H  46.16800 34.97000 32.43800
H  48.25700 36.77800 33.19200
H  45.56500 37.18400 31.97800
H  46.71300 38.43000 31.52400
H  46.36200 38.06100 33.23100
H  49.16800 34.58500 32.94000
H  48.17400 33.19700 32.65800
H  48.90900 34.61700 34.82900
H  47.63700 33.24800 34.72000
H  50.33200 41.61400 29.84400
H  51.83500 41.09600 30.47800
H  50.24200 40.47100 31.14400
H  51.12800 42.51600 27.66500
H  52.64500 42.57600 26.86900
H  52.46000 41.80600 28.55400
H  52.40200 35.61900 24.25200
H  49.79400 34.60900 23.16600
H  50.42700 36.57200 22.26400
H  52.02100 37.17300 22.67300
H  50.50500 37.68000 23.52300
H  51.51500 32.55800 24.64000
H  52.35300 33.51400 23.34700
H  50.94300 31.23300 23.26300
H  51.23500 32.12000 21.73500
H  49.75400 32.39800 22.72700
H  46.70300 30.11300 26.29100
H  46.93600 31.10600 24.85300
H  45.37000 30.96500 25.65200
H  44.72000 33.66400 30.27900
H  43.33100 31.45400 33.68300
H  44.67100 32.50300 34.15800
H  44.96900 30.92800 33.55600
Mg 26.66400 50.35100 26.31300
C  24.55600 51.58800 28.76100
C  28.72500 48.99900 28.81200
C  28.90500 49.54400 23.91800
C  24.79200 52.08100 23.83600
N  26.64100 50.25100 28.56000
C  25.65300 50.82600 29.34100
C  25.91700 50.52000 30.84900
C  27.31600 49.88700 30.86100
C  27.60300 49.68000 29.34000
C  28.46800 50.75000 31.47800
C  24.77300 49.67300 31.51300
C  24.22500 50.10600 32.95800
H  25.22500 50.64700 33.88100
N  28.51100 49.31700 26.33200
C  29.18200 48.85300 27.44600
C  30.45400 48.33400 27.06000
C  30.53100 48.36800 25.66800
C  29.32300 49.07400 25.23400
C  31.50200 47.75100 28.12900
C  31.68000 47.92200 24.81500
O  31.64100 48.02300 23.57800
C  32.90300 47.26000 25.42600
N  26.76600 50.63400 24.17300
C  27.76500 50.14100 23.43800
C  27.49400 50.41700 21.89600
C  26.00800 50.94700 21.93300
C  25.83100 51.28300 23.37600
C  28.53500 51.38300 21.19500
C  24.91600 50.01100 21.39500
C  24.06700 50.42700 20.26100
N  24.95300 51.53400 26.29800
C  24.34700 52.19000 25.24800
C  23.25500 52.93300 25.78900
C  23.21700 52.70700 27.15900
C  24.36400 51.87000 27.38800
C  22.27400 53.71200 25.05300
C  22.57700 53.03200 28.36900
O  21.53000 53.66500 28.61900
C  23.39700 52.28600 29.48700
C  23.88900 53.29400 30.40600
O  24.66300 54.22200 30.14400
O  23.04500 53.33100 31.48800
C  23.33100 54.33700 32.45700
H  29.35200 48.56800 29.59500
H  29.76900 49.27700 23.30600
H  23.96000 52.36400 23.18700
H  26.05200 51.39500 31.48500
H  27.23600 48.90800 31.33200
H  28.68700 51.53700 30.75600
H  29.43300 50.24300 31.49700
H  28.26600 50.92300 32.53500
H  25.17000 48.66100 31.59200
H  23.85300 49.68300 30.92900
H  23.77100 49.17000 33.28100
H  23.47200 50.88100 32.81500
H  32.40600 48.34500 27.98800
H  31.79300 46.71500 27.95800
H  31.15200 47.89300 29.15200
H  33.52400 48.01900 25.90000
H  33.55000 46.89200 24.63000
H  32.65200 46.50500 26.17200
H  27.58200 49.42800 21.44600
H  25.91700 51.88400 21.38300
H  28.93100 50.99000 20.25800
H  29.37700 51.53600 21.87000
H  28.07100 52.34100 20.96100
H  24.33400 49.62800 22.23400
H  25.41500 49.11000 21.03900
H  23.01600 50.41300 20.55000
H  24.21700 49.72600 19.44000
H  24.36800 51.38700 19.84300
H  22.24500 53.37600 24.01600
H  22.49600 54.77600 25.13200
H  21.26400 53.64900 25.45800
H  22.75200 51.56500 29.98900
H  22.50400 54.56400 33.12800
H  23.48800 55.26400 31.90600
H  24.15000 53.96700 33.07300

