158

Mg 41.10700 9.49200 29.47000
C  43.27800 10.30700 32.04600
C  38.71400 8.54400 31.78500
C  39.42200 7.94900 26.94200
C  43.58500 10.44200 27.23300
N  41.08900 9.22800 31.57700
C  42.07700 9.68900 32.44100
C  41.40300 9.77400 33.89700
C  40.10200 9.06000 33.70500
C  39.92400 8.96600 32.24500
C  40.16000 7.62100 34.22300
C  41.25400 11.29700 34.40900
C  42.06000 11.75200 35.69400
H  41.32000 12.36200 36.84800
N  39.30300 8.45900 29.34000
C  38.46000 8.26500 30.43500
C  37.23500 7.62400 29.89600
C  37.39900 7.48000 28.55100
C  38.76200 7.91300 28.21300
C  36.08300 7.13700 30.68400
C  36.36500 7.01400 27.54400
O  36.64100 6.76100 26.40300
C  34.87000 7.15800 27.89100
N  41.54200 9.20300 27.43900
C  40.69200 8.49800 26.65800
C  41.11900 8.57200 25.16000
C  42.50100 9.26000 25.31800
C  42.49000 9.71700 26.76600
C  41.16900 7.24800 24.45700
C  42.70100 10.42500 24.34600
C  44.07100 10.42300 23.55000
N  43.02600 10.24800 29.56800
C  43.89400 10.59400 28.54000
C  45.11000 11.12500 29.14200
C  44.95200 10.98900 30.48200
C  43.64200 10.47500 30.70400
C  46.17200 11.74600 28.38500
C  45.51200 11.28600 31.80100
O  46.64300 11.65300 32.14400
C  44.42300 10.86100 32.85200
C  44.92600 9.92700 33.89900
O  45.16400 8.72800 33.72100
O  45.20500 10.58200 35.06100
C  45.76900 9.71000 36.17000
H  37.87500 8.32900 32.45000
H  38.94200 7.36900 26.15200
H  44.30500 10.84700 26.51900
H  41.98000 9.13300 34.56400
H  39.18700 9.41600 34.17800
H  40.90000 7.52700 35.01800
H  40.23100 6.85500 33.45100
H  39.23500 7.33100 34.72200
H  40.18600 11.51300 34.39800
H  41.52800 12.09400 33.71700
H  42.75500 12.53100 35.37900
H  42.74000 10.97500 36.04200
H  36.39200 7.03200 31.72400
H  35.64000 6.22100 30.29400
H  35.29600 7.88700 30.76400
H  34.30500 7.19500 26.96000
H  34.68100 8.13100 28.34500
H  34.52300 6.34600 28.53100
H  40.36100 9.16200 24.64600
H  43.23900 8.46200 25.24300
H  40.61900 6.58300 25.12300
H  42.19200 6.90100 24.30900
H  40.63500 7.37000 23.51500
H  42.65700 11.33700 24.94200
H  41.89000 10.47100 23.61900
H  44.50000 11.42200 23.62100
H  43.91100 10.20400 22.49400
H  44.72600 9.67700 24.00000
H  45.84000 12.38500 27.56700
H  46.89200 11.09600 27.88700
H  46.68900 12.43900 29.05000
H  43.94800 11.68500 33.38500
H  46.36100 8.84900 35.86000
H  44.88500 9.34000 36.69000
H  46.31400 10.33100 36.88100
Mg -6.37000 25.35100 26.15500
C  -5.04700 26.88200 29.09100
C  -8.11200 23.26100 28.28600
C  -7.08400 23.43800 23.49100
C  -4.22600 27.21700 24.29500
N  -6.43800 25.09300 28.44000
C  -5.91400 25.87000 29.44200
C  -6.46100 25.49000 30.83100
C  -7.30100 24.20900 30.57100
C  -7.28200 24.17200 29.01000
C  -6.86100 22.90200 31.25600
C  -7.08300 26.60600 31.65500
C  -6.72300 26.73700 33.15000
H  -6.06400 25.60500 33.86500
N  -7.54300 23.71400 25.88100
C  -8.17800 22.99700 26.88500
C  -9.10400 22.11800 26.26400
C  -8.91000 22.20500 24.87000
C  -7.81000 23.14600 24.68700
C  -10.14000 21.28500 27.05500
C  -9.64700 21.55400 23.72500
O  -9.34900 21.83400 22.59600
C  -10.62400 20.46200 24.07200
N  -5.79700 25.29600 24.25200
C  -6.21700 24.50300 23.23200
C  -5.45700 24.61700 21.95400
C  -4.86700 26.10100 22.16500
C  -4.87300 26.13600 23.73400
C  -4.47000 23.49000 21.61500
C  -5.64000 27.23300 21.47200
C  -5.15100 27.85900 20.15800
N  -4.99400 26.84300 26.56100
C  -4.19100 27.55200 25.66600
C  -3.52000 28.65100 26.38500
C  -3.78600 28.37300 27.70800
C  -4.71800 27.30700 27.76200
C  -2.69600 29.75200 25.73400
C  -3.46400 28.76600 29.02800
O  -2.67300 29.60500 29.47300
C  -4.30000 27.83500 29.91500
C  -3.26400 27.13500 30.79100
O  -2.58300 26.20500 30.49600
O  -3.34100 27.77900 31.97000
C  -2.25700 27.52200 32.88400
H  -8.73100 22.59300 28.88900
H  -7.18200 22.68200 22.71000
H  -3.74300 27.85200 23.55000
H  -5.59100 25.24700 31.44100
H  -8.26800 24.58000 30.91200
H  -7.38800 22.05300 30.81900
H  -7.14900 22.90400 32.30700
H  -5.78100 22.79600 31.35300
H  -8.17200 26.58000 31.69700
H  -6.85000 27.48700 31.05700
H  -7.60900 27.04800 33.70400
H  -6.03200 27.57800 33.10700
H  -9.88100 21.40900 28.10600
H  -10.26400 20.24200 26.76200
H  -11.08700 21.80400 26.90300
H  -10.14300 19.71400 24.70300
H  -11.06200 20.15800 23.12200
H  -11.43400 20.82600 24.70500
H  -6.11500 24.76400 21.09800
H  -3.80200 26.21100 21.96100
H  -4.48100 22.81000 22.46700
H  -3.45600 23.74200 21.30300
H  -4.89400 22.97700 20.75300
H  -5.83800 28.05300 22.16300
H  -6.66200 26.88900 21.31400
H  -4.71300 28.83400 20.37200
H  -5.87300 27.85700 19.34100
H  -4.23000 27.36400 19.85100
H  -2.07100 29.30200 24.96300
H  -2.11200 30.35000 26.43400
H  -3.42900 30.32900 25.17100
H  -4.89200 28.47300 30.57100
H  -1.28400 27.89400 32.56300
H  -2.24600 26.49000 33.23200
H  -2.53100 28.11600 33.75600

