158

Mg 53.43100 24.33500 43.95000
C  50.73500 26.70000 43.83600
C  51.20700 21.85100 43.40200
C  56.02000 22.22700 43.36500
C  55.64900 26.92900 44.33200
N  51.24800 24.33400 43.65100
C  50.35800 25.31700 43.66000
C  49.00000 24.79200 43.45200
C  49.14400 23.29800 43.84300
C  50.63300 23.08900 43.62900
C  48.69200 22.95800 45.23500
C  48.45000 25.01500 42.01700
C  49.22500 24.63600 40.75600
H  49.61500 25.69700 39.72300
N  53.58400 22.33000 43.50900
C  52.55200 21.49700 43.20600
C  53.06100 20.13500 42.92000
C  54.40700 20.23500 42.95200
C  54.76200 21.64500 43.32200
C  52.18500 18.92200 42.71700
C  55.47200 19.10200 42.69400
O  55.15400 18.00700 42.23900
C  57.02300 19.26200 42.94500
N  55.58400 24.62700 43.66100
C  56.41600 23.57800 43.54400
C  57.86500 23.98100 43.41800
C  57.77300 25.50700 43.85300
C  56.28100 25.71900 44.00200
C  59.04200 23.16500 44.07500
C  58.46700 26.40000 42.82000
C  57.69500 26.80700 41.51900
N  53.27000 26.41700 43.93100
C  54.20500 27.34000 44.32500
C  53.62500 28.66000 44.57700
C  52.25200 28.40800 44.26800
C  52.07800 27.05800 43.88400
C  54.28000 29.93800 45.09200
C  51.03000 29.14700 44.28100
O  50.76400 30.32600 44.46600
C  49.90700 28.02500 43.94900
C  49.32100 28.46400 42.61500
O  49.92200 28.70800 41.60900
O  47.97800 28.33700 42.63800
C  47.33600 28.88500 41.39900
H  50.65100 20.91500 43.32600
H  56.87400 21.62500 43.04900
H  56.23700 27.82300 44.55000
H  48.39400 25.41100 44.11400
H  48.55200 22.66400 43.18400
H  48.39400 23.81000 45.84500
H  49.48300 22.64900 45.91900
H  47.88000 22.23200 45.22800
H  48.28700 26.09000 41.94100
H  47.50100 24.47800 42.01200
H  48.72800 23.85700 40.17700
H  50.15600 24.12200 40.99300
H  52.73300 17.99800 42.53200
H  51.42300 19.10600 41.96000
H  51.63600 18.82600 43.65400
H  57.36600 19.92400 42.15000
H  57.31400 18.21200 42.92200
H  57.05400 19.66100 43.95900
H  58.07000 23.87000 42.35300
H  58.31200 25.71800 44.77600
H  59.79100 22.93400 43.31600
H  58.72000 22.32700 44.69200
H  59.53300 23.89900 44.71400
H  59.23800 25.71400 42.46800
H  59.02900 27.23300 43.24000
H  56.62200 26.78100 41.70700
H  57.76100 26.07000 40.71800
H  58.12300 27.73600 41.14100
H  54.06200 30.70500 44.34900
H  55.36500 29.97800 45.18700
H  53.73200 30.23800 45.98500
H  49.06700 28.02200 44.64400
H  47.55200 29.94700 41.28100
H  46.27800 28.64600 41.29300
H  47.73400 28.39800 40.50900
Mg 31.30100 58.75900 40.27700
C  28.79500 56.80500 38.92400
C  33.67500 56.62400 38.86000
C  33.78400 60.99500 41.16700
C  28.93500 61.31000 40.71600
N  31.21100 57.04500 39.04000
C  30.10300 56.42500 38.60400
C  30.36300 55.08600 37.74300
C  31.84600 54.89200 38.19700
C  32.31000 56.26400 38.68200
C  31.93700 53.91500 39.43100
C  30.12900 55.33100 36.19900
C  29.11700 54.39100 35.53400
H  28.06700 55.02200 34.56500
N  33.43500 58.79600 40.09400
C  34.20100 57.74700 39.50800
C  35.60200 58.14100 39.70300
C  35.65300 59.31400 40.45500
C  34.26500 59.75000 40.63900
C  36.76000 57.28600 39.15600
C  36.96100 60.03300 40.89800
O  38.03500 59.50700 40.58900
C  37.02800 61.26200 41.57200
N  31.32900 60.86300 40.86700
C  32.45800 61.52300 41.25600
C  32.18200 62.94900 41.79300
C  30.60500 63.14600 41.52200
C  30.23900 61.71000 40.92100
C  32.64100 63.22200 43.24400
C  30.25800 64.25100 40.48400
C  29.09700 65.21000 40.80600
N  29.21300 59.01000 40.15900
C  28.39500 60.11200 40.32400
C  27.00300 59.78200 40.00300
C  27.12900 58.43000 39.50800
C  28.48300 58.07400 39.53400
C  25.76100 60.70600 40.25100
C  26.34000 57.30600 38.97500
O  25.14900 57.18000 38.71100
C  27.44500 56.22600 38.48500
C  26.99300 54.98400 39.16000
O  27.44000 54.50500 40.15500
O  26.02500 54.38500 38.41000
C  25.40200 53.25600 39.06300
H  34.34500 55.81300 38.56600
H  34.61000 61.64600 41.46200
H  28.20400 62.11200 40.83500
H  29.65900 54.35200 38.13400
H  32.38800 54.43000 37.37200
H  30.96500 53.42800 39.50800
H  32.10200 54.52600 40.31800
H  32.70400 53.15500 39.27800
H  31.07200 55.22000 35.66300
H  29.80900 56.37200 36.15600
H  28.56800 53.84700 36.30200
H  29.65200 53.66700 34.91900
H  37.27600 57.84000 38.37200
H  36.42500 56.34700 38.71600
H  37.45900 57.16500 39.98300
H  38.07900 61.44900 41.79000
H  36.49300 61.33400 42.51900
H  36.65200 62.12000 41.01400
H  32.76500 63.68500 41.24000
H  30.08300 63.36400 42.45400
H  33.43800 63.96500 43.28300
H  33.14000 62.28700 43.50000
H  31.80500 63.51400 43.87900
H  30.07600 63.74300 39.53700
H  31.11500 64.91500 40.37400
H  29.39700 66.24900 40.67200
H  28.69200 65.09300 41.81200
H  28.24700 65.00200 40.15600
H  25.11900 60.33100 41.04900
H  25.12600 60.89700 39.38600
H  26.11500 61.64700 40.67100
H  27.39300 56.10000 37.40400
H  24.62000 53.64700 39.71500
H  26.10300 52.60600 39.58600
H  24.81400 52.62800 38.39400

