158

Mg 47.42800 15.87400 28.85600
C  45.46100 15.18700 31.53100
C  49.64000 17.56500 30.98700
C  49.26000 16.73500 26.08800
C  45.02500 14.42100 26.82600
N  47.44600 16.37100 30.99400
C  46.60000 15.86800 31.90200
C  46.93300 16.41600 33.32000
C  48.10700 17.38700 33.04300
C  48.48400 17.10500 31.56800
C  47.96700 18.90600 33.38500
C  47.15500 15.33800 34.35900
C  47.63700 15.74400 35.75900
H  47.02600 16.92700 36.37000
N  49.19500 17.04500 28.50400
C  49.97600 17.59100 29.55700
C  51.16900 18.15500 28.96300
C  51.05200 17.92400 27.51200
C  49.79000 17.17800 27.32300
C  52.27700 18.69500 29.78400
C  52.00100 18.43500 26.30200
O  51.70900 18.32600 25.10000
C  53.28200 19.15700 26.71400
N  47.23300 15.51100 26.77400
C  48.13300 15.90500 25.81000
C  47.56500 15.63700 24.38600
C  46.35100 14.66900 24.72100
C  46.22400 14.83200 26.24100
C  47.38400 16.80700 23.42300
C  46.68400 13.13900 24.47400
C  46.33400 12.51400 23.11600
N  45.60600 14.93600 29.10200
C  44.68200 14.47800 28.22100
C  43.67100 13.77900 28.90600
C  43.91200 14.01700 30.25400
C  45.04900 14.80300 30.30000
C  42.31700 13.16100 28.33300
C  43.45500 13.86600 31.62300
O  42.47100 13.32200 32.09900
C  44.44600 14.68700 32.49400
C  43.55100 15.75600 33.03800
O  43.07300 16.70300 32.40400
O  43.44500 15.64200 34.41200
C  42.83300 16.74600 35.15800
H  50.26400 18.13700 31.67700
H  49.92700 16.94100 25.24800
H  44.36500 13.88900 26.13800
H  46.10100 17.05400 33.61800
H  48.89500 17.09000 33.73400
H  46.89000 19.05400 33.46800
H  48.38400 19.55900 32.61800
H  48.61400 19.04900 34.25000
H  48.06300 14.89000 33.95500
H  46.48500 14.47900 34.40100
H  48.71800 15.80700 35.63300
H  47.56300 14.88300 36.42400
H  52.68000 19.68500 29.56900
H  53.00000 17.89300 29.63100
H  52.08500 18.63500 30.85600
H  52.98300 19.98200 27.36100
H  53.76800 19.51100 25.80500
H  53.92600 18.43400 27.21600
H  48.39100 15.01100 24.04900
H  45.45400 15.08200 24.26000
H  46.47200 16.64300 22.84900
H  48.16500 16.80900 22.66200
H  47.25800 17.76200 23.93200
H  46.16800 12.53000 25.21600
H  47.75500 13.01400 24.63600
H  47.09600 11.78400 22.84100
H  46.13400 13.24200 22.32900
H  45.43500 11.89800 23.09800
H  41.93000 13.65900 27.44400
H  41.51800 13.12800 29.07400
H  42.51300 12.12700 28.04800
H  44.87700 14.14600 33.33600
H  41.77300 16.49200 35.17200
H  43.10500 17.67300 34.65400
H  43.06000 16.97700 36.19900
Mg -11.64700 39.33500 42.69500
C  -10.06500 36.36500 41.59100
C  -9.12900 40.96700 41.19900
C  -13.39200 42.13100 43.13500
C  -14.38000 37.39800 43.65200
N  -9.84800 38.62600 41.44400
C  -9.30800 37.43900 41.20100
C  -8.01600 37.49000 40.40800
C  -7.57800 39.03100 40.59100
C  -8.92600 39.58000 41.10800
C  -6.47000 39.26800 41.68200
C  -8.18800 37.05500 38.90100
C  -7.09500 36.09300 38.34000
H  -6.03900 36.73300 37.48700
N  -11.23000 41.35100 42.37700
C  -10.17100 41.78100 41.64800
C  -10.25000 43.21700 41.56900
C  -11.51700 43.59800 42.14800
C  -12.09500 42.32900 42.62100
C  -9.07400 44.07300 41.13000
C  -11.97800 45.00000 42.34700
O  -11.40000 45.98100 41.94100
C  -13.20000 45.37500 43.28400
N  -13.52200 39.70200 43.39000
C  -14.04500 40.95500 43.47900
C  -15.37400 40.95600 44.31200
C  -15.74300 39.42600 44.10800
C  -14.47100 38.76700 43.66600
C  -15.06300 41.39000 45.74700
C  -17.04900 38.96200 43.26200
C  -18.27200 38.32200 44.03200
N  -12.23100 37.24300 42.59800
C  -13.32100 36.67900 43.08600
C  -13.15700 35.25500 42.99100
C  -11.95000 35.09700 42.38600
C  -11.38900 36.35300 42.23300
C  -14.07900 34.25200 43.53900
C  -11.03100 34.11600 41.92400
O  -10.99900 32.90400 41.93300
C  -9.76600 34.90600 41.41200
C  -8.55100 34.39600 42.13800
O  -8.26100 34.55400 43.30200
O  -7.78800 33.74400 41.25000
C  -6.58500 33.07400 41.80200
H  -8.47700 41.64000 40.63900
H  -14.02200 43.01900 43.22700
H  -15.20700 36.91100 44.17300
H  -7.26500 36.85700 40.88100
H  -7.27400 39.50700 39.66000
H  -5.56100 39.72900 41.29400
H  -6.19400 38.26400 42.00600
H  -6.82200 39.85400 42.53100
H  -8.10000 37.96100 38.30000
H  -9.13800 36.55500 38.71100
H  -7.77400 35.41800 37.82000
H  -6.57200 35.45900 39.05600
H  -8.09600 43.60000 41.21500
H  -9.09000 44.92400 41.81100
H  -9.17700 44.38600 40.09200
H  -14.14500 45.28000 42.74900
H  -13.14500 46.39900 43.65400
H  -13.14900 44.72400 44.15700
H  -16.14100 41.55400 43.82100
H  -15.76400 39.06900 45.13800
H  -14.12500 41.94200 45.80300
H  -15.03300 40.63900 46.53600
H  -15.72100 42.17000 46.13100
H  -16.72000 38.25300 42.50300
H  -17.39000 39.80600 42.66300
H  -18.26500 38.43500 45.11600
H  -18.38500 37.25700 43.82800
H  -19.19900 38.84400 43.79700
H  -13.56600 33.29400 43.62300
H  -14.91800 34.21600 42.84400
H  -14.48200 34.56600 44.50200
H  -9.65500 34.70500 40.34600
H  -5.76600 33.79400 41.78900
H  -6.33800 32.25000 41.13300
H  -6.72500 32.73100 42.82700

