158

Mg 8.16200 3.38600 27.57100
C  9.35400 2.01800 30.70300
C  6.20200 5.50800 29.45800
C  6.80600 4.39100 24.77300
C  9.63100 0.62800 26.02500
N  7.83600 3.63000 29.79400
C  8.51900 3.09300 30.87500
C  8.06000 3.76200 32.18200
C  6.94700 4.77700 31.77500
C  6.96600 4.67600 30.29700
C  5.50500 4.62600 32.39500
C  9.21500 4.53000 32.90800
C  8.93000 4.93600 34.40600
H  9.83600 4.60100 35.61200
N  6.72900 4.84400 27.18000
C  6.02500 5.61500 28.03500
C  5.09100 6.48300 27.29600
C  5.26100 6.11700 25.90600
C  6.30400 5.08500 25.86100
C  4.22200 7.55700 27.97100
C  4.47000 6.59200 24.73500
O  4.52400 6.05600 23.61100
C  3.49200 7.68100 24.94500
N  8.20000 2.63900 25.74100
C  7.54200 3.23800 24.70200
C  7.60600 2.43000 23.41000
C  8.53900 1.25200 23.76400
C  8.86200 1.50900 25.29300
C  6.20300 1.93800 22.83200
C  9.82100 1.10900 22.88400
C  9.91900 -0.08200 21.91500
N  9.28500 1.70500 28.19800
C  9.87000 0.72900 27.39700
C  10.58300 -0.26600 28.21800
C  10.47000 0.26800 29.54300
C  9.61300 1.39800 29.45400
C  11.35800 -1.45900 27.86100
C  10.96200 0.09400 30.88200
O  11.78200 -0.73300 31.30600
C  10.25500 1.25200 31.66800
C  9.49200 0.70600 32.79700
O  8.37200 0.18900 32.70200
O  10.11900 0.96700 33.93600
C  9.39300 0.49200 35.11700
H  5.66900 6.24000 30.06800
H  6.39700 4.69900 23.80800
H  10.10000 -0.19500 25.48100
H  7.68600 3.04400 32.91200
H  7.24700 5.80700 31.97200
H  5.11900 5.43700 33.01200
H  5.52600 3.70900 32.98400
H  4.83400 4.55400 31.54000
H  9.60300 5.31900 32.26300
H  10.11100 3.91100 32.92700
H  7.90400 4.60500 34.56800
H  9.02700 6.02100 34.36100
H  3.14800 7.52000 27.78900
H  4.53100 8.54600 27.63200
H  4.37200 7.47200 29.04700
H  3.15500 8.19300 24.04400
H  4.07200 8.42100 25.49700
H  2.60900 7.32700 25.47800
H  8.13800 3.01900 22.66200
H  8.00800 0.30500 23.67000
H  5.63500 1.69200 23.72900
H  6.16700 0.99900 22.28000
H  5.61100 2.75000 22.40800
H  10.70800 1.16500 23.51500
H  10.02000 1.95000 22.21900
H  9.11300 -0.80000 22.06600
H  10.81300 -0.56500 22.30700
H  10.07700 0.17200 20.86700
H  10.68700 -2.18800 28.31400
H  12.32600 -1.46700 28.36100
H  11.45200 -1.56800 26.78000
H  11.08200 1.90600 31.94600
H  8.75100 1.29900 35.46800
H  10.11300 0.34700 35.92300
H  8.99300 -0.50600 34.93400
Mg 0.74400 42.71800 25.91800
C  2.17100 42.99800 29.00200
C  -2.22200 41.77900 27.34200
C  -0.38200 41.78700 22.74500
C  3.89500 43.42700 24.40300
N  0.03700 42.36900 27.96200
C  0.81000 42.64200 29.07800
C  -0.06000 42.57100 30.33400
C  -1.46000 41.97000 29.82400
C  -1.22300 42.12800 28.28300
C  -1.79500 40.50200 30.24800
C  -0.13600 43.98400 31.05400
C  0.54900 44.05800 32.42500
H  -0.35700 43.91400 33.63900
N  -1.08200 42.03200 25.17900
C  -2.19100 41.74500 25.93800
C  -3.28100 41.30000 25.01600
C  -2.75500 41.28200 23.71900
C  -1.36700 41.66700 23.86900
C  -4.63100 40.95300 25.50700
C  -3.45500 40.88600 22.40600
O  -2.88600 40.88900 21.33500
C  -4.92200 40.58200 22.27400
N  1.64300 42.66700 23.91300
C  0.98100 42.13100 22.82200
C  1.93800 41.90600 21.68200
C  3.09700 42.92900 22.00400
C  2.95200 42.96500 23.54000
C  2.34400 40.41000 21.55000
C  3.08400 44.34400 21.24200
C  2.38400 45.52200 22.01800
N  2.59200 43.12000 26.54000
C  3.73100 43.48000 25.81000
C  4.75600 43.76200 26.76900
C  4.23100 43.47400 28.04000
C  2.87200 43.18200 27.81800
C  6.13200 44.20700 26.37900
C  4.53500 43.37800 29.46900
O  5.55500 43.42100 30.15900
C  3.21500 43.11700 30.17700
C  3.46700 41.85600 30.94700
O  3.34800 40.70000 30.56100
O  3.74200 42.22200 32.27200
C  3.77300 41.08600 33.13400
H  -3.17800 41.50900 27.79500
H  -0.69100 41.48000 21.74300
H  4.87300 43.63900 23.96600
H  0.29000 41.81200 31.03300
H  -2.28700 42.60600 30.14100
H  -0.92400 40.05200 30.72500
H  -2.18400 39.90100 29.42600
H  -2.63400 40.49700 30.94500
H  -1.19000 44.24700 31.14400
H  0.48400 44.70000 30.51300
H  1.02700 45.03600 32.48100
H  1.30100 43.28000 32.56500
H  -5.30100 41.53800 24.87800
H  -4.77000 41.20900 26.55700
H  -4.79200 39.88900 25.33400
H  -5.28400 39.86700 23.01400
H  -5.19600 40.16800 21.30400
H  -5.37800 41.54900 22.48500
H  1.40100 42.25500 20.79900
H  4.01200 42.41300 21.71500
H  1.47000 39.90900 21.96700
H  3.18600 40.17400 22.20100
H  2.23700 39.99600 20.54800
H  2.58000 44.27600 20.27800
H  4.09700 44.73000 21.12800
H  3.09000 46.29200 22.33100
H  1.89700 45.23700 22.95000
H  1.64400 45.93300 21.33200
H  6.63400 44.77800 27.16000
H  6.00600 44.73400 25.43300
H  6.85800 43.42300 26.16400
H  3.00800 43.97300 30.81800
H  4.82600 40.80900 33.18400
H  3.11000 40.24900 32.91500
H  3.42500 41.50200 34.08000

