158

Mg 49.26900 44.76600 43.07800
C  45.92900 45.57000 42.11700
C  48.89200 41.64000 41.75100
C  52.61500 44.43700 43.37800
C  49.52400 48.19500 44.03000
N  47.62700 43.86900 41.92300
C  46.38500 44.36400 41.64100
C  45.51400 43.36900 40.79500
C  46.45000 42.05900 40.77100
C  47.73800 42.49000 41.60400
C  45.85800 40.77400 41.43100
C  45.17000 44.03800 39.41200
C  43.71600 43.73100 39.01000
H  43.55700 42.69700 37.85200
N  50.61100 43.19800 42.65700
C  50.21300 41.98000 42.14500
C  51.40400 41.16400 42.00900
C  52.50800 41.96000 42.39500
C  51.96800 43.26900 42.85800
C  51.40500 39.66000 41.69000
C  53.99900 41.65300 42.33500
O  54.37700 40.57900 41.83000
C  55.15000 42.54300 42.92300
N  50.79900 46.04300 43.75300
C  52.14700 45.69600 43.71200
C  53.11700 46.84000 44.15700
C  52.11900 47.89200 44.55500
C  50.71800 47.37500 44.05500
C  54.27900 46.41700 45.05000
C  52.34800 49.35700 44.09800
C  52.11300 50.54200 45.03700
N  48.06400 46.51000 43.23600
C  48.26200 47.82900 43.61200
C  47.11300 48.64600 43.45200
C  46.14700 47.78100 42.95300
C  46.75200 46.49700 42.83200
C  46.85900 50.06300 43.92000
C  44.77800 47.71700 42.55500
O  43.92500 48.55200 42.70600
C  44.58200 46.26100 42.01900
C  43.40400 45.56100 42.64400
O  43.41400 44.87900 43.66800
O  42.33600 45.92700 41.90500
C  41.10400 45.32600 42.39700
H  48.70000 40.64800 41.33700
H  53.70700 44.40800 43.40800
H  49.59400 49.26400 44.24600
H  44.59300 43.10300 41.31400
H  46.62400 41.83800 39.71800
H  45.46500 40.04800 40.71900
H  45.05800 41.11700 42.08700
H  46.45300 40.27400 42.19500
H  45.81900 43.52100 38.70500
H  45.48900 45.08000 39.40400
H  43.24400 44.64300 38.64500
H  43.05600 43.50100 39.84700
H  51.72000 39.40100 40.67900
H  50.34100 39.42700 41.64800
H  51.93000 39.12700 42.48200
H  54.95900 42.90700 43.93300
H  55.46700 43.35000 42.26300
H  56.03100 41.93000 43.11300
H  53.51400 47.14900 43.19000
H  52.23900 47.96600 45.63600
H  54.35400 45.33000 45.07900
H  54.16500 46.72000 46.09100
H  55.18900 46.79900 44.58700
H  51.74300 49.49500 43.20200
H  53.41500 49.29500 43.88100
H  51.79900 50.17700 46.01400
H  51.23900 51.10100 44.70300
H  52.96900 51.17100 45.28000
H  47.34500 50.19000 44.88700
H  45.77300 50.11000 43.99800
H  47.24900 50.78800 43.20600
H  44.24300 46.45500 41.00200
H  40.72800 45.99500 43.17000
H  41.32300 44.32800 42.77400
H  40.38400 45.12300 41.60500
Mg -11.56300 17.22000 42.10300
C  -8.44900 15.59100 42.15100
C  -10.06600 19.95500 40.89700
C  -14.64500 18.54200 41.57900
C  -13.06500 14.11800 42.71200
N  -9.47800 17.60300 41.56400
C  -8.36300 16.92500 41.77200
C  -7.12100 17.65300 41.12700
C  -7.66100 19.05700 41.08400
C  -9.18700 18.87100 41.16400
C  -7.05700 19.95200 42.12900
C  -6.75300 17.10300 39.72000
C  -5.18800 16.92300 39.57600
H  -4.84600 15.63500 38.79100
N  -12.25700 19.04000 41.42400
C  -11.47000 20.01600 40.97500
C  -12.25100 21.14900 40.45000
C  -13.61200 20.79500 40.74800
C  -13.58700 19.42300 41.32000
C  -11.62000 22.42700 39.87200
C  -14.83700 21.70100 40.65100
O  -14.69500 22.90600 40.34400
C  -16.33900 21.25000 41.03500
N  -13.59400 16.40900 41.86700
C  -14.64200 17.21800 41.88300
C  -15.97900 16.46900 42.25000
C  -15.45000 15.04100 42.56400
C  -13.95000 15.21500 42.44900
C  -16.81500 16.98300 43.53100
C  -15.94600 13.71600 41.79300
C  -16.55100 12.59900 42.61600
N  -10.91100 15.23200 42.34800
C  -11.64900 14.07900 42.52900
C  -10.78300 12.96700 42.60700
C  -9.48000 13.53900 42.40900
C  -9.63800 14.89200 42.32200
C  -11.18200 11.60500 43.02600
C  -8.06000 13.24100 42.32700
O  -7.43000 12.20300 42.31000
C  -7.36700 14.58800 42.17200
C  -6.32500 14.68800 43.31900
O  -6.58700 15.00000 44.46500
O  -5.10000 14.74700 42.72700
C  -3.94200 15.23500 43.45000
H  -9.38500 20.75500 40.60000
H  -15.67700 18.87000 41.44000
H  -13.56800 13.22100 43.07800
H  -6.29800 17.62500 41.84100
H  -7.35600 19.39400 40.09300
H  -6.11700 19.49600 42.44000
H  -7.76300 20.00300 42.95700
H  -6.78300 20.90800 41.68200
H  -7.08800 17.70000 38.87200
H  -7.31700 16.17200 39.65400
H  -4.58800 16.91800 40.48600
H  -4.91800 17.82200 39.02100
H  -10.58500 22.25800 39.57100
H  -11.61500 23.18500 40.65500
H  -12.22100 22.79300 39.04000
H  -16.98700 22.12400 40.98000
H  -16.23300 20.86100 42.04700
H  -16.70100 20.40000 40.45700
H  -16.55300 16.44800 41.32400
H  -15.53800 14.89500 43.64100
H  -17.79800 17.26000 43.14900
H  -16.48400 17.94800 43.91600
H  -16.90100 16.32700 44.39700
H  -15.04500 13.36000 41.29300
H  -16.76000 14.04000 41.14400
H  -17.35200 12.02700 42.14700
H  -16.96300 12.91800 43.57300
H  -15.79800 11.82800 42.78000
H  -11.69300 11.48100 43.98000
H  -10.22700 11.08600 43.11200
H  -11.70100 11.07800 42.22500
H  -6.86100 14.50900 41.21000
H  -4.25400 15.44900 44.47200
H  -3.52700 16.12000 42.96900
H  -3.22300 14.42100 43.36100

