158

Mg 25.33700 50.88100 26.43700
C  23.35900 51.99100 29.14400
C  27.51200 49.54500 28.64200
C  27.45900 50.24800 23.88400
C  23.11700 52.39500 24.31300
N  25.57300 51.00100 28.69800
C  24.59400 51.45100 29.57100
C  25.01100 51.15100 31.01900
C  26.40700 50.30500 30.86300
C  26.55200 50.35400 29.30700
C  27.61600 50.77100 31.71300
C  23.84800 50.50300 31.86800
C  24.37000 49.92900 33.20600
H  24.28200 50.79900 34.48300
N  27.11800 49.89500 26.28600
C  27.80700 49.32500 27.31000
C  28.86300 48.49000 26.78900
C  28.87400 48.74100 25.38700
C  27.80100 49.70400 25.11700
C  29.80400 47.70300 27.72100
C  29.64700 48.14700 24.37000
O  29.66700 48.40500 23.14000
C  30.66200 47.11600 24.78800
N  25.36300 51.43800 24.38300
C  26.28400 50.98200 23.56200
C  26.00800 51.38400 22.10900
C  24.55500 51.95100 22.24100
C  24.26500 51.87600 23.71500
C  27.04800 52.36300 21.45800
C  23.58700 51.14500 21.39000
C  23.15800 49.67700 21.81900
N  23.64300 51.97300 26.63600
C  22.78500 52.49300 25.66000
C  21.56000 52.97500 26.19700
C  21.66400 52.67700 27.58100
C  23.03100 52.21300 27.79800
C  20.39800 53.47000 25.42800
C  21.07200 52.92000 28.85100
O  19.94800 53.36300 29.08300
C  22.07300 52.39300 29.94700
C  22.27000 53.50700 30.86600
O  23.29100 54.14900 30.85100
O  21.18100 53.80300 31.64000
C  21.48600 54.76000 32.66300
H  28.14800 49.08200 29.39900
H  28.02300 49.99600 22.98400
H  22.43200 52.82400 23.58000
H  25.17000 52.18400 31.32800
H  26.17700 49.24900 31.00400
H  27.21900 51.55800 32.35400
H  28.35600 51.25500 31.07500
H  28.08100 49.93700 32.23700
H  23.32400 49.72500 31.31400
H  23.13700 51.28200 32.14600
H  25.42900 49.67000 33.22600
H  23.93400 48.93200 33.26000
H  29.64600 46.65100 27.48200
H  29.47900 47.75200 28.76000
H  30.79000 48.04600 27.40700
H  31.42300 47.59800 25.40200
H  31.03400 46.69200 23.85600
H  30.12000 46.29700 25.26200
H  26.09800 50.50100 21.47500
H  24.55500 52.93100 21.76300
H  27.87900 52.53800 22.14100
H  26.71100 53.37500 21.23400
H  27.50400 51.94100 20.56200
H  23.92400 51.13400 20.35300
H  22.65900 51.71300 21.32100
H  22.18900 49.78800 22.30700
H  23.97700 49.34600 22.45700
H  23.17600 49.06400 20.91800
H  19.47800 53.65500 25.98300
H  20.05800 52.70400 24.73100
H  20.63400 54.28300 24.74200
H  21.66000 51.51700 30.44600
H  21.77100 55.73100 32.25800
H  22.28400 54.54100 33.37300
H  20.60500 54.89000 33.29100
Mg -5.59600 25.29900 26.92800
C  -3.85200 27.10000 29.29600
C  -6.74500 23.21400 29.29800
C  -6.46700 23.06500 24.42700
C  -3.88200 27.03100 24.48300
N  -5.21900 25.06000 29.07400
C  -4.56000 25.98100 29.85600
C  -4.84100 25.73800 31.34600
C  -5.46400 24.29400 31.33000
C  -5.86200 24.18200 29.79500
C  -4.53500 23.19100 31.94400
C  -5.64600 26.83300 31.99400
C  -5.15700 27.24700 33.42800
H  -6.01100 26.84800 34.67900
N  -6.66000 23.45600 26.84000
C  -7.12800 22.78700 27.96600
C  -7.78000 21.61500 27.58200
C  -7.63400 21.52100 26.15300
C  -6.88700 22.72800 25.74700
C  -8.50500 20.69000 28.47800
C  -8.17800 20.40400 25.28500
O  -8.04900 20.38100 24.06800
C  -8.98900 19.22500 25.80900
N  -5.22000 25.04900 24.83900
C  -5.72500 24.08900 24.04000
C  -5.24900 24.25400 22.51800
C  -4.62100 25.60900 22.59100
C  -4.59000 25.95300 24.08200
C  -4.32800 23.12500 22.03900
C  -5.38200 26.78700 21.72500
C  -4.98400 26.94200 20.25000
N  -4.37100 26.96400 26.80600
C  -3.76100 27.58100 25.79000
C  -3.02300 28.77000 26.20500
C  -3.00400 28.61900 27.61800
C  -3.80500 27.45300 27.94800
C  -2.32800 29.75600 25.28500
C  -2.52000 29.19000 28.84100
O  -1.87500 30.20300 29.10100
C  -3.05500 28.21500 29.96500
C  -1.93100 27.82300 30.83000
O  -1.29600 26.77200 30.67500
O  -1.91200 28.61300 31.97300
C  -0.90300 28.12500 32.97000
H  -7.09300 22.52400 30.07000
H  -6.82600 22.35500 23.67800
H  -3.41500 27.62400 23.69400
H  -3.91900 25.62000 31.91400
H  -6.32000 24.33800 32.00400
H  -3.46800 23.40000 31.87500
H  -4.76200 22.31600 31.33400
H  -4.82200 22.95300 32.96800
H  -6.67500 26.53300 32.19000
H  -5.70500 27.66400 31.29200
H  -4.94500 28.31200 33.32800
H  -4.12400 26.93400 33.58700
H  -8.69200 21.25800 29.38900
H  -7.92900 19.80000 28.73200
H  -9.47500 20.53700 28.00500
H  -9.95600 19.58500 26.16100
H  -8.43700 18.55700 26.47000
H  -9.37200 18.61700 24.99000
H  -6.13600 24.40200 21.90300
H  -3.62600 25.58300 22.14700
H  -4.21700 22.39300 22.83900
H  -3.29900 23.40600 21.81300
H  -4.78900 22.70300 21.14600
H  -5.43800 27.80400 22.11300
H  -6.42900 26.49300 21.78800
H  -4.24800 27.73900 20.14000
H  -5.88800 27.07600 19.65500
H  -4.51700 26.04300 19.84800
H  -2.61000 29.67300 24.23500
H  -1.26200 29.90500 25.45700
H  -2.76200 30.71000 25.58400
H  -3.71200 28.65400 30.71600
H  -1.28000 27.21200 33.43100
H  -0.77800 28.90200 33.72300
H  0.06100 27.93300 32.49800

