158

Mg 16.58200 -2.27200 27.77200
C  15.54500 -0.25500 30.46500
C  18.51600 -4.14000 29.90400
C  18.16700 -3.50400 25.16500
C  15.05800 0.16100 25.73100
N  17.06000 -2.11000 29.89000
C  16.37100 -1.35400 30.79200
C  16.74000 -1.67300 32.24200
C  17.78400 -2.78800 32.00600
C  17.77800 -3.10500 30.49200
C  19.29700 -2.41800 32.51700
C  15.55500 -2.02100 33.21300
C  15.48500 -1.26800 34.54300
H  16.79100 -0.60200 35.10500
N  18.02200 -3.71800 27.53000
C  18.67600 -4.44000 28.56000
C  19.50200 -5.38100 27.99400
C  19.36300 -5.29600 26.53800
C  18.46500 -4.11600 26.33300
C  20.38200 -6.31900 28.82200
C  19.98100 -6.11400 25.40500
O  19.84300 -5.80300 24.24000
C  20.72500 -7.33000 25.65400
N  16.55800 -1.77400 25.68300
C  17.27500 -2.46500 24.79700
C  17.16400 -1.94100 23.40100
C  15.96300 -0.92100 23.55000
C  15.86400 -0.81100 25.08700
C  18.49300 -1.42500 22.81300
C  14.65300 -1.28400 22.90300
C  13.55200 -1.85400 23.83200
N  15.41900 -0.48700 27.94800
C  14.80000 0.40100 27.04600
C  14.10600 1.43500 27.77200
C  14.37400 1.18600 29.10100
C  15.12100 0.05900 29.20900
C  13.20100 2.43200 27.19400
C  14.09800 1.72300 30.39000
O  13.52000 2.71400 30.75000
C  14.84100 0.73100 31.41800
C  15.77400 1.64600 32.12400
O  16.86100 2.08300 31.70100
O  15.10200 2.18200 33.22800
C  15.94900 3.29000 33.82600
H  18.88900 -4.86200 30.63300
H  18.63300 -3.91900 24.26800
H  14.68300 0.85500 24.97500
H  17.34200 -0.87400 32.67700
H  17.61300 -3.75600 32.47900
H  19.34500 -1.40900 32.92900
H  20.01300 -2.61100 31.71900
H  19.52700 -3.17200 33.27000
H  15.61400 -3.09800 33.36900
H  14.59400 -1.89000 32.71500
H  15.14300 -1.98600 35.28900
H  14.78500 -0.43300 34.51900
H  20.05000 -7.35500 28.75700
H  20.39300 -6.07100 29.88300
H  21.42200 -6.31700 28.49500
H  21.56100 -6.99000 26.26500
H  20.99800 -7.88000 24.75400
H  20.05100 -7.93900 26.25700
H  16.80800 -2.82900 22.87700
H  16.21500 0.08600 23.21900
H  19.13600 -1.08300 23.62400
H  18.33200 -0.56000 22.17000
H  19.00400 -2.20900 22.25500
H  14.83000 -1.93200 22.04400
H  14.24100 -0.33700 22.55500
H  12.69600 -1.19300 23.96300
H  13.85600 -2.28100 24.78800
H  13.12400 -2.59900 23.16000
H  12.18400 2.03900 27.19700
H  13.28800 2.68500 26.13800
H  13.18500 3.35400 27.77500
H  14.15500 0.35200 32.17500
H  16.97500 2.96400 33.99700
H  15.49900 3.47700 34.80100
H  15.92000 4.18800 33.20900
Mg 25.35800 1.48300 30.19900
C  27.62500 1.60200 32.80000
C  22.85000 1.47800 32.40700
C  23.36800 1.25700 27.61100
C  28.22500 1.04800 28.04600
N  25.23700 1.56000 32.34900
C  26.30500 1.72200 33.18200
C  25.86900 1.73300 34.64600
C  24.34700 1.30600 34.49200
C  24.13200 1.54400 33.02800
C  23.99600 -0.08000 35.00700
C  26.16200 3.03700 35.36200
C  27.18800 2.90700 36.53700
H  26.96800 3.76500 37.79300
N  23.38600 1.38700 30.04100
C  22.53100 1.36900 31.05900
C  21.19000 1.24600 30.50900
C  21.28500 1.12900 29.08700
C  22.74400 1.24800 28.84000
C  19.88300 1.21900 31.40700
C  20.21700 0.95600 28.06600
O  20.44300 0.72400 26.85700
C  18.81500 1.23500 28.43100
N  25.79500 1.24400 28.14700
C  24.72800 1.22300 27.25700
C  25.23700 1.43200 25.83500
C  26.79700 1.66300 26.00100
C  26.97500 1.27800 27.46600
C  24.85400 0.19100 24.93800
C  27.31300 3.07700 25.52000
C  26.93900 4.33800 26.28500
N  27.47000 1.20600 30.37000
C  28.50600 0.96000 29.42300
C  29.78100 0.71900 30.02900
C  29.43500 0.92700 31.41300
C  28.07900 1.28000 31.52400
C  31.13000 0.52600 29.46300
C  30.04200 0.92100 32.73700
O  31.21300 0.73700 33.08300
C  28.87100 1.33000 33.66200
C  28.71300 0.18800 34.72400
O  28.06500 -0.84100 34.61400
O  29.56200 0.56000 35.78900
C  29.85500 -0.53300 36.66400
H  22.12900 1.36800 33.22000
H  22.76000 1.28200 26.70400
H  29.04600 0.88100 27.34600
H  26.34300 0.97100 35.26400
H  23.66400 1.96300 35.03000
H  24.82600 -0.71600 34.69900
H  23.04400 -0.32900 34.53800
H  23.80700 -0.20400 36.07400
H  25.28800 3.47700 35.84300
H  26.47800 3.77900 34.62900
H  28.08500 3.29600 36.05600
H  27.33900 1.90200 36.93100
H  19.43300 2.18100 31.16100
H  20.10500 1.21900 32.47400
H  19.18100 0.40400 31.22800
H  18.32200 1.45200 27.48400
H  18.87300 2.07300 29.12600
H  18.32200 0.34400 28.82000
H  24.75800 2.35200 25.50000
H  27.39700 0.94400 25.44300
H  25.64900 -0.55500 24.90500
H  24.61600 0.53500 23.93100
H  23.93100 -0.28000 25.27500
H  26.99400 3.07500 24.47800
H  28.39700 2.96100 25.51100
H  26.85600 4.10600 27.34700
H  26.01300 4.74700 25.88100
H  27.72200 5.08500 26.15700
H  31.21600 1.23600 28.64100
H  31.18500 -0.52900 29.19400
H  31.80800 0.81400 30.26700
H  29.20600 2.28100 34.07600
H  29.77100 -1.48000 36.13100
H  29.33500 -0.29900 37.59300
H  30.92100 -0.39200 36.84200

