158

Mg -0.17000 7.57800 26.29400
C  0.67100 9.60700 28.93300
C  -0.33000 4.96100 28.44600
C  -0.60100 5.48800 23.58900
C  0.76500 10.09800 24.07200
N  0.22300 7.33000 28.51200
C  0.41700 8.33500 29.39200
C  0.31600 7.85300 30.83300
C  0.27500 6.25000 30.67700
C  0.09400 6.11000 29.13200
C  1.45700 5.38500 31.30200
C  -1.00900 8.38700 31.55200
C  -1.06000 8.37500 33.07500
H  0.09200 7.81600 33.86200
N  -0.43500 5.52600 26.07900
C  -0.51300 4.62400 27.10000
C  -0.89800 3.34300 26.65300
C  -0.98800 3.44200 25.24600
C  -0.70000 4.88600 24.87500
C  -1.04100 2.19800 27.56800
C  -1.29400 2.32400 24.23600
O  -1.23400 2.44600 22.98300
C  -1.45000 0.93900 24.72900
N  -0.08900 7.78600 24.12700
C  -0.29600 6.81400 23.24000
C  -0.22200 7.35600 21.79000
C  0.11400 8.85000 21.98800
C  0.31700 8.89100 23.44600
C  0.90800 6.67300 20.85600
C  -0.90900 9.90200 21.54600
C  -2.31300 10.04500 22.17600
N  0.51400 9.52100 26.38300
C  0.88900 10.40000 25.40800
C  1.12700 11.72600 26.05200
C  1.16500 11.39200 27.44300
C  0.79700 10.10600 27.57700
C  1.36000 13.10200 25.42500
C  1.32400 12.01300 28.80300
O  1.69900 13.19600 29.04200
C  1.04700 10.83500 29.79400
C  2.06300 10.65200 30.78500
O  3.19300 10.23000 30.55300
O  1.56600 11.00600 31.99400
C  2.56900 11.21800 33.02800
H  -0.50100 4.15100 29.15800
H  -0.80500 4.76500 22.79700
H  0.93800 10.89700 23.34800
H  1.21000 8.19500 31.35400
H  -0.62500 5.71800 30.98600
H  1.84900 4.68900 30.56100
H  0.94700 4.75200 32.02800
H  2.25000 6.04200 31.66000
H  -1.84400 7.80400 31.16400
H  -1.10700 9.45400 31.35000
H  -1.91500 7.87400 33.52900
H  -1.16900 9.42100 33.36100
H  -0.11200 1.62900 27.58000
H  -1.93000 1.64600 27.26200
H  -1.20500 2.44900 28.61600
H  -2.43300 0.99000 25.19700
H  -0.68400 0.78300 25.48800
H  -1.38600 0.24700 23.88900
H  -1.17400 7.20900 21.28000
H  1.06000 9.12800 21.52400
H  1.73500 7.36600 20.69900
H  0.42800 6.47100 19.89900
H  1.32100 5.77500 21.31500
H  -1.19800 9.43900 20.60200
H  -0.50600 10.90800 21.43000
H  -2.36700 11.00900 22.68200
H  -2.36200 9.36500 23.02700
H  -3.07700 9.84200 21.42600
H  2.42200 13.34600 25.46200
H  0.74400 13.80700 25.98300
H  0.99600 13.03000 24.40000
H  0.10300 11.22300 30.17600
H  3.29200 11.92000 32.61400
H  3.17300 10.35600 33.31300
H  2.26500 11.72400 33.94400
Mg 53.85500 23.77700 45.21700
C  51.16200 25.76700 43.94000
C  52.08100 21.02400 43.80600
C  56.66000 21.97700 45.74400
C  55.50500 26.73200 46.01300
N  51.81100 23.42400 44.12400
C  50.98700 24.43200 43.55900
C  49.91900 23.87700 42.51800
C  50.02000 22.35000 42.97700
C  51.35500 22.22000 43.67000
C  48.90300 21.85700 43.93300
C  50.42300 24.08000 41.01300
C  51.96300 24.34600 40.77100
H  52.91400 23.14000 40.79100
N  54.31400 21.71200 44.88100
C  53.43900 20.77500 44.32400
C  54.16700 19.50800 44.45400
C  55.45100 19.72000 45.07500
C  55.52300 21.17000 45.27000
C  53.56000 18.20000 43.91400
C  56.42700 18.70000 45.53600
O  56.22700 17.43800 45.43800
C  57.70100 19.01900 46.27400
N  55.83100 24.29800 45.70600
C  56.80200 23.36000 45.86700
C  58.13200 23.99600 46.02900
C  57.74900 25.51600 46.32400
C  56.24700 25.55500 46.01500
C  59.07900 23.37100 47.04200
C  58.63800 26.56200 45.67000
C  58.26800 27.05800 44.22400
N  53.38800 25.80800 45.15500
C  54.15700 26.90000 45.61800
C  53.36000 28.08200 45.60400
C  52.17900 27.73300 44.86500
C  52.25400 26.33600 44.64500
C  53.72400 29.43100 45.93000
C  50.92100 28.16400 44.35900
O  50.51100 29.29300 44.38900
C  50.26100 26.93900 43.70100
C  50.01300 27.32800 42.28000
O  50.86900 27.46100 41.44100
O  48.63100 27.39300 42.08300
C  48.13500 27.77200 40.75200
H  51.65400 20.12000 43.36700
H  57.65800 21.54600 45.84500
H  56.05200 27.65300 46.22600
H  48.97400 24.37700 42.72900
H  49.92700 21.70500 42.10300
H  48.23800 22.69300 44.14900
H  49.32500 21.46000 44.85700
H  48.25600 21.13800 43.43000
H  49.81000 24.87100 40.58000
H  50.15600 23.20000 40.42900
H  52.34000 25.24000 41.26800
H  52.08900 24.66900 39.73800
H  54.23300 17.89100 43.11400
H  52.54000 18.31400 43.54700
H  53.56400 17.43600 44.69200
H  58.08000 18.17800 46.85400
H  57.64500 19.83300 46.99700
H  58.55600 19.31500 45.66500
H  58.68800 24.01100 45.09200
H  57.82600 25.64800 47.40300
H  59.99500 23.11400 46.51100
H  58.75700 22.52100 47.64300
H  59.39500 24.20300 47.67200
H  59.67100 26.21300 45.67400
H  58.62200 27.48500 46.25100
H  59.10100 26.76500 43.58500
H  58.12100 28.13600 44.28900
H  57.31900 26.64600 43.88200
H  53.59200 30.03400 45.03100
H  54.75400 29.35400 46.27800
H  53.19200 29.90400 46.75500
H  49.31100 26.84600 44.22700
H  48.96600 27.82900 40.04900
H  47.55000 28.69100 40.80300
H  47.46200 26.98700 40.40600

