158

Mg 43.53500 2.99100 46.77200
C  42.88700 6.24900 45.52700
C  40.32100 2.18200 45.88000
C  44.34700 -0.26200 47.44500
C  47.01800 3.93200 47.04100
N  41.88900 4.02100 45.75000
C  41.81400 5.37300 45.43400
C  40.37500 5.79900 44.94800
C  39.60500 4.49300 45.19000
C  40.65000 3.55600 45.75100
C  38.32900 4.67100 46.02800
C  40.49400 6.12400 43.45100
C  39.73800 7.30500 42.93100
H  38.73500 7.09900 41.73800
N  42.53900 1.16300 46.72000
C  41.21700 1.05700 46.28500
C  40.88200 -0.31800 46.26400
C  41.94800 -1.08300 46.69700
C  43.01500 -0.08900 47.03300
C  39.70100 -0.88400 45.57100
C  42.02000 -2.57500 46.76000
O  40.98500 -3.18900 46.60000
C  43.25400 -3.22700 47.10500
N  45.34900 2.00100 47.16000
C  45.39200 0.63500 47.52500
C  46.69800 0.27900 48.13100
C  47.62600 1.53700 47.84000
C  46.63300 2.60000 47.35500
C  46.59500 -0.06700 49.64100
C  48.81300 1.24900 46.88400
C  48.65200 0.44200 45.59600
N  44.79100 4.70500 46.36700
C  46.12200 4.91500 46.51400
C  46.35800 6.33000 46.15400
C  45.10900 6.92700 45.91400
C  44.21400 5.88400 45.96700
C  47.69600 6.99400 45.97900
C  44.47700 8.19700 45.58200
O  44.96600 9.28900 45.40100
C  42.98800 7.76200 45.27700
C  42.13900 8.49000 46.25900
O  41.90300 8.09700 47.37300
O  41.74800 9.67100 45.73500
C  40.79700 10.44300 46.51300
H  39.26600 1.93900 45.74000
H  44.88300 -1.20400 47.57300
H  48.04700 4.29400 47.07600
H  40.02100 6.67000 45.49900
H  39.25100 4.11700 44.23100
H  37.45200 4.79100 45.39200
H  38.32600 5.53600 46.69000
H  38.12800 3.78000 46.62300
H  40.08900 5.31500 42.84300
H  41.54000 6.29700 43.19900
H  40.45800 8.07000 42.63900
H  39.09600 7.78600 43.66900
H  38.96900 -1.36100 46.22400
H  39.98900 -1.50100 44.71900
H  39.02900 -0.11300 45.19300
H  43.30100 -3.17600 48.19300
H  44.07800 -2.78400 46.54600
H  43.24700 -4.25200 46.73300
H  47.11200 -0.59600 47.63000
H  48.00700 1.93300 48.78100
H  45.62700 0.23700 50.03900
H  47.40900 0.45200 50.14600
H  46.76700 -1.13800 49.75600
H  49.66900 0.85900 47.43400
H  49.11100 2.25900 46.60200
H  49.11500 0.87400 44.70800
H  47.59300 0.58800 45.38200
H  49.05200 -0.56100 45.74100
H  48.29500 6.82900 46.87400
H  47.56900 8.05400 45.75700
H  48.22200 6.60800 45.10600
H  42.82300 8.11300 44.25800
H  41.23200 11.09200 47.27300
H  40.06900 9.78300 46.98600
H  40.16400 11.00500 45.82700
Mg -5.30100 24.86400 26.18600
C  -3.58700 26.55600 28.68500
C  -6.49300 22.67500 28.57100
C  -6.92800 23.17800 23.73700
C  -3.84100 27.06000 23.83300
N  -5.00200 24.63300 28.30500
C  -4.40100 25.55000 29.21400
C  -4.65400 25.25700 30.66700
C  -5.25300 23.79200 30.50900
C  -5.71400 23.73400 29.00900
C  -4.31900 22.64800 30.86100
C  -5.67600 26.24400 31.27700
C  -5.62100 26.38200 32.83900
H  -5.58700 25.06500 33.65300
N  -6.48600 23.11300 26.12600
C  -6.86200 22.35100 27.25100
C  -7.68300 21.31300 26.85800
C  -7.80200 21.39000 25.45400
C  -7.13100 22.63100 25.01200
C  -8.30800 20.27700 27.75300
C  -8.47200 20.44300 24.46600
O  -8.46300 20.66700 23.27000
C  -8.99500 19.12700 24.92200
N  -5.51700 25.16800 24.08900
C  -6.12500 24.25600 23.23300
C  -5.80600 24.56200 21.75700
C  -5.05000 25.88500 21.84100
C  -4.80900 26.11200 23.36600
C  -5.17600 23.33500 21.20900
C  -5.80400 27.11700 21.15300
C  -4.99200 27.80000 20.01100
N  -3.94900 26.50200 26.19400
C  -3.45100 27.30100 25.19400
C  -2.47400 28.28400 25.77400
C  -2.62700 28.09700 27.10900
C  -3.49800 27.02500 27.34800
C  -1.76900 29.45100 25.16800
C  -2.19000 28.59100 28.46000
O  -1.50000 29.56700 28.78400
C  -2.81200 27.60000 29.47700
C  -1.61900 26.96000 30.23800
O  -0.76400 26.16400 29.82800
O  -1.69400 27.38000 31.53700
C  -0.75500 26.79500 32.36000
H  -6.95500 22.08500 29.36500
H  -7.40500 22.63400 22.91900
H  -3.45500 27.73200 23.06400
H  -3.73700 25.31000 31.25400
H  -6.14000 23.67700 31.13200
H  -4.30100 21.80600 30.16900
H  -4.35300 22.40500 31.92300
H  -3.30100 22.98700 30.67000
H  -6.68800 25.95500 30.99400
H  -5.38400 27.20400 30.85300
H  -6.50500 26.93800 33.14900
H  -4.76200 27.01900 33.05300
H  -7.85100 19.32700 27.47400
H  -9.38600 20.26200 27.58900
H  -8.11900 20.40900 28.81800
H  -8.15900 18.49700 25.22700
H  -9.40400 18.50100 24.12900
H  -9.81100 19.23300 25.63800
H  -6.67800 24.58900 21.10300
H  -4.15200 25.78400 21.23200
H  -5.61100 22.38700 21.52300
H  -4.12600 23.43000 21.48500
H  -5.29100 23.38500 20.12600
H  -5.85100 27.96600 21.83400
H  -6.80200 26.89500 20.77500
H  -5.55700 27.54600 19.11400
H  -3.97600 27.40700 19.97600
H  -4.84300 28.87400 20.11500
H  -0.77400 29.25500 24.76800
H  -1.65300 30.18700 25.96400
H  -2.34500 29.90700 24.36300
H  -3.37600 28.14200 30.23600
H  0.18000 27.05400 31.86300
H  -0.92200 25.72900 32.51100
H  -0.73600 27.36500 33.29000

