158

Mg 0.79000 42.81500 25.35800
C  2.16000 43.04800 28.68600
C  -2.22300 42.26200 26.66400
C  -0.35600 42.35100 22.23000
C  3.88700 43.36100 24.16400
N  0.14400 42.60200 27.53000
C  0.75400 42.77100 28.70400
C  -0.22000 42.68300 29.82000
C  -1.57400 42.28400 29.09100
C  -1.18900 42.41700 27.61900
C  -2.05100 40.86100 29.47300
C  -0.40700 44.03400 30.50700
C  -1.28800 44.00600 31.82900
H  -2.26200 42.83600 32.09800
N  -1.10900 42.34700 24.57800
C  -2.22000 42.15300 25.24600
C  -3.30300 41.90200 24.27500
C  -2.65800 41.89400 22.97900
C  -1.27800 42.21700 23.23500
C  -4.74300 41.64700 24.78800
C  -3.27900 41.65400 21.66400
O  -2.67800 41.65500 20.56000
C  -4.72800 41.37300 21.62500
N  1.60900 42.79700 23.48000
C  0.95700 42.59400 22.35300
C  1.88500 42.65400 21.12200
C  3.12100 43.29500 21.75300
C  2.90000 43.06200 23.22400
C  2.11400 41.40000 20.26100
C  3.40100 44.78600 21.39300
C  2.94300 45.98500 22.28600
N  2.59800 43.25900 26.20500
C  3.77500 43.49600 25.58000
C  4.88900 43.81300 26.54700
C  4.25700 43.61700 27.76100
C  2.88800 43.30900 27.51900
C  6.40000 44.18100 26.20500
C  4.45300 43.61100 29.19600
O  5.42800 43.77700 29.92200
C  3.06400 43.22400 29.83600
C  3.24500 41.99500 30.57100
O  3.88700 41.00600 30.20500
O  2.55700 42.12000 31.75100
C  2.44200 40.89100 32.58700
H  -3.18500 42.00900 27.11600
H  -0.58800 42.26600 21.16700
H  4.82500 43.73600 23.75000
H  0.06800 41.97700 30.59900
H  -2.32900 43.03200 29.33100
H  -3.12200 40.89100 29.67300
H  -1.46500 40.34100 30.23000
H  -1.82800 40.26000 28.59100
H  -0.92300 44.71700 29.83300
H  0.60200 44.35500 30.76700
H  -2.05400 44.76800 31.68800
H  -0.75300 44.27700 32.73900
H  -5.40300 42.42900 24.41100
H  -4.75900 41.62400 25.87800
H  -5.02600 40.67000 24.39800
H  -4.95200 40.46900 22.19200
H  -5.02000 41.11000 20.60800
H  -5.35600 42.16300 22.03600
H  1.30900 43.35200 20.51500
H  4.01500 42.73200 21.48600
H  3.15000 41.19000 19.99600
H  1.54800 41.52000 19.33700
H  1.85300 40.51100 20.83500
H  3.09500 45.00700 20.37000
H  4.49000 44.78200 21.36300
H  2.54800 45.74300 23.27300
H  2.25200 46.57700 21.68500
H  3.76300 46.68700 22.43500
H  7.22600 43.50100 26.41400
H  6.54300 45.17400 26.63000
H  6.56300 44.40500 25.15100
H  2.73300 43.97400 30.55300
H  2.56300 41.24400 33.61100
H  3.12400 40.05900 32.41000
H  1.39200 40.61200 32.50900
Mg -5.90600 25.84100 26.35400
C  -4.66300 27.22700 29.24600
C  -7.86300 23.65700 28.55400
C  -6.46200 23.71700 23.81700
C  -3.59200 27.59900 24.52000
N  -6.32700 25.54500 28.64200
C  -5.60200 26.18900 29.58000
C  -6.06800 25.76800 30.97400
C  -6.78300 24.42200 30.73600
C  -7.01700 24.53600 29.24000
C  -6.03200 23.09900 31.24400
C  -7.00600 26.86800 31.58600
C  -6.88200 26.94100 33.17800
H  -6.14100 25.87900 34.00400
N  -7.07100 24.07200 26.17000
C  -7.88400 23.44200 27.10900
C  -8.72900 22.45400 26.45000
C  -8.26200 22.38900 25.08300
C  -7.20400 23.41700 24.93500
C  -9.78900 21.72900 27.14100
C  -8.74100 21.42200 23.99200
O  -8.11900 21.34400 22.98000
C  -10.00500 20.61800 24.11600
N  -5.08000 25.65400 24.52000
C  -5.52100 24.77500 23.57300
C  -4.86100 25.02000 22.17500
C  -4.17100 26.36500 22.40600
C  -4.24300 26.57200 23.96100
C  -3.97600 23.84300 21.70300
C  -4.68100 27.65600 21.59700
C  -3.53100 28.42400 20.75500
N  -4.51200 27.27200 26.80100
C  -3.57600 27.92100 25.95400
C  -2.83200 28.88500 26.63600
C  -3.21400 28.65900 27.94900
C  -4.25500 27.68300 27.97700
C  -1.90300 29.80100 25.94700
C  -3.00100 29.09900 29.35700
O  -2.31700 29.94100 29.85500
C  -3.84400 28.07500 30.21800
C  -2.91900 27.37700 31.22100
O  -2.24600 26.36900 31.07000
O  -2.85700 28.11500 32.37600
C  -2.15000 27.36300 33.48000
H  -8.31900 22.91400 29.21100
H  -6.57300 22.96700 23.03200
H  -2.94800 28.20000 23.87400
H  -5.08500 25.65300 31.43100
H  -7.71900 24.46700 31.29200
H  -6.16100 22.28100 30.53600
H  -6.39100 22.80900 32.23200
H  -5.00800 23.35300 31.51700
H  -8.04100 26.58000 31.40100
H  -6.82900 27.85600 31.16200
H  -7.94500 27.05700 33.38900
H  -6.39700 27.90300 33.34000
H  -10.78100 22.01600 26.79300
H  -9.66500 21.85500 28.21600
H  -9.55300 20.66500 27.13600
H  -9.75800 19.75800 24.73800
H  -10.34200 20.25000 23.14700
H  -10.63700 21.34800 24.62200
H  -5.64600 25.11800 21.42500
H  -3.14300 26.26200 22.06000
H  -3.99300 23.16000 22.55200
H  -2.92100 24.11900 21.68600
H  -4.36600 23.34200 20.81700
H  -5.23500 28.30100 22.27900
H  -5.46400 27.31500 20.91900
H  -3.54000 29.49100 20.97700
H  -3.83800 28.20700 19.73200
H  -2.54500 27.98900 20.91600
H  -1.95000 29.73700 24.86000
H  -0.87500 29.50100 26.15300
H  -2.06500 30.84600 26.21000
H  -4.55200 28.64900 30.81600
H  -1.12900 27.74100 33.42300
H  -2.19800 26.27500 33.51700
H  -2.61800 27.75200 34.38400

