158

Mg 4.81600 54.45900 40.57900
C  4.67300 50.95800 41.13700
C  7.91300 53.99000 39.08200
C  4.82900 57.72100 39.81100
C  1.80400 54.77900 42.19800
N  5.98400 52.52300 39.84100
C  5.77500 51.22500 40.28100
C  6.84200 50.30500 39.75100
C  8.02400 51.33300 39.40900
C  7.33500 52.75700 39.48900
C  9.19800 51.33500 40.47200
C  6.31400 49.44600 38.63600
C  5.38300 50.11500 37.64000
H  5.76100 50.10700 36.15200
N  6.10300 55.63800 39.40700
C  7.38100 55.31900 38.97100
C  7.99100 56.48300 38.48000
C  7.05300 57.56300 38.57700
C  5.90700 56.98700 39.23300
C  9.40600 56.49900 37.85000
C  7.20500 58.95900 38.00000
O  8.25200 59.25000 37.49300
C  6.08600 59.92200 37.87200
N  3.31000 55.97200 40.67600
C  3.64500 57.27600 40.48100
C  2.57000 58.30100 40.95500
C  1.61800 57.35100 41.67200
C  2.25000 55.90500 41.45300
C  3.15100 59.46800 41.89500
C  0.09300 57.53500 41.23100
C  -0.94600 57.94900 42.38100
N  3.50800 53.18000 41.49700
C  2.34500 53.51700 42.21000
C  1.84100 52.30800 42.83900
C  2.77300 51.30600 42.49100
C  3.69600 51.87000 41.63000
C  0.64000 52.37900 43.73300
C  3.09700 49.88800 42.73800
O  2.51900 49.04800 43.45000
C  4.39800 49.62300 41.87200
C  3.82600 48.66800 40.88300
O  3.02000 48.98700 40.06000
O  4.50500 47.48100 40.93300
C  4.07100 46.41900 40.02200
H  8.96400 53.89700 38.80100
H  4.94500 58.80500 39.88000
H  0.93100 54.90700 42.84000
H  7.15300 49.83000 40.68200
H  8.36100 51.21900 38.37800
H  9.13000 50.44700 41.10000
H  9.20100 52.21300 41.11900
H  10.15700 51.37000 39.95300
H  5.91200 48.53700 39.08300
H  7.16500 49.20000 38.00100
H  4.88800 50.97700 38.08700
H  4.52800 49.44700 37.53600
H  9.59000 56.92400 36.86300
H  9.68900 55.45600 37.71400
H  10.05100 57.02800 38.55100
H  5.96900 60.39100 38.84900
H  5.12500 59.51200 37.56000
H  6.31900 60.81300 37.29000
H  2.03800 58.77600 40.13100
H  1.56900 57.55800 42.74100
H  4.19800 59.70800 41.71200
H  3.06800 59.07700 42.90900
H  2.51200 60.34400 41.77300
H  -0.28800 56.63700 40.74500
H  -0.02500 58.24200 40.40900
H  -1.73200 57.21700 42.19300
H  -1.50800 58.86000 42.17300
H  -0.58900 58.13500 43.39400
H  -0.19500 52.89400 43.25900
H  0.92700 52.92500 44.63300
H  0.33400 51.39100 44.07500
H  5.20500 49.16800 42.44600
H  4.69300 45.55300 40.24700
H  4.36200 46.80800 39.04600
H  3.00600 46.18900 39.99500
Mg 9.25100 48.59300 25.64100
C  7.11800 49.28500 28.24500
C  11.82500 49.67000 27.54900
C  11.25700 47.73500 23.16900
C  6.48700 48.21200 23.53000
N  9.47600 49.34800 27.66500
C  8.46100 49.56000 28.58500
C  9.06100 49.94300 29.94900
C  10.38500 50.62300 29.49900
C  10.64000 49.78500 28.19100
C  10.33400 52.12100 29.07700
C  9.34800 48.79200 30.95000
C  8.84500 48.99600 32.38200
H  8.80200 47.82400 33.37200
N  11.29200 48.72900 25.38600
C  12.20300 49.11300 26.28500
C  13.51800 48.97500 25.73200
C  13.35000 48.36300 24.48900
C  11.94400 48.18900 24.31900
C  14.79500 49.30100 26.51400
C  14.33000 47.97300 23.37300
O  13.95900 47.46800 22.33600
C  15.85500 48.08100 23.53400
N  8.87300 48.25100 23.58400
C  9.88900 47.76300 22.76600
C  9.31000 46.93300 21.50300
C  7.85400 47.51900 21.45500
C  7.71400 47.98000 22.99000
C  10.12900 47.26400 20.23600
C  6.88300 46.46700 20.91800
C  7.14000 46.08100 19.41800
N  7.20600 48.68500 25.80500
C  6.19000 48.48700 24.86300
C  4.88100 48.54400 25.54500
C  5.21300 48.83500 26.90700
C  6.65300 48.92000 26.99100
C  3.53800 48.42300 24.97900
C  4.70300 49.02700 28.22200
O  3.54900 49.13800 28.58200
C  5.85800 49.38000 29.08000
C  5.84800 48.43500 30.28800
O  6.56100 47.47100 30.47900
O  5.01900 48.97700 31.29500
C  5.00800 48.17800 32.55100
H  12.62800 50.07400 28.16700
H  11.75600 47.17900 22.37300
H  5.67500 47.99400 22.83300
H  8.43100 50.69100 30.43300
H  11.18400 50.57600 30.24000
H  9.34800 52.54200 29.27400
H  10.67700 52.41000 28.08300
H  10.97500 52.59600 29.82000
H  10.39600 48.49700 30.98300
H  8.89100 47.92700 30.46900
H  7.90500 49.52900 32.24000
H  9.59400 49.68300 32.77500
H  15.08300 50.33900 26.34600
H  15.62800 48.77200 26.05200
H  14.61300 49.10100 27.57000
H  16.10600 47.35900 24.31000
H  16.22700 49.06300 23.82600
H  16.46700 47.66600 22.73300
H  9.47600 45.89700 21.79800
H  7.71200 48.41300 20.84800
H  10.96300 47.93000 20.45500
H  9.49500 47.87100 19.58900
H  10.56700 46.51800 19.57300
H  5.87500 46.87800 20.87700
H  6.97500 45.57200 21.53400
H  7.87200 45.28100 19.30500
H  7.62400 46.86300 18.83200
H  6.19400 45.77200 18.97300
H  3.50600 48.56900 23.89900
H  2.87300 49.09900 25.51700
H  3.12300 47.45900 25.27300
H  5.68100 50.38500 29.46200
H  5.73300 48.57500 33.26200
H  5.27000 47.15000 32.30200
H  3.99800 48.31500 32.93700

