158

Mg 35.52100 49.12900 24.91800
C  35.69300 47.46100 27.98100
C  34.21700 51.85500 26.51500
C  35.19700 50.61000 21.91000
C  36.84600 46.16100 23.38300
N  35.03000 49.56600 27.05500
C  35.30500 48.81300 28.19400
C  35.12400 49.66600 29.40600
C  34.35500 50.93700 28.93700
C  34.53800 50.78900 27.45200
C  32.82900 51.07500 29.37000
C  36.51700 49.92700 30.09900
C  36.56800 49.52900 31.55900
H  35.24400 49.61800 32.26200
N  34.95200 51.03100 24.31500
C  34.40900 52.00900 25.14000
C  34.06300 53.11500 24.27700
C  34.35800 52.73200 22.94800
C  34.89100 51.38500 23.01100
C  33.43600 54.37600 24.86600
C  34.07100 53.50000 21.69300
O  34.30600 53.25200 20.49300
C  33.37900 54.89700 21.76800
N  35.97200 48.39300 22.90300
C  35.75500 49.27200 21.85700
C  36.38400 48.71700 20.62300
C  37.09700 47.37400 21.07400
C  36.51400 47.24900 22.52000
C  35.29800 48.44500 19.57500
C  38.70100 47.32500 21.07500
C  39.29600 46.01000 20.51700
N  35.95500 47.14100 25.46600
C  36.54000 46.11800 24.79800
C  36.90500 45.01600 25.66800
C  36.36000 45.42900 26.89400
C  35.94400 46.76100 26.78800
C  37.55200 43.72900 25.28700
C  36.28200 45.07800 28.30200
O  36.50800 44.00000 28.85900
C  35.86100 46.34700 29.02500
C  34.59000 45.92700 29.84100
O  33.41400 45.88600 29.50600
O  35.01400 45.55200 31.11800
C  34.00600 45.23000 32.17100
H  33.80000 52.65200 27.13500
H  35.02500 51.13600 20.96800
H  37.36600 45.26600 23.03400
H  34.49000 48.99300 29.98400
H  34.93600 51.83600 29.14200
H  32.27400 51.08600 28.43200
H  32.68000 51.98900 29.94600
H  32.48400 50.19500 29.91400
H  36.79000 50.97800 29.99800
H  37.24900 49.46500 29.43600
H  37.24800 50.05400 32.23000
H  37.00900 48.53900 31.45000
H  34.11000 55.23200 24.86000
H  33.25700 54.18300 25.92400
H  32.50300 54.54600 24.32800
H  34.02000 55.68600 22.16100
H  32.38100 54.83400 22.20000
H  33.17500 55.20700 20.74300
H  37.12400 49.42800 20.25600
H  36.70500 46.47500 20.60000
H  35.32600 47.38700 19.31100
H  35.43600 49.02700 18.66400
H  34.30900 48.70800 19.95100
H  39.01300 47.61100 22.08000
H  39.10800 48.13000 20.46300
H  40.20700 45.84800 21.09200
H  39.75200 46.08200 19.52900
H  38.47600 45.29700 20.43500
H  38.25700 43.86100 24.46600
H  36.80700 43.01200 24.94000
H  38.01600 43.20600 26.12300
H  36.55600 46.74600 29.76400
H  33.01900 45.23300 31.70900
H  34.01300 45.99600 32.94700
H  34.18500 44.22300 32.54800
Mg 7.12200 54.08800 40.73900
C  6.60000 50.74400 40.80400
C  10.37500 53.62400 40.10700
C  7.30300 57.47000 39.98600
C  3.56000 54.58300 41.28000
N  8.37800 52.34500 40.64100
C  7.95200 51.05500 40.50600
C  9.12000 50.13500 40.34700
C  10.34100 51.11600 40.45700
C  9.69100 52.46000 40.40100
C  11.21100 50.91600 41.73900
C  9.20200 49.31900 39.02900
C  9.32200 50.00400 37.63900
H  7.94300 50.07900 36.93800
N  8.67000 55.38800 40.08400
C  9.94800 54.98300 39.92400
C  10.72800 56.15600 39.45100
C  9.92800 57.33800 39.56300
C  8.58000 56.76000 39.84200
C  12.19500 56.18800 39.19600
C  10.37300 58.82900 39.37500
O  11.46700 59.13600 38.95200
C  9.40100 59.86800 39.75800
N  5.61600 55.73700 40.59200
C  6.00700 57.01800 40.31600
C  4.88400 58.05900 40.60700
C  3.62700 57.10400 40.82900
C  4.29200 55.72700 40.92500
C  5.19500 59.06100 41.73400
C  2.53400 57.17300 39.79200
C  1.31800 58.15100 40.05400
N  5.44000 52.98300 41.07300
C  4.07800 53.33900 41.27000
C  3.30700 52.15200 41.57800
C  4.25800 51.09800 41.35600
C  5.47800 51.64100 41.00100
C  1.85400 52.06200 41.87000
C  4.40500 49.65500 41.31700
O  3.61100 48.71500 41.55700
C  5.92500 49.36100 40.96000
C  5.93400 48.41900 39.80300
O  5.48300 48.59000 38.68100
O  6.32900 47.13500 40.30900
C  6.26400 46.02500 39.34200
H  11.43900 53.43300 39.95300
H  7.34700 58.49900 39.62500
H  2.50900 54.79800 41.48100
H  9.12000 49.50500 41.23700
H  10.98600 50.89800 39.60500
H  11.14100 49.96700 42.27100
H  10.91400 51.73900 42.38800
H  12.26100 50.99800 41.45700
H  8.32000 48.67900 39.00900
H  10.04900 48.63700 39.10200
H  9.94900 49.45100 36.93900
H  9.66400 51.02000 37.83200
H  12.56900 55.16400 39.18100
H  12.75500 56.82200 39.88300
H  12.41300 56.63400 38.22600
H  8.69000 59.76900 38.93800
H  9.81200 60.87700 39.71700
H  8.92300 59.68400 40.72000
H  4.77800 58.57400 39.65200
H  3.15900 57.20900 41.80800
H  6.25600 58.91000 41.93400
H  4.49700 58.93100 42.56200
H  5.24200 60.10700 41.43400
H  2.14100 56.16900 39.63300
H  2.99200 57.54300 38.87400
H  0.49600 57.49500 40.33900
H  1.24600 58.79200 39.17500
H  1.61700 58.74400 40.91800
H  1.62400 51.46900 42.75500
H  1.35300 51.60200 41.01900
H  1.30700 52.99700 41.99200
H  6.22200 48.89900 41.90100
H  5.92800 45.16200 39.91800
H  7.16900 45.79300 38.78000
H  5.49100 46.20900 38.59700

