158

Mg 29.30900 57.40500 41.68800
C  26.82800 55.08500 40.61400
C  31.52900 55.61100 40.03100
C  31.47900 59.85800 42.31100
C  26.75200 59.33900 43.16700
N  29.12000 55.58700 40.28200
C  28.08700 54.74400 40.15700
C  28.40200 53.64700 39.17700
C  29.93800 53.64400 39.22400
C  30.24100 55.05700 39.75400
C  30.59300 52.46900 39.97200
C  27.78100 54.12300 37.74100
C  27.31600 52.96100 36.90900
H  27.94100 52.84800 35.49900
N  31.35000 57.73500 41.19200
C  32.09000 56.80100 40.57200
C  33.44100 57.18200 40.65100
C  33.54000 58.43800 41.38000
C  32.08800 58.72500 41.68800
C  34.65400 56.44100 40.00200
C  34.68300 59.20300 41.59300
O  35.81400 58.75300 41.41300
C  34.60100 60.51000 42.40800
N  29.13000 59.34400 42.55900
C  30.21300 60.21600 42.64800
C  29.76700 61.58600 43.12200
C  28.34800 61.27600 43.77200
C  28.03700 59.90600 43.07100
C  30.83500 62.38000 43.99400
C  27.22600 62.41000 43.66600
C  27.40000 63.62400 42.66500
N  27.21600 57.25300 41.94500
C  26.33200 58.09200 42.59300
C  25.00900 57.48600 42.58800
C  25.10100 56.30100 41.79100
C  26.52400 56.25800 41.42600
C  23.78800 58.02500 43.22100
C  24.39800 55.17000 41.23600
O  23.28900 54.74700 41.40000
C  25.50000 54.38700 40.36500
C  25.60100 52.99400 40.90000
O  26.27400 52.54400 41.84600
O  24.70600 52.17700 40.19500
C  25.02200 50.79700 40.04700
H  32.28500 54.93400 39.62700
H  32.16900 60.69800 42.42300
H  26.08000 59.94000 43.78400
H  27.97500 52.70100 39.51000
H  30.27500 53.61400 38.18800
H  29.87100 51.74800 40.35600
H  31.15700 52.86900 40.81500
H  31.18900 51.82600 39.32500
H  28.63100 54.45300 37.14300
H  27.07800 54.94400 37.88000
H  26.24300 52.85200 36.75200
H  27.56600 52.03900 37.43400
H  35.36900 57.05400 39.45300
H  34.35900 55.79900 39.17200
H  35.07800 55.72800 40.70900
H  34.12100 61.24800 41.76600
H  35.61400 60.87800 42.57000
H  34.08000 60.39400 43.35800
H  29.57000 62.14100 42.20500
H  28.56700 61.05000 44.81600
H  30.76600 63.37800 43.56300
H  31.89600 62.13600 44.04500
H  30.49900 62.51000 45.02300
H  26.91300 62.83300 44.62100
H  26.33500 61.87900 43.33200
H  28.44900 63.85300 42.47300
H  26.93800 64.47100 43.17200
H  26.88700 63.37600 41.73600
H  23.67500 57.28000 44.00800
H  22.96000 58.04500 42.51300
H  23.98900 59.03400 43.58200
H  25.16600 54.40900 39.32700
H  26.07900 50.57700 39.90100
H  24.36400 50.27300 39.35300
H  24.77600 50.33900 41.00400
Mg -6.22700 25.24100 26.09100
C  -4.70300 26.79300 28.80300
C  -8.16400 23.29500 28.36300
C  -7.34800 23.50000 23.53400
C  -3.92600 26.86800 23.94800
N  -6.37800 25.06200 28.33900
C  -5.66100 25.83800 29.22700
C  -6.05300 25.50400 30.68100
C  -7.05800 24.33300 30.43100
C  -7.27700 24.26100 28.92100
C  -6.71700 22.94000 31.11200
C  -6.64300 26.74200 31.38400
C  -7.52400 26.45900 32.68800
H  -7.00400 25.67900 33.82400
N  -7.69300 23.73100 25.94600
C  -8.36600 23.12700 26.97800
C  -9.25100 22.18200 26.38700
C  -9.11000 22.17400 24.96200
C  -8.04400 23.16700 24.76500
C  -10.05900 21.36200 27.29400
C  -9.71100 21.29200 23.78300
O  -9.34400 21.23900 22.61300
C  -10.71400 20.27700 24.15300
N  -5.63100 25.18700 24.06600
C  -6.26000 24.37700 23.23400
C  -5.75500 24.46700 21.73300
C  -4.60700 25.51800 21.90000
C  -4.78200 25.98300 23.38200
C  -5.27400 23.10700 21.03700
C  -4.53700 26.67300 20.84000
C  -3.27500 26.68000 20.04300
N  -4.68000 26.53600 26.28800
C  -3.90100 27.21100 25.35300
C  -3.01000 28.15700 25.99200
C  -3.27900 28.01600 27.39500
C  -4.31000 27.07700 27.47900
C  -1.94800 28.91600 25.20400
C  -2.92800 28.41000 28.73000
O  -1.96800 29.09700 29.09800
C  -3.83700 27.71600 29.72300
C  -3.02100 26.80200 30.59500
O  -2.27500 25.89200 30.16600
O  -3.24300 27.16700 31.90600
C  -2.29200 26.54400 32.88600
H  -8.66400 22.67600 29.11000
H  -7.78700 23.04900 22.64200
H  -3.30200 27.38400 23.21600
H  -5.13500 25.19500 31.18100
H  -8.03600 24.65200 30.79200
H  -6.62100 22.09400 30.43200
H  -7.39500 22.79700 31.95400
H  -5.74500 23.09400 31.58000
H  -7.20600 27.30400 30.63800
H  -5.82500 27.30500 31.83300
H  -8.57800 26.23200 32.52600
H  -7.56500 27.46000 33.11600
H  -10.96500 20.98000 26.82400
H  -10.43200 21.81700 28.21200
H  -9.38500 20.55100 27.57100
H  -11.13800 19.78800 23.27600
H  -11.49700 20.72900 24.76100
H  -10.25500 19.45200 24.69700
H  -6.51700 24.95500 21.12500
H  -3.63500 25.02300 21.91400
H  -5.60400 22.33100 21.72700
H  -4.20100 22.93600 20.96300
H  -5.65300 23.10100 20.01500
H  -4.55800 27.65800 21.30600
H  -5.33900 26.61400 20.10400
H  -2.60800 25.82800 20.17900
H  -2.69400 27.60000 20.11500
H  -3.58900 26.62800 19.00100
H  -1.11600 29.05700 25.89300
H  -2.15400 29.92800 24.85700
H  -1.68900 28.38100 24.29000
H  -4.30500 28.40200 30.43000
H  -1.91600 25.56600 32.58700
H  -2.95200 26.34100 33.72900
H  -1.53500 27.20500 33.30900

