158

Mg 0.20700 7.79300 26.34700
C  1.24500 9.51600 29.16700
C  0.13100 4.87900 28.03100
C  -0.16000 6.16800 23.40800
C  0.31000 10.85500 24.55300
N  0.73100 7.27800 28.32700
C  1.05200 8.13400 29.39800
C  0.99400 7.37600 30.66500
C  0.79200 5.83200 30.26800
C  0.47300 5.98800 28.77700
C  2.07600 4.96700 30.51500
C  -0.15900 7.99800 31.52900
C  0.19100 8.38600 32.98400
H  1.27200 7.58400 33.80500
N  0.08300 5.75700 25.79800
C  0.01100 4.74700 26.61700
C  -0.24200 3.51000 25.94100
C  -0.18300 3.84600 24.60000
C  -0.18100 5.31200 24.52500
C  -0.45100 2.19900 26.65800
C  -0.34900 2.94300 23.32600
O  -0.38700 3.36800 22.15400
C  -0.38600 1.50900 23.45600
N  0.02900 8.43300 24.37000
C  -0.08600 7.52000 23.35800
C  -0.12000 8.14800 22.03600
C  -0.36900 9.68400 22.38300
C  0.04100 9.67600 23.84800
C  1.09100 7.92300 21.08700
C  -1.82400 10.22400 22.18700
C  -2.03000 11.48100 21.28000
N  0.60300 9.83100 26.81600
C  0.70500 10.90000 25.88200
C  1.19100 12.06400 26.64100
C  1.50100 11.62100 27.94300
C  1.03500 10.22600 27.95300
C  1.57600 13.43300 26.03700
C  2.00400 11.94200 29.27000
O  2.47800 13.03400 29.69600
C  1.67000 10.61600 30.09100
C  2.78000 10.21800 30.97100
O  3.84700 9.69900 30.62900
O  2.54100 10.74000 32.25100
C  3.68500 10.78000 33.13600
H  -0.09100 4.01700 28.66300
H  -0.33100 5.55600 22.52000
H  0.25000 11.74900 23.92900
H  1.95100 7.42000 31.18400
H  -0.05500 5.35500 30.76100
H  2.75300 5.43700 31.22800
H  2.58900 4.73800 29.58100
H  1.63300 4.08800 30.98300
H  -0.99000 7.29800 31.44700
H  -0.42100 8.88300 30.95000
H  -0.74900 8.28800 33.52700
H  0.49100 9.43000 32.89500
H  -0.93500 1.52200 25.95500
H  -1.07000 2.38000 27.53600
H  0.48500 1.81300 27.06200
H  -1.35400 1.27300 23.89900
H  0.45100 1.14200 24.05000
H  -0.47200 1.20500 22.41300
H  -0.97800 7.68300 21.55000
H  0.26600 10.36000 21.81100
H  1.23000 6.87900 20.80800
H  2.00200 8.29300 21.55700
H  0.76500 8.43200 20.18000
H  -2.29800 10.25200 23.16800
H  -2.36100 9.40100 21.71600
H  -2.68100 11.20100 20.45200
H  -1.10500 11.82300 20.81700
H  -2.47900 12.35000 21.76000
H  2.47600 13.88400 26.45600
H  0.77500 14.09500 26.36400
H  1.51900 13.31900 24.95400
H  0.85100 10.87000 30.76400
H  4.67800 10.51500 32.77200
H  3.41000 10.08700 33.93000
H  3.80700 11.78900 33.53000
Mg 8.68700 3.48500 27.77700
C  10.18200 2.31700 30.74300
C  6.67800 5.55400 29.83300
C  7.12600 4.26600 25.04300
C  10.67300 1.12300 26.11200
N  8.44800 3.77500 30.05300
C  9.21700 3.22900 31.04900
C  8.76000 3.74700 32.49200
C  7.50800 4.61300 32.20100
C  7.48700 4.63700 30.59500
C  6.11800 4.17000 32.81800
C  9.91200 4.54000 33.28700
C  10.13400 4.10600 34.75200
H  10.74900 5.06000 35.73000
N  7.16000 4.73000 27.49300
C  6.47000 5.55800 28.40100
C  5.52700 6.36200 27.63700
C  5.63400 5.96600 26.26800
C  6.61400 4.94000 26.20400
C  4.61900 7.30200 28.47000
C  4.85200 6.53200 25.06300
O  4.89500 6.17500 23.90000
C  3.78800 7.60600 25.28000
N  8.90400 2.81300 25.81900
C  8.12500 3.32800 24.86300
C  8.40700 2.65100 23.54600
C  9.62900 1.77000 23.86400
C  9.78300 1.90700 25.34300
C  7.27400 1.90200 22.83000
C  11.03800 2.06100 23.14800
C  11.92800 3.21400 23.67600
N  10.21500 2.02200 28.25600
C  10.87400 1.16200 27.46900
C  11.74100 0.31700 28.31300
C  11.61700 0.82400 29.57400
C  10.57700 1.77200 29.51400
C  12.73600 -0.77300 27.74400
C  11.98000 0.67900 30.97300
O  12.81200 -0.04900 31.48200
C  11.09500 1.64500 31.74500
C  10.31100 0.91700 32.77300
O  9.18000 0.46700 32.54600
O  11.03000 0.75500 33.93100
C  10.22400 0.02600 34.87200
H  6.08700 6.28800 30.38500
H  6.70900 4.56300 24.07900
H  11.32600 0.41400 25.59900
H  8.39800 2.88400 33.05100
H  7.63700 5.55600 32.73400
H  6.15600 3.31700 33.49600
H  5.28900 3.93800 32.14900
H  5.67000 4.98300 33.39000
H  9.54900 5.56500 33.20900
H  10.80200 4.51400 32.65900
H  10.77400 3.24700 34.55200
H  9.23800 3.68700 35.21200
H  4.06500 7.96100 27.80200
H  5.18800 8.05100 29.02000
H  3.89200 6.72600 29.04300
H  3.13600 7.37800 26.12300
H  3.21000 7.77600 24.37100
H  4.36300 8.52900 25.35600
H  8.89200 3.41600 22.93900
H  9.41700 0.72800 23.62300
H  6.74000 1.27100 23.54100
H  7.68500 1.17400 22.13100
H  6.56600 2.62700 22.42700
H  10.77900 2.32500 22.12300
H  11.64600 1.15600 23.14900
H  11.47700 3.81800 24.46400
H  12.26800 3.78800 22.81500
H  12.88400 2.86100 24.06300
H  13.34200 -0.31900 26.96000
H  12.09100 -1.54200 27.31800
H  13.39700 -1.21200 28.49000
H  11.76000 2.36300 32.22400
H  10.82700 -0.11600 35.76900
H  9.97600 -0.92800 34.40500
H  9.27800 0.53600 35.05100

