158

Mg 25.50600 1.24300 29.08800
C  27.47400 0.77000 32.00700
C  22.74300 1.74800 31.05700
C  23.70700 1.13100 26.29600
C  28.40500 0.18700 27.25700
N  25.14100 1.18600 31.29700
C  26.18900 1.32700 32.20400
C  25.60800 1.54500 33.60900
C  24.03100 1.46600 33.35800
C  23.94700 1.59000 31.80600
C  23.35400 0.22900 33.84800
C  26.05800 2.86400 34.29500
C  27.09100 2.66300 35.50300
H  26.71300 3.36000 36.85400
N  23.49700 1.42500 28.74100
C  22.53000 1.70400 29.70300
C  21.27300 1.73700 29.01600
C  21.53200 1.56000 27.63400
C  23.03000 1.46200 27.47300
C  19.96000 2.04700 29.70000
C  20.50300 1.51000 26.46100
O  20.83900 1.30400 25.26200
C  19.04300 1.75100 26.69900
N  25.97300 0.66300 27.11400
C  25.02800 0.85700 26.12600
C  25.59400 0.55700 24.75000
C  27.18600 0.49400 25.03900
C  27.17400 0.37200 26.55600
C  25.05400 -0.81400 24.04500
C  28.08600 1.69200 24.37900
C  29.25600 1.28300 23.49100
N  27.51100 0.47100 29.50200
C  28.56500 0.14200 28.63400
C  29.75100 -0.08100 29.40500
C  29.32200 0.05200 30.70700
C  27.94100 0.42500 30.72300
C  31.06700 -0.53800 28.77100
C  29.75500 0.20100 32.05400
O  30.91000 0.13400 32.46200
C  28.56900 0.60800 32.95600
C  28.32800 -0.51300 33.85600
O  27.95300 -1.62300 33.57700
O  28.58000 -0.10700 35.12700
C  28.36200 -1.09000 36.16200
H  21.87500 1.83100 31.71500
H  23.16900 1.12600 25.34600
H  29.26300 -0.14500 26.66800
H  25.95600 0.65800 34.13700
H  23.47900 2.33000 33.72900
H  23.21600 -0.50700 33.05500
H  22.36800 0.44800 34.25700
H  23.95400 -0.28200 34.60100
H  25.17700 3.43400 34.58900
H  26.55600 3.52100 33.58200
H  28.04500 3.05500 35.14900
H  27.31400 1.60900 35.66900
H  19.27800 1.23900 29.43900
H  19.61000 2.98500 29.26900
H  20.02200 2.13900 30.78500
H  18.59000 1.05700 27.40800
H  18.53700 1.72200 25.73400
H  18.92900 2.78600 27.02200
H  25.36100 1.43900 24.15400
H  27.55100 -0.45900 24.65600
H  25.75500 -1.64600 24.11600
H  24.90300 -0.51800 23.00700
H  24.11100 -1.16000 24.46900
H  28.46600 2.19000 25.27100
H  27.53400 2.41600 23.78000
H  29.03400 1.87800 22.60600
H  29.18900 0.22700 23.22700
H  30.27500 1.52800 23.79000
H  31.11100 -0.76600 27.70600
H  31.56200 -1.30100 29.37100
H  31.79300 0.27100 28.85000
H  28.66100 1.55400 33.48900
H  28.41800 -0.60600 37.13600
H  29.05500 -1.92900 36.09900
H  27.40600 -1.60300 36.05600
Mg -11.23700 39.15300 41.55900
C  -9.89600 36.05900 40.57400
C  -8.65300 40.73000 39.94400
C  -12.87600 42.09800 42.15100
C  -14.20600 37.42300 42.62500
N  -9.56700 38.42800 40.19700
C  -9.13400 37.16800 40.21100
C  -7.86100 37.06200 39.37000
C  -7.33100 38.45600 39.57100
C  -8.56200 39.31300 39.94600
C  -6.20100 38.62000 40.70000
C  -8.07000 36.57800 37.88500
C  -7.30800 35.31200 37.52600
H  -6.20100 35.64800 36.49700
N  -10.85000 41.11300 41.06900
C  -9.76800 41.52100 40.38400
C  -9.81800 42.96100 40.29800
C  -10.87900 43.44400 41.08100
C  -11.63500 42.22100 41.50800
C  -8.78600 43.70300 39.59700
C  -11.12900 44.89300 41.31500
O  -10.41400 45.75600 40.80700
C  -12.28600 45.41900 42.06000
N  -13.26500 39.70200 42.06500
C  -13.64000 40.99400 42.42300
C  -15.12500 41.06900 42.93600
C  -15.50700 39.58100 42.94200
C  -14.20800 38.86400 42.61700
C  -15.15700 41.81900 44.32900
C  -16.61000 39.28900 41.87300
C  -17.65400 38.26700 42.15500
N  -11.94800 37.17900 41.63200
C  -13.12900 36.59600 42.15000
C  -12.96700 35.08000 42.15400
C  -11.73400 34.85600 41.59100
C  -11.16900 36.16100 41.28700
C  -13.90900 34.03300 42.79500
C  -10.67000 33.88300 41.23500
O  -10.60700 32.68300 41.54900
C  -9.55200 34.61800 40.61400
C  -8.30800 34.59200 41.54200
O  -8.33400 34.87100 42.74200
O  -7.27700 33.98000 40.86400
C  -6.04200 34.14000 41.68000
H  -7.72400 41.13300 39.53500
H  -13.40700 43.02300 42.38700
H  -15.05800 36.84400 42.98900
H  -7.17600 36.37500 39.86500
H  -6.87400 38.78600 38.63800
H  -5.30300 39.03500 40.24100
H  -5.90300 37.62500 41.02900
H  -6.42000 39.28400 41.53600
H  -7.65200 37.30400 37.18700
H  -9.13700 36.44000 37.71200
H  -7.86000 34.45500 37.14100
H  -6.70500 34.99000 38.37500
H  -7.85800 43.22400 39.28400
H  -8.39700 44.46400 40.27300
H  -9.32500 44.15600 38.76400
H  -13.19900 45.16300 41.52300
H  -12.05100 46.47700 42.18100
H  -12.20700 44.85300 42.98800
H  -15.51200 41.61800 42.07700
H  -15.86400 39.22700 43.90900
H  -14.20500 41.91900 44.84900
H  -15.80200 41.26100 45.00800
H  -15.58400 42.80400 44.14200
H  -16.05700 39.07500 40.95800
H  -17.10200 40.21400 41.57100
H  -17.71900 37.80900 41.16800
H  -18.66700 38.66700 42.17800
H  -17.41900 37.55000 42.94200
H  -13.25300 33.34700 43.33000
H  -14.53600 33.51600 42.06800
H  -14.51600 34.49400 43.57400
H  -9.26500 34.34400 39.59900
H  -5.92200 35.17400 42.00400
H  -5.17700 33.95800 41.04200
H  -5.90800 33.43400 42.50000

