158

Mg 1.79200 -2.35400 44.95800
C  5.05200 -1.17300 43.86600
C  0.33900 -0.31300 42.58700
C  -1.14500 -4.02700 45.40700
C  3.58200 -5.19600 46.19000
N  2.66900 -1.01300 43.33300
C  3.94600 -0.52400 43.26000
C  3.97900 0.59400 42.19500
C  2.50300 0.81600 41.80300
C  1.72100 -0.21600 42.59600
C  2.01800 2.28500 41.85600
C  4.89400 0.16300 40.94100
C  6.16700 1.04400 40.73500
H  6.11200 1.91700 39.40400
N  -0.13900 -2.09800 44.22000
C  -0.51100 -1.10600 43.25000
C  -1.97200 -1.18300 43.19000
C  -2.49700 -2.17300 43.99100
C  -1.24300 -2.83900 44.60100
C  -2.69600 -0.25400 42.22700
C  -4.01300 -2.68100 44.00600
O  -4.84400 -2.01100 43.40900
C  -4.42200 -3.97800 44.59800
N  1.31600 -4.18100 45.84200
C  0.01600 -4.63900 45.88900
C  -0.11000 -5.99600 46.51900
C  1.35600 -6.41800 46.74300
C  2.17700 -5.19100 46.26900
C  -0.99900 -6.16000 47.78000
C  1.65900 -7.76300 46.05300
C  2.81300 -8.57000 46.75500
N  3.87400 -3.04000 45.14400
C  4.41800 -4.14800 45.69300
C  5.87200 -4.18400 45.57700
C  6.14500 -3.01000 44.87900
C  4.92100 -2.27400 44.72900
C  6.76000 -5.26100 45.93100
C  7.22600 -2.34100 44.23900
O  8.39100 -2.68600 44.06400
C  6.59700 -0.99200 43.76900
C  7.11800 0.10200 44.67200
O  6.58500 0.48300 45.73400
O  8.12800 0.71700 44.05300
C  8.55000 2.08400 44.58900
H  -0.20900 0.42500 41.99700
H  -1.99900 -4.70600 45.44900
H  4.09700 -6.08900 46.54800
H  4.26800 1.49100 42.74300
H  2.29800 0.64400 40.74700
H  1.47500 2.50600 40.93700
H  2.85000 2.98700 41.89700
H  1.35900 2.40700 42.71500
H  4.33100 0.14900 40.00800
H  5.16500 -0.87900 41.11300
H  7.12300 0.52900 40.83100
H  6.17300 1.71300 41.59600
H  -3.77000 -0.17800 42.39800
H  -2.72900 -0.62500 41.20300
H  -2.18800 0.71100 42.22800
H  -5.49900 -4.03600 44.43900
H  -4.13400 -3.84600 45.64000
H  -3.84700 -4.64700 43.95800
H  -0.56000 -6.55900 45.70200
H  1.51500 -6.61800 47.80300
H  -1.15300 -5.12700 48.09100
H  -0.50700 -6.73600 48.56400
H  -2.01300 -6.50200 47.57100
H  1.90800 -7.54500 45.01500
H  0.73200 -8.33300 46.10900
H  3.55000 -8.78000 45.98000
H  2.35400 -9.51500 47.04600
H  3.24700 -8.10600 47.64100
H  7.16900 -5.52400 44.95500
H  6.22000 -6.11200 46.34400
H  7.53200 -4.86200 46.58900
H  6.87800 -0.72400 42.75100
H  9.62800 2.07400 44.42500
H  8.40600 2.20200 45.66300
H  8.10500 2.90000 44.02000
Mg 46.24000 24.81400 28.61800
C  47.10400 27.24000 31.14200
C  45.63300 22.58200 31.11100
C  45.52800 22.54600 26.32000
C  47.64100 26.87800 26.32000
N  46.15900 25.01300 30.85700
C  46.58200 26.06100 31.60100
C  46.33300 25.83000 33.07200
C  46.00200 24.26700 33.09500
C  45.97100 23.88000 31.61400
C  46.99000 23.45700 34.01800
C  45.16100 26.77600 33.56500
C  45.30600 27.49400 34.87700
H  45.73800 26.70600 36.15300
N  45.63900 22.87800 28.70700
C  45.41400 22.09800 29.80200
C  44.98400 20.87000 29.44800
C  44.67800 20.88300 28.11900
C  45.25200 22.16000 27.61000
C  44.95600 19.68900 30.46500
C  43.97900 19.87200 27.36900
O  43.55600 20.15500 26.25000
C  43.66500 18.53600 27.94200
N  46.66700 24.64900 26.60300
C  46.29800 23.63100 25.79000
C  46.54200 23.86000 24.36000
C  47.13400 25.32100 24.37200
C  47.21600 25.63500 25.88200
C  47.40100 22.73700 23.60800
C  46.25900 26.29900 23.49400
C  45.20900 27.20700 24.14100
N  47.07000 26.70600 28.63700
C  47.65000 27.39100 27.60900
C  48.07100 28.56700 28.13900
C  47.93900 28.55600 29.50600
C  47.27700 27.41500 29.77200
C  48.70100 29.71100 27.34100
C  48.25800 29.25400 30.74300
O  48.80500 30.32500 30.95800
C  47.59000 28.51000 31.85200
C  48.55700 28.30900 32.89700
O  49.52300 27.57000 32.87100
O  48.22800 29.22300 33.87700
C  48.95700 28.98200 35.17900
H  45.36500 21.87800 31.90100
H  45.08700 21.77000 25.69100
H  48.11000 27.50600 25.56000
H  47.32800 26.12500 33.40500
H  45.00200 24.01400 33.44800
H  47.62100 24.14500 34.58000
H  47.63200 22.90000 33.33500
H  46.47400 22.66500 34.56100
H  44.33900 26.12900 33.87200
H  44.90600 27.51100 32.80200
H  44.38600 28.05200 35.05000
H  46.19200 28.05400 34.58000
H  45.52500 18.87400 30.01700
H  43.93400 19.38700 30.69600
H  45.40800 19.81500 31.44900
H  43.22300 17.89100 27.18200
H  42.97200 18.66500 28.77400
H  44.52000 17.92200 28.22300
H  45.59200 23.89200 23.82600
H  48.19200 25.25300 24.11900
H  48.44900 22.99700 23.45900
H  47.03500 22.79400 22.58300
H  47.35900 21.73200 24.02700
H  45.89100 25.77000 22.61500
H  47.02700 26.99800 23.16500
H  45.16000 27.05800 25.21900
H  44.16900 27.11000 23.82800
H  45.52400 28.24000 23.99000
H  48.20200 29.65300 26.37400
H  49.76900 29.53500 27.21200
H  48.38200 30.67500 27.73700
H  46.73400 29.01900 32.29400
H  48.94500 29.89900 35.76700
H  50.02000 28.74200 35.16100
H  48.32500 28.27600 35.71700

