158

Mg 16.87100 -1.36600 27.81500
C  15.80900 0.46700 30.64000
C  18.67100 -3.32200 29.76300
C  18.19000 -2.70700 24.99200
C  14.94800 0.85100 25.79400
N  17.20300 -1.38300 29.94900
C  16.66100 -0.62000 30.95500
C  17.11200 -1.07600 32.31800
C  18.21100 -2.26600 31.95400
C  18.04400 -2.34800 30.45000
C  19.63600 -1.91300 32.41400
C  15.82400 -1.50200 33.15600
C  15.66600 -0.96300 34.60000
H  16.92600 -0.37400 35.30500
N  18.25500 -2.84200 27.46600
C  18.90700 -3.54400 28.42200
C  19.77000 -4.51600 27.80700
C  19.70900 -4.31500 26.36000
C  18.68000 -3.23900 26.19000
C  20.58600 -5.51600 28.52300
C  20.48200 -4.97400 25.24900
O  20.52900 -4.56000 24.07900
C  21.33900 -6.23500 25.40500
N  16.46100 -1.14900 25.73300
C  17.18600 -1.79400 24.74400
C  16.81300 -1.34800 23.30500
C  15.67800 -0.34600 23.61800
C  15.67600 -0.18200 25.17300
C  17.98700 -0.88600 22.48200
C  14.31000 -0.67000 23.09600
C  13.98900 -0.15900 21.69600
N  15.53000 0.28900 28.13100
C  14.86700 1.06000 27.21000
C  14.11300 2.15400 27.92900
C  14.46200 1.94900 29.26800
C  15.32900 0.82800 29.34700
C  13.09200 3.11600 27.22400
C  14.24200 2.42300 30.60100
O  13.57600 3.35300 31.01600
C  15.11300 1.56200 31.58800
C  16.01500 2.50700 32.25600
O  16.99000 3.09200 31.72800
O  15.55000 2.87900 33.49200
C  16.27600 3.92400 34.26100
H  19.24900 -4.03700 30.35200
H  18.75900 -2.98500 24.10200
H  14.52400 1.72200 25.29000
H  17.50900 -0.24600 32.90200
H  17.95300 -3.21700 32.42100
H  20.03700 -1.25400 31.64300
H  20.21500 -2.82200 32.57800
H  19.61600 -1.35000 33.34700
H  15.77600 -2.58900 33.21400
H  14.93400 -1.16600 32.62300
H  15.18700 -1.67200 35.27500
H  14.92800 -0.16700 34.49300
H  21.64400 -5.26400 28.45800
H  20.52700 -6.47700 28.01200
H  20.22200 -5.68000 29.53700
H  21.92600 -6.22900 24.48700
H  20.74900 -7.12300 25.63600
H  22.09600 -6.00400 26.15500
H  16.44200 -2.11200 22.62100
H  16.05300 0.61100 23.25500
H  17.91200 0.18700 22.30500
H  18.09900 -1.47300 21.57100
H  18.89300 -0.95600 23.08400
H  13.47200 -0.36200 23.72200
H  14.23800 -1.75500 23.16500
H  13.86000 -1.08900 21.14200
H  14.81100 0.44200 21.30900
H  13.06800 0.40000 21.53300
H  12.17700 3.15900 27.81500
H  12.88400 2.73000 26.22600
H  13.43500 4.14900 27.28300
H  14.54800 1.13800 32.41900
H  17.36200 3.88500 34.18600
H  16.03700 3.74100 35.30900
H  15.93900 4.91800 33.96800
Mg -5.46200 25.05000 26.59900
C  -4.06600 26.50200 29.47700
C  -7.63400 23.16200 28.53900
C  -6.44600 23.51900 23.88800
C  -3.13000 26.86300 24.74000
N  -5.77200 24.88600 28.75000
C  -5.08400 25.53100 29.74300
C  -5.47800 24.92600 31.04800
C  -6.53100 23.83000 30.77600
C  -6.67100 24.00100 29.25900
C  -6.15400 22.45500 31.34800
C  -5.94900 26.02700 32.03900
C  -5.64800 25.70700 33.50100
H  -5.08000 24.38200 33.88800
N  -6.90100 23.66300 26.30300
C  -7.65000 22.94100 27.20200
C  -8.59000 21.98700 26.51500
C  -8.30300 22.16000 25.15600
C  -7.16400 23.16800 25.06200
C  -9.45900 21.13600 27.24000
C  -9.04700 21.58600 23.98400
O  -8.66500 21.71800 22.82700
C  -10.27300 20.64000 24.20400
N  -4.88100 25.22600 24.63300
C  -5.42100 24.41800 23.68600
C  -4.70400 24.51900 22.31200
C  -3.86600 25.84200 22.58000
C  -3.97900 26.06300 24.06800
C  -3.91100 23.22800 21.77700
C  -4.40500 27.10400 21.84300
C  -3.51500 27.71000 20.78800
N  -3.92500 26.53000 26.96900
C  -3.06900 27.17700 26.13000
C  -2.13900 28.03700 26.82600
C  -2.44100 27.77600 28.17800
C  -3.58100 26.80200 28.17600
C  -1.04900 28.81700 26.16100
C  -2.09000 28.02800 29.57900
O  -1.35300 28.74500 30.20500
C  -3.13200 27.22700 30.40000
C  -2.41200 26.38800 31.33900
O  -2.05500 25.19900 31.09400
O  -1.99700 27.09900 32.47000
C  -1.38800 26.32100 33.50100
H  -8.42900 22.70600 29.13300
H  -6.70400 22.95700 22.98800
H  -2.38500 27.35100 24.10800
H  -4.51300 24.49600 31.31400
H  -7.48300 24.18600 31.17000
H  -6.16800 21.69100 30.57100
H  -6.86800 22.13200 32.10600
H  -5.17400 22.39100 31.82100
H  -7.02300 26.21600 32.06600
H  -5.53600 27.00100 31.77800
H  -6.50700 25.92500 34.13700
H  -4.93400 26.43200 33.89000
H  -9.18600 20.18300 26.78700
H  -10.48300 21.35200 26.93500
H  -9.34800 21.06200 28.32200
H  -10.02000 19.73200 24.75300
H  -10.50700 20.23400 23.22000
H  -11.10600 21.19600 24.63300
H  -5.47500 24.68500 21.56000
H  -2.82100 25.61900 22.36500
H  -2.83700 23.36400 21.65000
H  -4.28000 22.84400 20.82600
H  -3.99900 22.40600 22.48800
H  -4.68800 27.88600 22.54800
H  -5.34500 26.82900 21.36500
H  -4.15300 27.84600 19.91500
H  -2.61500 27.10300 20.68200
H  -3.22300 28.69600 21.14800
H  -0.48600 29.36300 26.91800
H  -1.26100 29.48800 25.32900
H  -0.29100 28.14400 25.76100
H  -3.63900 28.00200 30.97400
H  -2.10200 26.28100 34.32400
H  -0.53900 26.94600 33.77900
H  -1.09100 25.32600 33.16900

