158

Mg 23.29800 -6.33800 45.42200
C  25.81200 -4.05500 44.37400
C  21.02200 -4.55300 43.62300
C  21.40200 -9.08100 45.47200
C  25.99800 -8.22900 46.90700
N  23.49300 -4.54000 44.05500
C  24.52900 -3.71000 43.84300
C  24.15100 -2.46200 43.02100
C  22.60600 -2.52800 43.16300
C  22.31400 -3.99700 43.60400
C  22.06700 -1.40500 44.13700
C  24.76600 -2.51000 41.67400
C  25.56400 -1.25200 41.24300
H  25.68200 -0.91100 39.74900
N  21.29500 -6.78200 44.75000
C  20.58600 -5.89100 43.95100
C  19.28100 -6.50300 43.76900
C  19.37400 -7.80900 44.38400
C  20.73200 -7.98200 44.87800
C  18.28800 -5.65300 43.05700
C  18.19300 -8.77500 44.56300
O  17.04600 -8.42600 44.20900
C  18.40800 -9.98100 45.32500
N  23.69700 -8.34100 46.07800
C  22.73800 -9.28600 46.03600
C  23.23400 -10.62800 46.56700
C  24.63800 -10.25700 47.12200
C  24.80500 -8.88400 46.59200
C  22.25500 -11.34400 47.55400
C  25.72700 -11.21400 46.60300
C  26.64400 -12.01400 47.59700
N  25.46700 -6.18400 45.70100
C  26.36600 -6.98700 46.35600
C  27.69900 -6.51600 46.20600
C  27.55900 -5.33300 45.47600
C  26.18500 -5.18600 45.17300
C  28.97400 -7.13700 46.80600
C  28.22200 -4.14900 44.89100
O  29.40300 -3.80700 44.88100
C  27.08100 -3.21900 44.22200
C  27.03600 -1.89400 44.90900
O  26.28500 -1.62700 45.78700
O  27.92200 -0.98000 44.36500
C  27.88000 0.45200 44.73500
H  20.25700 -3.90500 43.19100
H  20.90100 -10.04300 45.60100
H  26.70800 -8.91700 47.37100
H  24.48400 -1.53200 43.48200
H  22.10100 -2.45800 42.20000
H  21.58100 -1.78200 45.03800
H  21.36000 -0.77600 43.59700
H  22.85400 -0.77900 44.55600
H  23.96400 -2.57700 40.93800
H  25.36300 -3.40900 41.52400
H  26.56100 -1.38900 41.66000
H  25.11000 -0.36800 41.69200
H  18.10800 -4.72200 43.59400
H  17.28000 -6.06500 43.02200
H  18.63900 -5.36500 42.06500
H  17.45300 -10.47800 45.49300
H  18.89700 -9.78000 46.27900
H  18.95800 -10.74800 44.77900
H  23.34600 -11.25200 45.68000
H  24.62100 -10.18100 48.20900
H  22.05700 -12.36200 47.21800
H  21.32600 -10.78700 47.67500
H  22.58400 -11.22500 48.58600
H  26.37700 -10.71000 45.88800
H  25.25900 -11.89800 45.89500
H  27.67600 -11.84500 47.29000
H  26.49700 -13.08900 47.69400
H  26.48000 -11.57600 48.58200
H  29.36800 -7.92400 46.16400
H  28.77300 -7.64000 47.75200
H  29.68700 -6.34000 47.01700
H  27.33800 -3.14500 43.16600
H  26.91600 0.69600 45.18200
H  28.00200 1.17700 43.93000
H  28.62300 0.69400 45.49400
Mg 1.11800 42.45200 26.27700
C  2.97600 42.17900 29.23200
C  -1.63400 41.62600 28.13700
C  -0.54200 42.02200 23.45500
C  4.08300 42.96900 24.63500
N  0.68300 42.04500 28.50700
C  1.60200 42.15200 29.46700
C  0.95500 42.39000 30.78900
C  -0.57500 42.09000 30.43800
C  -0.53300 41.86100 28.95300
C  -1.27600 40.97500 31.18500
C  1.33000 43.77500 31.32200
C  1.83700 43.75700 32.77500
H  1.51800 42.51100 33.65400
N  -0.76800 41.78900 25.89200
C  -1.78800 41.46500 26.73200
C  -2.87100 40.82100 26.03100
C  -2.49900 40.84000 24.63100
C  -1.25800 41.57400 24.55700
C  -4.05300 40.14200 26.76400
C  -3.19700 40.22000 23.42800
O  -2.77300 40.35500 22.26300
C  -4.40400 39.36800 23.64700
N  1.68400 42.51600 24.33600
C  0.73600 42.46700 23.34000
C  1.41700 42.82900 21.92600
C  2.88400 43.18800 22.38400
C  2.90400 42.89800 23.86600
C  1.43400 41.59600 20.92000
C  3.26800 44.69300 22.03200
C  2.34300 45.76400 22.59100
N  3.10000 42.52700 26.69700
C  4.18900 42.87200 25.96700
C  5.42000 42.91600 26.79200
C  4.98100 42.68100 28.06600
C  3.58000 42.36700 27.94600
C  6.84400 43.19700 26.36500
C  5.31200 42.57200 29.42300
O  6.36900 42.72200 30.00900
C  4.09200 42.27300 30.21500
C  4.28900 41.01300 31.14400
O  3.85600 39.89500 30.88700
O  4.86700 41.45700 32.33000
C  5.31800 40.36300 33.19300
H  -2.56500 41.35900 28.64000
H  -1.02700 41.97400 22.47700
H  4.93600 43.17200 23.98500
H  1.38600 41.61400 31.42100
H  -1.11700 43.02000 30.61100
H  -1.46500 40.14300 30.50700
H  -2.20200 41.24300 31.69300
H  -0.58700 40.60600 31.94600
H  0.49600 44.45600 31.15100
H  2.13600 44.12500 30.67700
H  1.33200 44.56100 33.30900
H  2.87200 44.09800 32.76500
H  -3.90700 39.14500 27.18000
H  -4.95700 40.14100 26.15500
H  -4.37000 40.77200 27.59500
H  -4.78800 38.94300 22.72000
H  -5.16300 39.99100 24.12200
H  -4.17400 38.53600 24.31200
H  0.89200 43.64700 21.43100
H  3.59300 42.49200 21.93500
H  1.14500 40.74900 21.54300
H  2.42900 41.51500 20.48500
H  0.62800 41.72100 20.19700
H  3.21700 44.78800 20.94800
H  4.31400 44.84600 22.29800
H  1.97700 46.30300 21.71800
H  2.93000 46.39300 23.26000
H  1.54100 45.31600 23.17800
H  7.51700 42.33900 26.38600
H  7.23600 43.81700 27.17100
H  6.79400 43.81400 25.46900
H  4.05000 43.15100 30.85900
H  5.14500 40.66100 34.22700
H  6.39700 40.21300 33.23600
H  4.89300 39.38300 32.97400

