158

Mg 0.34700 7.36500 26.45000
C  0.69900 9.61800 29.11200
C  0.25500 4.94200 28.77700
C  -0.08700 5.21700 23.96100
C  0.63900 10.04200 24.24600
N  0.47600 7.35200 28.69400
C  0.47900 8.36700 29.57500
C  0.36000 7.90800 31.03200
C  0.58200 6.33500 30.84700
C  0.49000 6.18600 29.33400
C  1.81200 5.78500 31.56100
C  -0.95200 8.25000 31.68600
C  -0.86900 8.44100 33.24800
H  0.40200 8.11600 34.01300
N  0.18500 5.34100 26.34600
C  0.14100 4.51600 27.39700
C  -0.21000 3.18900 26.95800
C  -0.07100 3.10900 25.55700
C  -0.00100 4.59100 25.20000
C  -0.60600 2.07400 27.99300
C  -0.26200 2.03300 24.62900
O  -0.16400 2.19300 23.43200
C  -0.52400 0.74000 25.09500
N  0.34300 7.54400 24.43200
C  -0.00300 6.54700 23.56600
C  -0.16300 7.07200 22.15800
C  -0.30400 8.52900 22.45000
C  0.28100 8.74700 23.79700
C  1.18500 6.79600 21.40000
C  -1.86100 8.90800 22.53300
C  -2.27300 10.13900 21.68100
N  0.79700 9.44200 26.58100
C  0.93100 10.41100 25.61700
C  1.15800 11.70800 26.19800
C  1.04700 11.51100 27.61900
C  0.81800 10.09800 27.73600
C  1.35200 12.93000 25.40700
C  1.02500 12.04700 28.88700
O  1.34400 13.16000 29.23000
C  0.81000 10.90300 29.90700
C  1.86700 10.98400 30.90300
O  3.06000 10.81000 30.71000
O  1.39200 11.50900 32.08000
C  2.44100 11.83500 33.12800
H  -0.06600 4.23800 29.54800
H  -0.23500 4.52900 23.12500
H  0.62500 10.88500 23.55300
H  1.16200 8.29000 31.66300
H  -0.28500 5.83000 31.27300
H  2.47800 6.57400 31.91100
H  2.41000 5.13800 30.92000
H  1.48900 5.20400 32.42500
H  -1.75500 7.52500 31.55300
H  -1.32700 9.19200 31.28700
H  -1.69500 7.98500 33.79400
H  -1.04100 9.49800 33.45300
H  0.12100 1.26600 27.92700
H  -1.60100 1.78400 27.65500
H  -0.64900 2.31600 29.05500
H  -1.38800 0.77200 25.75900
H  0.35300 0.43600 25.66700
H  -0.67600 -0.02700 24.33600
H  -1.07200 6.63100 21.74800
H  0.34100 9.17300 21.85100
H  0.95100 6.12600 20.57200
H  1.85300 6.16700 21.98800
H  1.83700 7.64400 21.19000
H  -2.17100 9.13900 23.55200
H  -2.41800 8.02400 22.22400
H  -3.15600 9.75700 21.16900
H  -1.50000 10.46000 20.98200
H  -2.53500 10.98500 22.31600
H  1.47400 13.79400 26.06000
H  0.44300 13.03100 24.81300
H  2.14000 12.82900 24.66100
H  -0.16600 11.04700 30.37100
H  3.00000 12.70200 32.77600
H  3.01200 10.93800 33.37000
H  1.81800 12.10900 33.97900
Mg 37.12200 49.17100 24.98200
C  37.53700 47.27000 27.97200
C  35.81500 51.67000 26.89400
C  36.20500 50.74000 22.18500
C  38.29900 46.36800 23.20000
N  36.51700 49.33000 27.13000
C  36.95100 48.54200 28.18800
C  36.68200 49.15800 29.58500
C  36.04600 50.59600 29.15800
C  36.14000 50.51900 27.63100
C  34.61500 50.83500 29.64900
C  37.99500 49.41700 30.40400
C  37.87400 49.67400 31.95400
H  36.53600 49.63600 32.64400
N  36.13500 51.04700 24.56200
C  35.83000 51.95500 25.52500
C  35.29800 53.10300 24.83100
C  35.30600 52.83900 23.43000
C  35.89500 51.49000 23.33400
C  34.87000 54.35100 25.57600
C  34.87300 53.76600 22.24400
O  34.92900 53.38800 21.06900
C  34.51500 55.17900 22.43300
N  37.18300 48.65900 23.02600
C  36.74400 49.42600 22.01900
C  36.96900 48.84000 20.62300
C  37.69200 47.50100 20.97200
C  37.75300 47.49800 22.46200
C  35.70700 48.71600 19.75300
C  39.16800 47.41500 20.36900
C  40.11300 48.47200 20.89500
N  37.75300 47.20000 25.44000
C  38.22600 46.22300 24.58500
C  38.69800 45.10500 25.41000
C  38.32800 45.46200 26.70100
C  37.78000 46.74600 26.69700
C  39.24800 43.82100 25.01000
C  38.38000 45.03800 28.10600
O  38.73200 43.99000 28.61500
C  37.63000 46.14800 28.97300
C  36.24700 45.68300 29.35300
O  35.36300 45.26500 28.62600
O  36.15400 45.80400 30.71700
C  34.86500 45.46800 31.34700
H  35.40400 52.46200 27.52400
H  35.95400 51.27300 21.26500
H  38.83300 45.54200 22.72400
H  35.97600 48.58400 30.18500
H  36.73200 51.33300 29.57500
H  34.21300 49.99100 30.21000
H  34.05200 51.08100 28.74900
H  34.64700 51.76500 30.21700
H  38.58800 50.23000 29.98500
H  38.50300 48.47700 30.19200
H  38.27800 50.68000 32.06600
H  38.51100 48.93400 32.43900
H  35.63700 55.10400 25.39700
H  35.00100 54.20600 26.64800
H  33.87100 54.64800 25.25500
H  34.37900 55.67200 21.47100
H  35.35100 55.71600 22.88200
H  33.67200 55.07700 23.11600
H  37.71200 49.36400 20.02100
H  37.32600 46.51400 20.68900
H  35.21700 47.78800 20.05000
H  35.81600 48.64400 18.67100
H  34.97000 49.48200 19.99300
H  39.08100 47.52000 19.28800
H  39.61500 46.43500 20.54000
H  40.99600 48.02100 21.34800
H  39.72400 49.05300 21.73000
H  40.41000 49.17700 20.11800
H  39.40100 43.71100 23.93600
H  38.70500 42.91100 25.26800
H  40.23000 43.73100 25.47400
H  38.28000 46.43300 29.80000
H  34.99400 44.42400 31.63200
H  33.91800 45.49400 30.80700
H  34.81100 46.03900 32.27400

