158

Mg 1.63900 -2.08500 44.14900
C  5.14400 -1.58800 43.60000
C  1.07100 0.74400 42.30100
C  -1.46200 -3.08500 43.71900
C  2.56000 -5.17900 45.60400
N  2.95600 -0.60800 43.07100
C  4.36600 -0.57800 43.03000
C  4.83600 0.62900 42.19700
C  3.55500 1.38500 42.05700
C  2.41100 0.49500 42.56600
C  3.53300 2.85100 42.64000
C  5.53000 0.27200 40.85900
C  6.92900 0.91000 40.60300
H  6.99400 1.66200 39.25200
N  -0.06100 -1.25300 43.18800
C  -0.07700 -0.08000 42.48800
C  -1.40900 0.11100 42.04900
C  -2.14800 -1.03300 42.38800
C  -1.23700 -1.85800 43.13300
C  -1.87400 1.27800 41.24600
C  -3.61900 -1.20900 42.13500
O  -4.25600 -0.30200 41.62800
C  -4.39900 -2.42900 42.48800
N  0.74100 -3.88900 44.48300
C  -0.64300 -3.96400 44.42400
C  -1.19900 -5.18200 45.00200
C  0.09900 -5.90800 45.57900
C  1.20700 -4.91600 45.23200
C  -2.27700 -4.92700 46.09700
C  0.39000 -7.25600 44.91500
C  0.17000 -8.36900 45.85900
N  3.45800 -3.21000 44.67400
C  3.68500 -4.38300 45.30600
C  5.11000 -4.59500 45.37800
C  5.68100 -3.51100 44.82100
C  4.67500 -2.70400 44.37600
C  5.63400 -5.91900 45.65600
C  7.01600 -3.00500 44.36900
O  8.15400 -3.44000 44.52200
C  6.66400 -1.67400 43.59900
C  7.19200 -0.57900 44.41500
O  6.83200 -0.28400 45.52300
O  8.25800 0.01000 43.79500
C  8.97900 1.00300 44.66700
H  0.97200 1.73100 41.84500
H  -2.45300 -3.54400 43.69800
H  2.71000 -6.11900 46.14100
H  5.52500 1.22100 42.80100
H  3.28800 1.60000 41.02200
H  3.78200 3.49200 41.79400
H  4.28300 2.95900 43.42400
H  2.57500 3.14300 43.06900
H  4.77100 0.45000 40.09700
H  5.83400 -0.77500 40.89000
H  7.72900 0.16900 40.57500
H  7.23600 1.64900 41.34400
H  -2.59900 1.12800 40.44600
H  -1.08400 1.89200 40.81300
H  -2.38100 1.93100 41.95600
H  -4.15800 -3.37000 41.99200
H  -5.40300 -2.21100 42.12400
H  -4.55000 -2.51800 43.56300
H  -1.70400 -5.73700 44.21100
H  0.11200 -5.85900 46.66800
H  -2.26200 -3.90200 46.46900
H  -2.08200 -5.43800 47.03900
H  -3.31300 -5.12600 45.82000
H  1.44900 -7.27800 44.66000
H  -0.19100 -7.41000 44.00600
H  -0.22100 -7.97500 46.79800
H  1.18800 -8.67700 46.09600
H  -0.40000 -9.14500 45.34800
H  5.64600 -6.10000 46.73000
H  6.68200 -6.03100 45.38000
H  5.04600 -6.68200 45.14500
H  6.96400 -1.63600 42.55200
H  9.34000 0.48000 45.55200
H  8.44600 1.93900 44.83600
H  9.82600 1.21700 44.01400
Mg 2.25000 42.17900 25.25600
C  3.39200 42.18500 28.69700
C  -0.75600 41.18800 26.29400
C  1.60100 41.46300 22.05400
C  5.50300 43.08800 24.32400
N  1.46800 41.69200 27.30900
C  2.02800 41.80400 28.55100
C  1.02000 41.64200 29.66900
C  -0.28400 41.08700 28.83400
C  0.13300 41.35800 27.36800
C  -0.71900 39.64100 29.22700
C  0.85800 42.91400 30.45500
C  0.81800 42.92500 31.98300
H  0.15200 41.83300 32.78800
N  0.70200 41.36400 24.30800
C  -0.56300 41.06500 24.89700
C  -1.49100 40.75900 23.84700
C  -0.77700 40.71200 22.60400
C  0.60700 41.12900 22.97900
C  -2.96500 40.60000 24.16300
C  -1.28000 40.51500 21.12700
O  -0.54500 40.68400 20.20000
C  -2.73600 40.32700 20.91000
N  3.44200 42.20600 23.41600
C  2.85900 41.92800 22.24100
C  3.89000 42.15800 21.08400
C  4.99800 42.84500 21.79200
C  4.63400 42.78100 23.26400
C  4.24400 40.93600 20.22000
C  5.25500 44.21300 21.19200
C  4.22400 45.37200 21.48500
N  4.09000 42.69600 26.27600
C  5.29000 42.97500 25.73600
C  6.29000 43.15200 26.85600
C  5.61600 42.78800 27.99900
C  4.22100 42.53500 27.60300
C  7.70900 43.57500 26.68600
C  5.67600 42.61300 29.42500
O  6.65100 42.62500 30.13400
C  4.21300 42.21600 29.87300
C  4.25200 40.94000 30.73300
O  4.70500 39.82600 30.43800
O  3.89200 41.35100 31.92900
C  3.88100 40.30800 32.91400
H  -1.74600 40.86700 26.62400
H  1.46800 41.15300 21.01500
H  6.54700 43.26400 24.05700
H  1.29200 40.88700 30.40600
H  -1.14100 41.73800 29.00800
H  -0.95000 39.14500 28.28500
H  -1.56500 39.70000 29.91200
H  0.13400 39.14600 29.69100
H  -0.02400 43.51300 30.23000
H  1.71100 43.48800 30.09300
H  0.52400 43.95200 32.20000
H  1.81300 42.94600 32.42900
H  -3.33800 39.78800 23.53800
H  -3.46600 41.48900 23.78200
H  -3.21900 40.36300 25.19600
H  -3.26500 41.16400 21.36500
H  -3.08800 39.37300 21.30500
H  -2.90300 40.23000 19.83800
H  3.46600 42.81800 20.32700
H  5.94100 42.30300 21.71300
H  3.61900 40.11900 20.58100
H  5.26200 40.54700 20.22400
H  4.05200 41.06500 19.15500
H  5.27200 44.14100 20.10400
H  6.22400 44.60200 21.50600
H  3.34700 44.94300 21.96800
H  3.92300 45.70500 20.49200
H  4.73900 46.08100 22.13400
H  7.78500 44.55800 27.15200
H  8.01100 43.65300 25.64200
H  8.38600 42.96800 27.28700
H  4.00500 43.01200 30.58700
H  3.21900 39.52900 32.53400
H  3.37800 40.67300 33.80900
H  4.85700 39.87600 33.13400

