158

Mg 47.30600 25.35100 28.06200
C  48.26200 27.55000 30.48600
C  46.46400 23.11400 30.66800
C  46.84000 22.90800 25.81400
C  48.58500 27.40500 25.61600
N  47.06800 25.44900 30.26100
C  47.70700 26.43000 31.07300
C  47.45000 26.27600 32.53200
C  46.93800 24.73400 32.56800
C  46.86600 24.36600 31.02800
C  47.77300 23.66100 33.29900
C  46.46100 27.31500 33.12400
C  45.57300 26.98500 34.34000
H  45.53400 27.95200 35.54300
N  46.53700 23.29200 28.17300
C  46.34800 22.56700 29.33300
C  46.07900 21.18800 28.99600
C  46.00800 21.16700 27.63600
C  46.42900 22.46800 27.12200
C  45.89900 20.06400 30.06100
C  45.49700 20.12300 26.66500
O  45.58400 20.07700 25.42900
C  44.85300 18.98200 27.29200
N  47.55000 25.20000 26.00400
C  47.29300 24.13300 25.30900
C  47.78400 24.28100 23.83800
C  48.06700 25.79300 23.66100
C  48.21300 26.13500 25.18100
C  48.95300 23.42700 23.27400
C  46.83200 26.53300 23.08400
C  47.17800 27.81800 22.45900
N  48.19500 27.09800 28.01400
C  48.64500 27.79200 26.95600
C  49.16400 29.10000 27.41600
C  49.04400 29.01400 28.79200
C  48.48500 27.75900 29.10600
C  49.77700 30.17500 26.59300
C  49.27000 29.74800 30.06200
O  49.72700 30.85100 30.32400
C  48.66800 28.81200 31.15300
C  49.64200 28.68300 32.25800
O  50.62200 27.94200 32.23100
O  49.34900 29.59000 33.28800
C  50.30200 29.51700 34.43800
H  46.36500 22.37300 31.46300
H  46.79400 22.13300 25.04600
H  48.95300 28.04700 24.81300
H  48.42600 26.34700 33.01200
H  45.93100 24.65700 32.97800
H  47.08400 22.94800 33.75100
H  48.33400 24.08100 34.13500
H  48.44300 23.19800 32.57600
H  45.91000 27.67600 32.25500
H  47.12900 28.08200 33.51700
H  46.00800 26.07500 34.75300
H  44.62100 26.73900 33.86800
H  46.46000 19.23300 29.63400
H  44.83200 19.87900 30.18700
H  46.29800 20.27700 31.05200
H  45.58900 18.28800 27.69800
H  44.18900 18.54900 26.54300
H  44.24200 19.39900 28.09200
H  46.90900 24.01600 23.24500
H  48.96500 25.95300 23.06300
H  49.88000 23.89000 23.61200
H  48.80800 23.26000 22.20700
H  48.92300 22.58800 23.96800
H  46.03900 26.61800 23.82700
H  46.44600 25.96200 22.23900
H  46.50600 28.60500 22.80000
H  47.10200 27.79200 21.37100
H  48.18000 28.22600 22.59000
H  50.73600 29.77000 26.27200
H  49.92000 31.03200 27.25200
H  49.30900 30.47200 25.65400
H  47.80500 29.27700 31.63100
H  50.20200 28.48900 34.78700
H  49.84200 30.19000 35.16100
H  51.35800 29.75600 34.31800
Mg 6.64500 53.57700 40.76500
C  6.24900 50.03200 40.53600
C  9.95700 53.13300 39.98600
C  6.83800 56.79500 40.38800
C  3.06900 53.78000 40.85500
N  7.89900 51.86700 40.26800
C  7.56100 50.53500 40.21000
C  8.70000 49.64100 39.82200
C  9.90100 50.57100 40.19000
C  9.24800 52.00000 40.13200
C  10.59400 50.32100 41.57900
C  8.76500 49.00800 38.39800
C  8.41200 49.88600 37.12700
H  7.65000 51.20700 37.24900
N  8.26900 54.85300 40.33800
C  9.54500 54.44700 40.10600
C  10.26900 55.61500 40.13500
C  9.47300 56.72200 40.19700
C  8.11900 56.18900 40.23600
C  11.77900 55.62900 39.92600
C  9.80900 58.23400 40.06400
O  11.00000 58.50400 40.02400
C  8.82600 59.35600 40.03800
N  5.23700 54.95700 40.53500
C  5.61200 56.24300 40.58400
C  4.37500 57.17400 40.47400
C  3.21900 56.21200 40.23900
C  3.83900 54.91700 40.65400
C  4.16100 58.08600 41.69600
C  2.68000 56.14000 38.87100
C  1.13400 56.23400 38.65300
N  4.98300 52.19200 40.85000
C  3.60700 52.40300 40.97600
C  2.94800 51.07500 41.15000
C  4.00500 50.13700 41.01300
C  5.17500 50.86000 40.77000
C  1.49900 50.88700 41.32400
C  4.27400 48.71700 41.12000
O  3.55400 47.69300 41.21900
C  5.76300 48.64600 40.67800
C  5.73300 47.81800 39.54700
O  5.52200 48.14600 38.40600
O  6.22500 46.54800 39.92100
C  6.04100 45.45400 39.04800
H  11.04600 53.10400 39.91300
H  6.80700 57.88600 40.41400
H  1.98400 53.75900 40.97600
H  8.70800 48.75300 40.45500
H  10.67600 50.50000 39.42700
H  11.59900 49.94400 41.38700
H  10.03500 49.49400 42.01700
H  10.55500 51.18500 42.24200
H  8.05300 48.18800 38.49500
H  9.72900 48.50200 38.34500
H  7.73400 49.14600 36.70100
H  9.26000 50.06100 36.46600
H  12.02700 56.44100 39.24200
H  12.16500 54.71900 39.46700
H  12.21300 55.62200 40.92500
H  9.36100 60.30600 40.00500
H  8.29200 59.23600 40.98000
H  8.06900 59.24200 39.26200
H  4.44500 57.81200 39.59300
H  2.38700 56.40300 40.91700
H  4.59800 59.05400 41.45200
H  4.38300 57.64700 42.66800
H  3.13100 58.44200 41.73700
H  2.93000 55.16300 38.45800
H  3.08600 56.89900 38.20200
H  0.85900 56.62500 37.67300
H  0.86000 57.01100 39.36700
H  0.76200 55.23100 38.86100
H  1.37400 50.24300 42.19500
H  1.14100 50.22400 40.53700
H  0.91500 51.80600 41.37100
H  6.40800 48.10900 41.37300
H  6.88100 45.51800 38.35600
H  5.10700 45.68900 38.53700
H  5.88000 44.49000 39.53000

