158

Mg -2.59100 16.63400 26.88800
C  -3.11600 14.34500 29.61000
C  -3.04500 19.20100 29.12000
C  -2.58800 18.74200 24.36200
C  -2.77700 13.94900 24.63900
N  -3.04300 16.75000 29.11600
C  -3.25100 15.71000 30.01800
C  -3.52500 16.28500 31.48000
C  -3.40900 17.86100 31.30100
C  -3.20800 17.93800 29.75300
C  -4.54200 18.74900 31.91200
C  -2.54500 15.65500 32.55100
C  -2.14600 16.46000 33.77200
H  -2.03200 15.94300 35.20200
N  -2.74300 18.66700 26.72500
C  -2.83300 19.56400 27.76000
C  -2.68000 20.87500 27.31600
C  -2.49800 20.79200 25.94800
C  -2.61100 19.32100 25.60500
C  -2.60800 22.09000 28.29800
C  -2.25900 21.85600 24.94200
O  -2.00600 21.66000 23.74300
C  -2.11300 23.28200 25.40900
N  -2.88400 16.40200 24.78900
C  -2.61700 17.38200 23.93300
C  -2.56000 16.88100 22.47800
C  -2.60200 15.34300 22.61800
C  -2.79500 15.21400 24.13100
C  -3.63400 17.40500 21.47800
C  -1.31500 14.62100 22.11600
C  -0.08300 14.75100 23.08800
N  -2.84600 14.62100 27.06800
C  -2.95700 13.65400 26.05500
C  -2.91100 12.34200 26.69000
C  -2.95700 12.58000 28.05200
C  -2.96200 13.95900 28.22700
C  -2.97100 10.99500 25.98400
C  -3.15000 11.93600 29.34700
O  -3.14000 10.79800 29.68800
C  -3.22600 13.12500 30.38900
C  -2.06800 12.93500 31.31300
O  -0.94400 13.20500 31.10800
O  -2.62100 12.39500 32.45700
C  -1.63700 12.09200 33.51800
H  -3.00100 19.96000 29.90500
H  -2.24900 19.42100 23.57600
H  -2.63900 13.15500 23.90300
H  -4.52900 15.89100 31.63600
H  -2.43900 18.14800 31.70800
H  -5.17400 18.16200 32.57800
H  -5.12500 19.14200 31.07900
H  -4.06100 19.56800 32.44600
H  -1.63600 15.39000 32.01100
H  -3.09700 14.80200 32.94600
H  -2.65000 17.42600 33.74500
H  -1.09100 16.66700 33.59200
H  -3.32800 22.82900 27.94700
H  -1.55300 22.28700 28.10700
H  -2.84300 21.96600 29.35500
H  -3.08000 23.56600 25.82300
H  -1.87900 23.90600 24.54600
H  -1.39100 23.26900 26.22500
H  -1.54600 17.07100 22.12500
H  -3.42000 14.82300 22.12200
H  -4.32800 18.14900 21.87000
H  -4.30300 16.63200 21.10000
H  -2.96600 17.78900 20.70700
H  -1.20800 14.95700 21.08400
H  -1.53200 13.55500 22.05800
H  -0.42200 15.16500 24.03800
H  0.61400 15.39900 22.55700
H  0.48600 13.83200 23.23100
H  -2.70200 11.10300 24.93300
H  -3.91500 10.45500 25.90800
H  -2.19300 10.37600 26.43000
H  -4.18500 13.20100 30.90000
H  -1.85700 11.09200 33.89100
H  -1.82100 12.67200 34.42300
H  -0.56100 12.17700 33.37000
Mg 15.71800 -2.10700 27.34000
C  15.08800 -0.05800 30.05600
C  17.88600 -3.95700 29.34600
C  16.88400 -3.76800 24.63700
C  14.07200 0.12200 25.16100
N  16.57200 -1.93300 29.41200
C  15.93500 -1.11800 30.41900
C  16.41000 -1.55800 31.81400
C  17.50600 -2.66200 31.47600
C  17.40700 -2.85200 29.93200
C  19.04400 -2.34400 31.86400
C  15.23500 -1.92200 32.74900
C  15.29300 -1.19100 34.10300
H  16.52800 -0.37500 34.47300
N  16.97800 -3.68900 27.04900
C  17.78400 -4.32700 27.98700
C  18.21100 -5.61800 27.48600
C  18.02300 -5.58000 26.07700
C  17.26700 -4.31500 25.85000
C  18.87900 -6.69200 28.36400
C  18.35900 -6.52600 25.00300
O  18.04600 -6.40700 23.79500
C  19.17100 -7.76300 25.38000
N  15.58300 -1.71700 25.13200
C  16.20700 -2.58700 24.28300
C  15.83800 -2.20900 22.85600
C  14.63200 -1.25900 22.98100
C  14.77800 -0.88200 24.48700
C  16.96500 -1.60000 22.06000
C  13.22000 -1.84600 22.69700
C  12.62100 -1.71500 21.25000
N  14.75300 -0.36800 27.48700
C  14.03200 0.36900 26.55300
C  13.42500 1.51100 27.20200
C  13.68100 1.29700 28.61700
C  14.56900 0.20300 28.70000
C  12.56900 2.60600 26.55800
C  13.46400 1.82000 29.90500
O  12.76400 2.83400 30.23600
C  14.35700 0.94300 30.93200
C  15.31400 1.78800 31.68000
O  16.54900 1.87500 31.52100
O  14.61800 2.69300 32.41700
C  15.40100 3.66600 33.18700
H  18.52200 -4.56700 29.99100
H  16.99300 -4.43900 23.78300
H  13.40300 0.71000 24.53000
H  16.88200 -0.63800 32.15800
H  17.19800 -3.56100 32.01100
H  19.41400 -3.00200 32.65000
H  19.01300 -1.31600 32.22400
H  19.58600 -2.34900 30.91800
H  15.28800 -2.96500 33.06100
H  14.30300 -1.61500 32.27500
H  15.32500 -1.97200 34.86300
H  14.40600 -0.62900 34.39500
H  18.67400 -7.72100 28.06800
H  18.71700 -6.66200 29.44200
H  19.94700 -6.58900 28.17600
H  19.63700 -8.04300 24.43500
H  18.60900 -8.60700 25.78000
H  19.96500 -7.35200 26.00200
H  15.46100 -3.11800 22.38700
H  14.88600 -0.42000 22.33400
H  16.57500 -1.05400 21.20000
H  17.61000 -2.44700 21.82500
H  17.54700 -0.81900 22.54800
H  12.48700 -1.50100 23.42500
H  13.22600 -2.92200 22.87100
H  11.61600 -1.29500 21.28400
H  12.47200 -2.70400 20.81700
H  13.24300 -1.04800 20.65200
H  12.97800 3.11400 25.68500
H  12.42400 3.42000 27.26900
H  11.68900 2.02600 26.27900
H  13.63900 0.52800 31.63900
H  16.22400 4.12900 32.64200
H  15.78900 3.22400 34.10500
H  14.69600 4.46500 33.41700

