158

Mg 40.20400 9.31100 28.75700
C  42.13300 10.66800 31.37300
C  37.89100 8.35300 31.28200
C  38.49300 7.96700 26.38500
C  42.76400 10.19700 26.52800
N  39.99700 9.71900 31.10100
C  40.91600 10.31100 31.91000
C  40.55600 10.14400 33.38800
C  39.30800 9.18100 33.30500
C  39.02200 9.14000 31.76300
C  39.58800 7.78100 33.97600
C  40.25600 11.53100 34.11200
C  39.81500 11.30300 35.57000
H  40.80100 11.56300 36.66400
N  38.43700 8.30900 28.80600
C  37.67600 8.01300 29.88800
C  36.57900 7.13400 29.50300
C  36.70000 6.99200 28.07800
C  37.91300 7.76600 27.67300
C  35.65700 6.46200 30.46700
C  35.86200 6.15700 27.07400
O  36.07900 6.04700 25.89100
C  34.64300 5.47200 27.50300
N  40.63300 8.94500 26.72100
C  39.74000 8.47800 25.93500
C  40.01100 8.69600 24.43800
C  41.35500 9.47400 24.55500
C  41.61300 9.52700 26.01200
C  40.03200 7.48200 23.54500
C  41.40800 10.83200 23.80400
C  41.02200 12.16700 24.49800
N  42.09300 10.12000 28.84500
C  42.97800 10.47600 27.90700
C  44.16600 11.12300 28.49300
C  43.90400 11.20100 29.87200
C  42.59900 10.68100 29.99400
C  45.38700 11.46800 27.75200
C  44.42800 11.57800 31.08100
O  45.50600 12.00500 31.42200
C  43.35600 11.21500 32.11600
C  43.91400 10.29000 33.23100
O  43.97800 9.04600 33.15700
O  44.17900 10.94400 34.40100
C  44.58700 10.19300 35.54700
H  37.27700 7.84200 32.02700
H  37.83100 7.65800 25.57500
H  43.53000 10.57900 25.85000
H  41.48800 9.78400 33.82400
H  38.39800 9.60700 33.72900
H  38.99100 7.76000 34.88800
H  40.65300 7.72900 34.19900
H  39.29500 6.94500 33.34100
H  39.47400 12.06600 33.57300
H  41.15200 12.15100 34.07800
H  39.57300 10.24400 35.65500
H  38.95700 11.90100 35.87900
H  36.15300 5.61200 30.93500
H  34.77000 5.95700 30.08500
H  35.27700 7.14400 31.22700
H  34.03800 5.09100 26.68000
H  34.05500 6.08500 28.18500
H  34.88000 4.57500 28.07500
H  39.21800 9.39600 24.17700
H  42.22500 9.00700 24.09500
H  40.68200 7.60600 22.67900
H  39.03200 7.44700 23.11200
H  40.18900 6.56600 24.11500
H  41.01200 10.69900 22.79800
H  42.48300 10.89900 23.63600
H  40.90000 11.92400 25.55300
H  40.21400 12.60000 23.90700
H  41.87000 12.85200 24.50100
H  45.59800 12.53600 27.81100
H  45.33900 11.19500 26.69700
H  46.08600 10.87400 28.33900
H  43.15400 12.11700 32.69400
H  45.43100 10.72200 35.98800
H  44.78800 9.14200 35.33800
H  43.83000 10.18200 36.33100
Mg 47.35900 25.34000 28.67900
C  48.36700 27.58200 31.18500
C  46.45200 23.10000 31.04300
C  46.41600 23.29900 26.17000
C  48.58400 27.67100 26.27000
N  47.31700 25.47900 30.88600
C  47.79300 26.46800 31.73800
C  47.59000 26.09900 33.21100
C  47.16300 24.55600 33.09200
C  46.94100 24.32600 31.55000
C  48.18800 23.52300 33.80300
C  46.50100 27.03600 33.89100
C  47.02300 27.72700 35.20600
H  45.94200 27.86800 36.38900
N  46.58300 23.39600 28.62300
C  46.29000 22.64600 29.68200
C  45.81400 21.38600 29.25900
C  45.69700 21.42700 27.83700
C  46.25200 22.75400 27.47800
C  45.34000 20.30400 30.21100
C  45.19900 20.32600 26.85600
O  45.15500 20.49800 25.63800
C  44.62100 19.02200 27.30400
N  47.58000 25.43900 26.50800
C  47.02500 24.49400 25.67200
C  47.19900 24.84700 24.17500
C  47.68600 26.32000 24.27600
C  47.94300 26.50200 25.77700
C  48.06500 23.80300 23.46000
C  46.77500 27.37200 23.73800
C  45.34800 27.38300 24.37000
N  48.33700 27.18500 28.63000
C  48.73600 28.01000 27.60500
C  49.46900 29.14800 28.21800
C  49.21200 29.01200 29.60000
C  48.52400 27.81700 29.80400
C  50.18200 30.21900 27.52600
C  49.52900 29.61000 30.89700
O  50.19900 30.60600 31.11100
C  49.00200 28.66100 31.94600
C  50.18200 28.24800 32.84400
O  50.87000 27.23200 32.79900
O  50.40700 29.22100 33.80000
C  51.54200 28.91800 34.73100
H  46.18400 22.39000 31.82800
H  46.07600 22.55000 25.45200
H  48.93800 28.44700 25.58800
H  48.54200 26.12800 33.74100
H  46.13600 24.41200 33.42700
H  48.84800 23.05800 33.07200
H  47.62900 22.71500 34.27500
H  48.67300 24.09200 34.59700
H  45.55300 26.51700 34.03200
H  46.13400 27.75400 33.15800
H  47.49700 28.67100 34.93900
H  47.80000 27.09900 35.64300
H  44.41100 19.80900 29.92700
H  45.12700 20.72800 31.19300
H  46.08000 19.50900 30.29700
H  45.17500 18.59800 28.14200
H  44.68200 18.36700 26.43500
H  43.55200 19.04400 27.51800
H  46.18400 24.83500 23.77700
H  48.64300 26.46100 23.77300
H  48.37500 22.99100 24.11700
H  48.98300 24.28100 23.11900
H  47.54900 23.28100 22.65400
H  46.72900 27.31200 22.65100
H  47.19800 28.32900 24.04500
H  45.34900 28.23900 25.04600
H  45.15800 26.40500 24.81200
H  44.57000 27.52900 23.62200
H  51.23800 29.96400 27.42600
H  49.98300 31.17200 28.01400
H  49.77400 30.39400 26.53000
H  48.32700 29.19600 32.61500
H  51.20100 28.09900 35.36400
H  51.81900 29.76300 35.36000
H  52.49000 28.73200 34.22700

