158

Mg 35.21200 48.51900 25.40100
C  35.80600 46.46100 28.12200
C  34.19000 51.03200 27.44100
C  34.69700 50.47800 22.69900
C  36.19400 45.93000 23.34200
N  34.78400 48.64500 27.50600
C  35.32500 47.71300 28.46700
C  35.25100 48.33800 29.88500
C  34.43100 49.64500 29.57800
C  34.49900 49.81200 28.04900
C  33.04900 49.83600 30.32300
C  36.62800 48.60300 30.44400
C  36.77800 48.46000 31.96800
H  35.49500 48.38000 32.85400
N  34.46300 50.49200 25.12100
C  34.28200 51.39100 26.09400
C  34.03000 52.70600 25.52100
C  34.08000 52.57300 24.12100
C  34.44300 51.15300 23.91900
C  33.70800 53.82600 26.49200
C  33.83700 53.55900 22.99400
O  34.04800 53.27700 21.82000
C  33.52800 54.99000 23.35600
N  35.26900 48.23800 23.28700
C  35.11800 49.17000 22.39900
C  35.39800 48.65000 20.98700
C  35.98700 47.29400 21.22100
C  35.80900 47.15400 22.74300
C  34.22900 48.74800 19.87800
C  37.47200 47.12700 20.71100
C  38.65800 46.94300 21.68200
N  35.77600 46.57300 25.62800
C  36.13300 45.63300 24.68300
C  36.50800 44.38600 25.34200
C  36.44600 44.72000 26.69700
C  35.87000 46.00000 26.81600
C  36.81000 43.03500 24.74400
C  36.64700 44.24800 28.00900
O  37.03100 43.13900 28.36200
C  36.31400 45.41000 29.04000
C  35.23500 44.96400 29.97200
O  34.08200 44.86400 29.63800
O  35.59500 44.84600 31.32700
C  34.50800 44.38400 32.20500
H  34.10000 51.78100 28.23100
H  34.60400 51.09800 21.80500
H  36.53700 45.03900 22.81300
H  34.72200 47.66800 30.56300
H  35.03000 50.43500 30.03100
H  32.33900 50.13700 29.55200
H  33.20400 50.69800 30.97100
H  32.73000 48.88600 30.75300
H  36.99800 49.58700 30.15700
H  37.35800 47.92800 29.99600
H  37.27500 49.35900 32.33300
H  37.44900 47.62900 32.18700
H  33.08900 53.43000 27.29700
H  33.13100 54.52900 25.89100
H  34.58000 54.34400 26.89200
H  32.60600 55.16000 23.91200
H  33.48000 55.65600 22.49400
H  34.36100 55.36800 23.94900
H  36.18500 49.32600 20.65400
H  35.43200 46.50500 20.71400
H  34.07800 47.75400 19.45700
H  34.54300 49.44100 19.09700
H  33.23600 49.07800 20.18000
H  37.73000 47.90200 19.99000
H  37.37700 46.20000 20.14500
H  39.49500 47.49400 21.25100
H  38.97900 45.91200 21.82600
H  38.44500 47.38100 22.65700
H  37.41300 43.19500 23.85000
H  35.97000 42.42100 24.41800
H  37.45000 42.57400 25.49700
H  37.15200 45.73000 29.65800
H  34.01800 43.50600 31.78400
H  33.79900 45.16900 32.46700
H  34.84100 43.95900 33.15200
Mg -10.68700 39.63000 40.55600
C  -9.85500 36.45900 39.58200
C  -7.52300 40.73200 39.81500
C  -11.98500 42.85200 40.42600
C  -14.04800 38.49100 41.09200
N  -9.04700 38.75500 39.43000
C  -8.85800 37.39300 39.28200
C  -7.38100 37.07600 38.81200
C  -6.66800 38.36700 39.41900
C  -7.84800 39.37500 39.57700
C  -5.86600 38.18300 40.69900
C  -7.25800 37.18600 37.24700
C  -7.08500 35.88100 36.44700
H  -8.05500 35.60300 35.32200
N  -9.93400 41.45300 40.23000
C  -8.55200 41.73800 39.98900
C  -8.43100 43.13800 39.97600
C  -9.65100 43.76200 40.12200
C  -10.55300 42.65100 40.36000
C  -7.10300 43.77300 39.68900
C  -9.80800 45.26600 40.08900
O  -8.86300 45.93400 39.71600
C  -11.12700 45.96500 40.24100
N  -12.80900 40.59800 40.67400
C  -13.03300 41.93500 40.62800
C  -14.51500 42.27600 40.80200
C  -15.06700 40.86900 41.29700
C  -13.95400 39.89000 40.95200
C  -14.89600 43.40100 41.76200
C  -16.48700 40.57000 40.72800
C  -17.52500 40.02000 41.74000
N  -11.79100 37.79000 40.47200
C  -13.05000 37.52300 40.81000
C  -13.14600 36.08500 40.82700
C  -11.96600 35.53900 40.31000
C  -11.15800 36.68300 40.09500
C  -14.33600 35.25600 41.23600
C  -11.19900 34.37900 39.90600
O  -11.47900 33.20500 39.83100
C  -9.76000 34.96600 39.40100
C  -8.59400 34.30700 40.01900
O  -8.21600 34.40100 41.19000
O  -7.90800 33.68000 39.00100
C  -6.62800 32.88200 39.20200
H  -6.49000 41.07200 39.71400
H  -12.37600 43.83100 40.14200
H  -15.00100 38.11900 41.47400
H  -6.92700 36.20400 39.28300
H  -5.89900 38.73300 38.73800
H  -6.13700 38.85600 41.51300
H  -4.86200 38.57400 40.53400
H  -5.81900 37.16300 41.07800
H  -6.49900 37.91800 36.97300
H  -8.25500 37.57200 37.03300
H  -6.90300 35.01000 37.07700
H  -6.12900 36.13200 35.98600
H  -7.08000 44.20400 38.68800
H  -6.23200 43.15000 39.89200
H  -6.85000 44.67000 40.25400
H  -11.70500 45.91700 39.31900
H  -10.88400 46.97800 40.56300
H  -11.62300 45.56800 41.12700
H  -14.86000 42.49500 39.79100
H  -15.07500 40.89900 42.38700
H  -14.04900 44.02600 42.04800
H  -15.53500 43.03100 42.56300
H  -15.50900 44.06100 41.14800
H  -16.45400 39.76900 39.98900
H  -16.83900 41.41800 40.14000
H  -17.11500 40.03000 42.75000
H  -17.65600 38.93900 41.69400
H  -18.35100 40.72900 41.79900
H  -15.20900 35.74700 41.66700
H  -13.83600 34.50400 41.84700
H  -14.69900 34.69100 40.37700
H  -9.67100 34.82900 38.32300
H  -6.37600 32.73000 40.25100
H  -5.81800 33.18500 38.53900
H  -6.85400 31.81600 39.16100

