158

Mg 24.24900 -5.98700 45.06200
C  26.58700 -3.74200 43.82700
C  21.73500 -4.61400 43.24200
C  22.40100 -8.84000 45.56000
C  27.05100 -7.75600 46.62300
N  24.20600 -4.36400 43.69600
C  25.24500 -3.53600 43.37100
C  24.77500 -2.43500 42.42800
C  23.22600 -2.58700 42.51700
C  22.99800 -3.99900 43.09800
C  22.42500 -1.48600 43.23400
C  25.42300 -2.60000 40.96300
C  25.72400 -1.28200 40.30100
H  25.05000 -1.10000 38.91900
N  22.26500 -6.51500 44.67400
C  21.38200 -5.80000 43.89000
C  20.13700 -6.51800 43.81700
C  20.27000 -7.72900 44.53800
C  21.66500 -7.73900 44.94700
C  19.03900 -6.09200 42.91200
C  19.17000 -8.75000 44.62500
O  17.98800 -8.48300 44.35600
C  19.37700 -10.20900 45.16000
N  24.70000 -7.98800 45.88200
C  23.69300 -8.91200 45.95700
C  24.19300 -10.23200 46.52500
C  25.57400 -9.83500 47.12800
C  25.80300 -8.43400 46.58900
C  23.28500 -10.95600 47.61000
C  26.77800 -10.77200 46.77800
C  27.70100 -11.14500 48.01900
N  26.34300 -5.87700 45.23800
C  27.33400 -6.56400 45.97900
C  28.62200 -5.86000 45.91100
C  28.35100 -4.75000 45.06700
C  26.95400 -4.82300 44.69000
C  29.87500 -6.38100 46.58300
C  28.99700 -3.63400 44.41900
O  30.13200 -3.17000 44.42400
C  27.86800 -2.87900 43.65000
C  27.79500 -1.50000 44.08400
O  27.61100 -1.09300 45.23900
O  27.97500 -0.61100 43.00200
C  27.92300 0.79700 43.35300
H  20.91500 -4.25100 42.61800
H  21.79300 -9.73500 45.70900
H  27.94100 -8.25700 47.01100
H  24.99900 -1.45800 42.85600
H  22.73300 -2.40500 41.56300
H  21.56300 -1.12400 42.67400
H  23.02300 -0.58200 43.35300
H  22.17000 -1.77200 44.25500
H  24.63900 -3.13000 40.42300
H  26.34100 -3.17800 41.06400
H  26.78000 -1.19200 40.04900
H  25.38800 -0.45200 40.92300
H  18.62100 -6.92300 42.34300
H  19.27300 -5.21900 42.30400
H  18.27200 -5.70700 43.58500
H  18.35200 -10.57800 45.16300
H  19.83100 -10.02800 46.13400
H  20.09200 -10.70400 44.50300
H  24.25100 -10.90500 45.66900
H  25.50100 -9.74200 48.21100
H  24.04000 -11.40300 48.25700
H  22.68200 -11.73300 47.14000
H  22.59400 -10.22700 48.03400
H  27.30700 -10.30300 45.94800
H  26.38400 -11.66900 46.29900
H  27.78700 -12.22600 47.90600
H  27.20400 -10.88900 48.95500
H  28.63800 -10.58900 48.00300
H  30.02000 -7.45300 46.45200
H  29.81200 -6.24900 47.66300
H  30.70800 -5.79300 46.19800
H  28.22800 -2.84400 42.62200
H  28.73300 1.05000 44.03700
H  26.92900 1.06200 43.71500
H  28.10400 1.46500 42.51000
Mg 9.70000 48.40200 25.05700
C  7.30900 49.03900 27.74600
C  12.18600 49.43300 27.03900
C  11.58800 48.29100 22.33600
C  6.81200 48.13200 22.96100
N  9.70000 49.27300 27.14800
C  8.68300 49.34300 28.07100
C  9.32300 49.55800 29.48700
C  10.70100 50.26000 29.00400
C  10.91100 49.57500 27.65100
C  10.79400 51.78000 28.97700
C  9.50400 48.14200 30.24100
C  9.38100 48.25400 31.79900
H  9.23800 47.06500 32.80800
N  11.66400 48.62800 24.72200
C  12.51000 49.02700 25.67800
C  13.83100 48.97900 25.07800
C  13.76100 48.59500 23.66400
C  12.29900 48.55100 23.48400
C  15.06700 49.24600 25.87200
C  14.79200 48.37200 22.60500
O  14.50000 48.20200 21.45500
C  16.23100 48.31500 22.94600
N  9.24600 48.26100 23.01900
C  10.27600 48.10100 22.12400
C  9.78100 47.59400 20.75400
C  8.16100 47.66900 20.91000
C  8.06600 48.04500 22.37000
C  10.27600 48.40000 19.47200
C  7.44100 46.37500 20.63300
C  8.15300 45.07700 21.10200
N  7.53900 48.43600 25.22700
C  6.53300 48.33100 24.29400
C  5.25400 48.37600 24.90000
C  5.53800 48.55800 26.25200
C  6.93000 48.67000 26.41900
C  3.82900 48.26600 24.36100
C  4.90200 48.83900 27.55000
O  3.73600 48.95100 27.86200
C  6.10100 49.06700 28.59900
C  6.00900 48.02600 29.64700
O  6.39800 46.85800 29.41700
O  5.55700 48.44100 30.85400
C  5.61700 47.35800 31.86800
H  12.96800 49.93500 27.61400
H  12.13600 48.25300 21.39200
H  5.88900 47.91300 22.42000
H  8.63900 50.23800 29.99600
H  11.49900 49.96400 29.68500
H  9.82500 52.26600 28.86700
H  11.49500 52.01800 28.17600
H  11.30600 52.12700 29.87500
H  10.47300 47.69800 30.00900
H  8.71200 47.48400 29.88500
H  8.47200 48.80400 32.04100
H  10.25600 48.82500 32.11100
H  14.90200 49.83100 26.77700
H  15.79400 49.79500 25.27200
H  15.53900 48.27900 26.04400
H  16.65100 47.53500 22.31100
H  16.21400 48.05000 24.00300
H  16.74100 49.27800 22.93600
H  10.20000 46.58800 20.75600
H  7.73400 48.46100 20.29500
H  9.45800 49.00500 19.08000
H  10.63100 47.85900 18.59600
H  11.01100 49.14900 19.76600
H  7.23100 46.25800 19.56900
H  6.45000 46.36100 21.08800
H  7.30500 44.47200 21.42200
H  8.90200 45.19800 21.88500
H  8.55500 44.55800 20.23200
H  3.73200 48.59700 23.32700
H  3.12600 48.81900 24.98400
H  3.46000 47.24400 24.43800
H  5.93000 50.08000 28.96000
H  4.76400 46.68700 31.76900
H  5.62800 47.76300 32.88000
H  6.48900 46.71100 31.76800

