158

Mg 40.40800 9.92900 29.03900
C  42.26300 11.31900 31.61100
C  38.31400 8.66100 31.45000
C  38.70200 8.52400 26.45600
C  42.99600 10.64600 26.76900
N  40.36500 9.99700 31.25900
C  41.10500 10.73100 32.10000
C  40.62500 10.62800 33.49100
C  39.54900 9.53600 33.52100
C  39.32200 9.45000 31.96300
C  39.96900 8.14100 34.13800
C  40.24800 11.96900 34.09700
C  39.92800 11.79100 35.59900
H  40.83100 12.42600 36.75600
N  38.69800 8.84200 28.96100
C  38.01000 8.39100 30.08100
C  36.90100 7.59600 29.63900
C  36.94100 7.63100 28.21500
C  38.16000 8.34400 27.77000
C  36.08800 6.73100 30.52500
C  35.92100 7.07000 27.26600
O  36.14300 7.09500 26.05500
C  34.61200 6.58600 27.77400
N  40.89200 9.45700 26.93700
C  39.94900 9.03800 26.08400
C  40.52600 9.04000 24.61100
C  41.89500 9.76000 24.80000
C  41.94300 9.97900 26.24200
C  40.48700 7.70900 23.81900
C  41.94100 11.08700 23.92800
C  41.39500 12.43000 24.62900
N  42.29200 10.76400 29.12100
C  43.22500 10.97700 28.10600
C  44.35700 11.72800 28.65000
C  44.01400 11.83500 30.06100
C  42.73800 11.19300 30.27200
C  45.42500 12.34500 27.84900
C  44.45700 12.38000 31.33400
O  45.48400 12.96600 31.65700
C  43.32000 12.16100 32.35300
C  43.92900 11.43900 33.53400
O  44.41800 10.31800 33.48700
O  43.71100 12.19000 34.60800
C  44.03400 11.65000 35.90400
H  37.66000 8.27100 32.23300
H  38.15900 8.33000 25.52900
H  43.70000 11.02600 26.02600
H  41.40700 10.30600 34.17800
H  38.58000 9.74500 33.97500
H  39.19000 7.87400 34.85200
H  40.94200 8.31100 34.59800
H  40.01500 7.36400 33.37400
H  39.36200 12.34100 33.58200
H  41.02800 12.69100 33.85700
H  39.85300 10.74500 35.89700
H  38.96900 12.21700 35.89400
H  36.60000 6.55100 31.47000
H  36.11400 5.79000 29.97600
H  35.02600 6.96600 30.59400
H  34.80800 5.57900 28.14200
H  33.85600 6.48300 26.99500
H  34.20600 7.27300 28.51600
H  39.81300 9.72400 24.14900
H  42.73600 9.13500 24.50100
H  40.27800 6.90200 24.52100
H  41.42700 7.59400 23.27800
H  39.58700 7.82400 23.21500
H  41.44200 10.93000 22.97200
H  43.01600 11.24600 23.84800
H  42.18500 13.17900 24.68700
H  40.91800 12.20000 25.58200
H  40.55300 12.63400 23.96800
H  45.19200 13.36700 27.55000
H  45.70700 11.74600 26.98300
H  46.29000 12.47800 28.50000
H  42.88500 13.14500 32.53400
H  43.38600 10.79800 36.10800
H  43.96700 12.35400 36.73300
H  45.09500 11.40300 35.92400
Mg 16.63400 52.92500 26.24100
C  18.86600 51.00800 28.31400
C  14.76100 53.48500 29.20200
C  14.59800 54.72500 24.38300
C  18.65000 52.17700 23.61700
N  16.84500 52.32000 28.46100
C  17.82100 51.61800 29.06000
C  17.58000 51.45200 30.56200
C  16.01500 51.72300 30.65500
C  15.76000 52.51500 29.35600
C  15.04700 50.55000 30.95900
C  18.41100 52.52100 31.28600
C  18.61900 52.37700 32.81800
H  17.64000 51.56400 33.76000
N  14.95300 53.91700 26.67100
C  14.42200 54.15300 27.96600
C  13.30800 55.07600 27.75900
C  13.25500 55.49900 26.41100
C  14.28600 54.72300 25.77900
C  12.43800 55.44100 28.97500
C  12.37000 56.60800 25.78000
O  12.48900 56.95700 24.59600
C  11.34700 57.22600 26.64400
N  16.57200 53.26600 24.28100
C  15.60200 54.04600 23.68200
C  15.80100 54.08600 22.12500
C  17.23000 53.47200 21.96900
C  17.47900 52.93000 23.36100
C  14.68600 53.31600 21.33500
C  18.39000 54.42800 21.58700
C  19.37100 54.00400 20.45600
N  18.36600 51.80100 25.92400
C  19.00900 51.55000 24.78200
C  20.21700 50.73600 25.08600
C  20.23400 50.54300 26.43800
C  19.05000 51.13700 26.94200
C  21.32500 50.33100 24.11100
C  20.90500 49.81900 27.57100
O  21.99600 49.17600 27.65400
C  20.11200 50.30900 28.85700
C  19.92100 49.20700 29.85500
O  19.08000 48.31400 29.73100
O  20.67100 49.43200 30.91200
C  20.25900 48.60000 32.06200
H  14.19700 53.54400 30.13500
H  13.89400 55.27500 23.75400
H  19.24000 51.87900 22.74800
H  17.83200 50.46100 30.94000
H  15.85500 52.40700 31.48900
H  14.35100 50.77200 31.76800
H  15.56700 49.59300 30.99500
H  14.42200 50.43700 30.07400
H  18.05700 53.54400 31.16500
H  19.40100 52.49900 30.83000
H  18.65300 53.39200 33.21500
H  19.64900 52.04100 32.94100
H  12.64600 56.48700 29.20100
H  12.71400 54.98900 29.92800
H  11.39300 55.34400 28.68000
H  10.76400 57.71400 25.86300
H  11.82600 57.97100 27.27900
H  10.75000 56.55900 27.26700
H  15.77500 55.15100 21.89700
H  17.28500 52.59100 21.32900
H  13.84200 53.30500 22.02500
H  14.95900 52.32500 20.97200
H  14.46200 53.88600 20.43300
H  18.94900 54.84000 22.42700
H  17.87500 55.29800 21.18000
H  19.21200 54.60100 19.55800
H  19.41500 52.94100 20.21900
H  20.41100 54.17900 20.73100
H  20.86600 49.64100 23.40300
H  21.98100 49.70400 24.71600
H  21.77900 51.11500 23.50600
H  20.65200 51.01300 29.49100
H  20.41200 49.29600 32.88700
H  20.86500 47.69500 32.11000
H  19.19500 48.42800 32.22200

