158

Mg -0.96900 17.81400 27.31800
C  -1.68900 15.66700 30.09800
C  -1.55200 20.45300 29.41300
C  -0.64100 19.79900 24.73500
C  -0.64400 14.95600 25.30200
N  -1.57800 18.01300 29.57100
C  -1.74000 17.05100 30.49600
C  -2.00400 17.68600 31.82700
C  -2.21200 19.15600 31.50400
C  -1.67200 19.22900 30.09200
C  -3.59400 19.73400 31.66900
C  -0.83300 17.53200 32.82000
C  -1.29100 16.81800 34.14800
H  -0.17800 16.57900 35.14300
N  -1.11100 19.82500 27.11400
C  -1.30300 20.78200 28.10200
C  -1.17400 22.15400 27.60000
C  -1.00800 21.99400 26.18800
C  -0.93700 20.54200 25.91700
C  -1.22300 23.39500 28.37700
C  -0.80700 23.03100 25.07300
O  -0.75400 22.76300 23.88200
C  -0.62300 24.46600 25.44300
N  -0.66700 17.40200 25.24700
C  -0.60600 18.44700 24.40600
C  -0.34300 17.92700 22.98100
C  -0.16000 16.39900 23.14200
C  -0.60000 16.20000 24.64200
C  -1.50900 18.40400 21.97300
C  1.31400 15.84600 22.93800
C  2.42000 16.31400 23.90600
N  -1.06200 15.77300 27.53900
C  -0.78800 14.76100 26.70200
C  -1.02900 13.52900 27.38200
C  -1.30700 13.79600 28.67900
C  -1.34600 15.24000 28.75500
C  -1.05300 12.16200 26.79600
C  -1.65300 13.18900 29.95100
O  -1.79300 12.02800 30.24100
C  -1.77800 14.38100 30.94700
C  -0.73800 14.17100 32.01300
O  0.39300 14.63800 31.98200
O  -1.33400 13.48100 32.99400
C  -0.55500 13.11700 34.15600
H  -1.79300 21.29900 30.06100
H  -0.53800 20.33800 23.79100
H  -0.47400 14.02500 24.75700
H  -2.89000 17.20900 32.24400
H  -1.58100 19.81200 32.10500
H  -3.98500 20.00700 30.68900
H  -3.52100 20.57800 32.35400
H  -4.31700 19.11800 32.20400
H  -0.44600 18.50300 33.12800
H  0.07500 17.08200 32.41900
H  -1.73500 15.86600 33.85600
H  -1.96300 17.44100 34.73700
H  -1.56200 23.25300 29.40300
H  -1.96500 24.04800 27.91600
H  -0.24700 23.87800 28.33400
H  -0.21000 24.94000 24.55300
H  0.10000 24.31700 26.24500
H  -1.50100 24.96100 25.85900
H  0.62600 18.25700 22.60600
H  -0.77900 15.85200 22.43100
H  -2.15900 17.62200 21.58100
H  -1.10100 19.12500 21.26400
H  -2.30500 18.88400 22.54200
H  1.66900 16.23600 21.98400
H  1.23600 14.75900 22.97500
H  1.91400 16.87300 24.69400
H  3.05200 17.09100 23.47600
H  3.00000 15.42200 24.14300
H  -0.50300 12.22000 25.85600
H  -2.07100 11.97800 26.45600
H  -0.77800 11.32900 27.44300
H  -2.75600 14.26000 31.41300
H  0.38300 13.67300 34.16600
H  -0.25600 12.06900 34.16300
H  -1.21000 13.43300 34.96800
Mg 46.33400 25.45900 28.04100
C  47.62300 27.64200 30.64500
C  46.55700 22.91900 30.34700
C  45.83800 23.34400 25.45100
C  47.24700 27.89700 25.74200
N  47.07200 25.31700 30.27800
C  47.36600 26.30700 31.15500
C  47.52200 25.85200 32.57900
C  47.33300 24.30700 32.45100
C  46.97400 24.11000 30.96900
C  48.50200 23.27300 32.89600
C  46.68900 26.51500 33.66300
C  46.50700 25.88800 35.06500
H  46.82600 26.68600 36.37400
N  45.93100 23.47800 27.95400
C  46.13000 22.59600 28.99300
C  45.91300 21.21600 28.47300
C  45.48700 21.39200 27.11100
C  45.69400 22.75400 26.73600
C  45.98000 19.92000 29.30400
C  45.24800 20.26300 26.09100
O  44.83000 20.52500 24.96300
C  45.33500 18.79800 26.40500
N  46.36900 25.67300 25.87500
C  46.15000 24.62700 25.06800
C  46.44300 24.96100 23.59500
C  46.63100 26.50600 23.72700
C  46.78600 26.73000 25.21300
C  47.70100 24.20700 23.13300
C  45.39500 27.37000 23.23100
C  45.83700 28.52500 22.38900
N  47.14800 27.44300 28.10700
C  47.46100 28.26300 27.10000
C  47.91500 29.46500 27.67300
C  47.98000 29.30800 29.03000
C  47.55600 28.02100 29.29800
C  48.35500 30.72200 26.97100
C  48.39700 29.89900 30.24100
O  48.79900 31.01900 30.46800
C  48.07200 28.91700 31.36800
C  49.25000 28.82900 32.37900
O  50.24900 28.10600 32.31900
O  49.02100 29.64300 33.45200
C  49.87500 29.58400 34.61200
H  46.53700 22.07300 31.03700
H  45.65800 22.74200 24.55800
H  47.50400 28.66200 25.00600
H  48.51600 26.10100 32.95100
H  46.38800 24.01600 32.90800
H  49.04200 22.85900 32.04400
H  47.95000 22.44300 33.33600
H  49.18000 23.66700 33.65300
H  45.74000 26.62900 33.13900
H  46.96900 27.56700 33.72400
H  47.01200 24.93000 35.19100
H  45.42000 25.81400 35.02800
H  46.15700 20.28900 30.31400
H  46.68500 19.17400 28.93700
H  44.96600 19.53900 29.18000
H  45.09900 18.26000 25.48700
H  44.66100 18.62800 27.24500
H  46.38400 18.66700 26.67400
H  45.53400 24.73700 23.03700
H  47.58700 26.75900 23.27000
H  47.71400 23.24900 23.65200
H  48.62300 24.77200 23.26600
H  47.61000 23.96700 22.07400
H  44.84600 27.79000 24.07400
H  44.69900 26.70000 22.72700
H  45.71000 28.35400 21.32100
H  46.80700 28.89500 22.72100
H  45.19200 29.39800 22.49500
H  47.82600 30.81300 26.02300
H  49.43400 30.69200 26.81800
H  48.18400 31.65700 27.50500
H  47.22200 29.38800 31.86300
H  49.48300 28.96000 35.41400
H  50.16900 30.56700 34.98100
H  50.88700 29.27200 34.35300

