158

Mg 35.75000 48.96500 25.76000
C  36.29900 47.01500 28.67700
C  34.44500 51.40600 27.73800
C  34.65700 50.49700 22.96500
C  36.75200 46.24800 23.94500
N  35.40000 49.17200 28.01600
C  35.74800 48.24800 29.02400
C  35.45600 48.82500 30.45800
C  34.73400 50.20000 30.08900
C  34.87800 50.29200 28.52600
C  33.26100 50.27700 30.57300
C  36.74300 48.91900 31.31000
C  36.79800 48.24200 32.62400
H  37.04100 49.21500 33.73200
N  34.83000 50.86800 25.36200
C  34.47300 51.72000 26.33000
C  33.93300 52.88800 25.64300
C  33.85900 52.68200 24.25600
C  34.42700 51.29600 24.09200
C  33.33400 54.06800 26.43700
C  33.22400 53.53300 23.18000
O  33.20200 53.16000 21.99400
C  32.76300 54.92700 23.57600
N  35.77000 48.50700 23.75100
C  35.30700 49.28100 22.79700
C  35.56200 48.73600 21.41900
C  36.42600 47.41600 21.69800
C  36.38000 47.39900 23.28200
C  34.19600 48.38100 20.79800
C  37.98300 47.50700 21.16900
C  38.54500 46.36700 20.46000
N  36.46600 47.03400 26.16300
C  36.80300 46.02700 25.31900
C  37.15100 44.93700 26.08200
C  36.98000 45.23800 27.43700
C  36.57100 46.53100 27.40100
C  37.52800 43.59700 25.50600
C  37.03700 44.71600 28.80700
O  37.33600 43.65000 29.29400
C  36.50000 45.83900 29.62900
C  35.20100 45.29600 30.36300
O  34.05400 45.25400 29.94800
O  35.59500 45.19000 31.68400
C  34.63100 44.64200 32.62400
H  34.09000 52.24100 28.34400
H  34.47400 51.05700 22.04600
H  37.16200 45.43300 23.34400
H  34.84200 48.05800 30.93000
H  35.36000 50.99200 30.50000
H  33.12900 49.47800 31.30300
H  32.58700 50.07900 29.73900
H  33.12600 51.20000 31.13600
H  36.96700 49.98000 31.41800
H  37.52300 48.49100 30.68000
H  37.52800 47.43300 32.65700
H  35.89600 47.64800 32.76400
H  33.81100 55.04600 26.37200
H  33.26900 53.86400 27.50600
H  32.32500 54.17100 26.03900
H  33.53300 55.30400 24.24900
H  31.84200 54.91000 24.15800
H  32.53600 55.43200 22.63700
H  36.08800 49.51200 20.86300
H  35.94900 46.51700 21.30800
H  33.29200 48.43000 21.40600
H  34.22900 47.42500 20.27500
H  34.01500 49.04700 19.95400
H  38.60100 47.79900 22.01800
H  38.05600 48.44100 20.61200
H  37.85500 45.54400 20.26900
H  39.32900 45.97600 21.10800
H  38.88700 46.69600 19.47800
H  37.56800 42.82500 26.27400
H  38.53300 43.62000 25.08400
H  36.87400 43.29500 24.68700
H  37.18800 46.14200 30.41800
H  34.01300 45.43600 33.04400
H  35.10900 44.19900 33.49700
H  33.89800 43.99700 32.13800
Mg -5.41800 26.20600 26.01500
C  -3.89600 27.51000 28.91200
C  -7.07000 24.02800 27.92800
C  -6.54900 24.65300 23.26100
C  -3.32500 28.28200 24.08400
N  -5.34400 25.75700 28.14700
C  -4.75100 26.46900 29.14800
C  -5.24100 26.03200 30.57200
C  -6.05500 24.75100 30.20700
C  -6.19700 24.83700 28.67200
C  -5.31600 23.48800 30.82800
C  -6.11500 27.12500 31.29600
C  -6.16500 26.99400 32.82700
H  -5.54100 25.79700 33.46500
N  -6.80600 24.71700 25.59200
C  -7.39400 23.95500 26.50700
C  -8.28000 22.92000 25.90300
C  -8.08200 23.07800 24.52100
C  -7.13000 24.15100 24.40500
C  -9.14700 22.00600 26.72200
C  -8.66600 22.35700 23.31900
O  -8.29900 22.45800 22.15900
C  -9.78500 21.40200 23.65500
N  -4.95300 26.39100 23.97300
C  -5.57200 25.64000 23.07100
C  -5.13800 26.10300 21.66900
C  -4.12000 27.27200 21.87100
C  -4.17000 27.42800 23.38300
C  -4.72000 25.06500 20.63500
C  -4.49600 28.54700 21.14500
C  -4.21100 28.59700 19.65600
N  -3.93900 27.58300 26.33500
C  -3.13100 28.26000 25.43100
C  -2.19700 29.16800 26.22300
C  -2.46300 28.86300 27.59100
C  -3.54000 27.90800 27.60100
C  -1.33000 30.22400 25.66400
C  -2.12800 29.16300 28.95100
O  -1.26300 29.87200 29.43300
C  -3.03500 28.26800 29.88600
C  -2.17000 27.38800 30.79700
O  -1.86600 26.22500 30.58000
O  -1.96500 27.93400 31.98900
C  -1.28400 27.16700 33.02300
H  -7.44300 23.25100 28.59900
H  -6.98200 24.31200 22.31900
H  -2.75700 29.03200 23.52900
H  -4.39200 25.78100 31.20700
H  -7.05300 24.73000 30.64400
H  -4.33200 23.75600 31.21300
H  -5.08700 22.78200 30.02900
H  -5.95300 22.99500 31.56200
H  -7.14800 26.83500 31.10200
H  -5.88000 28.10600 30.88500
H  -7.22000 27.09900 33.08000
H  -5.68500 27.89700 33.20400
H  -10.10400 21.96900 26.20200
H  -9.29400 22.39900 27.72800
H  -8.75000 20.99300 26.65900
H  -10.57000 21.96600 24.16000
H  -9.45600 20.54300 24.23900
H  -10.14800 20.95100 22.73100
H  -6.01600 26.58600 21.23900
H  -3.16700 26.84000 21.56400
H  -3.66200 25.13100 20.38100
H  -5.24300 25.10200 19.67900
H  -4.92500 24.08000 21.05400
H  -3.84400 29.29700 21.59400
H  -5.56300 28.72600 21.28000
H  -5.03700 28.60200 18.94500
H  -3.62100 27.74200 19.32400
H  -3.65800 29.53500 19.60200
H  -2.04500 31.04200 25.74600
H  -0.99100 29.93100 24.67000
H  -0.35800 30.43700 26.11000
H  -3.68300 28.87200 30.52200
H  -0.21500 27.11200 32.82000
H  -1.77000 26.21600 33.23900
H  -1.39600 27.82500 33.88500

