158

Mg 47.12300 24.80900 29.28700
C  47.94600 27.31800 31.68900
C  45.72100 22.97100 31.79400
C  46.60800 22.51300 27.01800
C  49.01800 26.69600 26.90800
N  46.69400 25.17000 31.46100
C  47.18900 26.29400 32.23100
C  46.62200 26.17100 33.68000
C  45.95500 24.73100 33.67800
C  46.17000 24.21900 32.24000
C  46.53700 23.76300 34.76600
C  45.57000 27.30200 33.99900
C  45.55300 28.10700 35.31200
H  46.21300 27.54200 36.50900
N  46.22500 23.00200 29.38300
C  45.67900 22.40200 30.46400
C  45.01600 21.25700 29.97300
C  45.18600 21.11900 28.60400
C  46.10200 22.20800 28.30100
C  44.36000 20.36900 30.99000
C  44.62500 20.06500 27.64900
O  44.90100 20.10500 26.48400
C  43.73700 18.94300 28.08300
N  47.75500 24.66500 27.27400
C  47.49800 23.51400 26.61000
C  48.06500 23.53100 25.16000
C  48.78300 24.87800 25.04800
C  48.57500 25.41800 26.47600
C  49.04400 22.29800 24.88600
C  48.27300 25.73200 23.90100
C  49.31800 26.50800 23.21500
N  48.17500 26.59600 29.18700
C  48.89200 27.23500 28.19900
C  49.36800 28.53900 28.66100
C  49.11300 28.55800 30.03300
C  48.39200 27.39100 30.32700
C  50.17300 29.56600 27.90900
C  49.25800 29.39100 31.18100
O  49.81600 30.44300 31.40800
C  48.45900 28.65600 32.33800
C  49.61400 28.44600 33.35400
O  50.40700 27.54600 33.31100
O  49.50600 29.46200 34.31500
C  50.48100 29.41500 35.38600
H  45.24700 22.33500 32.54400
H  46.20200 21.92300 26.19400
H  49.48100 27.33500 26.15300
H  47.47500 26.17200 34.35900
H  44.88000 24.68400 33.85000
H  45.65700 23.38300 35.28500
H  47.25600 24.36900 35.31700
H  47.11400 22.98900 34.26100
H  44.57400 26.86500 33.92400
H  45.62200 28.03800 33.19700
H  44.52500 28.36100 35.57000
H  46.03700 29.02500 34.97800
H  43.46300 19.86900 30.62400
H  44.10500 20.80100 31.95800
H  45.13700 19.65300 31.25800
H  44.09800 18.19100 28.78400
H  43.27700 18.55700 27.17300
H  42.88500 19.45800 28.52600
H  47.17000 23.51700 24.53800
H  49.82500 24.59700 24.89100
H  49.38400 21.89100 25.83900
H  49.85900 22.63100 24.24300
H  48.49400 21.62300 24.23100
H  47.55100 26.40900 24.35700
H  47.73900 25.08000 23.21000
H  50.36400 26.45600 23.51500
H  49.00400 27.53100 23.42500
H  49.25600 26.33000 22.14100
H  50.01300 29.43200 26.83900
H  51.22500 29.44100 28.16700
H  50.00300 30.62100 28.12500
H  47.62400 29.24800 32.71300
H  50.59000 30.39400 35.85300
H  51.44800 29.04900 35.04100
H  50.00700 28.69600 36.05400
Mg 16.98900 51.39500 26.20800
C  19.06400 50.42900 28.92400
C  14.71600 52.68000 28.41400
C  15.15800 52.26500 23.62600
C  19.51000 50.10900 24.15100
N  16.98900 51.71000 28.40600
C  17.89800 51.14700 29.37600
C  17.44700 51.47300 30.81700
C  16.00300 52.01000 30.54800
C  15.87100 52.11200 29.02900
C  14.89700 51.24000 31.31000
C  18.33100 52.58400 31.40100
C  18.09200 52.97800 32.88300
H  17.26500 52.19700 33.93100
N  15.15000 52.53700 26.07800
C  14.37200 52.97500 27.08600
C  13.33300 53.68500 26.51900
C  13.39700 53.60800 25.12800
C  14.57100 52.70100 24.89100
C  12.30500 54.41100 27.34000
C  12.48500 54.13500 24.03600
O  12.76000 54.01800 22.85900
C  11.21600 54.87600 24.40400
N  17.26900 51.21800 24.22100
C  16.35800 51.60600 23.28000
C  16.84100 51.42400 21.84400
C  18.28700 50.93300 22.03400
C  18.34500 50.67700 23.58000
C  15.89500 50.50300 21.04500
C  19.37700 51.93400 21.49400
C  20.02500 53.01900 22.47200
N  18.90700 50.40500 26.41500
C  19.85000 49.97700 25.49500
C  20.99100 49.49200 26.16900
C  20.72600 49.64600 27.57100
C  19.42500 50.16500 27.64500
C  22.41900 49.00900 25.53400
C  21.18800 49.50800 28.85000
O  22.26800 49.11600 29.22800
C  20.09600 49.93400 29.80700
C  19.62800 48.80300 30.70200
O  18.80000 47.93800 30.47100
O  20.24600 49.06200 31.86700
C  19.73800 48.23100 32.97400
H  14.01100 52.90800 29.21600
H  14.69500 52.63000 22.70700
H  20.22100 49.77300 23.39300
H  17.57100 50.53300 31.35600
H  15.98500 53.01300 30.97400
H  15.22000 50.54800 32.08800
H  14.31300 50.62200 30.62800
H  14.22900 51.95600 31.79000
H  18.28300 53.51600 30.83900
H  19.37800 52.28900 31.32600
H  17.64300 53.97100 32.89500
H  19.06400 53.07000 33.36800
H  11.31100 54.11100 27.00900
H  12.51800 55.47900 27.38100
H  12.46600 54.08700 28.36800
H  11.41200 55.68800 25.10300
H  10.39800 54.27900 24.80800
H  10.94200 55.44300 23.51500
H  16.90300 52.41300 21.39000
H  18.42800 49.99500 21.49600
H  14.90600 50.47800 21.50300
H  16.22800 49.46600 21.01000
H  15.87800 50.97100 20.06100
H  18.86300 52.58000 20.78200
H  20.14900 51.32100 21.02900
H  19.61600 53.06400 23.48200
H  19.76300 54.01700 22.12300
H  21.11100 52.92700 22.48700
H  22.43700 49.47400 24.54900
H  22.29700 47.93900 25.36500
H  23.35000 49.30100 26.01900
H  20.51900 50.76300 30.37500
H  18.78900 48.65600 33.29900
H  20.46800 48.24800 33.78300
H  19.60400 47.19300 32.67100

