158

Mg 54.01500 24.21000 45.33600
C  51.36200 26.34300 44.58400
C  51.99600 21.54500 44.38000
C  56.65300 22.06700 45.51300
C  56.03300 26.88800 45.93000
N  51.91100 24.01200 44.52400
C  50.96600 25.00100 44.39900
C  49.68400 24.42100 43.69600
C  49.83600 22.85900 44.12200
C  51.33700 22.79000 44.42400
C  48.81100 22.26000 45.18900
C  49.60900 24.71500 42.15500
C  48.22800 25.14000 41.63700
H  47.94400 24.95400 40.17600
N  54.26600 22.11300 44.96800
C  53.33900 21.19300 44.66500
C  53.87000 19.90100 44.70400
C  55.27100 19.99800 44.83100
C  55.44700 21.48900 45.07700
C  53.15900 18.54100 44.56300
C  56.31000 18.87800 44.79500
O  55.97900 17.72500 44.62600
C  57.80900 19.06700 44.91400
N  56.06100 24.47800 45.55100
C  56.97700 23.43900 45.68000
C  58.38400 23.97400 46.03200
C  58.16800 25.48200 45.85700
C  56.63900 25.66000 45.80100
C  58.99700 23.44100 47.37800
C  58.90700 26.07000 44.72300
C  60.36200 26.42300 44.96600
N  53.80500 26.24700 45.31700
C  54.73300 27.22700 45.69600
C  54.04300 28.56300 45.65800
C  52.71300 28.25900 45.22100
C  52.68200 26.84500 45.00600
C  54.65500 29.87100 46.08600
C  51.48100 28.82300 44.92100
O  51.16000 30.02900 44.85100
C  50.59900 27.64200 44.34800
C  50.39000 27.94900 42.91700
O  51.27800 27.82700 42.06600
O  49.20300 28.47100 42.76000
C  48.86500 29.07000 41.50400
H  51.40900 20.68100 44.06300
H  57.53000 21.41700 45.55500
H  56.66100 27.73200 46.22300
H  48.80700 24.77700 44.23600
H  49.66000 22.18400 43.28400
H  49.33800 22.07000 46.12500
H  48.40400 21.38700 44.68000
H  48.00900 22.98700 45.31100
H  49.86600 23.77900 41.65900
H  50.40700 25.43400 41.97200
H  48.13200 26.18800 41.92100
H  47.37200 24.75700 42.19300
H  53.24500 18.21500 43.52700
H  52.08500 18.54400 44.75100
H  53.52800 17.71300 45.16900
H  58.27300 18.19900 44.44500
H  58.17000 19.25400 45.92500
H  58.13400 19.91700 44.31400
H  59.08200 23.66700 45.25300
H  58.63700 25.89700 46.74900
H  59.71100 24.09600 47.87800
H  59.50900 22.53500 47.05400
H  58.24700 23.15500 48.11500
H  58.42400 26.99900 44.42200
H  58.86200 25.37400 43.88500
H  60.62900 26.37100 46.02200
H  60.54700 27.44600 44.64100
H  60.96900 25.64800 44.49800
H  55.31600 29.75600 46.94500
H  53.84000 30.52200 46.40400
H  55.31200 30.28800 45.32300
H  49.62400 27.60600 44.83600
H  47.85800 29.48000 41.42600
H  48.91800 28.38000 40.66200
H  49.64000 29.81800 41.33900
Mg 17.69000 51.39900 26.38300
C  19.63200 49.92500 28.83600
C  15.44200 52.10400 28.76700
C  15.58700 52.45400 23.87000
C  19.79300 50.01200 23.94500
N  17.56500 51.10100 28.55500
C  18.52500 50.52600 29.39600
C  18.08300 50.56100 30.83000
C  16.47600 50.74500 30.66700
C  16.45900 51.34100 29.27600
C  15.57400 49.43600 30.72100
C  18.73500 51.75000 31.53900
C  19.02400 51.46800 33.01800
H  17.81800 50.82400 33.87700
N  15.81900 52.32600 26.34600
C  15.11700 52.60800 27.46800
C  13.92600 53.34800 27.05300
C  13.84900 53.31200 25.60200
C  15.09400 52.67500 25.21100
C  13.02600 54.01000 28.11700
C  12.70600 53.86900 24.74000
O  12.90800 53.85600 23.52300
C  11.49800 54.54000 25.28800
N  17.61000 51.17000 24.21400
C  16.71800 51.80300 23.42600
C  17.32800 52.02900 22.02200
C  18.72700 51.36000 22.07700
C  18.72900 50.80200 23.52100
C  16.46100 51.57400 20.83300
C  19.96900 52.41000 21.93200
C  21.29900 51.77100 21.39000
N  19.35000 50.17400 26.31300
C  20.11300 49.69900 25.23000
C  21.18300 48.83400 25.74100
C  21.08400 48.94400 27.15500
C  19.98200 49.75300 27.47800
C  22.25100 48.22900 24.93500
C  21.63200 48.48100 28.45500
O  22.55400 47.68700 28.72300
C  20.75400 49.18500 29.55700
C  20.21800 48.16500 30.47600
O  19.39000 47.33300 30.27600
O  20.85400 48.24200 31.71100
C  20.65600 47.16900 32.67700
H  14.63500 52.30300 29.47600
H  15.05600 52.96900 23.06700
H  20.48800 49.76500 23.14000
H  18.22100 49.63000 31.37900
H  16.12700 51.56200 31.29800
H  14.85100 49.31700 29.91400
H  14.89300 49.56000 31.56300
H  16.21600 48.57000 30.88000
H  18.11500 52.63400 31.39200
H  19.69300 51.94200 31.05700
H  19.18400 52.49000 33.36400
H  19.92100 50.85000 33.06200
H  13.48900 54.08200 29.10100
H  12.23100 53.28200 28.27600
H  12.67400 54.97200 27.74600
H  10.80600 54.53700 24.44600
H  11.69500 55.51800 25.72500
H  10.96400 53.96800 26.04700
H  17.37700 53.10900 21.88100
H  18.77400 50.61500 21.28200
H  16.59400 50.50000 20.70400
H  16.75000 52.14000 19.94800
H  15.40600 51.69600 21.07900
H  20.08800 53.00700 22.83700
H  19.84200 53.17400 21.16500
H  21.32000 50.69000 21.52800
H  22.17200 52.13900 21.92900
H  21.57200 51.95000 20.35000
H  22.00800 47.27000 24.47700
H  23.13000 48.18500 25.57900
H  22.34700 48.93000 24.10600
H  21.37000 49.90300 30.09800
H  20.44500 46.23000 32.16400
H  19.80600 47.46900 33.28900
H  21.52200 47.14500 33.33900

