158

Mg 10.01200 47.64300 26.26000
C  7.96500 47.95500 29.08900
C  12.60600 49.10600 28.11200
C  11.91800 47.44800 23.57000
C  7.08100 47.05000 24.35400
N  10.19300 48.42100 28.40900
C  9.28700 48.30700 29.38600
C  9.75100 48.91500 30.72500
C  11.21800 49.39400 30.31800
C  11.39900 48.98000 28.82300
C  11.52200 50.96100 30.56200
C  9.61500 48.12500 32.07500
C  10.35000 48.63200 33.34100
H  10.85800 47.49200 34.29300
N  11.98300 48.13900 25.84800
C  12.91400 48.63400 26.78300
C  14.21000 48.62100 26.14500
C  14.02900 48.07600 24.82700
C  12.65800 47.84500 24.66600
C  15.41300 49.11900 26.89300
C  15.09700 47.83000 23.80100
O  14.84700 47.32300 22.69800
C  16.47600 48.07400 24.19800
N  9.49100 47.40000 24.24200
C  10.47900 47.32700 23.31500
C  9.91100 46.66400 22.05300
C  8.41200 46.33500 22.44300
C  8.31800 46.95000 23.74000
C  10.08600 47.59900 20.85200
C  8.06100 44.82400 22.41500
C  8.69600 43.97600 23.55100
N  7.97400 47.49300 26.54000
C  6.86900 47.30200 25.70600
C  5.60500 47.26600 26.50400
C  6.07100 47.44200 27.82200
C  7.43200 47.60200 27.80200
C  4.16200 47.04000 26.15900
C  5.59700 47.40500 29.20800
O  4.41400 47.20400 29.57800
C  6.80600 47.66500 30.10200
C  7.01000 46.43500 30.91100
O  7.70300 45.47600 30.68300
O  6.26800 46.59000 32.05300
C  6.42400 45.60800 33.06400
H  13.40100 49.69200 28.57900
H  12.43600 47.25600 22.62800
H  6.15300 46.67100 23.92100
H  9.13100 49.80800 30.81000
H  12.01200 48.90100 30.88000
H  11.91200 51.42900 29.65800
H  12.27000 50.96400 31.35500
H  10.63400 51.48200 30.91900
H  9.85700 47.07900 31.88500
H  8.56300 48.17800 32.35500
H  9.66300 49.24000 33.93000
H  11.22900 49.12200 32.92200
H  15.23600 49.17300 27.96700
H  15.74800 50.07700 26.49600
H  16.18800 48.35200 26.90600
H  17.17800 47.83800 23.39800
H  16.62600 47.37900 25.02400
H  16.58900 49.13400 24.42300
H  10.59600 45.83500 21.87200
H  7.65600 46.71300 21.75500
H  9.85500 47.14900 19.88600
H  11.16000 47.76800 20.92500
H  9.52500 48.52000 21.01200
H  8.51000 44.51600 21.47000
H  6.98600 44.64400 22.39500
H  7.90000 43.51700 24.13700
H  9.35500 44.55100 24.20100
H  9.29500 43.12300 23.23400
H  3.66200 46.28400 26.76400
H  4.07000 46.79900 25.10000
H  3.55700 47.93800 26.28700
H  6.55900 48.54600 30.69300
H  7.47400 45.64600 33.35300
H  6.14000 44.68600 32.55600
H  5.78500 45.70100 33.94200
Mg 1.23600 42.26300 25.43800
C  2.41600 42.44300 28.89400
C  -1.41800 40.41700 26.79700
C  0.25400 41.94500 22.41700
C  4.45500 43.56100 24.45000
N  0.64200 41.52500 27.62800
C  1.12000 42.02800 28.82400
C  0.07700 41.84500 30.01800
C  -1.01500 40.94000 29.29700
C  -0.58500 40.86800 27.80000
C  -1.32900 39.66500 29.99300
C  -0.48400 43.18500 30.68300
C  -0.44600 43.33900 32.20200
H  -0.59100 42.11100 33.10900
N  -0.32300 41.33500 24.68200
C  -1.36800 40.68100 25.30900
C  -2.35900 40.30700 24.38000
C  -1.93400 40.77800 23.06500
C  -0.61200 41.38400 23.34500
C  -3.66900 39.67100 24.82400
C  -2.64100 40.72800 21.71300
O  -2.22000 41.27900 20.75800
C  -3.94400 40.00600 21.61700
N  2.20000 42.77200 23.71400
C  1.53900 42.47400 22.53800
C  2.28600 42.91700 21.36000
C  3.41800 43.74900 21.94000
C  3.41900 43.30900 23.50200
C  2.86000 41.62500 20.60700
C  3.48200 45.24600 21.69300
C  4.01400 45.74500 20.28700
N  3.13900 42.70700 26.45900
C  4.30900 43.26900 25.89300
C  5.24300 43.45700 26.97000
C  4.49700 43.22000 28.15400
C  3.23100 42.74200 27.78500
C  6.64200 43.95800 26.82800
C  4.59200 43.14100 29.63700
O  5.57000 43.47100 30.32700
C  3.19800 42.64800 30.14300
C  3.41700 41.34900 30.76800
O  3.70900 40.30800 30.21300
O  3.21100 41.44300 32.12300
C  3.05200 40.22700 32.92600
H  -2.31100 39.92000 27.18400
H  -0.23800 41.96600 21.44200
H  5.44900 43.90000 24.15200
H  0.49200 41.20400 30.79600
H  -1.89600 41.57700 29.22400
H  -2.30900 39.78100 30.45600
H  -0.64600 39.23400 30.72500
H  -1.57700 38.83800 29.32900
H  -1.49800 43.32800 30.31100
H  0.26500 43.88700 30.31900
H  -1.24500 44.04600 32.42500
H  0.46800 43.86000 32.48700
H  -3.90600 39.86200 25.87100
H  -3.53800 38.62600 24.54600
H  -4.53300 39.97800 24.23400
H  -3.72500 38.97500 21.89300
H  -4.26500 40.04000 20.57600
H  -4.74800 40.45900 22.19700
H  1.71900 43.58600 20.71300
H  4.39200 43.42900 21.57000
H  3.07500 41.94700 19.58900
H  2.14900 40.79800 20.61900
H  3.72300 41.25000 21.15700
H  4.20800 45.70000 22.36800
H  2.51100 45.63600 21.99700
H  3.99800 44.93100 19.56200
H  5.00100 46.18700 20.42200
H  3.30700 46.42200 19.80700
H  7.10900 43.14900 26.26600
H  7.06700 44.13600 27.81600
H  6.86500 44.77400 26.14200
H  2.79000 43.37100 30.84900
H  2.04900 39.81400 32.82300
H  3.33100 40.28600 33.97800
H  3.73100 39.42100 32.64800

