158

Mg 0.24600 42.79100 26.06200
C  2.56800 42.20700 28.66000
C  -2.28500 41.88200 28.29200
C  -2.01900 42.42700 23.53500
C  2.77100 43.07900 23.80700
N  0.22400 42.10600 28.21300
C  1.24400 42.08900 29.14800
C  0.73000 41.88200 30.60800
C  -0.82000 41.85300 30.35000
C  -1.02100 42.03600 28.89000
C  -1.45400 40.52400 30.87900
C  1.25800 42.97700 31.54000
C  1.89300 42.50500 32.83900
H  1.28800 41.21400 33.46700
N  -1.84300 42.35400 25.94600
C  -2.69400 42.01700 26.99100
C  -4.04300 41.75700 26.52600
C  -3.95200 41.86800 25.11200
C  -2.54200 42.24200 24.80700
C  -5.24600 41.34700 27.51600
C  -5.10000 41.67700 24.12400
O  -4.96700 42.04700 22.97800
C  -6.56100 41.34700 24.57300
N  0.36800 42.77100 23.93200
C  -0.70000 42.67100 23.12700
C  -0.24000 42.67700 21.62100
C  1.26800 43.09400 21.77800
C  1.49900 43.09300 23.28900
C  -0.47200 41.33000 20.86000
C  1.81900 44.31900 21.06100
C  1.63200 45.71400 21.71000
N  2.27900 42.76100 26.16800
C  3.16500 42.83600 25.09200
C  4.51700 42.67500 25.64600
C  4.35100 42.49000 27.02000
C  2.93800 42.42600 27.32700
C  5.73300 42.71000 24.89700
C  5.04300 42.34700 28.26200
O  6.25300 42.29400 28.49000
C  3.91300 42.25900 29.38600
C  4.13700 40.93600 30.08100
O  3.62400 39.87300 29.80600
O  4.90400 41.18500 31.15300
C  5.13900 40.02900 32.02000
H  -2.97400 41.64500 29.10600
H  -2.71100 42.45000 22.69000
H  3.63800 43.26200 23.16900
H  1.20400 40.94100 30.88900
H  -1.34000 42.71700 30.76500
H  -0.76500 39.94900 31.49700
H  -1.58600 39.77700 30.09600
H  -2.31600 40.74000 31.51100
H  0.45800 43.60800 31.92700
H  1.94400 43.69700 31.09300
H  1.73400 43.22200 33.64500
H  2.92200 42.39800 32.49600
H  -5.46900 40.29000 27.37300
H  -6.11100 41.99400 27.37400
H  -5.01100 41.40200 28.57900
H  -6.62500 40.45700 25.20000
H  -7.23800 41.29300 23.72000
H  -6.87000 42.26700 25.06900
H  -0.85100 43.49600 21.24300
H  1.94600 42.26000 21.59800
H  -1.09000 40.64000 21.43600
H  0.35300 40.67300 20.58700
H  -1.05100 41.58500 19.97200
H  1.49700 44.36300 20.02100
H  2.89300 44.14600 20.99300
H  2.53700 45.99400 22.25000
H  0.81500 45.59600 22.42200
H  1.29700 46.44600 20.97500
H  6.55800 43.14200 25.46300
H  5.56300 43.35900 24.03800
H  5.88700 41.68200 24.56800
H  3.96900 43.13100 30.03700
H  5.85800 40.31200 32.78900
H  5.55600 39.16600 31.50000
H  4.18100 39.76600 32.46900
Mg -1.53000 33.98200 26.76000
C  -2.82600 32.36700 29.48100
C  0.17800 36.09300 28.99100
C  -0.61000 36.09400 24.21800
C  -3.29600 32.08700 24.57600
N  -1.37900 34.19400 29.01900
C  -1.94700 33.40000 29.91200
C  -1.65800 33.81700 31.38900
C  -0.75000 35.03400 31.14900
C  -0.66400 35.19100 29.59600
C  -1.12400 36.29900 31.95500
C  -1.03900 32.59100 32.23500
C  -0.11700 32.79900 33.43400
H  -0.53400 32.12500 34.81100
N  -0.28800 35.74000 26.57500
C  0.38100 36.33300 27.63200
C  1.16800 37.35800 27.07100
C  1.02000 37.37300 25.65600
C  0.00800 36.40000 25.39300
C  2.07900 38.19600 27.83200
C  1.68400 38.26300 24.53500
O  1.38300 38.29900 23.33200
C  2.70700 39.22700 24.92100
N  -2.08400 34.24100 24.65300
C  -1.55200 35.13800 23.80900
C  -1.75600 34.74200 22.32800
C  -2.42100 33.32400 22.54000
C  -2.61900 33.18000 24.04300
C  -2.58000 35.79500 21.48600
C  -1.55400 32.11400 21.92900
C  -0.16700 31.92000 22.64100
N  -2.86800 32.58600 26.94100
C  -3.46100 31.82400 25.94100
C  -4.19600 30.79800 26.53500
C  -4.05900 30.99200 27.96600
C  -3.21100 32.07300 28.11900
C  -4.99300 29.72300 25.72100
C  -4.32800 30.50800 29.31900
O  -5.01200 29.57900 29.60700
C  -3.60400 31.36300 30.35700
C  -4.62500 31.99300 31.22500
O  -5.52300 32.75400 30.88200
O  -4.47000 31.55700 32.54900
C  -5.36200 32.11700 33.52300
H  0.75700 36.71300 29.67800
H  -0.28900 36.74600 23.40300
H  -3.67300 31.27000 23.95700
H  -2.62900 34.08900 31.80200
H  0.26700 34.77800 31.44700
H  -2.01300 36.22100 32.58000
H  -1.44200 37.02600 31.20700
H  -0.22500 36.59000 32.49900
H  -0.61900 31.83200 31.57500
H  -1.90500 32.00700 32.54600
H  0.03200 33.86800 33.58900
H  0.86600 32.43100 33.13900
H  2.10600 37.74400 28.82400
H  1.72200 39.21900 27.95300
H  3.10600 38.12100 27.47600
H  2.89600 39.99700 24.17400
H  3.65800 38.69600 24.97200
H  2.59000 39.72700 25.88200
H  -0.78200 34.71100 21.83900
H  -3.44100 33.22900 22.16900
H  -2.77800 36.69100 22.07300
H  -3.55200 35.49900 21.09100
H  -2.00500 35.91600 20.56800
H  -1.48100 32.33600 20.86400
H  -2.12200 31.18900 22.02600
H  -0.07200 32.73900 23.35400
H  0.47000 32.15900 21.78900
H  0.06200 30.89700 22.93900
H  -4.77300 28.78700 26.23600
H  -4.88600 29.81300 24.64000
H  -6.04200 29.85500 25.98400
H  -2.93700 30.78600 30.99800
H  -4.89600 32.22400 34.50300
H  -6.04900 31.28200 33.65600
H  -5.87400 33.05600 33.31200

