158

Mg 47.21500 34.98300 27.43900
C  45.66800 33.25100 30.12700
C  47.52300 37.75400 29.40300
C  48.65100 36.66400 24.93200
C  46.49100 32.35600 25.43200
N  46.64900 35.43500 29.50700
C  46.17200 34.54400 30.48600
C  46.37500 35.22000 31.90200
C  46.44300 36.66300 31.49400
C  46.89400 36.64100 30.09300
C  45.09100 37.42500 31.53900
C  47.60500 34.76000 32.67700
C  47.40900 34.63500 34.19100
H  46.39300 35.45800 34.90600
N  48.14600 36.96800 27.18600
C  48.16500 37.91900 28.16100
C  48.93400 39.07400 27.77300
C  49.27100 38.77800 26.40200
C  48.75200 37.43900 26.13500
C  49.06900 40.34000 28.56700
C  50.08800 39.62200 25.45200
O  50.49600 39.11600 24.39800
C  50.65700 41.00200 25.83600
N  47.53100 34.55600 25.52300
C  48.15100 35.39700 24.66300
C  47.95300 34.98200 23.16500
C  47.59000 33.45900 23.34500
C  47.13200 33.46000 24.84100
C  46.99700 35.88700 22.34700
C  48.70300 32.39700 22.97400
C  48.31100 31.33500 22.01100
N  46.26800 33.17700 27.71400
C  46.06000 32.19400 26.77400
C  45.47200 30.99000 27.34700
C  45.23100 31.44200 28.71900
C  45.79800 32.74100 28.82700
C  45.09400 29.70200 26.74400
C  44.67600 31.10300 30.05800
O  44.16200 29.99700 30.29100
C  44.74600 32.35200 30.93400
C  45.16300 31.86600 32.26900
O  46.27700 31.44900 32.52400
O  44.07500 31.71100 33.03500
C  44.18600 31.37300 34.48500
H  47.60500 38.63300 30.04600
H  49.07000 37.22000 24.09100
H  46.27300 31.55900 24.71800
H  45.53600 34.91700 32.52800
H  47.17900 37.15300 32.13100
H  44.34800 36.79100 32.02300
H  44.87800 37.86100 30.56300
H  45.24100 38.19700 32.29400
H  48.57000 35.22300 32.47000
H  47.73900 33.75600 32.27500
H  48.38300 34.91500 34.59500
H  47.28400 33.59100 34.47700
H  50.11000 40.63400 28.43900
H  48.81700 40.11900 29.60500
H  48.46900 41.15900 28.17100
H  51.37500 41.29000 25.06800
H  51.29400 40.78600 26.69300
H  49.94000 41.80800 25.99600
H  48.90900 35.01800 22.64200
H  46.71700 33.14300 22.77400
H  47.59700 36.73800 22.02800
H  46.18300 36.33700 22.91600
H  46.65000 35.38900 21.44100
H  48.96200 32.03200 23.96800
H  49.48600 33.02800 22.55400
H  47.22900 31.20900 21.95800
H  48.76100 30.39200 22.32100
H  48.79400 31.62400 21.07800
H  45.46300 29.61300 25.72200
H  44.04300 29.42200 26.81500
H  45.64700 28.96800 27.33000
H  43.80100 32.89200 30.87000
H  43.75300 32.22700 35.00600
H  45.20600 31.27300 34.85700
H  43.63000 30.47500 34.75200
Mg 6.45900 56.30900 41.47500
C  5.45800 52.90200 41.79900
C  9.54600 54.95600 40.40900
C  7.53900 59.38700 40.88400
C  3.31100 57.36200 41.94800
N  7.34600 54.10800 41.03700
C  6.72300 52.92600 41.11700
C  7.56000 51.81600 40.61200
C  8.95900 52.44200 40.66600
C  8.60900 53.91400 40.64700
C  9.76000 52.07200 42.02200
C  7.18600 51.32800 39.24100
C  7.72600 49.97000 38.80400
H  8.52500 50.02300 37.52300
N  8.30600 57.08700 40.79900
C  9.44400 56.35400 40.47900
C  10.52500 57.30100 40.25100
C  9.95200 58.64600 40.34800
C  8.58100 58.44700 40.71700
C  11.92200 56.90200 39.76500
C  10.70800 59.91900 40.27300
O  11.86100 59.90200 40.06500
C  9.99200 61.23300 40.38900
N  5.54100 58.14300 41.38000
C  6.15100 59.27800 41.17000
C  5.17400 60.47200 41.29800
C  3.80100 59.88300 41.73700
C  4.23200 58.37500 41.68300
C  5.57100 61.61800 42.30500
C  2.54800 60.33500 40.95500
C  1.60700 61.19900 41.87800
N  4.70500 55.39800 41.80100
C  3.51200 55.96000 42.12900
C  2.65700 54.97100 42.62100
C  3.40500 53.70100 42.56000
C  4.66400 54.04000 42.10200
C  1.32000 55.22300 43.08600
C  3.38300 52.29600 42.75100
O  2.51900 51.56300 43.12900
C  4.79800 51.75300 42.41700
C  4.64000 50.66100 41.38000
O  3.98500 50.79100 40.37900
O  5.14600 49.45300 41.85100
C  4.80400 48.21600 41.12700
H  10.56900 54.60800 40.25400
H  7.75800 60.44200 40.70800
H  2.31000 57.68300 42.24400
H  7.48900 50.94700 41.26600
H  9.54500 52.24900 39.76800
H  10.70600 51.61300 41.73400
H  9.25800 51.29300 42.59600
H  9.97800 52.94300 42.63900
H  7.44200 52.12000 38.53900
H  6.09700 51.32100 39.29600
H  6.94100 49.23600 38.62000
H  8.39900 49.53500 39.54300
H  11.78700 56.48900 38.76500
H  12.31500 56.12900 40.42600
H  12.63400 57.72600 39.73100
H  9.53900 61.27500 41.37900
H  9.24200 61.23600 39.59900
H  10.60100 62.13600 40.34900
H  5.11800 60.87900 40.28800
H  3.72800 60.13700 42.79500
H  5.05900 61.55300 43.26500
H  5.10000 62.53700 41.95500
H  6.65800 61.66700 42.37200
H  1.95700 59.61100 40.39400
H  2.94600 60.91100 40.12000
H  0.60500 60.81000 42.06300
H  1.61200 62.12600 41.30500
H  2.11200 61.51800 42.78900
H  1.14600 55.91200 43.91200
H  0.89200 54.24000 43.28700
H  0.76300 55.61000 42.23300
H  5.28900 51.42700 43.33400
H  3.72600 48.05600 41.10300
H  5.30600 47.33100 41.51800
H  4.98800 48.41200 40.07100

