158

Mg 41.61800 8.57900 29.78900
C  43.57000 9.81500 32.43000
C  39.36300 7.24900 31.96800
C  39.94000 7.38000 27.14100
C  44.19600 9.69600 27.53800
N  41.57500 8.37100 31.94100
C  42.45300 8.99800 32.84200
C  41.97500 8.62000 34.27700
C  40.81300 7.58800 34.03500
C  40.53600 7.72400 32.54900
C  41.21900 6.19200 34.50800
C  41.51700 9.74000 35.12100
C  41.22800 9.50200 36.63400
H  41.85300 10.52200 37.63100
N  39.86700 7.50600 29.55500
C  39.00100 7.20800 30.61200
C  37.81600 6.62100 30.05700
C  37.90900 6.76000 28.60500
C  39.25800 7.23100 28.39000
C  36.62600 5.96000 30.73100
C  36.92800 6.57300 27.50100
O  37.08100 6.62100 26.28700
C  35.51200 6.54000 27.94800
N  41.99600 8.58900 27.61700
C  41.20500 7.92900 26.77500
C  41.65600 8.13400 25.35000
C  43.02500 8.76000 25.54900
C  43.09900 9.00600 26.98900
C  41.55900 6.83200 24.54000
C  43.26800 10.00600 24.64900
C  42.65900 11.34300 25.21900
N  43.48700 9.59800 29.87900
C  44.36900 10.03700 28.89600
C  45.48600 10.74900 29.59800
C  45.16000 10.78400 30.93500
C  43.95300 10.02600 31.04900
C  46.65000 11.43100 29.02700
C  45.59100 11.18700 32.23800
O  46.57900 11.83500 32.52500
C  44.53900 10.57500 33.19700
C  45.32300 9.79500 34.23400
O  45.64800 8.62800 34.05600
O  45.60100 10.53000 35.35500
C  46.27700 9.82900 36.49800
H  38.58900 6.77000 32.57200
H  39.34400 7.19500 26.24500
H  45.05100 9.92200 26.89700
H  42.91300 8.26700 34.70600
H  39.90800 7.89000 34.56200
H  41.07600 5.44000 33.73200
H  40.59600 5.85200 35.33500
H  42.28200 6.13500 34.74500
H  40.52600 10.03600 34.77600
H  42.11900 10.64300 35.01700
H  41.43000 8.46900 36.91800
H  40.14800 9.60600 36.73000
H  36.96000 5.60700 31.70700
H  36.38300 5.00600 30.26300
H  35.75500 6.61100 30.81100
H  34.91600 6.51300 27.03600
H  35.29700 7.50300 28.41000
H  35.41500 5.64900 28.56900
H  40.81700 8.72700 24.98600
H  43.69500 7.94300 25.28100
H  40.86200 6.93500 23.70800
H  41.18600 6.09800 25.25400
H  42.57800 6.56700 24.26000
H  42.86900 9.74000 23.67100
H  44.33600 10.11800 24.46400
H  43.41800 12.11900 25.11800
H  42.21600 11.29000 26.21300
H  41.83000 11.59800 24.55900
H  47.13300 10.85900 28.23400
H  47.34300 11.70200 29.82400
H  46.31600 12.33900 28.52500
H  43.95800 11.38200 33.64400
H  47.24500 10.27100 36.73400
H  46.52800 8.78600 36.31000
H  45.65300 9.85000 37.39200
Mg -9.66000 40.27400 39.30300
C  -8.87900 36.99900 38.43500
C  -6.44100 41.15400 38.27200
C  -10.68400 43.54600 39.07100
C  -13.04600 39.36700 39.67200
N  -7.93200 39.20500 38.33700
C  -7.82700 37.84100 38.16700
C  -6.39000 37.50800 37.65500
C  -5.60200 38.80500 37.90200
C  -6.70800 39.80700 38.22100
C  -4.48200 38.63500 38.93800
C  -6.36700 36.93000 36.17800
C  -7.14900 37.75600 35.18900
H  -8.29400 37.00700 34.46200
N  -8.65800 42.04000 38.82500
C  -7.34100 42.23700 38.49600
C  -7.02000 43.64000 38.32900
C  -8.23300 44.35900 38.59700
C  -9.30000 43.30000 38.83200
C  -5.60300 44.03100 38.20300
C  -8.28900 45.85600 38.68900
O  -7.36800 46.58200 38.39100
C  -9.50600 46.61000 39.27600
N  -11.61500 41.31300 39.36100
C  -11.77900 42.67100 39.30800
C  -13.31200 43.11400 39.46800
C  -13.99300 41.73000 39.57700
C  -12.84500 40.71800 39.48300
C  -13.60100 44.18800 40.57200
C  -15.19100 41.34900 38.65900
C  -16.65100 41.28100 39.35600
N  -10.79300 38.58000 39.29100
C  -12.13900 38.36400 39.46600
C  -12.35100 36.94600 39.47100
C  -11.10800 36.39400 39.16700
C  -10.14600 37.42200 38.97300
C  -13.61900 36.26400 39.37400
C  -10.38300 35.15100 38.84500
O  -10.85500 33.97000 38.90200
C  -8.93100 35.46700 38.32500
C  -7.87900 34.74700 39.11300
O  -8.02100 34.32500 40.25500
O  -6.82800 34.45400 38.23900
C  -5.73600 33.81600 38.91300
H  -5.40100 41.39300 38.03900
H  -11.04200 44.57100 38.95500
H  -14.07600 39.03300 39.81300
H  -6.17800 36.73800 38.39600
H  -5.12900 39.25700 37.03000
H  -4.26900 37.58300 39.12700
H  -4.78400 39.12600 39.86300
H  -3.50500 38.99000 38.61000
H  -6.72200 35.90500 36.28200
H  -5.38000 36.80900 35.73000
H  -6.33400 38.01100 34.51100
H  -7.63600 38.67600 35.51200
H  -5.36300 45.08100 38.03500
H  -5.08500 43.42800 37.45800
H  -5.12900 43.83400 39.16400
H  -9.77600 45.97000 40.11500
H  -10.31200 46.70600 38.54800
H  -9.15700 47.54300 39.71900
H  -13.61100 43.49100 38.49000
H  -14.37500 41.60400 40.58900
H  -12.71500 44.77500 40.81700
H  -13.98500 43.69800 41.46700
H  -14.35700 44.91100 40.26400
H  -15.04000 40.37100 38.20100
H  -15.27700 42.04100 37.82200
H  -17.12300 40.37700 38.97000
H  -17.29700 42.02500 38.88900
H  -16.56500 41.22300 40.44100
H  -14.46100 36.94900 39.27600
H  -13.78700 35.66400 40.26900
H  -13.67900 35.67900 38.45600
H  -8.95000 35.09000 37.30300
H  -5.92800 32.77100 39.15600
H  -5.35300 34.38300 39.76200
H  -4.91400 33.93300 38.20700

