158

Mg 45.99100 3.74100 46.80500
C  43.95600 6.58200 46.71500
C  43.00000 1.78500 46.42900
C  47.84500 1.05900 46.61500
C  48.75400 5.84300 46.66500
N  43.69200 4.18100 46.44500
C  43.17600 5.45200 46.46600
C  41.69000 5.28700 46.25300
C  41.35400 3.78500 46.70200
C  42.75300 3.16200 46.51500
C  40.72700 3.62600 48.18000
C  41.16600 5.87600 44.90800
C  42.15300 5.99300 43.79000
H  41.57900 6.50200 42.49700
N  45.47500 1.71400 46.43700
C  44.24500 1.11800 46.36300
C  44.47800 -0.32900 46.34700
C  45.86400 -0.62000 46.37200
C  46.43300 0.77200 46.52800
C  43.36600 -1.44500 46.37500
C  46.49900 -1.99400 46.28300
O  45.84100 -3.03500 46.23200
C  47.89300 -2.23100 46.31900
N  47.98600 3.54400 46.29200
C  48.53800 2.29100 46.60700
C  50.09500 2.42000 46.76100
C  50.39200 3.91200 46.49400
C  48.99700 4.47200 46.45600
C  50.65900 1.82400 48.02800
C  51.19900 4.24600 45.23600
C  52.37000 5.19700 45.46500
N  46.32400 5.78300 46.80600
C  47.51500 6.46500 46.88600
C  47.21100 7.87000 47.09600
C  45.88200 7.97100 47.11700
C  45.36700 6.66400 46.90400
C  48.15200 9.00900 47.03700
C  44.75300 8.88500 47.10600
O  44.68500 10.11900 47.22800
C  43.46200 8.05500 46.80000
C  42.48000 8.36300 47.90500
O  42.46700 7.81900 49.00400
O  41.63400 9.34900 47.53100
C  40.46700 9.52400 48.42800
H  42.10000 1.16700 46.46400
H  48.43600 0.15100 46.75500
H  49.62800 6.48500 46.78500
H  41.25000 5.87700 47.05700
H  40.67700 3.28000 46.01300
H  41.47400 3.18600 48.84100
H  39.83200 3.00400 48.19600
H  40.45700 4.56000 48.67300
H  40.68400 6.83600 45.09400
H  40.28700 5.25400 44.73900
H  42.41400 4.94700 43.62500
H  43.08500 6.46200 44.10600
H  42.39900 -0.96300 46.23100
H  43.41700 -2.04800 47.28100
H  43.47200 -2.15100 45.55100
H  48.32500 -2.09100 47.31000
H  48.34200 -1.53500 45.61100
H  48.16000 -3.21700 45.94000
H  50.52700 1.84900 45.93900
H  50.89400 4.37500 47.34300
H  51.38800 1.02400 47.89400
H  49.79200 1.54000 48.62400
H  51.10100 2.56200 48.69700
H  50.63500 4.48300 44.33400
H  51.77700 3.37000 44.94000
H  53.30100 4.64700 45.33100
H  52.35100 5.52100 46.50600
H  52.22200 6.08300 44.84800
H  48.95800 8.93100 47.76600
H  47.65800 9.98000 47.07600
H  48.62400 9.22100 46.07700
H  43.14400 8.37300 45.80700
H  39.89900 8.62000 48.20600
H  39.96000 10.41500 48.05900
H  40.65600 9.61200 49.49800
Mg -10.79600 17.60500 40.91900
C  -7.22100 17.46800 40.74400
C  -10.47700 20.95400 40.01000
C  -14.05900 17.78100 40.59700
C  -10.82800 14.16000 41.57100
N  -8.98200 18.88800 40.26300
C  -7.66300 18.71100 40.26800
C  -6.84900 19.93800 39.89900
C  -7.92600 21.05900 40.05400
C  -9.23000 20.22500 39.98600
C  -7.90800 21.86500 41.43400
C  -6.24600 19.87800 38.44100
C  -4.71200 19.52000 38.37700
H  -4.36200 18.29100 37.51600
N  -12.13100 19.18500 40.40000
C  -11.84700 20.46800 40.12800
C  -13.06300 21.17600 39.84400
C  -14.15500 20.28300 40.06000
C  -13.49600 18.99600 40.33600
C  -13.07000 22.57900 39.45400
C  -15.66500 20.55900 39.80700
O  -15.93200 21.72400 39.64500
C  -16.74600 19.52800 39.92000
N  -12.24800 16.16400 40.86600
C  -13.57800 16.49000 40.78300
C  -14.48400 15.30100 41.13900
C  -13.47200 14.25500 41.57400
C  -12.07900 14.79400 41.26300
C  -15.58400 15.53700 42.19200
C  -13.67700 12.74700 41.02500
C  -13.01500 12.48000 39.63000
N  -9.37500 16.04000 41.16500
C  -9.56400 14.74600 41.53200
C  -8.22800 14.21400 41.84600
C  -7.30300 15.18000 41.49500
C  -8.03000 16.32700 41.07100
C  -8.09200 12.86000 42.53500
C  -5.92600 15.50000 41.39700
O  -4.88400 14.84800 41.61900
C  -5.85300 17.02400 41.04200
C  -5.05900 17.72400 42.17000
O  -3.82900 17.62300 42.27600
O  -5.87500 18.51500 42.92100
C  -5.20300 19.44600 43.74600
H  -10.45400 22.02900 39.81800
H  -15.13800 17.76800 40.76300
H  -10.90200 13.10400 41.84100
H  -6.12500 19.94800 40.71400
H  -7.92100 21.80300 39.25700
H  -7.15900 21.37200 42.05400
H  -8.85500 21.72600 41.95700
H  -7.65900 22.92500 41.39200
H  -6.34600 20.80700 37.87800
H  -6.86300 19.08000 38.02900
H  -4.48700 19.36100 39.43200
H  -4.10000 20.39100 38.14200
H  -12.84100 22.78500 38.40800
H  -12.33500 22.97300 40.15500
H  -13.94500 23.08700 39.85800
H  -17.63800 20.06500 39.59700
H  -16.62600 19.54400 41.00300
H  -16.53500 18.59900 39.39000
H  -14.86700 14.94200 40.18300
H  -13.44500 13.93600 42.61500
H  -16.58700 15.56000 41.76600
H  -15.34900 16.46300 42.71700
H  -15.60200 14.83300 43.02300
H  -14.70700 12.55500 40.72300
H  -13.32400 12.08900 41.82000
H  -11.94000 12.44100 39.80600
H  -13.22400 13.30000 38.94300
H  -13.31400 11.49600 39.26900
H  -8.56500 12.09500 41.92000
H  -8.52200 12.89600 43.53600
H  -7.08400 12.47600 42.69300
H  -5.24500 17.00200 40.13700
H  -4.51000 18.89600 44.38400
H  -5.97300 19.81000 44.42700
H  -4.75600 20.26900 43.18900

