158

Mg 53.55300 24.24900 45.07600
C  51.30400 26.55400 43.82100
C  52.05500 21.84800 43.08100
C  56.17100 22.22800 45.43400
C  55.44600 26.94600 46.40800
N  52.00100 24.18200 43.51000
C  51.28500 25.34900 43.11500
C  50.26500 24.98200 42.01100
C  50.12300 23.46800 42.25500
C  51.49500 23.11400 42.97200
C  48.82700 23.18100 43.09500
C  50.90200 25.35700 40.67200
C  49.91500 25.74300 39.59200
H  50.54200 26.46000 38.35800
N  53.94600 22.21100 44.63800
C  53.19000 21.42500 43.84700
C  53.69500 20.07300 43.85400
C  54.83300 20.12700 44.77000
C  55.02500 21.51300 44.99500
C  53.23100 18.94600 43.00900
C  55.66500 18.93800 45.12700
O  55.40200 17.82200 44.68100
C  56.96600 18.99800 45.94900
N  55.56300 24.55200 45.87100
C  56.43200 23.52100 45.86600
C  57.79100 23.99900 46.30800
C  57.50200 25.48100 46.71300
C  56.02700 25.70700 46.37600
C  58.51700 23.22100 47.51100
C  58.52000 26.50600 46.09100
C  59.12100 27.53800 47.06500
N  53.31600 26.36700 45.31200
C  54.15600 27.31900 45.86000
C  53.36300 28.54400 45.99600
C  52.18400 28.30400 45.22800
C  52.28700 26.96300 44.80600
C  53.74700 29.81000 46.70900
C  50.91100 28.87500 44.77700
O  50.38500 29.98400 44.99500
C  50.31800 27.69300 43.85000
C  50.07900 28.33600 42.54800
O  50.93400 28.76800 41.80200
O  48.74100 28.37000 42.27200
C  48.29200 28.90600 40.98000
H  51.53800 21.16100 42.40700
H  57.10100 21.66400 45.53200
H  56.12000 27.78500 46.58800
H  49.29800 25.47400 42.11900
H  50.08300 22.87100 41.34400
H  49.17600 22.57500 43.93200
H  48.14100 22.62100 42.46000
H  48.35600 24.02000 43.60800
H  51.55800 24.61900 40.21000
H  51.42400 26.26500 40.97500
H  49.02200 26.28100 39.91200
H  49.50700 24.80900 39.20400
H  54.02000 18.51500 42.39200
H  52.43000 19.20600 42.31700
H  52.72000 18.24000 43.66300
H  57.13000 18.02400 46.40900
H  56.97100 19.89000 46.57600
H  57.77700 19.13700 45.23400
H  58.42700 23.91300 45.42700
H  57.54100 25.65500 47.78800
H  58.56500 23.92100 48.34600
H  59.48800 22.78900 47.27100
H  58.08000 22.34800 47.99600
H  57.94700 27.11900 45.39500
H  59.30700 25.91500 45.62200
H  59.06400 27.37300 48.14100
H  58.59800 28.47600 46.87800
H  60.10600 27.84800 46.71600
H  53.77200 30.56600 45.92400
H  54.74900 29.78700 47.13500
H  53.00500 30.03700 47.47500
H  49.36300 27.34400 44.24200
H  48.34700 29.98600 41.11800
H  47.26800 28.53600 40.93700
H  48.97700 28.51900 40.22600
Mg -12.11700 38.41300 42.80600
C  -10.28500 35.68100 41.44400
C  -9.74100 40.57900 41.34000
C  -14.23000 40.96100 43.35200
C  -14.71200 36.13900 43.44700
N  -10.40500 38.15300 41.33900
C  -9.78700 36.95000 41.06200
C  -8.33300 37.14100 40.47400
C  -8.12100 38.70400 40.60800
C  -9.45500 39.16900 41.20000
C  -6.95800 39.09700 41.46100
C  -8.11400 36.48200 39.04500
C  -6.80500 35.66300 38.91400
H  -5.85700 36.21200 37.88400
N  -11.96500 40.48900 42.59000
C  -10.92100 41.17100 41.93700
C  -11.19600 42.60300 41.91400
C  -12.47000 42.75000 42.54600
C  -12.93800 41.39100 42.92400
C  -10.30400 43.68200 41.38600
C  -13.25900 44.05500 42.80500
O  -12.85700 45.11900 42.31900
C  -14.46000 44.06100 43.69800
N  -14.21400 38.56800 43.27800
C  -14.82500 39.69900 43.50700
C  -16.34800 39.52000 43.85400
C  -16.44800 37.95800 43.83300
C  -14.99900 37.52400 43.61100
C  -16.92900 40.13000 45.10000
C  -17.47700 37.44700 42.78900
C  -17.08500 37.26600 41.30300
N  -12.51100 36.28000 42.61700
C  -13.49900 35.50900 43.03300
C  -13.21200 34.10000 42.73000
C  -11.93900 34.09600 42.19400
C  -11.51800 35.46600 42.09400
C  -14.10900 32.90200 42.99000
C  -10.85800 33.28600 41.67000
O  -10.82700 32.09900 41.39300
C  -9.63100 34.31400 41.37000
C  -8.54000 34.19900 42.41100
O  -8.77700 34.24900 43.64100
O  -7.33400 34.12900 41.90200
C  -6.29200 33.89100 42.85700
H  -8.95400 41.32000 41.18600
H  -15.03000 41.69400 43.23000
H  -15.54900 35.47200 43.66800
H  -7.69600 36.64700 41.20700
H  -7.92700 39.06900 39.59900
H  -6.72300 38.40000 42.26500
H  -7.07400 40.07500 41.92800
H  -6.08600 38.99900 40.81500
H  -7.91500 37.33000 38.39000
H  -8.98400 36.07000 38.53500
H  -7.07200 34.61700 38.76200
H  -6.38600 35.77700 39.91400
H  -10.71700 44.65800 41.64200
H  -10.34800 43.71300 40.29800
H  -9.32700 43.65100 41.86900
H  -15.37500 43.77700 43.17900
H  -14.54300 45.08200 44.07200
H  -14.21800 43.52400 44.61500
H  -16.86000 39.86300 42.95500
H  -16.77300 37.58100 44.80200
H  -17.79000 40.77100 44.91400
H  -16.22400 40.66300 45.73800
H  -17.34000 39.35900 45.75200
H  -18.35000 38.08600 42.92900
H  -17.61200 36.43900 43.18000
H  -17.82400 37.67000 40.61000
H  -16.88400 36.21200 41.11100
H  -16.20300 37.88600 41.13700
H  -14.73300 32.72400 42.11500
H  -14.80600 33.17100 43.78400
H  -13.66500 31.92400 43.17800
H  -9.23300 34.06700 40.38600
H  -5.42000 34.45900 42.53300
H  -5.99500 32.84200 42.83000
H  -6.40600 34.11100 43.91900

