158

Mg 23.77300 -7.70400 46.81000
C  26.39000 -5.74500 45.59200
C  21.76000 -6.50300 44.34400
C  21.80600 -10.36700 47.17200
C  26.30800 -9.52000 48.67300
N  24.10500 -6.24000 45.19200
C  25.21500 -5.48500 44.88800
C  24.95600 -4.50500 43.68600
C  23.42600 -4.77000 43.32200
C  23.03300 -5.89900 44.34000
C  22.48700 -3.42800 43.22300
C  25.85300 -4.63400 42.32800
C  26.46000 -3.22900 42.02900
H  25.92400 -2.34300 40.94800
N  21.87900 -8.24500 46.05300
C  21.21300 -7.54700 45.08800
C  19.87100 -8.08400 45.00200
C  19.87400 -9.35100 45.79900
C  21.19500 -9.39900 46.34800
C  18.85100 -7.51000 44.06900
C  18.73300 -10.34700 45.91100
O  17.65300 -10.03100 45.41200
C  18.82600 -11.56400 46.69400
N  24.00700 -9.60000 47.84300
C  23.02500 -10.58900 47.77500
C  23.39100 -11.91200 48.59500
C  24.74000 -11.47300 49.22800
C  25.04500 -10.05600 48.56600
C  22.31100 -12.53400 49.57200
C  25.90500 -12.52300 49.25700
C  26.44300 -12.86400 50.66800
N  25.88700 -7.67900 47.20800
C  26.72100 -8.38300 47.98900
C  28.05400 -7.78100 47.92800
C  27.85700 -6.66800 47.12300
C  26.56200 -6.71200 46.63000
C  29.28000 -8.32800 48.64000
C  28.55900 -5.50800 46.60100
O  29.68800 -5.17200 46.74400
C  27.60000 -4.88600 45.58600
C  27.35200 -3.50500 46.01200
O  26.68000 -3.11800 46.97400
O  28.13700 -2.66000 45.30700
C  28.30400 -1.33600 45.79700
H  21.15300 -5.93300 43.63700
H  21.22300 -11.28800 47.24300
H  27.13200 -9.97000 49.23000
H  25.10300 -3.53400 44.15900
H  23.36000 -5.24900 42.34500
H  21.83100 -3.51500 42.35700
H  23.18500 -2.60100 43.08900
H  21.91700 -3.24100 44.13300
H  25.16700 -4.83900 41.50600
H  26.43700 -5.54300 42.18800
H  27.50700 -3.39500 41.77900
H  26.52400 -2.71200 42.98600
H  18.94900 -7.92300 43.06500
H  18.97600 -6.43300 43.96200
H  17.84900 -7.58200 44.49300
H  19.60400 -12.27700 46.42200
H  17.98000 -12.18000 46.39000
H  18.71600 -11.38200 47.76300
H  23.66100 -12.53100 47.73900
H  24.46800 -11.26400 50.26300
H  21.71800 -13.39200 49.25400
H  21.79300 -11.65700 49.96100
H  22.78300 -12.89900 50.48500
H  26.75900 -12.22000 48.65100
H  25.44100 -13.44600 48.91100
H  27.52000 -13.02000 50.59500
H  25.91300 -13.70700 51.11200
H  26.16800 -12.03900 51.32500
H  29.44000 -9.40600 48.67500
H  29.15200 -7.87400 49.62300
H  30.08000 -7.93700 48.01100
H  28.15400 -4.76600 44.65500
H  28.65700 -1.31800 46.82800
H  27.38600 -0.75300 45.73000
H  29.02400 -0.94500 45.07800
Mg 47.47800 34.29700 28.31100
C  45.77400 32.40900 30.76300
C  47.34000 36.99300 30.64700
C  48.28200 36.31600 25.97100
C  46.94000 31.66800 26.04700
N  46.60300 34.64700 30.45300
C  46.09600 33.66000 31.29700
C  46.04900 34.21400 32.76900
C  45.94200 35.77300 32.49600
C  46.67500 35.84000 31.09200
C  44.64000 36.47500 32.60800
C  47.35800 33.78800 33.43500
C  47.19700 33.33600 34.93600
H  46.29100 34.30300 35.84900
N  47.93600 36.29900 28.30300
C  47.83100 37.25500 29.33300
C  48.56500 38.46600 28.90000
C  49.02700 38.18100 27.57400
C  48.37600 36.93300 27.17700
C  48.82000 39.55500 29.86900
C  49.92000 39.05100 26.61700
O  50.11400 38.78900 25.44400
C  50.45500 40.35100 27.10200
N  47.51400 33.99100 26.25300
C  47.82700 35.03500 25.47100
C  47.95900 34.67800 23.98500
C  47.66200 33.17200 24.07200
C  47.39100 32.86700 25.51400
C  47.06800 35.47700 22.93900
C  48.70500 32.18100 23.52300
C  48.59100 31.52400 22.14200
N  46.65000 32.33400 28.41800
C  46.48000 31.41800 27.36800
C  45.85000 30.23000 27.88600
C  45.45100 30.54000 29.20800
C  46.04500 31.84500 29.48300
C  45.52000 28.97100 27.11400
C  44.78000 30.10200 30.40900
O  44.06800 29.21600 30.64600
C  44.80500 31.36800 31.36100
C  44.87800 31.05100 32.79400
O  45.67300 30.33600 33.35100
O  43.81500 31.72200 33.39700
C  43.67400 31.79700 34.83300
H  47.34900 37.80900 31.37300
H  48.77100 36.76600 25.10400
H  46.82300 30.88400 25.29600
H  45.22200 33.79200 33.33900
H  46.53200 36.28700 33.25400
H  44.00900 35.79300 33.17800
H  44.25700 36.62200 31.59800
H  44.83900 37.35700 33.21600
H  48.21400 34.46100 33.38400
H  47.73200 32.88800 32.94800
H  48.17400 33.35400 35.41900
H  46.90900 32.28600 34.98300
H  49.89900 39.69200 29.81200
H  48.70300 39.38500 30.93900
H  48.29500 40.43400 29.49400
H  51.05000 40.05800 27.96700
H  49.68800 41.08600 27.34500
H  51.15300 40.65400 26.32200
H  48.94400 34.84100 23.54700
H  46.68900 32.88900 23.67200
H  46.28300 34.82300 22.55900
H  47.65000 35.81100 22.08000
H  46.54900 36.27400 23.47300
H  48.90500 31.33500 24.18200
H  49.63900 32.70800 23.72100
H  47.75000 31.96300 21.60500
H  48.58700 30.45100 22.33600
H  49.42400 31.70200 21.46300
H  46.20500 28.74700 26.29600
H  44.49600 29.07600 26.75500
H  45.65300 28.18700 27.86000
H  43.80600 31.80300 31.31500
H  42.93200 31.05300 35.12300
H  43.23000 32.78000 34.98300
H  44.51000 31.72200 35.52900

