158

Mg 16.28700 -1.91300 27.82700
C  15.19600 0.04100 30.52200
C  18.44000 -3.52500 30.04300
C  17.24700 -3.76200 25.39100
C  14.39500 0.26500 25.68200
N  16.75400 -1.73700 30.05700
C  16.16000 -0.84900 30.96900
C  16.73600 -1.08400 32.40300
C  17.96600 -1.95200 32.13800
C  17.71800 -2.43300 30.62900
C  19.22800 -1.10500 32.20300
C  15.75700 -1.62100 33.43300
C  15.71100 -0.84600 34.78100
H  17.02700 -0.35300 35.34600
N  17.51700 -3.53700 27.74300
C  18.31900 -4.06100 28.72800
C  18.98200 -5.24600 28.18500
C  18.73500 -5.24800 26.78300
C  17.75800 -4.20100 26.56900
C  19.88500 -6.27300 28.95900
C  19.25500 -6.16200 25.69100
O  18.86100 -6.03700 24.54200
C  20.25200 -7.25200 26.01000
N  15.95900 -1.68900 25.88700
C  16.51800 -2.60300 25.04500
C  16.31400 -2.14400 23.55400
C  15.22000 -0.99700 23.69100
C  15.20200 -0.73900 25.20700
C  17.57400 -1.79400 22.67400
C  13.85300 -1.37000 23.26800
C  13.06300 -0.28900 22.44100
N  15.05300 -0.18900 28.01700
C  14.30700 0.54400 27.09600
C  13.47700 1.48300 27.73300
C  13.75700 1.30800 29.06600
C  14.71500 0.27500 29.19300
C  12.48600 2.39600 27.16100
C  13.47700 1.85700 30.40800
O  12.81800 2.83600 30.81100
C  14.39700 1.08100 31.38700
C  15.27200 2.00200 32.25000
O  16.41000 2.33700 32.00400
O  14.61000 2.35400 33.40500
C  15.34200 3.34500 34.22700
H  19.19000 -3.97100 30.70000
H  17.43200 -4.32300 24.47300
H  13.90800 0.81800 24.87600
H  16.98200 -0.15200 32.91100
H  18.23800 -2.79900 32.76800
H  19.98200 -1.41600 31.48000
H  19.64600 -1.23200 33.20100
H  18.89300 -0.06800 32.21600
H  16.01700 -2.65200 33.67400
H  14.72400 -1.59600 33.08500
H  15.20400 -1.47000 35.51800
H  15.12000 0.06600 34.69900
H  19.98500 -6.05800 30.02300
H  20.87900 -6.34700 28.51700
H  19.54000 -7.28500 28.74900
H  20.54700 -7.66100 25.04400
H  19.69600 -8.04200 26.51500
H  21.12600 -6.91000 26.56500
H  15.91200 -3.04400 23.08900
H  15.58400 -0.09000 23.20900
H  18.45900 -2.02200 23.26900
H  17.43200 -0.78200 22.29300
H  17.50800 -2.54000 21.88200
H  13.33700 -1.61900 24.19600
H  13.84800 -2.31600 22.72700
H  12.19800 -0.01000 23.04200
H  12.67800 -0.69900 21.50700
H  13.61200 0.64800 22.34700
H  12.96100 3.07200 26.45000
H  12.12400 3.07000 27.93600
H  11.60300 1.93700 26.71500
H  13.69500 0.60300 32.07100
H  15.49600 4.25500 33.64700
H  16.23900 2.97200 34.72300
H  14.62800 3.72400 34.95800
Mg 5.65200 52.93600 41.46600
C  4.49700 49.67400 40.95300
C  8.64200 52.01200 40.06900
C  6.45700 56.23800 41.14800
C  2.33900 53.74300 41.99800
N  6.43200 51.00300 40.52200
C  5.80900 49.82000 40.40300
C  6.72300 48.67400 39.94200
C  8.10400 49.42600 40.03700
C  7.74300 50.89800 40.10700
C  9.07700 49.07600 41.17200
C  6.46700 48.25200 38.47900
C  6.17600 49.29700 37.43600
H  5.69200 48.74700 36.06400
N  7.35000 53.98900 40.83000
C  8.50300 53.41500 40.29600
C  9.48100 54.46900 39.97900
C  8.79900 55.69900 40.28200
C  7.46700 55.36700 40.81500
C  10.92000 54.17400 39.57500
C  9.42000 57.12200 40.26000
O  10.48100 57.22000 39.73100
C  8.83200 58.28800 40.91300
N  4.57300 54.82800 41.75700
C  5.08400 56.07300 41.49200
C  4.02700 57.14600 41.50200
C  2.71300 56.32400 41.87600
C  3.23300 54.87800 41.91300
C  4.19500 58.29500 42.44500
C  1.57100 56.68100 40.89300
C  1.41900 55.87800 39.61000
N  3.88200 51.95000 41.68300
C  2.64600 52.38200 42.10300
C  1.68600 51.31000 42.31600
C  2.44300 50.18900 42.00500
C  3.69800 50.66300 41.54200
C  0.17000 51.42600 42.59000
C  2.35800 48.76600 41.73500
O  1.43200 47.96100 41.88600
C  3.69000 48.41600 41.08200
C  3.32300 48.00400 39.73100
O  2.93800 48.75600 38.81200
O  3.40700 46.68700 39.63600
C  3.05500 46.06400 38.34600
H  9.61500 51.62700 39.75400
H  6.48600 57.30700 40.92300
H  1.29600 54.01800 42.16900
H  6.69400 47.73900 40.50300
H  8.64900 49.43500 39.09400
H  8.82400 48.05300 41.44900
H  9.00000 49.66800 42.08400
H  10.08300 49.22100 40.77800
H  5.59600 47.60000 38.55300
H  7.24600 47.56500 38.14900
H  7.12000 49.84000 37.37800
H  5.44800 49.99300 37.85400
H  11.34400 53.34600 40.14400
H  11.59100 55.01100 39.76600
H  11.09200 53.99500 38.51400
H  9.60800 59.02800 41.11300
H  8.42300 57.94000 41.86100
H  8.09000 58.78500 40.28900
H  4.06100 57.48100 40.46600
H  2.37000 56.60800 42.87100
H  5.01900 58.10800 43.13300
H  3.24900 58.49700 42.94800
H  4.30200 59.23800 41.91000
H  1.53400 57.70900 40.53500
H  0.66100 56.45500 41.44900
H  2.40300 55.60700 39.22900
H  0.93600 56.46200 38.82700
H  0.84500 54.96500 39.77000
H  -0.19000 50.64800 43.26400
H  -0.41500 51.47500 41.67200
H  0.02700 52.39700 43.06500
H  4.28900 47.58900 41.46300
H  3.86200 45.35200 38.17200
H  3.00700 46.76900 37.51600
H  2.04800 45.64900 38.39200

