158

Mg 8.77800 3.11600 27.57700
C  10.28900 1.47500 30.37100
C  7.10800 5.24500 29.81300
C  7.57800 4.55600 24.93000
C  10.03500 0.50100 25.48100
N  8.74400 3.36500 29.89300
C  9.47000 2.56000 30.80100
C  9.22500 2.96000 32.25300
C  8.15100 4.14400 32.05000
C  7.88300 4.21400 30.49800
C  6.81500 3.86300 32.84100
C  10.57000 3.31000 33.04900
C  10.52200 4.37800 34.15100
H  11.22600 4.10600 35.48600
N  7.45100 4.62000 27.36900
C  6.90700 5.39300 28.39300
C  6.12800 6.46800 27.82200
C  6.31600 6.30100 26.37000
C  7.12700 5.08800 26.17700
C  5.45800 7.51600 28.59900
C  5.85100 7.24500 25.26900
O  6.27300 7.18100 24.13600
C  4.87300 8.29700 25.57800
N  8.89600 2.61200 25.49800
C  8.31100 3.45600 24.63200
C  8.65200 3.06500 23.15100
C  9.31100 1.66300 23.35400
C  9.48800 1.59200 24.83900
C  7.46200 2.98300 22.14400
C  10.77800 1.61100 22.69500
C  11.02600 0.59500 21.56400
N  9.95600 1.34000 27.77300
C  10.30600 0.40400 26.88100
C  11.16300 -0.58300 27.54400
C  11.27100 -0.15500 28.90500
C  10.47800 0.99600 28.96900
C  11.81300 -1.72000 26.82200
C  11.75300 -0.46900 30.23100
O  12.56100 -1.34800 30.58500
C  11.19300 0.64700 31.21600
C  10.48700 -0.11000 32.27000
O  9.41000 -0.59400 32.12300
O  11.17300 -0.10700 33.50800
C  10.41600 -0.49200 34.71800
H  6.56300 6.04900 30.31100
H  7.12500 4.93400 24.01100
H  10.35700 -0.32900 24.85000
H  8.72600 2.11700 32.73100
H  8.56400 5.12600 32.28000
H  6.84500 2.89200 33.33500
H  5.96600 3.83200 32.15900
H  6.51800 4.59000 33.59700
H  11.44900 3.52200 32.44100
H  10.75000 2.42900 33.66500
H  9.48200 4.63100 34.35700
H  10.97200 5.30000 33.78300
H  5.89700 8.49300 28.39600
H  5.38300 7.53900 29.68600
H  4.42200 7.55200 28.26200
H  4.30900 8.59700 24.69500
H  5.56700 9.07300 25.90300
H  4.14300 7.91000 26.28900
H  9.32200 3.83700 22.77100
H  8.77600 0.79400 22.96900
H  6.87700 3.88300 22.32900
H  6.81400 2.15100 22.42000
H  7.88400 2.98500 21.13900
H  11.43400 1.30300 23.51000
H  11.15100 2.59300 22.40800
H  11.46700 1.01700 20.66100
H  10.07200 0.19200 21.22300
H  11.60500 -0.23800 21.96400
H  11.95400 -1.64500 25.74300
H  11.30800 -2.67800 26.94600
H  12.80900 -1.73800 27.26300
H  11.99100 1.14400 31.76800
H  9.84800 -1.40800 34.55600
H  9.79500 0.36900 34.97000
H  11.05500 -0.82700 35.53500
Mg 0.61800 43.62100 25.56800
C  2.83800 43.51400 28.27100
C  -1.98800 42.94000 27.70000
C  -1.38700 43.78100 22.92900
C  3.41000 43.62000 23.43900
N  0.43300 43.20900 27.60100
C  1.47000 43.30000 28.57200
C  0.90800 43.00800 30.01000
C  -0.45900 42.43600 29.66100
C  -0.71800 42.93300 28.24100
C  -0.72400 40.87300 29.74400
C  0.79800 44.37200 30.84800
C  0.29800 44.34900 32.34500
H  0.28200 43.09600 33.13700
N  -1.42100 43.37500 25.32500
C  -2.32400 43.23800 26.36400
C  -3.67500 43.24000 25.90700
C  -3.53600 43.46700 24.51900
C  -2.06100 43.63500 24.20500
C  -4.81300 43.05700 26.75200
C  -4.62200 43.50000 23.53300
O  -4.33000 43.72200 22.38500
C  -6.06500 43.26200 23.93400
N  0.95400 43.47000 23.53500
C  -0.05400 43.58500 22.61500
C  0.45400 43.64500 21.17500
C  1.95800 43.89000 21.44100
C  2.12200 43.65300 22.90200
C  -0.00100 42.47900 20.16600
C  2.58000 45.26900 20.97600
C  2.19200 46.43400 21.81200
N  2.71200 43.51600 25.74800
C  3.71400 43.67300 24.79800
C  4.90400 43.81500 25.52000
C  4.66000 43.68500 26.83300
C  3.32500 43.60800 26.94300
C  6.23400 43.90300 24.97800
C  5.25900 43.71000 28.12500
O  6.41600 43.77900 28.43700
C  4.11400 43.45500 29.13900
C  4.21100 42.08000 29.77900
O  3.90400 41.01100 29.29500
O  4.71500 42.14900 31.06000
C  4.77600 40.80400 31.79700
H  -2.67900 42.69600 28.51000
H  -2.08500 43.79800 22.08800
H  4.14300 43.79900 22.64900
H  1.54500 42.23100 30.43200
H  -1.23400 42.92000 30.25600
H  -0.77900 40.36000 28.78400
H  -1.58800 40.69800 30.38500
H  0.15500 40.38500 30.16700
H  0.07900 45.02200 30.35000
H  1.74900 44.90000 30.78700
H  -0.70300 44.77700 32.39800
H  0.98300 44.97900 32.91200
H  -5.51500 43.86400 26.54300
H  -4.58400 42.98700 27.81600
H  -5.35100 42.12200 26.60100
H  -6.63200 42.99000 23.04400
H  -6.42800 44.11900 24.50000
H  -5.99500 42.35500 24.53500
H  0.15600 44.61700 20.78000
H  2.57400 43.20800 20.85400
H  -0.21000 42.98200 19.22200
H  -0.79400 41.86100 20.58600
H  0.88200 41.85500 20.02700
H  2.34600 45.45500 19.92800
H  3.66500 45.21200 21.07400
H  3.11500 46.80300 22.25900
H  1.44300 46.11400 22.53600
H  1.87000 47.28100 21.20600
H  6.85800 43.99700 25.86700
H  6.49000 44.82800 24.46200
H  6.48000 43.01200 24.39900
H  4.11500 44.21100 29.92400
H  3.78900 40.37800 31.97700
H  5.38300 40.78300 32.70200
H  5.25900 40.05500 31.16800

