158

Mg 24.80100 -6.65300 47.75300
C  27.30000 -4.58700 46.75400
C  22.69600 -5.45500 45.30800
C  22.72600 -9.34800 48.18800
C  27.27500 -8.38900 49.75800
N  24.94500 -5.25600 46.28700
C  26.04600 -4.43300 46.09500
C  25.81700 -3.41500 44.89100
C  24.25100 -3.53000 44.68600
C  23.94000 -4.84200 45.40800
C  23.35300 -2.24800 44.99800
C  26.66500 -3.78700 43.67300
C  27.29000 -2.53700 42.99800
H  26.87800 -2.31000 41.52400
N  22.98200 -7.30200 46.88400
C  22.29600 -6.62600 45.95900
C  20.98700 -7.20900 45.72500
C  20.91100 -8.32600 46.64800
C  22.25900 -8.34900 47.26600
C  19.81800 -6.52100 44.88500
C  19.73100 -9.21200 46.87100
O  18.75500 -9.19000 46.19400
C  19.63400 -10.14300 48.06000
N  25.01900 -8.67600 48.73000
C  23.93000 -9.47900 48.85600
C  24.21900 -10.74400 49.62400
C  25.61000 -10.37000 50.19500
C  26.01600 -9.03600 49.55800
C  23.16400 -11.24900 50.70400
C  26.73200 -11.44900 50.11600
C  27.09400 -11.76500 48.68900
N  26.79600 -6.46000 48.25700
C  27.68000 -7.23400 49.01700
C  28.92200 -6.54200 49.14400
C  28.85100 -5.56300 48.17300
C  27.51700 -5.53800 47.70800
C  29.99100 -6.98000 49.97900
C  29.54300 -4.43600 47.61900
O  30.61400 -3.93700 47.82900
C  28.56800 -3.71300 46.61100
C  28.37000 -2.32300 47.04700
O  28.22300 -1.96900 48.20700
O  28.41800 -1.55800 45.93000
C  27.98300 -0.14100 46.17800
H  21.94300 -4.93100 44.71600
H  21.97100 -10.04500 48.55800
H  28.03400 -8.81500 50.41700
H  26.02800 -2.41400 45.26700
H  24.05700 -3.68500 43.62500
H  23.93600 -1.33400 45.11400
H  22.94300 -2.35700 46.00200
H  22.49400 -2.19800 44.32900
H  26.02200 -4.28800 42.94800
H  27.40800 -4.54800 43.91500
H  28.37200 -2.60900 43.11000
H  27.02900 -1.73000 43.68300
H  18.86400 -6.65400 45.39600
H  19.79500 -6.88500 43.85800
H  19.81400 -5.43200 44.84400
H  20.15000 -11.06300 47.78700
H  18.57900 -10.40600 48.13700
H  19.90400 -9.73600 49.03400
H  24.37100 -11.55100 48.90700
H  25.54400 -10.13500 51.25700
H  22.20600 -10.79400 50.45300
H  23.46500 -10.85600 51.67500
H  23.05100 -12.33300 50.67200
H  26.35400 -12.35800 50.58300
H  27.59000 -11.06200 50.66500
H  28.14500 -11.53200 48.52100
H  26.47800 -11.14100 48.04200
H  26.86500 -12.80000 48.43300
H  30.86400 -6.39600 49.68600
H  30.16500 -8.03700 49.77700
H  29.83900 -6.77800 51.03900
H  28.98900 -3.71700 45.60500
H  28.45600 0.28400 47.06300
H  26.90100 -0.01700 46.21900
H  28.06400 0.46900 45.27900
Mg 46.65100 34.69300 27.45100
C  45.00700 32.85400 29.98000
C  47.03400 37.18500 29.65200
C  47.72900 36.47100 24.90400
C  45.89200 32.06200 25.21000
N  46.23500 34.85700 29.59800
C  45.60100 34.06500 30.44200
C  45.88400 34.48600 31.88100
C  46.08100 36.07700 31.72800
C  46.46200 36.06300 30.21900
C  44.83200 36.93400 32.07400
C  47.22100 33.73500 32.32100
C  47.51000 33.56100 33.80800
H  46.72000 34.39700 34.82700
N  47.46100 36.50200 27.33500
C  47.58500 37.37800 28.32900
C  48.43600 38.44900 27.90800
C  48.51100 38.33400 26.47300
C  47.88000 37.03800 26.17100
C  49.20400 39.40900 28.80000
C  49.23000 39.19000 25.48200
O  49.37700 38.80800 24.29200
C  49.70000 40.55000 25.84200
N  46.73500 34.30500 25.42900
C  47.32900 35.16500 24.57400
C  47.20800 34.76500 23.08900
C  46.83400 33.28400 23.19700
C  46.43700 33.20000 24.67800
C  46.30900 35.56100 22.14200
C  47.98700 32.24300 22.74100
C  49.33800 32.15900 23.49300
N  45.63400 32.79100 27.53900
C  45.40600 31.83500 26.54800
C  44.84700 30.68800 27.14000
C  44.54300 31.07000 28.47300
C  45.07200 32.35100 28.63500
C  44.44800 29.37100 26.51800
C  43.92200 30.70700 29.74200
O  43.38100 29.66400 30.00800
C  44.08800 31.88000 30.69800
C  44.75500 31.32500 31.94100
O  45.82100 30.75000 31.96000
O  43.88700 31.46800 32.99500
C  44.42700 31.29700 34.37100
H  47.07900 37.98600 30.39300
H  48.01000 36.98900 23.98400
H  45.82400 31.22700 24.51000
H  45.10200 34.20900 32.58800
H  46.83500 36.39200 32.45000
H  43.93700 36.31800 32.16700
H  44.65100 37.68200 31.30300
H  44.90300 37.50400 33.00100
H  47.99500 34.30500 31.80600
H  47.29900 32.76700 31.82600
H  48.57000 33.64900 34.04300
H  47.24400 32.52600 34.02600
H  49.19500 39.03300 29.82300
H  48.77400 40.41100 28.79800
H  50.27100 39.40900 28.57500
H  50.35100 40.47600 26.71300
H  48.82600 41.19400 25.93500
H  50.37800 40.99300 25.11200
H  48.19600 35.02800 22.71300
H  45.96800 33.07200 22.57000
H  46.09500 36.49100 22.66800
H  45.43400 34.97300 21.86500
H  46.85900 35.83600 21.24200
H  48.26400 32.57700 21.74100
H  47.52200 31.26900 22.58800
H  49.36400 31.17600 23.96300
H  49.42200 32.96200 24.22600
H  50.25200 32.39100 22.94700
H  44.88500 29.20400 25.53300
H  43.37300 29.38200 26.33600
H  44.80800 28.58400 27.18000
H  43.17200 32.34000 31.06700
H  45.50400 31.45300 34.31500
H  44.33800 30.31400 34.83500
H  43.86300 31.99900 34.98500

