158

Mg 1.08000 8.52400 26.79700
C  1.36600 10.90300 29.36900
C  1.12600 6.06500 29.21600
C  0.85400 6.18500 24.29800
C  1.13500 11.08300 24.38800
N  1.43100 8.50500 29.08100
C  1.40500 9.59900 29.92000
C  1.12100 9.24700 31.36200
C  1.22800 7.65200 31.30800
C  1.23700 7.38700 29.81000
C  2.42800 7.01500 32.01700
C  -0.29900 9.58900 31.85300
C  -0.63600 9.38500 33.35800
H  0.42000 9.00200 34.39500
N  0.98100 6.40400 26.74400
C  1.06800 5.58800 27.87600
C  1.00900 4.18800 27.40400
C  0.81500 4.19500 25.97200
C  0.89500 5.61900 25.62100
C  1.17000 3.08600 28.38900
C  0.73700 3.06000 25.00100
O  0.55300 3.11900 23.78600
C  0.71200 1.70800 25.63600
N  1.05300 8.65000 24.68300
C  0.89800 7.53000 23.87800
C  0.65300 7.99700 22.49000
C  0.49800 9.50500 22.48500
C  0.95700 9.77600 23.93800
C  1.81500 7.54800 21.64500
C  -0.90700 10.08700 22.10300
C  -0.93100 10.95500 20.78400
N  1.43800 10.50500 26.80200
C  1.37100 11.43800 25.76500
C  1.66300 12.77200 26.32900
C  1.50400 12.59100 27.67700
C  1.48300 11.17300 27.96300
C  1.90600 14.06600 25.61800
C  1.52100 13.28900 28.89300
O  1.51100 14.50500 29.13900
C  1.23800 12.22700 30.06000
C  2.31300 12.45000 31.08100
O  3.49000 12.68100 30.89300
O  1.80800 12.49000 32.37800
C  2.75600 12.78700 33.49500
H  1.09800 5.30600 30.00000
H  0.72400 5.46300 23.49000
H  1.09600 11.93000 23.70000
H  1.88900 9.79500 31.90800
H  0.42000 7.13000 31.82200
H  2.11100 6.58500 32.96800
H  3.29300 7.65200 32.19800
H  2.79900 6.24600 31.33900
H  -1.03200 9.05900 31.24600
H  -0.44300 10.63300 31.57400
H  -1.44200 8.65400 33.29400
H  -1.07000 10.27500 33.81300
H  2.00300 2.44900 28.09200
H  0.28500 2.46200 28.26500
H  1.37200 3.38400 29.41800
H  -0.14400 1.79000 26.30600
H  1.62500 1.46700 26.18000
H  0.46300 0.91200 24.93400
H  -0.17900 7.43700 22.06300
H  1.15300 10.04800 21.80400
H  1.88200 8.15200 20.74000
H  1.90100 6.48700 21.41100
H  2.72100 7.74000 22.21900
H  -1.27700 10.63100 22.97200
H  -1.60600 9.27900 21.89100
H  -1.80700 10.67600 20.19900
H  -0.10500 10.80900 20.08800
H  -1.07500 11.99800 21.06400
H  1.26400 14.13100 24.73900
H  2.95200 14.02200 25.31400
H  1.69400 14.86900 26.32400
H  0.26500 12.29900 30.54600
H  3.49400 11.98800 33.41700
H  2.23300 12.64300 34.44100
H  3.14700 13.80400 33.49500
Mg -1.62200 34.95100 26.90600
C  -3.65000 33.06700 29.04400
C  -0.71500 36.99300 29.50200
C  -0.16300 37.05100 24.63000
C  -3.05100 33.29200 24.16200
N  -2.20300 35.10700 28.97700
C  -2.97800 34.12800 29.67600
C  -2.85300 34.42200 31.19800
C  -2.13700 35.86100 31.20000
C  -1.74600 36.06400 29.78500
C  -2.90700 37.06300 31.86000
C  -2.22400 33.30100 32.07600
C  -3.03300 32.48800 33.10000
H  -2.45400 32.42600 34.56000
N  -0.45500 36.75100 27.08900
C  -0.15800 37.32300 28.27300
C  0.71700 38.42600 27.99800
C  0.87000 38.49800 26.56100
C  0.07300 37.41600 25.99100
C  1.35500 39.27000 29.03900
C  1.73500 39.46800 25.74100
O  1.82500 39.45800 24.53400
C  2.39900 40.58800 26.48200
N  -1.49800 35.05500 24.66000
C  -0.89300 36.10800 23.96400
C  -1.20900 36.09800 22.49400
C  -2.01500 34.78100 22.35100
C  -2.18000 34.32300 23.82600
C  -1.94900 37.39400 22.08200
C  -1.41900 33.69000 21.42100
C  -0.48800 32.64200 21.97000
N  -2.91200 33.45400 26.60000
C  -3.50000 32.90800 25.43200
C  -4.43600 31.82400 25.77100
C  -4.53000 31.87000 27.21900
C  -3.58900 32.86800 27.66100
C  -5.09900 30.86100 24.82900
C  -5.20700 31.31800 28.36200
O  -6.16100 30.51600 28.36800
C  -4.51100 31.89800 29.55800
C  -5.67700 32.32200 30.44700
O  -6.20800 33.44500 30.50500
O  -5.97100 31.18700 31.19100
C  -6.97700 31.36200 32.21500
H  -0.31200 37.52800 30.36500
H  0.24300 37.77800 23.92400
H  -3.59800 32.66800 23.45200
H  -3.84500 34.59600 31.61300
H  -1.14600 35.74200 31.63800
H  -2.22300 37.66700 32.45700
H  -3.76700 36.74300 32.44900
H  -3.29600 37.70900 31.07200
H  -1.29300 33.60900 32.55100
H  -1.85200 32.58900 31.33900
H  -3.19400 31.45000 32.80900
H  -3.98200 33.02400 33.07800
H  1.36500 38.68300 29.95700
H  1.00200 40.30000 29.09200
H  2.41400 39.37000 28.80300
H  1.78900 41.16100 27.18100
H  2.74400 41.27000 25.70500
H  3.31700 40.19100 26.91500
H  -0.32000 36.19800 21.87100
H  -3.03100 34.84900 21.96000
H  -1.69400 38.21600 22.75100
H  -3.02700 37.41700 22.24000
H  -1.77500 37.71600 21.05500
H  -1.10100 34.13200 20.47700
H  -2.28200 33.14500 21.03900
H  -1.00800 31.70000 22.14300
H  -0.15200 32.96500 22.95600
H  0.40500 32.42300 21.38500
H  -5.40800 29.97500 25.38500
H  -4.37500 30.61400 24.05300
H  -5.95700 31.32100 24.33900
H  -4.03600 31.06900 30.08300
H  -6.66800 31.89000 33.11600
H  -7.42400 30.45500 32.62400
H  -7.77800 32.01700 31.87300

