158

Mg -0.82200 7.34800 26.60700
C  0.25700 9.21000 29.40400
C  -1.11800 4.62600 28.75500
C  -1.17200 5.36700 23.94200
C  -0.40600 10.06800 24.60400
N  -0.53200 7.00100 28.83900
C  -0.17000 7.95500 29.75600
C  -0.18300 7.37500 31.20700
C  -0.65900 5.87100 30.92100
C  -0.72700 5.77600 29.39200
C  0.13000 4.73800 31.63100
C  -1.12800 8.10500 32.19300
C  -0.55800 8.50200 33.52600
H  -0.99000 7.65400 34.71100
N  -1.13700 5.30100 26.35000
C  -1.33200 4.36500 27.33700
C  -1.59800 3.06100 26.74300
C  -1.62100 3.24000 25.36500
C  -1.27100 4.68300 25.12500
C  -1.71900 1.85900 27.59100
C  -1.71500 2.19700 24.30400
O  -1.50400 2.44400 23.09600
C  -2.20900 0.76400 24.71900
N  -0.76500 7.65400 24.59000
C  -0.99100 6.70800 23.70500
C  -1.28800 7.26700 22.32100
C  -1.32700 8.75800 22.58500
C  -0.84800 8.91100 23.99700
C  -0.26800 6.81000 21.20700
C  -2.78700 9.24900 22.52300
C  -3.44800 9.82800 21.28700
N  -0.10400 9.21500 26.83900
C  0.04900 10.23100 25.92700
C  0.64900 11.39900 26.62900
C  0.82300 11.01800 27.93200
C  0.29400 9.69300 28.07100
C  1.03700 12.69200 25.99700
C  1.24100 11.47800 29.19700
O  1.80400 12.51300 29.46200
C  0.84300 10.40900 30.26400
C  1.94300 10.01000 31.22700
O  2.67700 9.05900 31.06300
O  1.99300 10.87400 32.26600
C  3.14100 10.83700 33.19600
H  -1.33600 3.76200 29.38600
H  -1.39000 4.76900 23.05500
H  -0.42800 10.86500 23.85800
H  0.82500 7.40300 31.62100
H  -1.64700 5.74400 31.36400
H  0.93800 5.22000 32.18100
H  0.59500 4.19700 30.80600
H  -0.59700 4.13400 32.17400
H  -2.01600 7.48900 32.33500
H  -1.40500 9.00900 31.65100
H  -0.63400 9.57900 33.67900
H  0.52400 8.42300 33.42600
H  -0.85600 1.19500 27.55000
H  -2.64800 1.33800 27.36000
H  -1.93400 2.05800 28.64100
H  -3.18500 0.80900 25.20200
H  -1.45200 0.22800 25.29100
H  -2.38800 0.23100 23.78600
H  -2.20600 6.76400 22.01800
H  -0.71900 9.21700 21.80500
H  -0.27700 7.48400 20.35100
H  -0.61300 5.84000 20.84800
H  0.74900 6.81300 21.60200
H  -2.93800 9.99800 23.30100
H  -3.42300 8.49100 22.98000
H  -2.64600 10.25600 20.68600
H  -4.26400 10.49200 21.57200
H  -3.95800 9.01300 20.77200
H  1.96900 13.05200 26.43300
H  0.26000 13.43800 26.16100
H  1.16000 12.57700 24.92000
H  0.03500 10.89000 30.81500
H  3.39600 11.78300 33.67200
H  3.97300 10.44600 32.61000
H  3.02400 10.16700 34.04800
Mg 6.46000 53.96900 40.73500
C  5.42000 50.55600 40.45800
C  9.58100 53.02200 39.75100
C  7.01100 57.18900 40.27000
C  3.03600 54.66000 41.77900
N  7.20200 52.10300 39.85900
C  6.67500 50.82100 39.85400
C  7.64900 49.80400 39.15000
C  9.00100 50.52600 39.47600
C  8.60300 52.01200 39.66500
C  9.70800 49.90500 40.75600
C  7.22900 49.66800 37.65400
C  7.59500 48.26800 36.93500
H  6.73200 47.84900 35.80200
N  8.15900 54.96700 40.12100
C  9.33300 54.39200 39.81100
C  10.23800 55.43200 39.55000
C  9.60400 56.69000 39.71300
C  8.14400 56.34300 40.01800
C  11.72700 55.20500 39.15600
C  10.22400 58.01200 39.51100
O  11.42600 58.13000 39.20600
C  9.43100 59.30000 39.50800
N  5.17800 55.60800 40.81900
C  5.68100 56.89200 40.65300
C  4.52900 57.94000 40.92700
C  3.38800 57.08700 41.57500
C  3.96000 55.68800 41.47200
C  4.94100 59.18600 41.79300
C  1.95500 57.15100 40.90500
C  1.40900 58.60300 40.59500
N  4.60400 52.86300 41.17500
C  3.41400 53.27900 41.68400
C  2.51800 52.14300 41.98700
C  3.31500 51.06300 41.56200
C  4.51000 51.53600 41.05300
C  1.17400 52.11600 42.55700
C  3.41600 49.60600 41.36600
O  2.61500 48.70100 41.65300
C  4.85200 49.19800 40.77100
C  4.69900 48.29000 39.57300
O  4.21400 48.52600 38.49700
O  5.05100 47.01100 39.94900
C  5.02900 45.92600 38.97000
H  10.58300 52.66600 39.49800
H  7.13000 58.27400 40.30300
H  2.06300 54.95200 42.18000
H  7.57800 48.83200 39.63800
H  9.66500 50.31300 38.63800
H  9.13700 49.13600 41.27800
H  9.92300 50.71300 41.45600
H  10.61500 49.40600 40.41700
H  7.82200 50.45300 37.18500
H  6.21600 50.00500 37.43100
H  7.60200 47.52900 37.73700
H  8.61200 48.49100 36.61300
H  11.90100 54.13300 39.06500
H  12.40900 55.62400 39.89600
H  11.96200 55.63500 38.18300
H  10.04500 60.19200 39.37500
H  8.97800 59.20500 40.49400
H  8.81100 59.29100 38.61200
H  4.17100 58.25300 39.94600
H  3.18900 57.25500 42.63300
H  4.06200 59.64200 42.24800
H  5.40700 59.88300 41.09600
H  5.73300 58.96000 42.50700
H  1.28900 56.65100 41.60800
H  2.02900 56.63800 39.94600
H  2.05600 59.34400 41.06500
H  0.36500 58.72900 40.88000
H  1.44300 58.61100 39.50500
H  0.64000 53.06600 42.54600
H  1.16900 51.74300 43.58100
H  0.64500 51.31000 42.04700
H  5.47200 48.68100 41.50400
H  4.20800 45.99600 38.25600
H  5.06700 44.96000 39.47300
H  5.88000 46.09400 38.31100

