158

Mg 30.67000 59.56800 38.69600
C  27.72600 58.24100 37.39800
C  32.27300 56.68300 37.84300
C  33.70100 61.10000 38.93500
C  29.06600 62.61400 39.20000
N  30.14900 57.71900 37.56600
C  28.84300 57.39500 37.34600
C  28.82000 55.93900 36.87400
C  30.06100 55.34700 37.67300
C  30.89500 56.64200 37.69100
C  29.55200 54.84500 39.08200
C  28.85700 55.87600 35.29500
C  27.87400 54.87500 34.54700
H  27.09000 55.31300 33.29500
N  32.72400 58.94600 38.47600
C  33.20200 57.71300 38.13300
C  34.60800 57.59300 38.08400
C  35.11900 58.90200 38.41800
C  33.85000 59.73600 38.67100
C  35.42700 56.31700 37.76900
C  36.59200 59.29100 38.50400
O  37.45800 58.43200 38.25000
C  37.03900 60.64900 38.91800
N  31.27500 61.54600 39.01100
C  32.58600 61.98500 38.99200
C  32.70400 63.52700 39.23100
C  31.19300 63.92200 39.42600
C  30.44700 62.57500 39.21200
C  33.57300 63.94900 40.43400
C  30.70000 65.13500 38.54300
C  29.80800 66.19700 39.25500
N  28.67200 60.30600 38.58200
C  28.19300 61.55000 38.79500
C  26.73700 61.47800 38.72000
C  26.50900 60.17400 38.17300
C  27.76200 59.54200 38.01800
C  25.82000 62.63900 38.77600
C  25.45500 59.27400 37.66600
O  24.26500 59.42800 37.52300
C  26.23200 58.05400 37.08100
C  25.59300 56.84600 37.77700
O  25.60900 56.53700 38.96400
O  24.95600 56.06000 36.83800
C  24.55400 54.67800 37.24500
H  32.65800 55.68000 37.64900
H  34.63600 61.66300 38.90100
H  28.52600 63.55100 39.35300
H  27.89900 55.48500 37.23800
H  30.54900 54.65400 36.98900
H  29.75900 55.65500 39.78200
H  30.08600 53.92600 39.32200
H  28.47900 54.66900 39.00300
H  29.83900 55.47500 35.04400
H  28.85000 56.90300 34.92700
H  27.19100 54.56900 35.33900
H  28.50600 54.01400 34.32700
H  36.16100 56.59400 37.01200
H  34.76100 55.65900 37.21200
H  35.74300 55.85000 38.70100
H  38.12500 60.60900 39.00600
H  36.62400 61.01600 39.85600
H  36.92500 61.35700 38.09700
H  33.02900 64.00400 38.30700
H  30.97400 64.00600 40.49100
H  33.07500 64.81900 40.86300
H  34.60700 64.21100 40.21000
H  33.45100 63.09100 41.09500
H  30.11400 64.63900 37.76900
H  31.50700 65.67600 38.04900
H  29.90000 66.04000 40.33000
H  28.77100 65.92400 39.05800
H  30.13900 67.20600 39.00600
H  25.40000 62.74800 37.77700
H  26.34100 63.57900 38.95800
H  25.01600 62.48300 39.49500
H  25.99700 58.12000 36.01900
H  23.66000 54.67200 37.86800
H  25.33200 54.30800 37.91300
H  24.44300 54.19500 36.27400
Mg -4.41700 24.70100 26.44300
C  -3.25700 26.38400 29.10200
C  -5.88400 22.45600 28.52000
C  -6.02100 23.24400 23.79300
C  -2.79000 26.82400 24.37100
N  -4.55800 24.44900 28.54900
C  -4.13400 25.39000 29.49800
C  -4.64800 25.04400 30.88600
C  -5.25200 23.62000 30.77900
C  -5.23900 23.44200 29.20500
C  -4.57200 22.48400 31.58900
C  -5.50700 26.19300 31.39800
C  -5.18400 26.61800 32.85200
H  -4.92300 25.55600 33.92000
N  -5.65000 23.04900 26.20400
C  -6.13600 22.26700 27.19600
C  -6.90900 21.16100 26.64500
C  -6.86900 21.34400 25.29900
C  -6.13300 22.59500 25.03900
C  -7.36100 20.06600 27.59700
C  -7.53500 20.40600 24.23800
O  -7.47600 20.54100 23.00100
C  -8.18400 19.13200 24.66400
N  -4.25900 24.91600 24.38200
C  -5.08400 24.25100 23.51300
C  -4.98700 24.89800 22.07500
C  -4.03100 26.05500 22.25900
C  -3.53600 25.88000 23.74400
C  -4.56500 23.86300 20.97700
C  -4.76400 27.44300 22.04400
C  -3.82100 28.60600 21.54800
N  -3.24400 26.26800 26.67600
C  -2.59200 27.01900 25.69900
C  -1.91500 28.18100 26.40400
C  -2.07400 27.86500 27.76000
C  -2.87600 26.76600 27.81900
C  -1.16900 29.37700 25.82900
C  -1.73800 28.23500 29.10100
O  -1.05800 29.21600 29.45500
C  -2.47800 27.36500 30.06400
C  -1.50800 26.70000 30.98400
O  -0.87800 25.61900 30.83500
O  -1.47400 27.40900 32.18900
C  -0.97600 26.59700 33.32000
H  -6.49700 21.85300 29.19400
H  -6.60000 22.78400 22.99000
H  -2.38300 27.56000 23.67400
H  -3.82300 24.96700 31.59400
H  -6.26500 23.64700 31.18200
H  -5.31600 22.09200 32.28200
H  -3.77100 22.87100 32.21800
H  -4.20500 21.70300 30.92200
H  -6.58300 26.02700 31.35800
H  -5.41000 27.11500 30.82600
H  -5.93800 27.24400 33.32800
H  -4.27500 27.21900 32.87700
H  -8.22700 19.54700 27.18700
H  -7.76100 20.41400 28.54900
H  -6.55000 19.35400 27.75500
H  -7.53500 18.60000 25.36000
H  -8.27700 18.54400 23.75100
H  -9.19400 19.35800 25.00700
H  -6.02100 25.23600 21.99600
H  -3.12700 26.03800 21.64900
H  -4.53500 22.86800 21.42200
H  -3.72600 24.31000 20.44500
H  -5.33200 23.90900 20.20400
H  -5.15600 27.77800 23.00500
H  -5.62100 27.36300 21.37400
H  -3.91600 28.83000 20.48600
H  -2.80800 28.32900 21.84100
H  -4.05300 29.40800 22.24900
H  -0.10800 29.25400 25.60800
H  -1.27100 30.32400 26.35800
H  -1.53900 29.48900 24.81000
H  -3.24700 27.96300 30.55400
H  0.06000 26.92000 33.42300
H  -1.04700 25.51000 33.27900
H  -1.56700 26.94200 34.16900

