158

Mg 40.96800 8.31000 29.69400
C  42.68700 9.87600 32.33300
C  38.85800 7.20400 32.04200
C  39.21800 6.81000 27.22600
C  43.51300 9.12800 27.54700
N  40.82800 8.42900 31.90500
C  41.59400 9.16500 32.76200
C  40.99800 9.15200 34.15600
C  39.95500 8.09600 34.10500
C  39.90100 7.89600 32.54400
C  40.15600 6.64800 34.84000
C  40.44100 10.57400 34.64800
C  39.76600 10.61500 36.04700
H  40.11900 11.65400 37.13600
N  39.26400 7.22600 29.60400
C  38.50900 6.89500 30.72300
C  37.37200 6.12600 30.30100
C  37.31600 6.20300 28.88100
C  38.64500 6.74100 28.48700
C  36.44100 5.42000 31.30600
C  36.33500 5.80000 27.89000
O  36.47100 6.05200 26.67300
C  35.14100 5.21100 28.31900
N  41.41700 7.79300 27.69800
C  40.48300 7.21000 26.88200
C  41.03500 7.20500 25.43500
C  42.43100 8.03200 25.53400
C  42.49700 8.27800 27.03600
C  41.07500 5.86300 24.68500
C  42.61600 9.24000 24.64400
C  42.04500 10.63200 25.12100
N  42.79700 9.24500 29.86500
C  43.68000 9.56400 28.91700
C  44.67000 10.41400 29.41600
C  44.29600 10.65700 30.77200
C  43.17700 9.87000 31.01100
C  45.79800 11.03300 28.66100
C  44.63200 11.33200 32.00500
O  45.59700 12.10600 32.24600
C  43.58800 10.87900 33.09500
C  44.29400 10.26200 34.21600
O  44.50500 9.03600 34.45200
O  44.57400 11.23000 35.15600
C  44.97200 10.72000 36.46900
H  38.18400 6.90300 32.84700
H  38.65100 6.28900 26.45200
H  44.16200 9.54600 26.77400
H  41.84900 8.81900 34.74900
H  38.99300 8.33200 34.55900
H  39.29800 6.44300 35.48000
H  41.01000 6.78900 35.50200
H  40.30300 5.82500 34.14000
H  39.82500 10.88500 33.80500
H  41.35200 11.15000 34.81300
H  39.85300 9.61700 36.47700
H  38.70700 10.81300 35.88000
H  35.57800 4.87400 30.92500
H  36.09600 6.08600 32.09700
H  37.08900 4.69300 31.79700
H  34.72600 6.01400 28.92900
H  35.30800 4.22700 28.75800
H  34.55600 5.01500 27.42100
H  40.37200 7.91700 24.94300
H  43.26600 7.36800 25.31200
H  41.09100 5.04900 25.40900
H  42.00300 5.80200 24.11500
H  40.19100 5.72300 24.06200
H  42.14900 8.88000 23.72800
H  43.69400 9.36400 24.53600
H  41.71100 10.65800 26.15800
H  41.13900 10.91400 24.58500
H  42.82100 11.39700 25.10100
H  45.47100 11.99000 28.25400
H  46.21200 10.43100 27.85200
H  46.55200 11.31000 29.39700
H  43.08500 11.81800 33.32300
H  44.56400 11.32500 37.27800
H  46.04500 10.60100 36.61800
H  44.73200 9.68000 36.69000
Mg 9.24200 49.05200 25.96400
C  7.18500 49.37100 28.83000
C  11.75000 50.40600 27.92900
C  11.21500 48.81900 23.31100
C  6.56000 48.00400 24.06500
N  9.43800 49.77700 28.08200
C  8.47900 49.74500 29.09800
C  9.07800 50.31500 30.43500
C  10.48100 50.84000 29.96700
C  10.55900 50.31900 28.56400
C  10.54500 52.35300 29.84300
C  9.07200 49.32200 31.63800
C  8.21800 49.81300 32.80200
H  8.68100 50.83900 33.92800
N  11.25000 49.51500 25.63400
C  12.11500 50.04500 26.56200
C  13.45400 49.99400 25.98600
C  13.35500 49.54600 24.65600
C  11.89300 49.32800 24.41100
C  14.70400 50.39600 26.69100
C  14.35500 49.34000 23.58000
O  14.11100 48.98400 22.38600
C  15.81500 49.46000 23.99900
N  8.87100 48.62400 23.97500
C  9.88500 48.59900 23.05800
C  9.46300 47.99200 21.69100
C  8.00700 47.45100 22.10400
C  7.75500 48.10800 23.45800
C  9.21900 49.05400 20.55500
C  7.95600 45.92600 21.93800
C  8.78600 45.19600 23.04800
N  7.25000 48.78800 26.33100
C  6.28700 48.36800 25.42100
C  5.06000 48.25000 26.17700
C  5.38400 48.59900 27.50600
C  6.72200 48.93900 27.56500
C  3.73300 47.77700 25.71900
C  4.78400 48.75200 28.86800
O  3.70500 48.54600 29.31500
C  5.93800 49.24600 29.71900
C  6.04300 48.30100 30.83900
O  6.67500 47.26100 30.88100
O  5.26500 48.71000 31.89700
C  4.97800 47.61700 32.85200
H  12.56100 50.75000 28.57500
H  11.88900 48.76600 22.45300
H  5.70900 47.57000 23.53600
H  8.37200 51.09700 30.71400
H  11.34800 50.39100 30.45100
H  10.12000 52.56200 28.86100
H  11.56900 52.72500 29.79400
H  10.02400 52.95200 30.58900
H  10.11700 49.35000 31.94300
H  8.83800 48.26100 31.54700
H  7.84300 48.95800 33.36400
H  7.37300 50.34400 32.36400
H  14.28900 50.93800 27.54000
H  15.34000 51.09200 26.14400
H  15.24700 49.49700 26.98300
H  16.05700 50.49200 24.25200
H  16.47900 49.08100 23.22100
H  15.89900 48.88700 24.92300
H  10.09200 47.14000 21.43500
H  7.35400 47.91800 21.36700
H  10.14600 49.60300 20.38600
H  8.49500 49.82800 20.81000
H  8.87800 48.57000 19.64000
H  8.35900 45.54500 20.99900
H  6.93600 45.60000 22.13900
H  9.09700 45.87600 23.84100
H  9.63100 44.71900 22.55200
H  8.25500 44.32900 23.44000
H  2.99700 48.54600 25.95500
H  3.49400 46.81400 26.17000
H  3.76700 47.72200 24.63100
H  5.59300 50.18900 30.14300
H  4.29300 47.95500 33.63000
H  5.86200 47.12400 33.25500
H  4.42500 46.87100 32.28100

