158

Mg -0.36000 7.54100 25.30300
C  0.93400 9.61400 27.77200
C  0.15800 4.84300 27.31400
C  -1.19600 5.46900 22.71000
C  0.16700 10.05800 22.94800
N  0.60700 7.24900 27.26600
C  0.81900 8.26500 28.16100
C  0.95100 7.68600 29.63200
C  0.95400 6.19200 29.38000
C  0.50000 6.07000 27.95300
C  2.26000 5.50300 29.63400
C  -0.09900 8.16100 30.58600
C  0.28100 8.26200 32.10300
H  1.37100 7.39600 32.56200
N  -0.64400 5.40600 25.10300
C  -0.35000 4.51100 26.00900
C  -0.68900 3.15500 25.54400
C  -1.18200 3.33800 24.17800
C  -0.96400 4.77900 23.91800
C  -0.65000 1.88800 26.37400
C  -1.64700 2.26200 23.23800
O  -1.97400 2.50200 22.06200
C  -1.90300 0.80200 23.64000
N  -0.31700 7.64700 23.00400
C  -0.82900 6.73600 22.24200
C  -1.12600 7.17800 20.80900
C  -0.76600 8.75500 20.93100
C  -0.29000 8.86600 22.39900
C  -0.35600 6.52900 19.69000
C  -1.93100 9.72600 20.50900
C  -3.04000 9.98100 21.50500
N  0.38400 9.47900 25.30000
C  0.46300 10.41700 24.28200
C  0.84700 11.69600 24.87800
C  1.05800 11.46100 26.26800
C  0.83000 10.06800 26.41000
C  1.03000 12.95900 24.15200
C  1.38400 12.05500 27.56400
O  1.66200 13.19600 27.94300
C  1.20500 10.82200 28.61000
C  2.32200 10.72000 29.62500
O  3.39600 10.19900 29.43200
O  1.99200 11.38600 30.80500
C  2.86000 11.24100 31.98200
H  0.17800 3.93400 27.92000
H  -1.64200 4.86700 21.91500
H  0.29800 10.84600 22.20300
H  1.95600 8.00200 29.90800
H  0.22400 5.59900 29.93100
H  3.03300 6.17200 30.01400
H  2.68400 4.93100 28.80900
H  2.11200 4.77200 30.42800
H  -0.90300 7.43600 30.46100
H  -0.38200 9.12000 30.15200
H  -0.64900 7.85300 32.49600
H  0.43900 9.25400 32.52600
H  0.23800 1.94200 27.00500
H  -0.57100 0.94700 25.83000
H  -1.45900 1.82200 27.10100
H  -0.97500 0.27500 23.86400
H  -2.37600 0.41600 22.73700
H  -2.64900 0.81700 24.43400
H  -2.16200 6.94300 20.56600
H  0.14600 9.05300 20.41400
H  -1.04200 6.37100 18.85700
H  0.15700 5.60400 19.95300
H  0.32000 7.29200 19.30300
H  -2.34200 9.34800 19.57200
H  -1.48700 10.69100 20.26200
H  -3.98800 9.60200 21.12200
H  -3.27500 11.02700 21.69900
H  -2.87600 9.43700 22.43500
H  1.48200 12.75500 23.18100
H  1.71100 13.62300 24.68300
H  0.10100 13.45500 23.87200
H  0.34000 11.10800 29.20800
H  3.66400 11.97600 31.95400
H  3.34100 10.26500 32.04400
H  2.37900 11.36700 32.95200
Mg 44.02700 4.31100 47.10500
C  42.17100 7.23000 46.93800
C  41.05000 2.45700 46.87500
C  45.84900 1.42400 47.18400
C  46.93600 6.15200 46.97400
N  41.90300 4.82200 46.79100
C  41.31800 6.11200 46.89800
C  39.79000 6.07000 46.78500
C  39.54400 4.53300 46.88200
C  40.92400 3.88200 46.93900
C  38.62100 4.02600 48.00600
C  38.95900 6.57200 45.58500
C  39.67800 6.33800 44.25900
H  39.88600 7.57900 43.42200
N  43.55300 2.20600 47.09000
C  42.23700 1.69000 47.02600
C  42.31200 0.24100 47.05000
C  43.68700 -0.09900 47.17600
C  44.47600 1.17000 47.13800
C  41.10600 -0.65900 46.99700
C  44.23100 -1.50300 47.45600
O  43.46400 -2.48400 47.55300
C  45.67600 -1.77800 47.47700
N  46.17400 3.82500 46.71200
C  46.65700 2.58700 47.04000
C  48.15100 2.63800 47.17000
C  48.52000 4.18400 47.16200
C  47.20000 4.79600 46.84600
C  48.69800 1.93200 48.39500
C  49.71500 4.63100 46.22700
C  51.02300 5.06100 46.95300
N  44.51300 6.20000 47.05600
C  45.70300 6.84300 47.05400
C  45.48300 8.25800 47.13100
C  44.12500 8.42100 47.19000
C  43.60100 7.19200 47.07500
C  46.56700 9.33800 47.09900
C  43.00500 9.46600 47.18100
O  43.01200 10.67800 47.33800
C  41.70600 8.63000 47.14700
C  41.06600 8.87800 48.46100
O  41.57400 8.67000 49.57500
O  39.80100 9.48200 48.33700
C  38.92200 9.56400 49.53200
H  40.18600 1.86900 46.56100
H  46.45100 0.62100 47.61400
H  47.86200 6.73000 46.99600
H  39.37400 6.52000 47.68700
H  39.06900 4.18000 45.96600
H  38.67800 4.80500 48.76700
H  39.00400 3.12000 48.47400
H  37.58000 3.91500 47.70100
H  38.97200 7.64200 45.79100
H  37.93100 6.20900 45.58300
H  39.03300 5.67300 43.68300
H  40.68000 5.91200 44.30700
H  41.01200 -1.07200 45.99300
H  40.18100 -0.13900 47.24800
H  41.21900 -1.42100 47.76800
H  46.15800 -1.37800 48.36900
H  46.09200 -1.41400 46.53700
H  46.01700 -2.81300 47.48200
H  48.52900 2.20900 46.24200
H  48.79700 4.38600 48.19700
H  49.03200 0.90900 48.22300
H  47.97500 1.92100 49.21100
H  49.58900 2.45800 48.73700
H  49.37100 5.42200 45.56000
H  50.09300 3.84700 45.57100
H  51.21300 6.10100 46.68700
H  51.91300 4.56300 46.56900
H  50.88900 4.91700 48.02500
H  47.19600 9.22100 46.21700
H  47.11900 9.21500 48.03100
H  46.04100 10.28000 46.94300
H  41.04400 9.03100 46.37900
H  39.20400 9.00000 50.42200
H  37.93900 9.24700 49.18200
H  38.79300 10.61900 49.77100

