158

Mg 52.88300 24.18100 45.45700
C  50.08800 26.33500 44.76600
C  51.14000 21.78200 43.88700
C  55.65600 22.53600 45.53400
C  54.52000 27.11200 46.58200
N  50.89300 24.22100 44.19700
C  49.97800 25.12900 44.04300
C  48.74400 24.51200 43.26800
C  48.89900 23.01100 43.52300
C  50.40700 22.98500 43.94800
C  48.12000 22.35000 44.60500
C  48.75400 24.93700 41.76200
C  47.30100 25.04200 41.16500
H  46.89700 23.87300 40.23400
N  53.34800 22.41000 44.76500
C  52.51500 21.50500 44.21200
C  53.22700 20.25900 44.09400
C  54.55900 20.51300 44.55400
C  54.58200 21.93700 44.98900
C  52.65900 19.04700 43.37100
C  55.72600 19.48200 44.52500
O  55.51600 18.33300 44.06500
C  57.15500 19.80900 44.87400
N  54.85200 24.79800 45.86400
C  55.78500 23.87600 45.98000
C  56.95300 24.39200 46.85400
C  56.73000 25.94900 46.73600
C  55.27400 25.94300 46.38500
C  57.04300 23.81700 48.31400
C  57.54300 26.63800 45.62300
C  58.49800 27.79300 45.98200
N  52.39200 26.28200 45.87400
C  53.16100 27.32700 46.37100
C  52.29400 28.50300 46.56500
C  51.09200 28.13300 45.94900
C  51.21700 26.76600 45.51600
C  52.74400 29.89900 47.13300
C  49.73500 28.57300 45.68200
O  49.20600 29.57900 46.08100
C  49.13700 27.58300 44.72300
C  49.04800 28.25800 43.44400
O  49.93600 28.49100 42.67800
O  47.66300 28.35100 43.25400
C  47.27100 28.84400 41.91900
H  50.55100 20.99100 43.41700
H  56.50300 21.90800 45.81800
H  55.14400 27.96000 46.87400
H  47.73400 24.77900 43.57800
H  48.70600 22.48100 42.59000
H  47.42500 23.05900 45.05600
H  48.81100 21.92100 45.33000
H  47.59700 21.47900 44.21000
H  49.28800 24.24800 41.10700
H  49.24600 25.90800 41.81100
H  47.38200 25.89200 40.48800
H  46.52000 25.17200 41.91400
H  52.96000 18.90200 42.33300
H  51.58900 19.25700 43.34500
H  52.77600 18.07000 43.84000
H  57.84200 19.07100 44.46100
H  57.06500 19.82500 45.96000
H  57.43000 20.75600 44.40900
H  57.88000 24.12000 46.34900
H  56.95400 26.31000 47.73900
H  56.43000 22.92100 48.42000
H  56.76800 24.61500 49.00400
H  58.10200 23.60900 48.46400
H  56.90300 27.06900 44.85300
H  58.00900 25.82600 45.06400
H  58.41900 27.92800 47.06000
H  58.31000 28.77100 45.53900
H  59.53700 27.50200 45.82800
H  52.06700 30.26000 47.90800
H  52.75400 30.59100 46.29000
H  53.75000 29.83100 47.54700
H  48.10600 27.28200 44.91100
H  47.07400 29.91400 41.99000
H  46.33600 28.35200 41.65000
H  48.00800 28.50200 41.19200
Mg 30.28100 60.15400 39.65500
C  27.33200 58.56600 38.42900
C  31.97400 57.31400 38.59100
C  33.22000 61.79700 40.01900
C  28.50300 63.06400 40.12600
N  29.69200 58.19700 38.48900
C  28.50300 57.78100 38.12900
C  28.61800 56.39100 37.41700
C  29.99700 55.85900 37.91000
C  30.63300 57.22400 38.30200
C  30.04700 54.79600 39.10000
C  28.45400 56.52400 35.89100
C  27.34400 55.71300 35.12900
H  26.53000 56.51300 34.08400
N  32.26800 59.61400 39.37400
C  32.75400 58.33300 38.98300
C  34.16200 58.31100 39.16400
C  34.62700 59.64500 39.44400
C  33.37600 60.44200 39.61900
C  34.99100 57.05900 38.86900
C  36.12800 60.03400 39.69100
O  36.97300 59.19900 39.56900
C  36.51200 61.38600 40.14900
N  30.83600 62.21700 39.77600
C  32.05900 62.59600 40.10600
C  32.01200 64.08200 40.34600
C  30.56700 64.42200 40.74700
C  29.88400 63.13600 40.19900
C  33.10700 64.54900 41.43800
C  30.10500 65.69900 40.04300
C  29.67700 66.83700 41.02500
N  28.31500 60.71100 39.60700
C  27.75700 61.94500 39.76500
C  26.34400 61.86100 39.55500
C  26.13100 60.49900 39.11800
C  27.37300 59.88200 39.06500
C  25.34800 62.85700 39.56200
C  25.16200 59.55700 38.57700
O  23.97600 59.67800 38.30900
C  25.84800 58.20600 38.29400
C  25.49000 57.19700 39.33600
O  25.84000 57.29600 40.51100
O  24.55000 56.38500 38.83100
C  23.76900 55.69400 39.79500
H  32.52100 56.43500 38.24400
H  34.12700 62.39900 40.09900
H  27.92800 63.97700 40.29800
H  27.86400 55.74200 37.86200
H  30.55600 55.33400 37.13500
H  29.04200 54.80600 39.52300
H  30.84500 55.09300 39.78000
H  30.27400 53.81300 38.68800
H  29.39300 56.17900 35.45800
H  28.32200 57.52000 35.46700
H  26.68400 55.31100 35.89800
H  27.85500 54.93700 34.55900
H  35.85300 56.84700 39.50100
H  35.39800 57.00000 37.85900
H  34.51800 56.10300 39.09700
H  37.59300 61.47900 40.25700
H  36.07200 61.40400 41.14600
H  36.17800 62.18200 39.48400
H  32.40100 64.55300 39.44300
H  30.38400 64.22800 41.80400
H  32.69700 65.25900 42.15700
H  33.90600 65.09400 40.93400
H  33.50800 63.77400 42.09000
H  29.34700 65.50900 39.28200
H  30.86500 66.24000 39.48000
H  30.06200 67.73700 40.54700
H  30.12700 66.65200 42.00100
H  28.61100 66.87200 41.24800
H  24.82200 62.81300 38.60800
H  25.78200 63.84800 39.69500
H  24.64000 62.80600 40.38900
H  25.49600 57.87000 37.31900
H  24.28500 54.85300 40.25600
H  22.96600 55.27500 39.18900
H  23.32700 56.43900 40.45700

