158

Mg -10.28100 40.36500 42.35900
C  -9.03700 37.05200 41.43500
C  -7.52900 41.64900 40.87300
C  -11.80600 43.19700 42.43000
C  -13.39500 38.62100 42.93400
N  -8.58200 39.33100 41.15300
C  -8.20500 38.04300 40.96700
C  -6.91000 37.83900 40.26900
C  -6.32700 39.39400 40.29100
C  -7.56900 40.23800 40.76300
C  -5.12600 39.68200 41.26400
C  -7.09100 37.23100 38.82500
C  -6.30600 35.98800 38.44100
H  -5.29500 36.29500 37.26700
N  -9.70500 42.24300 41.82700
C  -8.51700 42.55500 41.25400
C  -8.39600 43.95900 41.22000
C  -9.64600 44.51000 41.61700
C  -10.46400 43.33000 41.94200
C  -7.10500 44.66600 40.80100
C  -10.02200 45.95700 41.75100
O  -9.28200 46.86000 41.30500
C  -11.27200 46.36900 42.47200
N  -12.29400 40.85300 42.58700
C  -12.66400 42.12900 42.68600
C  -14.08000 42.29200 43.01300
C  -14.70700 40.78100 43.05500
C  -13.40000 40.01200 42.76100
C  -14.56700 43.13500 44.29100
C  -15.76100 40.55100 41.98400
C  -16.97000 39.64600 42.43200
N  -11.08100 38.32500 42.45600
C  -12.31000 37.82700 42.79900
C  -12.22600 36.38600 42.90700
C  -10.97900 36.03000 42.38000
C  -10.31500 37.28600 42.11200
C  -13.40300 35.44600 43.29800
C  -10.10800 34.92600 41.96100
O  -10.24600 33.73800 41.96500
C  -8.81800 35.56000 41.37100
C  -7.62000 35.11200 42.18500
O  -7.21300 35.62600 43.19400
O  -7.15900 33.96400 41.62200
C  -5.94200 33.41800 42.18700
H  -6.57700 42.06300 40.53400
H  -12.39800 44.08300 42.67000
H  -14.37300 38.23600 43.23100
H  -6.14000 37.32000 40.83900
H  -5.99400 39.77800 39.32600
H  -4.88400 38.78200 41.83000
H  -5.22400 40.57600 41.88100
H  -4.29500 39.92700 40.60300
H  -6.93500 38.00900 38.07700
H  -8.13100 36.94100 38.67600
H  -6.99200 35.17500 38.20700
H  -5.87400 35.66500 39.38800
H  -7.03600 44.40100 39.74600
H  -6.26100 44.29800 41.38600
H  -7.09600 45.75000 40.91600
H  -11.41300 45.84100 43.41600
H  -11.97000 46.04500 41.70100
H  -11.30900 47.45400 42.37000
H  -14.49600 42.81900 42.15500
H  -15.08900 40.50000 44.03600
H  -14.74300 42.42100 45.09400
H  -15.46600 43.73600 44.15500
H  -13.81400 43.80800 44.70300
H  -15.35700 40.03400 41.11400
H  -16.24700 41.49400 41.73200
H  -17.90200 40.21000 42.39900
H  -16.80700 39.22400 43.42300
H  -17.04200 38.77800 41.77600
H  -14.29600 35.87000 42.83800
H  -13.46900 35.55600 44.38100
H  -13.20300 34.40300 43.05300
H  -8.76700 35.21600 40.33800
H  -5.93900 32.37400 41.87500
H  -5.81000 33.44400 43.26900
H  -5.03600 33.89500 41.81400
Mg -0.06200 43.69500 26.93400
C  2.14900 43.29700 29.50400
C  -2.66900 42.90500 29.24600
C  -2.27500 43.27700 24.41000
C  2.46300 44.06500 24.65400
N  -0.15700 43.12100 29.08700
C  0.83200 43.07600 29.93700
C  0.34900 42.70700 31.36900
C  -1.13800 42.36800 31.14700
C  -1.38200 42.88400 29.77300
C  -1.47800 40.84300 31.16700
C  0.54400 43.96800 32.26300
C  1.01300 43.76300 33.74000
H  0.42700 42.68400 34.62100
N  -2.20800 43.34000 26.85900
C  -3.05000 43.11000 27.93900
C  -4.40100 42.90900 27.45100
C  -4.30300 42.86300 25.98800
C  -2.88900 43.13700 25.66700
C  -5.54800 42.47900 28.26700
C  -5.37400 42.56600 24.92100
O  -5.09900 42.35600 23.75000
C  -6.87600 42.27500 25.28400
N  0.06900 43.73600 24.76600
C  -0.95900 43.57900 24.02000
C  -0.48400 43.70100 22.48400
C  0.98700 44.30500 22.63100
C  1.23500 43.96400 24.08900
C  -0.60500 42.45900 21.58600
C  1.03500 45.92000 22.38300
C  1.70800 46.41200 21.11100
N  1.89800 43.74800 26.97600
C  2.85600 43.96200 26.00100
C  4.12300 44.01100 26.67300
C  3.94200 43.66200 27.99400
C  2.54700 43.53600 28.14000
C  5.44000 44.25200 26.01100
C  4.60200 43.34300 29.29700
O  5.76800 43.34900 29.64600
C  3.48300 43.09900 30.26800
C  3.64300 41.67000 30.82000
O  3.66700 40.60100 30.20300
O  3.71000 41.81600 32.19500
C  3.85700 40.55400 32.81100
H  -3.45400 42.76700 29.99300
H  -2.93000 43.28900 23.53600
H  3.21900 44.37400 23.92900
H  0.91800 41.84700 31.72300
H  -1.88500 42.74900 31.84400
H  -1.92700 40.61100 30.20200
H  -2.24500 40.60600 31.90500
H  -0.60900 40.22000 31.37900
H  -0.43000 44.43100 32.42200
H  1.21800 44.69100 31.80300
H  0.77400 44.75200 34.12900
H  2.09300 43.61400 33.75700
H  -6.46800 42.96000 27.93400
H  -5.48200 42.59800 29.34900
H  -5.64400 41.40000 28.14400
H  -7.42500 43.03800 25.83700
H  -6.81400 41.25100 25.65200
H  -7.34900 42.14200 24.31100
H  -1.13900 44.36800 21.92300
H  1.69300 43.76900 21.99700
H  0.23600 42.22700 20.93200
H  -1.43600 42.44600 20.88000
H  -0.66000 41.55100 22.18700
H  1.45000 46.35500 23.29200
H  0.00400 46.22300 22.20000
H  2.61200 45.88000 20.81500
H  1.93100 47.47200 21.23700
H  1.03900 46.27300 20.26200
H  5.37500 44.15700 24.92700
H  6.14400 43.46000 26.26600
H  5.90800 45.18900 26.31300
H  3.53400 43.86000 31.04600
H  3.10600 39.86400 32.42700
H  3.62300 40.53800 33.87600
H  4.81100 40.09000 32.56300

