158

Mg 54.29800 24.84900 45.38100
C  51.56200 26.94200 44.36000
C  52.70200 22.24300 43.63500
C  57.05600 23.20200 45.65400
C  55.79100 27.84700 46.75300
N  52.39700 24.76200 43.92200
C  51.39100 25.69600 43.80400
C  50.31000 25.09700 42.83000
C  50.52600 23.55000 43.00600
C  51.99700 23.45300 43.57400
C  49.48000 22.89600 43.95800
C  50.13100 25.58600 41.32600
C  51.44800 26.09700 40.65500
H  52.24700 25.09100 39.74700
N  54.80000 22.90400 44.78900
C  54.01900 22.02300 44.14200
C  54.88700 20.72800 43.89900
C  56.15300 21.03700 44.47500
C  56.02600 22.42500 45.03000
C  54.39800 19.51800 43.20400
C  57.32000 19.95000 44.37600
O  57.22100 18.98700 43.57900
C  58.63600 20.12200 45.09800
N  56.14400 25.49700 45.94000
C  57.12200 24.54500 46.04000
C  58.32000 25.12400 46.91400
C  58.03800 26.59800 47.03900
C  56.55000 26.66800 46.60800
C  58.48600 24.44400 48.29300
C  58.86400 27.58400 46.12500
C  58.26400 28.10600 44.75600
N  53.76500 26.89800 45.69700
C  54.40300 27.98800 46.30200
C  53.53700 29.16200 46.31600
C  52.46600 28.79700 45.51800
C  52.61700 27.42900 45.15800
C  53.73900 30.44600 46.99900
C  51.26600 29.30400 44.96100
O  50.80200 30.40100 44.99400
C  50.68000 28.14400 44.08700
C  50.65800 28.57700 42.65900
O  51.65100 28.93000 42.06800
O  49.40400 28.72400 42.16700
C  49.25900 29.19300 40.74500
H  52.28000 21.35200 43.16600
H  57.97600 22.69100 45.94900
H  56.22800 28.74200 47.20000
H  49.33700 25.33600 43.26100
H  50.65200 22.99300 42.07800
H  48.74800 23.52500 44.46500
H  50.00900 22.30100 44.70100
H  49.03100 22.07400 43.40000
H  49.27300 26.24500 41.19200
H  49.78700 24.67700 40.83300
H  52.23300 26.24300 41.39800
H  51.38500 27.11200 40.26400
H  55.00800 19.45400 42.30300
H  53.35200 19.52900 42.89800
H  54.45200 18.57100 43.74200
H  59.28500 19.31000 44.76900
H  58.52700 20.12300 46.18200
H  59.03200 21.08100 44.76500
H  59.25600 24.94500 46.38600
H  58.13600 26.90500 48.08000
H  59.56200 24.26900 48.26100
H  58.09900 23.42700 48.35000
H  58.16000 25.05600 49.13400
H  59.83100 27.12200 45.92800
H  59.07100 28.44600 46.76000
H  57.60800 27.38300 44.27100
H  59.13200 28.29800 44.12500
H  57.78600 29.05800 44.98900
H  53.57200 31.25900 46.29300
H  54.65800 30.69500 47.52900
H  52.92800 30.53100 47.72200
H  49.66000 27.93900 44.41000
H  50.08700 29.87000 40.53600
H  48.30200 29.71500 40.74800
H  49.06900 28.35100 40.07900
Mg 1.56800 41.98500 25.33500
C  3.70400 42.17900 28.19400
C  -0.98200 41.01000 27.34600
C  -0.24400 41.27500 22.56200
C  4.42900 42.21500 23.37800
N  1.42300 41.61600 27.46800
C  2.27900 41.97300 28.41500
C  1.59000 41.87700 29.83000
C  0.12900 41.46900 29.52400
C  0.17100 41.32800 28.03800
C  -0.37200 40.17700 30.19600
C  1.74500 43.25700 30.52900
C  1.75500 43.23500 32.01600
H  1.64800 41.98100 32.91900
N  -0.42800 41.34100 25.04200
C  -1.30300 40.86000 25.95600
C  -2.58400 40.41500 25.34700
C  -2.41700 40.63000 23.90200
C  -0.95800 41.05700 23.75300
C  -3.68600 39.78900 26.16800
C  -3.26600 40.39400 22.70500
O  -2.92800 40.50300 21.55000
C  -4.65700 39.99100 22.90300
N  1.93500 41.87200 23.27200
C  1.07500 41.61500 22.30400
C  1.73200 41.51300 20.94600
C  3.12600 42.19200 21.19300
C  3.20900 42.12500 22.74900
C  1.77700 40.12700 20.30300
C  3.29300 43.62400 20.47500
C  2.96400 44.84600 21.38500
N  3.63900 42.35700 25.67200
C  4.65400 42.39900 24.74400
C  5.91700 42.66200 25.45000
C  5.57300 42.54300 26.87000
C  4.21800 42.33000 26.91200
C  7.20400 42.92100 24.83600
C  6.15100 42.45900 28.15900
O  7.32800 42.45200 28.43900
C  4.93300 42.30500 29.09700
C  5.17500 41.14900 29.99100
O  4.86500 39.97500 29.77600
O  5.64200 41.56400 31.20800
C  5.74500 40.61000 32.25400
H  -1.81800 40.69100 27.97100
H  -0.79000 41.08400 21.63500
H  5.27000 42.31600 22.68900
H  2.04300 41.01900 30.32700
H  -0.56600 42.25600 29.81500
H  -1.31200 40.49200 30.65100
H  0.26900 39.61500 30.87600
H  -0.63100 39.51000 29.37400
H  0.86900 43.69400 30.04900
H  2.49500 43.92000 30.09700
H  0.97100 43.92200 32.33300
H  2.69100 43.75200 32.22800
H  -4.66200 40.05700 25.76400
H  -3.59800 40.10800 27.20700
H  -3.56200 38.70600 26.14600
H  -4.57400 39.17700 23.62300
H  -5.10700 39.71500 21.95000
H  -5.24600 40.78000 23.37100
H  1.10900 42.03700 20.22200
H  3.82500 41.44300 20.82100
H  1.49100 39.47500 21.12800
H  2.73500 39.96400 19.80900
H  1.02500 40.09700 19.51400
H  2.80900 43.63300 19.49800
H  4.36700 43.59000 20.29700
H  2.52200 44.59400 22.34900
H  2.34200 45.55500 20.83800
H  3.81800 45.51000 21.52300
H  7.58800 43.93900 24.90300
H  7.12900 42.53900 23.81800
H  7.83400 42.13400 25.25100
H  4.90900 43.14900 29.78600
H  4.77600 40.13900 32.42000
H  5.93200 41.05300 33.23200
H  6.43200 39.79100 32.03800

