158

Mg 52.64600 24.22700 44.44000
C  49.77900 26.19300 43.90900
C  50.91200 21.46200 43.54800
C  55.47000 22.40400 44.54200
C  54.47200 27.15900 45.04000
N  50.57300 23.89600 43.73300
C  49.55600 24.81300 43.68700
C  48.29900 24.04200 43.46300
C  48.62600 22.55400 43.47700
C  50.14900 22.66400 43.53900
C  48.01500 21.68400 44.70200
C  47.48000 24.40900 42.16400
C  48.25900 24.32700 40.81300
H  47.60000 23.46300 39.70200
N  53.17200 22.19800 43.96500
C  52.29600 21.21200 43.76000
C  52.94300 19.95300 43.68000
C  54.36000 20.18300 43.93200
C  54.41800 21.65100 44.16300
C  52.32000 18.60700 43.36100
C  55.49400 19.16300 44.00700
O  55.20500 17.99000 43.81800
C  56.92800 19.47100 44.50500
N  54.72200 24.76500 44.48800
C  55.63200 23.74900 44.80400
C  56.99700 24.35800 45.12100
C  56.68200 25.93700 45.13200
C  55.17000 25.96700 44.82300
C  57.57900 23.73300 46.48700
C  57.51800 26.81000 44.11700
C  58.69400 27.64700 44.71300
N  52.26600 26.25800 44.56000
C  53.06500 27.33800 44.88700
C  52.24900 28.50800 45.09800
C  50.95100 28.12700 44.64900
C  51.00800 26.75900 44.31500
C  52.69400 29.92100 45.59100
C  49.57000 28.48000 44.51500
O  48.96400 29.55500 44.71800
C  48.77200 27.34800 43.88500
C  48.33000 27.83500 42.60100
O  48.95400 27.63300 41.51800
O  47.15600 28.51200 42.71400
C  46.61100 28.95600 41.43100
H  50.33600 20.57500 43.27800
H  56.35800 21.84600 44.84700
H  55.06700 28.04700 45.26400
H  47.71700 24.19400 44.37200
H  48.19900 22.06100 42.60300
H  47.92800 22.30100 45.59700
H  48.78000 20.92800 44.88100
H  47.07700 21.20100 44.43100
H  47.12100 25.43800 42.16700
H  46.62800 23.73200 42.23100
H  49.26000 23.91600 40.93800
H  48.34500 25.35500 40.46000
H  52.49700 18.24400 42.34800
H  51.24700 18.56200 43.54700
H  52.65600 17.73000 43.91400
H  57.52500 18.56200 44.43900
H  56.88100 19.67100 45.57500
H  57.45000 20.31500 44.05400
H  57.67400 24.09400 44.30800
H  56.87800 26.30800 46.13800
H  58.50100 23.19000 46.27800
H  56.83300 23.09700 46.96300
H  57.79100 24.58600 47.13100
H  56.87700 27.36900 43.43600
H  57.97800 26.03100 43.50800
H  59.59100 27.26200 44.22900
H  58.67900 27.57100 45.80000
H  58.70800 28.72200 44.53300
H  52.26000 30.57800 44.83700
H  53.76500 30.08800 45.47600
H  52.44800 30.07300 46.64200
H  47.96600 27.24100 44.61100
H  46.90100 30.00200 41.33200
H  45.53200 28.93700 41.58600
H  46.71400 28.27500 40.58700
Mg 9.20400 48.44300 25.27500
C  7.07100 48.20800 28.00900
C  11.68300 49.27800 27.43000
C  11.23800 48.36200 22.68200
C  6.49300 47.96800 23.11900
N  9.29100 48.60300 27.57800
C  8.30000 48.56000 28.43900
C  8.75300 48.89000 29.85100
C  10.17700 49.63000 29.53800
C  10.44700 49.07100 28.09700
C  10.20600 51.14900 29.69100
C  8.76900 47.65200 30.77000
C  9.68400 47.61800 32.01800
H  9.08200 47.61800 33.47700
N  11.25100 48.75200 25.06700
C  12.11300 49.15200 26.06300
C  13.46600 49.27200 25.44500
C  13.31000 48.92700 24.04800
C  11.86900 48.72000 23.87100
C  14.67800 49.42300 26.29400
C  14.34300 48.66900 23.01400
O  14.23300 48.36600 21.83600
C  15.75400 48.63900 23.50900
N  8.84200 48.22900 23.12700
C  9.82100 48.12600 22.27400
C  9.52600 47.56800 20.85600
C  7.94700 47.52500 21.02600
C  7.71700 47.88800 22.51100
C  9.90700 48.41500 19.63500
C  7.25400 46.18800 20.66000
C  5.77200 46.17500 20.27200
N  7.25900 48.19700 25.44500
C  6.25000 48.02600 24.49000
C  5.01400 47.88800 25.19600
C  5.29800 47.88600 26.54300
C  6.67900 48.07400 26.65800
C  3.60600 47.71600 24.48500
C  4.63500 47.89700 27.85300
O  3.45600 47.79300 28.22400
C  5.80200 48.03900 28.87700
C  5.75000 46.76000 29.64600
O  6.35400 45.77000 29.24700
O  5.07000 46.89600 30.83200
C  5.25200 45.67900 31.71000
H  12.42800 49.77800 28.05200
H  11.93400 48.39700 21.84100
H  5.63300 47.76400 22.47700
H  8.02100 49.63400 30.16400
H  11.05200 49.17200 29.99900
H  9.22600 51.60800 29.82000
H  10.70600 51.58700 28.82800
H  10.75300 51.47900 30.57400
H  9.00600 46.77800 30.16400
H  7.76700 47.62800 31.20000
H  10.35300 48.47600 31.95500
H  10.21800 46.67200 31.92200
H  14.48500 49.40900 27.36600
H  15.17700 50.34300 25.99000
H  15.34700 48.58700 26.09300
H  16.02100 47.82600 24.18400
H  15.82400 49.62200 23.97500
H  16.44500 48.60000 22.66700
H  9.91900 46.56500 20.68900
H  7.52900 48.30100 20.38600
H  10.02300 49.42700 20.02200
H  9.12600 48.55600 18.88700
H  10.86200 48.05400 19.25300
H  7.26700 45.66100 21.61400
H  7.80900 45.78600 19.81200
H  5.13300 45.50000 20.84100
H  5.62700 46.06200 19.19800
H  5.29800 47.12900 20.50100
H  3.59400 47.03000 23.63800
H  3.56500 48.76800 24.20400
H  2.79200 47.36400 25.11800
H  5.61800 48.99400 29.36900
H  4.95900 45.94600 32.72500
H  6.28600 45.35600 31.83000
H  4.58800 44.85500 31.44700

