158

Mg 47.83700 34.80100 27.61900
C  46.16600 32.89800 30.06100
C  47.94600 37.46000 29.90400
C  49.16000 36.77000 25.25700
C  46.84500 32.46300 25.27300
N  47.24800 35.07200 29.69300
C  46.60400 34.10900 30.47200
C  46.68700 34.58300 31.96000
C  46.78100 36.15300 31.79600
C  47.38800 36.25500 30.41000
C  45.45500 37.02400 31.89200
C  48.09400 34.02400 32.48700
C  48.24100 33.44500 33.91600
H  47.40100 34.03300 35.14300
N  48.56500 36.82500 27.62500
C  48.62900 37.66800 28.67500
C  49.39500 38.82300 28.36000
C  49.77900 38.67600 27.01700
C  49.15800 37.40800 26.54100
C  49.58200 39.93500 29.26800
C  50.50300 39.61300 26.14300
O  50.75700 39.35500 24.97500
C  50.88100 40.98000 26.68900
N  48.00300 34.66100 25.55100
C  48.55000 35.60700 24.73400
C  48.42400 35.22300 23.21700
C  47.70900 33.82400 23.33600
C  47.56600 33.61100 24.78700
C  47.67100 36.22000 22.31400
C  48.34100 32.69800 22.47600
C  47.59200 32.23800 21.22000
N  46.91200 32.98600 27.64500
C  46.57500 32.14000 26.59500
C  45.90700 30.94400 27.10800
C  45.76500 31.27800 28.50700
C  46.27000 32.48800 28.72700
C  45.45700 29.76500 26.32700
C  45.13300 30.80800 29.66500
O  44.44700 29.80600 29.86400
C  45.46200 31.82600 30.76400
C  46.25800 31.15700 31.88500
O  47.40600 30.83300 31.86700
O  45.27000 30.70300 32.81100
C  45.76600 29.93200 33.97800
H  48.05400 38.28000 30.61600
H  49.52300 37.40400 24.44500
H  46.70000 31.66200 24.54400
H  45.80000 34.19800 32.46400
H  47.54400 36.49300 32.49700
H  44.58600 36.36800 31.83500
H  45.47400 37.71800 31.05200
H  45.35200 37.58100 32.82300
H  48.77800 34.87200 32.47600
H  48.46400 33.24900 31.81500
H  49.31300 33.44700 34.11500
H  47.95300 32.41200 34.10800
H  49.40700 39.68700 30.31500
H  49.07500 40.83500 28.91900
H  50.62400 40.25200 29.22700
H  51.80500 41.04100 27.26400
H  50.04200 41.50400 27.14800
H  50.89600 41.69400 25.86500
H  49.39300 34.98300 22.77900
H  46.65600 33.87700 23.05900
H  46.92700 35.77200 21.65500
H  48.36600 36.92300 21.85400
H  47.16200 36.91400 22.98300
H  48.56300 31.88100 23.16300
H  49.16400 33.19400 21.96200
H  47.87000 32.77200 20.31200
H  46.51100 32.29200 21.34800
H  47.80600 31.18400 21.04400
H  44.45800 30.08700 26.03200
H  45.50600 28.95200 27.05100
H  46.18300 29.56400 25.53900
H  44.61500 32.30900 31.25200
H  46.32900 30.59600 34.63400
H  46.37300 29.13000 33.55900
H  44.88600 29.55700 34.50100
Mg -9.50800 39.94900 41.81700
C  -8.58800 36.72800 40.94200
C  -6.48400 41.04100 40.52700
C  -10.57100 43.02500 42.21100
C  -12.65500 38.73100 42.71000
N  -7.77100 39.00500 40.94700
C  -7.65600 37.71700 40.58500
C  -6.32200 37.39700 39.93100
C  -5.57500 38.72700 40.15500
C  -6.66900 39.64400 40.59300
C  -4.33800 38.68300 41.14200
C  -6.32200 36.83700 38.46000
C  -5.16400 35.98300 38.02800
H  -4.29200 36.48600 36.85100
N  -8.66000 41.75900 41.42300
C  -7.41600 42.03900 40.97600
C  -7.18200 43.44300 40.80100
C  -8.30400 44.08200 41.39800
C  -9.25000 42.94100 41.72900
C  -5.93700 44.11400 40.24100
C  -8.49900 45.58800 41.64600
O  -7.56200 46.37900 41.43900
C  -9.91400 46.16300 41.85800
N  -11.42500 40.76800 42.24500
C  -11.58200 42.09800 42.47900
C  -13.06400 42.44800 42.91500
C  -13.67900 41.00000 43.10200
C  -12.54700 40.09600 42.59900
C  -13.07300 43.50400 44.07000
C  -15.01800 40.73200 42.28900
C  -16.24700 40.29800 43.14100
N  -10.42700 38.14100 41.97000
C  -11.68900 37.82100 42.33200
C  -11.76800 36.33200 42.43900
C  -10.58700 35.90400 41.93200
C  -9.82300 37.08400 41.56700
C  -12.96900 35.51400 42.71600
C  -9.75200 34.70800 41.54600
O  -9.99200 33.50700 41.73900
C  -8.38800 35.22400 40.94500
C  -7.27600 34.78100 41.84400
O  -7.07900 35.13500 42.99600
O  -6.48700 33.87400 41.19400
C  -5.38400 33.48000 42.07800
H  -5.49600 41.42500 40.26700
H  -10.92700 44.02600 42.46400
H  -13.67100 38.41500 42.95500
H  -5.94000 36.62300 40.59700
H  -5.04400 39.08100 39.27200
H  -4.16500 37.64000 41.40600
H  -4.45700 39.22100 42.08300
H  -3.44000 39.01100 40.61800
H  -6.39500 37.63900 37.72600
H  -7.29000 36.34400 38.37500
H  -5.55200 34.98000 37.84600
H  -4.41400 35.89600 38.81400
H  -5.36600 43.37900 39.67400
H  -5.32200 44.46100 41.07100
H  -6.19200 44.93500 39.57200
H  -10.54000 45.81200 41.03800
H  -9.83300 47.24900 41.79700
H  -10.30000 45.90400 42.84400
H  -13.62500 42.92000 42.10800
H  -13.89200 40.85800 44.16200
H  -12.14500 44.06300 44.18900
H  -13.41600 43.03900 44.99400
H  -13.80700 44.28400 43.86700
H  -14.94600 39.92600 41.55900
H  -15.14500 41.63100 41.68600
H  -17.19400 40.27300 42.60200
H  -16.33600 41.03300 43.94100
H  -16.04500 39.28400 43.48600
H  -13.58900 35.81700 43.55900
H  -12.80400 34.46300 42.95300
H  -13.68700 35.49100 41.89600
H  -8.24200 34.81900 39.94400
H  -4.88900 34.32600 42.55500
H  -4.70500 32.94900 41.41200
H  -5.71200 32.76300 42.83100

