158

Mg 47.40100 35.75300 26.09700
C  45.53400 33.98400 28.65300
C  47.48300 38.32800 28.27500
C  49.08100 37.26000 23.79300
C  46.43800 33.15900 23.84900
N  46.55200 36.06100 28.26100
C  46.03100 35.15900 29.12400
C  46.02000 35.65800 30.54400
C  46.11400 37.21600 30.26100
C  46.82900 37.25600 28.88600
C  44.76900 37.97100 30.21400
C  47.23400 35.16800 31.36600
C  46.94400 34.78700 32.84800
H  45.77100 35.44400 33.63800
N  48.22000 37.51300 26.09100
C  48.11400 38.51800 27.03700
C  48.87500 39.71100 26.55000
C  49.31700 39.42300 25.16600
C  48.89500 38.02200 24.97600
C  48.78200 40.99600 27.21900
C  49.96800 40.24600 24.22700
O  50.38600 39.86100 23.15900
C  50.21400 41.72600 24.52700
N  47.78700 35.17300 24.19200
C  48.53200 36.04900 23.45200
C  48.81900 35.40100 22.07300
C  47.93200 34.10200 22.04400
C  47.31600 34.12700 23.38600
C  48.40500 36.39600 20.84800
C  48.78400 32.81600 21.83500
C  48.19200 31.56600 21.13000
N  46.17100 33.92400 26.13900
C  45.96500 32.93700 25.19200
C  45.27200 31.80100 25.81900
C  45.06500 32.20300 27.13200
C  45.63200 33.47700 27.30100
C  44.99100 30.48800 25.18500
C  44.40700 31.76700 28.33900
O  43.73800 30.73700 28.60300
C  44.62000 32.96900 29.43700
C  45.29600 32.30400 30.58600
O  46.49500 32.11900 30.66400
O  44.36700 31.83800 31.54200
C  44.78600 31.14600 32.69600
H  47.24100 39.16600 28.93200
H  49.68700 37.60600 22.95300
H  46.34100 32.39600 23.07300
H  45.08800 35.47400 31.07900
H  46.70100 37.57300 31.10800
H  43.99500 37.26100 30.50700
H  44.45000 38.35600 29.24500
H  44.90000 38.85100 30.84300
H  48.02600 35.91400 31.29700
H  47.60100 34.23000 30.94800
H  47.83200 35.06000 33.41900
H  46.81300 33.70600 32.89300
H  49.77100 41.43800 27.34100
H  48.37400 40.90500 28.22600
H  48.13200 41.71800 26.72500
H  49.42800 42.24000 25.07900
H  50.45800 42.13200 23.54500
H  51.11400 41.61100 25.13100
H  49.88000 35.15400 22.04200
H  47.18900 34.28600 21.26800
H  47.57800 37.04500 21.13900
H  48.17100 35.80300 19.96400
H  49.16600 37.13700 20.60400
H  49.09000 32.54200 22.84500
H  49.73700 33.02900 21.35000
H  48.74500 31.24200 20.24900
H  47.19400 31.76000 20.73700
H  48.15300 30.73700 21.83700
H  44.02400 30.55000 24.68600
H  45.07500 29.69000 25.92400
H  45.77200 30.32000 24.44400
H  43.65000 33.38600 29.71000
H  44.06300 31.50900 33.42700
H  45.80900 31.31900 33.02800
H  44.48800 30.11600 32.49900
Mg -10.03100 40.24200 39.30700
C  -8.79300 37.04000 38.34300
C  -6.93800 41.60100 38.34700
C  -11.52400 43.25500 38.87500
C  -13.31000 38.73300 39.49800
N  -8.19500 39.44200 38.47400
C  -7.92400 38.09800 38.14900
C  -6.53900 37.95000 37.36100
C  -5.83900 39.20100 38.05100
C  -7.07300 40.18300 38.31400
C  -4.92400 38.88600 39.25000
C  -6.75400 37.98000 35.83900
C  -6.15500 36.89800 34.90400
H  -7.15300 36.17000 33.91500
N  -9.34500 42.21300 38.84500
C  -8.02500 42.49800 38.53700
C  -7.96900 43.96200 38.40300
C  -9.25500 44.48100 38.54900
C  -10.11100 43.32100 38.72500
C  -6.64500 44.77500 38.05300
C  -9.57400 45.92400 38.44900
O  -8.71700 46.81000 38.27600
C  -10.97500 46.37400 38.89500
N  -12.21100 40.88700 39.46300
C  -12.44300 42.19500 39.13900
C  -13.95700 42.45000 39.10400
C  -14.49000 40.98800 39.22100
C  -13.33700 40.06900 39.53900
C  -14.56900 43.51300 40.07000
C  -15.31100 40.41000 38.01000
C  -16.78900 39.97800 38.40200
N  -10.93300 38.27000 39.23500
C  -12.20200 37.83300 39.40300
C  -12.18500 36.39700 39.36900
C  -10.91100 36.00300 38.93800
C  -10.19300 37.22500 38.78400
C  -13.34900 35.56400 39.71600
C  -10.01000 34.89900 38.56400
O  -10.23100 33.70100 38.64200
C  -8.69900 35.59400 38.11200
C  -7.55700 34.97300 38.84300
O  -7.01000 35.41100 39.82700
O  -7.16800 33.78300 38.28400
C  -6.01700 33.03200 38.87200
H  -5.93500 42.00400 38.18800
H  -12.09400 44.12700 38.54800
H  -14.23900 38.17300 39.36800
H  -6.06700 37.00600 37.63200
H  -5.17500 39.55100 37.26100
H  -5.17000 37.98000 39.80300
H  -4.97000 39.83400 39.78500
H  -3.92200 38.70800 38.85900
H  -6.21300 38.89300 35.59000
H  -7.79500 38.03600 35.52300
H  -5.79500 36.12400 35.58200
H  -5.38000 37.44500 34.36800
H  -6.49900 45.45700 38.89000
H  -6.86500 45.27200 37.10800
H  -5.75100 44.15200 38.06600
H  -10.94400 47.43300 39.15400
H  -11.16400 45.80100 39.80200
H  -11.65600 45.97000 38.14500
H  -14.25900 42.83200 38.12900
H  -15.14800 40.93200 40.08800
H  -14.93100 42.95400 40.93300
H  -15.34300 44.14200 39.63000
H  -13.79300 44.17200 40.46000
H  -14.73100 39.66800 37.46000
H  -15.34200 41.25500 37.32300
H  -16.81700 40.00400 39.49100
H  -16.88100 38.96800 38.00200
H  -17.49700 40.72900 38.05200
H  -13.95500 36.26100 40.29500
H  -13.12000 34.72000 40.36700
H  -13.72600 35.16600 38.77500
H  -8.54100 35.46300 37.04100
H  -5.10900 33.56100 38.58500
H  -6.09800 32.04400 38.41900
H  -6.08600 32.87600 39.94900

