158

Mg 41.32100 40.88500 26.89800
C  40.86400 43.42400 29.25900
C  42.21300 38.77700 29.53100
C  41.86200 38.39400 24.68500
C  41.20100 43.22100 24.34800
N  41.47200 41.08700 29.14600
C  41.12200 42.17200 29.88200
C  41.11700 41.91500 31.36600
C  41.61300 40.38600 31.39000
C  41.78400 40.03100 29.92900
C  42.84400 40.14000 32.29500
C  39.71800 42.12900 31.96000
C  39.50400 41.83400 33.50500
H  39.22700 42.98500 34.44000
N  41.89600 38.84900 27.06300
C  42.20900 38.21600 28.23800
C  42.48600 36.82300 27.90800
C  42.29800 36.66200 26.47400
C  41.97600 37.96700 25.99900
C  43.07900 35.86900 28.91800
C  42.65400 35.36800 25.62700
O  42.53900 35.37500 24.40900
C  42.98200 34.11600 26.23700
N  41.56300 40.87200 24.82800
C  41.75700 39.67500 24.14700
C  41.71200 39.92700 22.60700
C  41.34600 41.44000 22.55300
C  41.39500 41.85300 23.97800
C  43.06400 39.59700 21.83800
C  39.99800 41.66700 21.89800
C  38.79100 41.07300 22.61200
N  41.07600 42.90700 26.72200
C  41.09000 43.79100 25.60900
C  40.92300 45.18000 26.04300
C  40.75500 45.06900 27.43700
C  40.93400 43.68000 27.82100
C  40.68000 46.29100 25.10100
C  40.29200 45.73100 28.64300
O  39.91000 46.91300 28.78900
C  40.39600 44.69800 29.84100
C  41.38800 45.33100 30.84500
O  42.60600 45.49800 30.75300
O  40.62100 45.89000 31.91000
C  41.47000 46.48200 32.97900
H  42.47200 38.14500 30.38300
H  41.92800 37.67400 23.86700
H  41.07200 44.02200 23.61700
H  41.84800 42.48200 31.94200
H  40.96500 39.59800 31.77300
H  43.02700 41.10100 32.77400
H  43.70700 39.86800 31.68800
H  42.88000 39.34600 33.04000
H  39.17000 41.54100 31.22400
H  39.38400 43.16300 31.87400
H  40.48100 41.44900 33.79700
H  38.86100 40.96300 33.63200
H  42.99500 36.15600 29.96600
H  44.11200 35.60400 28.69400
H  42.50800 34.95200 28.76900
H  43.89700 34.26700 26.80900
H  43.27800 33.55500 25.35000
H  42.17600 33.75700 26.87800
H  40.93500 39.24000 22.27000
H  42.12800 42.02100 22.06300
H  42.92400 38.98800 20.94500
H  43.68600 38.94100 22.44700
H  43.60800 40.49300 21.54000
H  40.13300 41.17800 20.93300
H  39.78400 42.70600 21.64800
H  39.11700 40.43100 23.43100
H  38.27200 40.58300 21.78900
H  38.19900 41.93100 22.93200
H  41.06300 46.10400 24.09800
H  40.98100 47.25500 25.50900
H  39.59700 46.24800 24.98700
H  39.41000 44.58100 30.29100
H  41.71600 45.63800 33.62400
H  40.70100 47.05500 33.49700
H  42.23500 47.19100 32.66100
Mg 9.20300 47.33600 27.13300
C  7.09500 46.82800 29.92000
C  11.80600 47.95000 29.08600
C  10.92100 48.22300 24.31000
C  6.27100 47.15000 25.15300
N  9.41300 47.35600 29.24900
C  8.45300 47.07800 30.25800
C  9.09600 47.27200 31.64000
C  10.62200 47.52300 31.30100
C  10.65000 47.72700 29.78200
C  11.25100 48.62800 32.07600
C  8.77400 46.16200 32.65800
C  9.84100 45.70400 33.62800
H  9.34100 45.01800 34.95200
N  11.15700 47.76700 26.75500
C  12.10300 48.02400 27.69400
C  13.47000 48.11700 27.10500
C  13.13900 48.16700 25.69100
C  11.67700 48.02600 25.47800
C  14.77900 48.10200 27.90800
C  14.13400 48.17500 24.53800
O  13.79900 47.81500 23.43500
C  15.63400 48.40700 24.87800
N  8.62000 47.89100 25.01200
C  9.51000 48.17600 24.09600
C  8.83300 48.47300 22.75200
C  7.34100 47.85000 22.94900
C  7.36700 47.65900 24.47700
C  8.82900 50.01800 22.51400
C  7.11200 46.52100 22.14900
C  6.37900 46.61900 20.77000
N  7.07500 47.17200 27.43000
C  6.09400 47.00800 26.51400
C  4.84600 46.64900 27.15500
C  5.17400 46.62300 28.49900
C  6.51200 46.95000 28.61200
C  3.45400 46.36700 26.49700
C  4.64200 46.43300 29.78100
O  3.49000 46.18400 30.26500
C  5.86400 46.49500 30.77100
C  5.96300 45.13400 31.31300
O  6.60800 44.17600 30.90000
O  5.28700 45.11200 32.53400
C  5.11700 43.80300 33.14500
H  12.66200 48.19000 29.72000
H  11.44700 48.53300 23.40500
H  5.47800 47.02300 24.41300
H  8.78400 48.21200 32.09600
H  11.16300 46.58500 31.42400
H  12.24700 48.29500 32.36800
H  10.68900 49.05800 32.90500
H  11.36200 49.48100 31.40600
H  8.60500 45.36300 31.93600
H  7.84800 46.28400 33.21900
H  10.39600 46.61400 33.85400
H  10.51200 45.01500 33.11700
H  15.64100 47.66000 27.40900
H  14.62600 47.85900 28.96000
H  15.00900 49.16600 27.96800
H  15.65800 49.12000 25.70300
H  16.20300 48.72800 24.00600
H  16.17500 47.53600 25.24700
H  9.40400 48.01000 21.94800
H  6.52500 48.53000 22.70600
H  7.84100 50.46600 22.61900
H  9.13600 50.18700 21.48200
H  9.54200 50.46300 23.20700
H  6.56700 45.81200 22.77300
H  8.10800 46.09100 22.04500
H  7.05300 46.11400 20.07800
H  6.24700 47.61800 20.35500
H  5.40900 46.12800 20.68600
H  3.02700 45.56300 27.09600
H  3.50000 46.15500 25.42900
H  2.78700 47.22400 26.59300
H  5.66500 47.28500 31.49500
H  4.96300 44.03600 34.19900
H  5.98900 43.15300 33.08100
H  4.25100 43.16900 32.95500

