158

Mg -9.56600 40.35700 42.46000
C  -8.29300 37.17900 41.48900
C  -6.79900 41.71700 41.01600
C  -11.03000 43.37900 42.73400
C  -12.59600 38.72500 43.39800
N  -7.77700 39.49900 41.24600
C  -7.47700 38.21100 41.01400
C  -5.98500 38.05100 40.54700
C  -5.47000 39.55000 40.42100
C  -6.69900 40.26400 40.83800
C  -4.23400 39.98200 41.25900
C  -5.53700 37.08400 39.33200
C  -4.03200 36.90500 39.15500
H  -3.48900 37.67800 37.99500
N  -8.94700 42.36600 42.07100
C  -7.80600 42.63900 41.46000
C  -7.66300 44.07500 41.47200
C  -8.84700 44.67000 42.02500
C  -9.73900 43.50300 42.29300
C  -6.39500 44.77200 40.93300
C  -9.10100 46.17200 42.19500
O  -8.25400 46.96700 41.87200
C  -10.38000 46.64900 42.80000
N  -11.53900 40.95100 43.00700
C  -11.88000 42.28800 43.05600
C  -13.36500 42.34100 43.30900
C  -13.79900 40.88000 43.59900
C  -12.52900 40.11200 43.35800
C  -13.79800 43.35200 44.41800
C  -15.01100 40.41100 42.67400
C  -15.95700 39.34600 43.17600
N  -10.32100 38.35000 42.59400
C  -11.54900 37.86600 42.98700
C  -11.50800 36.38200 42.94100
C  -10.26100 36.08400 42.39600
C  -9.56700 37.29400 42.19500
C  -12.59600 35.53200 43.32100
C  -9.36700 35.04900 41.89000
O  -9.60000 33.84900 41.82500
C  -8.10300 35.70600 41.35600
C  -6.94200 35.22600 42.18600
O  -6.77300 35.51600 43.34700
O  -6.10700 34.34100 41.51300
C  -4.93000 33.86000 42.22400
H  -5.86900 42.21200 40.73100
H  -11.61000 44.29800 42.62400
H  -13.52300 38.28200 43.76800
H  -5.38200 37.64400 41.35800
H  -5.26200 39.95900 39.43300
H  -4.29600 40.94900 41.75800
H  -3.38900 40.08100 40.57800
H  -4.01400 39.25200 42.03800
H  -5.80700 37.73900 38.50400
H  -6.09100 36.14700 39.27800
H  -3.93800 35.83500 38.97000
H  -3.42700 37.20800 40.00900
H  -6.32600 45.85600 41.02600
H  -6.04400 44.28500 40.02300
H  -5.67900 44.54100 41.72200
H  -10.35200 47.73700 42.84800
H  -10.60300 46.08100 43.70300
H  -11.17800 46.40100 42.09900
H  -13.76700 42.67700 42.35300
H  -14.01400 40.64000 44.64100
H  -12.92800 43.98500 44.59500
H  -14.20100 42.84700 45.29600
H  -14.63400 43.93200 44.02700
H  -14.64700 40.00200 41.73200
H  -15.69000 41.24500 42.50400
H  -15.58400 39.17200 44.18500
H  -15.83800 38.44600 42.57200
H  -17.00300 39.60500 43.01600
H  -12.75100 35.72300 44.38300
H  -12.41500 34.46800 43.16600
H  -13.44900 35.98900 42.81800
H  -7.98400 35.31900 40.34400
H  -4.37200 34.75600 42.49500
H  -4.33100 33.27400 41.52600
H  -5.30700 33.12800 42.93800
Mg -5.61500 24.93900 26.48500
C  -3.75400 26.26200 29.07000
C  -7.09200 22.75500 28.72500
C  -7.09900 23.37100 23.79200
C  -3.77600 27.02700 24.20700
N  -5.45500 24.58200 28.67900
C  -4.67000 25.31800 29.51600
C  -5.14100 25.09000 31.02200
C  -6.02100 23.80400 30.88000
C  -6.22800 23.67200 29.36600
C  -5.38900 22.54500 31.50900
C  -5.74800 26.40200 31.49000
C  -5.31000 26.93200 32.89900
H  -5.06200 25.98600 34.05000
N  -7.02900 23.39500 26.24700
C  -7.45000 22.59400 27.28300
C  -8.42800 21.51400 26.71800
C  -8.44200 21.75200 25.38300
C  -7.50300 22.90000 25.08500
C  -9.10100 20.50700 27.59100
C  -9.24300 21.02800 24.32500
O  -9.30300 21.42700 23.19600
C  -10.19400 19.89500 24.65600
N  -5.59200 25.20900 24.37300
C  -6.19900 24.43200 23.44800
C  -6.00900 24.88700 21.99600
C  -5.28800 26.26200 22.25800
C  -4.81000 26.24400 23.65700
C  -5.12700 23.90300 21.10600
C  -6.19600 27.44400 21.98700
C  -6.17800 27.93500 20.49000
N  -3.93400 26.26600 26.57300
C  -3.33000 27.08600 25.59200
C  -2.24600 27.77800 26.21900
C  -2.43000 27.52400 27.58400
C  -3.46200 26.62300 27.76200
C  -1.25500 28.63700 25.52600
C  -1.91400 27.83300 28.81700
O  -0.95200 28.51100 29.17100
C  -2.84200 27.19500 29.90400
C  -2.06700 26.37100 30.87600
O  -1.82300 25.16600 30.75100
O  -1.67100 27.17000 31.92800
C  -0.79300 26.43100 32.89300
H  -7.58700 22.20400 29.52700
H  -7.43900 22.78100 22.93800
H  -3.46800 27.71200 23.41500
H  -4.26700 24.80500 31.60600
H  -7.03700 23.99000 31.22700
H  -5.08400 22.68300 32.54700
H  -4.44600 22.44200 30.97200
H  -6.02200 21.66100 31.43200
H  -6.83500 26.32500 31.50400
H  -5.52300 27.15300 30.73300
H  -6.00000 27.71400 33.21600
H  -4.37500 27.47800 32.77300
H  -10.13600 20.41900 27.26000
H  -9.00800 20.70900 28.65800
H  -8.60900 19.54900 27.42100
H  -10.53500 19.51900 23.69200
H  -11.07900 20.35800 25.09400
H  -9.81500 19.02300 25.18900
H  -6.99600 24.96000 21.53800
H  -4.37600 26.40600 21.67700
H  -5.58700 23.53600 20.18800
H  -4.94900 22.94000 21.58300
H  -4.15700 24.33000 20.85100
H  -5.79100 28.31100 22.50900
H  -7.22900 27.34400 22.32100
H  -5.58100 28.84000 20.38100
H  -7.23500 27.97800 20.22700
H  -5.81300 27.17200 19.80200
H  -1.79000 29.12200 24.71000
H  -0.44700 27.98800 25.18700
H  -0.67400 29.22900 26.23400
H  -3.40700 27.90300 30.51000
H  0.16200 26.16100 32.44400
H  -1.23900 25.45700 33.09700
H  -0.67700 27.02800 33.79800

