158

Mg 1.56200 -0.59400 43.81700
C  4.96700 -0.11200 43.26600
C  0.82200 2.42800 42.15600
C  -1.73500 -1.42100 43.71900
C  2.28900 -3.93500 44.92200
N  2.71400 1.00100 42.89100
C  4.07900 0.95500 42.82200
C  4.63000 2.25500 42.23200
C  3.34200 3.18500 42.16300
C  2.21900 2.19900 42.40400
C  3.42500 4.48300 43.04000
C  5.43300 2.01500 40.86700
C  6.50400 3.07100 40.47100
H  6.63500 3.34200 39.05700
N  -0.22400 0.42800 43.13600
C  -0.35100 1.62200 42.43300
C  -1.70700 1.90800 42.15700
C  -2.45500 0.83300 42.76800
C  -1.47100 -0.14100 43.28600
C  -2.09500 3.21600 41.62400
C  -3.97100 0.78100 42.86400
O  -4.56500 1.75300 42.32500
C  -4.82400 -0.23800 43.55400
N  0.41800 -2.49300 44.24300
C  -0.98100 -2.48200 44.20500
C  -1.54500 -3.88100 44.57800
C  -0.25200 -4.41200 45.33000
C  0.90900 -3.63500 44.83700
C  -2.89200 -3.88100 45.43000
C  -0.15900 -5.96500 45.19300
C  0.01300 -6.75900 46.49500
N  3.29900 -1.75100 44.19900
C  3.41400 -3.07100 44.60100
C  4.87300 -3.30100 44.82900
C  5.56300 -2.13200 44.36000
C  4.52500 -1.26300 43.88800
C  5.45000 -4.54400 45.36600
C  6.75500 -1.51500 44.06900
O  7.87500 -1.85200 44.40000
C  6.53400 -0.20500 43.37900
C  7.12200 0.86200 44.30000
O  6.61100 1.36900 45.32600
O  8.26000 1.40100 43.73400
C  8.95600 2.49500 44.48400
H  0.75800 3.46100 41.80700
H  -2.79100 -1.68100 43.61400
H  2.53600 -4.85600 45.45400
H  5.28200 2.62100 43.02500
H  3.26200 3.57900 41.15000
H  4.43700 4.88700 43.04400
H  3.11700 4.46600 44.08600
H  2.86100 5.27800 42.55100
H  4.68800 1.87900 40.08200
H  5.81700 0.99500 40.85300
H  7.38600 2.89900 41.08800
H  6.03200 3.94900 40.91200
H  -2.59600 3.00900 40.67800
H  -1.32300 3.89100 41.25400
H  -2.82100 3.67800 42.29300
H  -5.83800 0.07400 43.80600
H  -4.51500 -0.33000 44.59600
H  -4.91200 -1.24600 43.15100
H  -1.66700 -4.42900 43.64400
H  -0.24400 -4.16500 46.39200
H  -3.59000 -4.54300 44.91900
H  -3.37000 -2.91100 45.57400
H  -2.70400 -4.34800 46.39700
H  0.70800 -6.20800 44.57900
H  -0.98700 -6.38000 44.61900
H  0.99800 -7.22200 46.54400
H  -0.85300 -7.41600 46.56800
H  0.11500 -6.08900 47.34900
H  5.23900 -5.42700 44.76200
H  5.03800 -4.82000 46.33700
H  6.53600 -4.52100 45.45800
H  7.04000 -0.19400 42.41300
H  8.45700 3.45900 44.38400
H  9.85700 2.79700 43.94900
H  9.17900 2.20900 45.51200
Mg 26.09100 1.44100 29.15300
C  27.90400 0.86200 31.99400
C  23.30400 1.90700 30.98400
C  24.36700 1.53400 26.17100
C  29.02300 0.41700 27.29200
N  25.75800 1.61000 31.31200
C  26.62700 1.35800 32.29100
C  26.01700 1.52400 33.63900
C  24.51800 1.65600 33.36000
C  24.49100 1.72400 31.74600
C  23.63800 0.46100 33.80400
C  26.49000 2.72100 34.54300
C  27.05300 2.36200 35.93600
H  26.99400 3.42400 37.09300
N  24.12000 1.76800 28.61900
C  23.11100 1.90500 29.54000
C  21.78900 1.94400 28.81800
C  22.11600 1.79500 27.37300
C  23.59700 1.69800 27.31700
C  20.48700 1.99400 29.57400
C  21.09900 1.75500 26.15900
O  21.47800 1.45300 25.04200
C  19.69400 1.90300 26.45800
N  26.58600 1.03500 27.04500
C  25.78800 1.42000 26.06200
C  26.47200 1.39900 24.72700
C  27.92800 1.52500 25.21800
C  27.90900 1.00900 26.58900
C  26.14200 0.14400 23.87700
C  28.59500 2.96300 25.14000
C  29.86400 3.11000 24.41100
N  28.13200 0.69800 29.54100
C  29.14200 0.33700 28.69800
C  30.26800 -0.03600 29.55100
C  29.87400 0.20200 30.91800
C  28.54800 0.61500 30.82300
C  31.50600 -0.51100 28.99700
C  30.24500 0.27400 32.29500
O  31.26400 0.02800 32.87400
C  28.94200 0.54700 33.05200
C  28.50400 -0.63600 33.90500
O  27.89300 -1.63600 33.51700
O  29.11600 -0.53400 35.07100
C  28.92200 -1.51500 36.13900
H  22.47200 2.06800 31.67400
H  23.89000 1.59800 25.19100
H  29.93300 0.13100 26.76000
H  26.33300 0.67000 34.23700
H  24.17700 2.64500 33.66600
H  23.67300 -0.38500 33.11700
H  22.61500 0.82900 33.87500
H  23.98400 0.07300 34.76300
H  25.86200 3.60900 34.61500
H  27.40300 3.05700 34.05100
H  28.12600 2.24600 35.78300
H  26.59700 1.43400 36.28100
H  20.21300 3.04800 29.52800
H  20.72300 1.66900 30.58700
H  19.75700 1.34400 29.09000
H  19.50700 1.07800 27.14500
H  19.13800 1.76800 25.53000
H  19.57800 2.93600 26.78500
H  26.19900 2.30300 24.18200
H  28.46400 0.83100 24.57000
H  25.42800 -0.51200 24.37500
H  27.00200 -0.50900 23.73000
H  25.73100 0.43500 22.90900
H  28.76800 3.33500 26.15000
H  27.94400 3.64800 24.59500
H  29.77200 3.80800 23.57900
H  30.16900 2.19000 23.91200
H  30.68300 3.40400 25.06700
H  31.16800 -1.23300 28.25300
H  32.15700 -0.93500 29.76100
H  32.02600 0.27700 28.45200
H  29.11800 1.42500 33.67500
H  29.64600 -1.31300 36.92900
H  29.00300 -2.51500 35.71300
H  27.99000 -1.29500 36.66000

