158

Mg 0.13300 7.95300 26.74300
C  0.82300 10.03900 29.50500
C  -0.25500 5.36300 28.76500
C  -0.60800 6.11700 24.04300
C  0.67000 10.78300 24.66600
N  0.35500 7.74200 28.79800
C  0.49000 8.68700 29.82500
C  0.40500 8.09100 31.20900
C  0.48600 6.56300 30.84700
C  0.18100 6.52100 29.35800
C  1.78700 5.89300 31.16700
C  -0.90700 8.55800 31.93500
C  -0.77600 8.68300 33.50700
H  0.38100 8.13500 34.22700
N  -0.34300 6.02900 26.46900
C  -0.54800 5.07400 27.41500
C  -0.89100 3.84500 26.89100
C  -0.89000 4.01200 25.47300
C  -0.62900 5.46000 25.28000
C  -1.30200 2.60600 27.70500
C  -1.23900 3.02500 24.42100
O  -1.34900 3.44000 23.24500
C  -1.33600 1.60600 24.65600
N  0.06900 8.47100 24.60900
C  -0.30500 7.44400 23.76700
C  -0.34900 8.00400 22.32200
C  -0.02500 9.58800 22.51800
C  0.18400 9.67100 24.01300
C  0.65400 7.30400 21.26600
C  -1.08700 10.52800 21.88900
C  -2.30200 10.89100 22.77500
N  0.78400 9.92000 26.95000
C  0.97200 10.94500 26.03700
C  1.33900 12.20200 26.74100
C  1.34300 11.83600 28.12800
C  0.94900 10.50900 28.18100
C  1.49600 13.56700 26.08800
C  1.53300 12.25200 29.42500
O  1.94500 13.28800 29.81600
C  1.11900 11.18300 30.43500
C  2.28500 10.87600 31.42200
O  3.30100 10.18300 31.20500
O  2.06000 11.50100 32.63500
C  3.07500 11.49700 33.63700
H  -0.26200 4.57200 29.51800
H  -0.68200 5.61000 23.07800
H  0.82900 11.64300 24.01100
H  1.25400 8.23200 31.87800
H  -0.20500 5.95800 31.43500
H  2.59800 6.52700 31.52300
H  2.08400 5.24800 30.33900
H  1.49600 5.14200 31.90100
H  -1.58800 7.70700 31.94100
H  -1.26300 9.49300 31.50400
H  -1.69300 8.19100 33.83200
H  -0.97200 9.70100 33.84300
H  -1.62200 2.85700 28.71600
H  -0.56400 1.80600 27.63800
H  -2.19300 2.19900 27.22700
H  -0.43300 1.40800 25.23300
H  -1.14000 1.08600 23.71800
H  -2.23700 1.30200 25.18800
H  -1.41100 7.81400 22.16300
H  0.95600 9.85400 22.12300
H  0.02100 7.04200 20.41800
H  1.08500 6.42800 21.75000
H  1.48100 7.90800 20.89300
H  -1.58400 10.18700 20.98100
H  -0.61700 11.49500 21.71000
H  -3.23600 10.44700 22.42900
H  -2.35000 11.97700 22.86300
H  -2.20500 10.58700 23.81700
H  1.28800 14.38200 26.78200
H  0.77300 13.66300 25.27800
H  2.51500 13.71700 25.73300
H  0.25100 11.53100 30.99600
H  3.01000 12.41200 34.22700
H  4.09100 11.29300 33.30000
H  2.76100 10.77300 34.38900
Mg 10.31500 47.55200 26.25800
C  8.18700 47.75500 28.92200
C  12.83200 49.09200 28.06700
C  12.42000 47.38800 23.45900
C  7.79400 46.60500 24.16900
N  10.59300 47.94600 28.47900
C  9.52400 48.13800 29.26400
C  9.92900 48.82600 30.57200
C  11.23400 49.60700 30.06900
C  11.64600 48.80300 28.85500
C  11.01900 51.16400 29.78300
C  10.24100 47.89700 31.79900
C  10.93700 48.54900 33.04400
H  10.22500 48.24400 34.39400
N  12.28900 48.15700 25.86000
C  13.16300 48.71400 26.75900
C  14.45800 48.90100 26.13900
C  14.35700 48.32800 24.83600
C  12.99100 47.91800 24.68200
C  15.60300 49.36600 26.95300
C  15.49600 48.30400 23.77300
O  15.28400 48.00300 22.61800
C  16.89100 48.65600 24.17500
N  10.16300 47.10400 24.06500
C  11.11600 47.08100 23.16300
C  10.69600 46.42700 21.82300
C  9.16400 46.28700 22.07100
C  9.02700 46.67600 23.57100
C  11.18300 47.22600 20.54800
C  8.62200 44.84400 21.80900
C  9.30000 43.72700 22.65300
N  8.33600 47.31400 26.44600
C  7.40200 46.89900 25.47900
C  6.06600 46.83600 26.11900
C  6.28700 47.12300 27.48500
C  7.69000 47.33100 27.65800
C  4.67400 46.77200 25.38800
C  5.74900 47.38700 28.77600
O  4.61000 47.34000 29.20800
C  6.96000 47.77100 29.75000
C  6.93200 46.75900 30.90300
O  7.43700 45.65000 30.89400
O  6.20600 47.29600 31.91600
C  5.88000 46.42200 33.01600
H  13.40700 49.72100 28.75000
H  13.11200 47.25900 22.62400
H  6.89200 46.24300 23.67300
H  9.13700 49.51800 30.85900
H  12.04200 49.55000 30.79900
H  11.12700 51.38100 28.72100
H  11.82300 51.70200 30.28600
H  9.99800 51.42200 30.06300
H  10.97800 47.21100 31.38200
H  9.41300 47.20300 31.94500
H  10.76500 49.62100 32.95400
H  12.00700 48.35200 32.99000
H  15.40300 49.66100 27.98300
H  16.18100 50.21000 26.57700
H  16.39800 48.62400 27.02400
H  16.82100 49.62300 24.67400
H  17.47400 48.45900 23.27500
H  17.20400 47.95700 24.95000
H  11.19600 45.46500 21.71100
H  8.57300 46.97700 21.46900
H  11.95900 46.69700 19.99400
H  11.60600 48.16600 20.90400
H  10.30400 47.45800 19.94700
H  8.78200 44.68900 20.74200
H  7.55500 44.86500 22.03200
H  8.48700 43.26000 23.20900
H  9.97000 44.15000 23.40200
H  9.73400 42.98100 21.98700
H  4.64100 46.36000 24.37900
H  4.26900 47.77900 25.29500
H  4.01800 46.31300 26.12800
H  6.71400 48.75100 30.15900
H  5.88900 47.10000 33.87000
H  6.58300 45.62600 33.26000
H  4.85200 46.07700 32.90000

