158

Mg 47.52000 16.54700 28.32900
C  45.68300 16.23500 31.35700
C  49.74700 18.48200 30.11400
C  48.85600 17.37400 25.36700
C  44.80300 15.14600 26.75500
N  47.66800 17.37800 30.45500
C  46.93000 16.95300 31.49500
C  47.38900 17.48700 32.84900
C  48.53400 18.43900 32.37900
C  48.63400 18.11500 30.87200
C  48.38200 19.94700 32.72600
C  47.91000 16.29900 33.79600
C  47.63900 16.36200 35.30200
H  47.16500 17.63500 35.97400
N  49.21400 17.55000 27.88600
C  49.96900 18.26400 28.71400
C  51.09900 18.81300 27.91400
C  50.83100 18.48000 26.56400
C  49.56900 17.76700 26.55200
C  52.28900 19.45300 28.62600
C  51.72000 18.88000 25.34100
O  51.40900 18.61300 24.16900
C  53.00900 19.67600 25.50900
N  46.99600 16.18300 26.33000
C  47.63600 16.67700 25.23700
C  46.82500 16.39400 23.98900
C  45.77100 15.32400 24.40500
C  45.93000 15.47000 25.95000
C  46.19600 17.60600 23.22100
C  46.07900 13.92800 23.76800
C  45.04900 13.41800 22.68800
N  45.68200 15.86200 28.88900
C  44.69400 15.29500 28.12600
C  43.61900 14.78800 28.85900
C  43.99100 15.16700 30.15500
C  45.22300 15.81000 30.11800
C  42.43100 14.07100 28.38200
C  43.53200 15.10100 31.54300
O  42.50600 14.70000 32.03300
C  44.66500 15.78900 32.34200
C  44.07300 16.83600 33.13100
O  43.81300 17.98400 32.70700
O  43.78200 16.37300 34.39300
C  43.04300 17.25300 35.35000
H  50.41200 19.17800 30.63000
H  49.27100 17.71900 24.41700
H  43.93300 14.64400 26.32600
H  46.67000 18.12500 33.36200
H  49.48200 18.10400 32.80000
H  47.58000 20.11800 33.44400
H  48.34600 20.60300 31.85600
H  49.25900 20.25900 33.29200
H  48.95100 15.99000 33.70000
H  47.34800 15.51100 33.29500
H  48.54700 16.02200 35.80000
H  46.92200 15.54700 35.40700
H  52.18500 19.28300 29.69800
H  52.39000 20.52700 28.46900
H  53.21400 19.01600 28.25100
H  53.43100 19.95100 24.54200
H  53.70900 18.99400 25.99200
H  52.82800 20.53200 26.16000
H  47.40600 15.96400 23.17400
H  44.74300 15.54700 24.11700
H  46.32400 18.48700 23.85100
H  45.13800 17.51100 22.97900
H  46.60700 17.96200 22.27700
H  46.20700 13.21800 24.58500
H  47.09500 13.94600 23.37400
H  44.96600 12.33200 22.65600
H  45.35600 13.78800 21.71000
H  44.05000 13.82400 22.85200
H  42.76100 13.03200 28.37900
H  42.06400 14.42000 27.41700
H  41.61000 14.14900 29.09500
H  45.06500 15.01400 32.99700
H  42.00700 17.28100 35.01400
H  43.44400 18.26700 35.32600
H  43.11500 16.94100 36.39200
Mg 7.97700 53.72800 40.51300
C  7.08200 50.38800 40.15000
C  11.14400 52.89600 39.27700
C  8.65000 56.97000 40.03900
C  4.55600 54.52900 40.92600
N  8.87200 51.90100 39.69100
C  8.36200 50.65200 39.71300
C  9.34500 49.60800 39.08500
C  10.68400 50.36300 39.31800
C  10.20800 51.85000 39.36300
C  11.44000 50.19700 40.65200
C  9.14300 49.18300 37.62100
C  8.09500 49.87100 36.70900
H  7.52600 48.98700 35.59600
N  9.71100 54.85800 39.85000
C  10.93000 54.27700 39.54600
C  11.93000 55.30600 39.56700
C  11.26600 56.51700 39.65100
C  9.83200 56.19500 39.84600
C  13.44600 55.02200 39.60100
C  11.92100 57.89700 39.67800
O  13.11500 57.99600 39.84300
C  11.10800 59.11400 39.62800
N  6.69300 55.44700 40.47900
C  7.25300 56.70900 40.29800
C  6.22200 57.84300 40.55600
C  4.86800 57.00300 40.85100
C  5.37200 55.57900 40.77800
C  6.63400 58.91100 41.59800
C  3.65100 57.33500 39.88200
C  2.28200 57.22300 40.55400
N  6.19800 52.73000 40.68500
C  4.91300 53.21400 41.02700
C  4.06500 52.09200 41.17300
C  4.91100 51.02000 40.96100
C  6.17300 51.42400 40.63200
C  2.66600 51.95600 41.66000
C  4.93900 49.56200 40.96700
O  4.10700 48.69900 41.21400
C  6.35900 49.03300 40.44700
C  6.21100 48.11200 39.25300
O  5.63300 48.51000 38.19500
O  6.49800 46.79600 39.47000
C  6.31600 45.85500 38.40500
H  12.15700 52.54500 39.07100
H  8.76400 58.04700 39.90000
H  3.49200 54.54700 41.17100
H  9.35400 48.66200 39.62800
H  11.45300 50.27200 38.55000
H  10.98800 49.25900 40.97300
H  11.29700 51.02300 41.35000
H  12.50800 50.05900 40.48600
H  9.00900 48.10400 37.53200
H  10.13200 49.35200 37.19500
H  8.48600 50.72300 36.15300
H  7.21600 50.16300 37.28400
H  13.88300 55.61600 38.79700
H  13.71100 53.98200 39.41300
H  13.92800 55.33600 40.52700
H  11.68100 60.02700 39.79200
H  10.31100 59.01500 40.36400
H  10.57100 59.18100 38.68200
H  6.14400 58.24000 39.54400
H  4.55600 57.11200 41.89000
H  6.46500 59.93500 41.26300
H  7.62600 58.67300 41.98100
H  5.87000 58.95300 42.37500
H  3.67300 56.58000 39.09600
H  3.75700 58.38000 39.59300
H  2.31000 57.34800 41.63600
H  1.86000 56.22000 40.49000
H  1.73600 57.97300 39.98100
H  2.27400 50.94600 41.54500
H  2.14500 52.82100 41.25000
H  2.70900 52.01600 42.74700
H  6.79500 48.46900 41.27200
H  6.70500 46.37100 37.52700
H  5.27200 45.54800 38.46800
H  6.90600 44.96000 38.60600

