158

Mg 24.37000 -5.09300 46.11900
C  25.89200 -2.18300 44.63800
C  21.71700 -4.36800 44.12600
C  23.25300 -8.04600 46.67500
C  27.48800 -5.87200 47.51800
N  23.83300 -3.25500 44.70500
C  24.63500 -2.40300 44.11200
C  23.96700 -1.52300 43.03500
C  22.48300 -2.15300 43.08300
C  22.61400 -3.31300 44.09500
C  21.53000 -1.03700 43.55200
C  24.70700 -1.65600 41.67700
C  25.39800 -0.37100 41.09500
H  25.51900 -0.34800 39.56100
N  22.59500 -6.04800 45.61000
C  21.66600 -5.64700 44.73700
C  20.59100 -6.60600 44.65900
C  21.08500 -7.79700 45.27500
C  22.35100 -7.35200 45.90900
C  19.29600 -6.38200 43.80300
C  20.54400 -9.15800 45.22100
O  19.50300 -9.43000 44.68000
C  21.14300 -10.38400 45.78400
N  25.26800 -6.72900 46.96800
C  24.53900 -7.85400 47.16100
C  25.33300 -8.82200 47.95000
C  26.65600 -8.12500 48.33000
C  26.43600 -6.83700 47.61700
C  24.59200 -9.46100 49.12500
C  27.97100 -8.89300 47.94500
C  29.12000 -8.92300 49.02600
N  26.36500 -4.16200 46.28400
C  27.44900 -4.59600 46.87200
C  28.49800 -3.66200 46.78700
C  27.95800 -2.72900 45.82500
C  26.62700 -3.07900 45.53700
C  29.86800 -3.80100 47.30500
C  28.26800 -1.59300 45.11500
O  29.33500 -0.97100 45.19500
C  26.99600 -1.19000 44.21100
C  26.70200 0.27200 44.62500
O  25.83700 0.67100 45.40500
O  27.24300 1.10400 43.67200
C  26.67900 2.42000 43.51300
H  20.86700 -4.16000 43.47300
H  22.83700 -9.03200 46.89300
H  28.39400 -6.24100 48.00200
H  23.94700 -0.47000 43.31700
H  22.33400 -2.53900 42.07400
H  21.14700 -0.50600 42.68000
H  22.06500 -0.31400 44.16700
H  20.75300 -1.46400 44.18700
H  23.98800 -1.98600 40.92600
H  25.48100 -2.42200 41.72500
H  26.37700 -0.10600 41.49500
H  24.71200 0.41400 41.41400
H  18.42800 -6.87800 44.23700
H  19.34400 -6.69700 42.76100
H  18.86000 -5.38300 43.78800
H  20.52900 -11.28200 45.70400
H  21.32700 -10.17100 46.83700
H  22.09100 -10.60100 45.29300
H  25.55700 -9.59100 47.21100
H  26.76600 -7.80100 49.36500
H  23.73000 -8.86100 49.41500
H  25.28400 -9.46100 49.96700
H  24.28400 -10.47000 48.85100
H  28.50600 -8.50300 47.07900
H  27.67600 -9.94100 47.90300
H  30.09000 -8.73700 48.56400
H  29.14800 -9.84400 49.60700
H  29.10400 -8.10000 49.74100
H  30.22100 -2.77400 47.39800
H  30.35800 -4.32800 46.48600
H  29.88500 -4.46200 48.17100
H  27.23400 -1.25300 43.14900
H  27.52800 3.09200 43.38700
H  26.16500 2.95300 44.31300
H  26.00700 2.33500 42.65900
Mg 25.20200 1.80900 30.11900
C  27.40100 1.71400 32.85800
C  22.59000 2.17400 32.36800
C  23.18700 1.81700 27.40200
C  27.87600 0.97600 27.93500
N  25.09300 2.13300 32.32300
C  26.10100 2.10400 33.21500
C  25.67800 2.48700 34.63700
C  24.14700 2.42900 34.52100
C  23.86700 2.20100 33.02500
C  23.39400 1.39800 35.46100
C  26.28500 3.78900 35.17600
C  26.92400 3.65800 36.56700
H  26.63600 4.71800 37.59000
N  23.12500 1.85500 29.88000
C  22.29500 2.02300 31.00900
C  20.96700 1.99400 30.36600
C  21.07100 1.86600 28.92500
C  22.50900 1.78800 28.72800
C  19.64600 2.13100 31.16300
C  19.98900 1.80500 27.83500
O  20.25600 1.54800 26.66600
C  18.56400 1.98100 28.15100
N  25.53800 1.33300 28.00900
C  24.52700 1.64600 27.03500
C  25.04100 1.54500 25.56700
C  26.60900 1.38400 25.83700
C  26.71800 1.27600 27.34600
C  24.38100 0.50100 24.64500
C  27.54000 2.50800 25.14900
C  27.61600 3.81100 25.98000
N  27.17500 1.42400 30.31500
C  28.11300 1.01500 29.38100
C  29.31800 0.57600 30.07800
C  29.16600 0.99500 31.43300
C  27.78300 1.46400 31.51500
C  30.53200 -0.01200 29.42300
C  29.76100 1.13300 32.68300
O  30.92000 1.05000 33.01500
C  28.67300 1.65900 33.66500
C  28.56300 0.70500 34.75500
O  27.86000 -0.35500 34.79900
O  29.30100 1.22400 35.81800
C  29.28800 0.52300 37.11300
H  21.77200 2.36800 33.06500
H  22.54100 1.77500 26.52200
H  28.71900 0.82500 27.25700
H  26.01200 1.65800 35.26200
H  23.64900 3.35700 34.79800
H  22.87100 0.59500 34.94100
H  22.62800 1.99800 35.95200
H  24.00200 0.99600 36.27200
H  25.47400 4.51400 35.11200
H  27.09000 4.01100 34.47600
H  28.00600 3.60500 36.44400
H  26.62300 2.67300 36.92400
H  19.03100 3.01800 31.01500
H  19.73700 1.96800 32.23700
H  19.01000 1.30300 30.85000
H  18.56000 2.93800 28.67400
H  18.32200 1.16300 28.82900
H  17.91500 1.94100 27.27600
H  24.89300 2.56200 25.20200
H  26.85400 0.40900 25.41800
H  23.96400 0.98900 23.76400
H  23.57000 -0.00900 25.16500
H  25.09400 -0.28400 24.39500
H  27.38800 2.54900 24.07000
H  28.57000 2.16700 25.25100
H  27.37900 4.62900 25.29900
H  28.63800 3.99400 26.31100
H  26.89100 3.86400 26.79200
H  30.85000 -0.84100 30.05500
H  31.36400 0.68400 29.31400
H  30.47300 -0.50600 28.45300
H  28.97000 2.61700 34.09400
H  28.47500 0.82800 37.77300
H  30.16700 0.83200 37.67900
H  29.54200 -0.53400 37.04500

