158

Mg 17.58000 -1.51400 27.10700
C  16.68100 0.43500 29.91600
C  19.23900 -3.53900 29.20200
C  18.88100 -2.94300 24.43100
C  15.72300 0.61800 25.04100
N  18.04100 -1.42400 29.36400
C  17.49200 -0.60800 30.36400
C  17.74900 -1.20600 31.76000
C  18.47100 -2.53700 31.41000
C  18.60900 -2.51500 29.89100
C  19.77200 -2.88900 32.20800
C  16.46400 -1.42500 32.63700
C  16.57700 -0.72300 34.03300
H  17.97800 -0.53600 34.58200
N  18.90100 -2.97600 26.87800
C  19.42200 -3.78200 27.84200
C  20.11700 -4.93100 27.28100
C  20.06800 -4.70900 25.85800
C  19.25000 -3.48400 25.65000
C  20.94200 -5.88600 28.18800
C  20.65900 -5.62500 24.76000
O  20.42800 -5.39300 23.58100
C  21.34700 -6.91600 25.00700
N  17.21300 -1.35900 25.00400
C  18.00900 -1.93800 24.08100
C  17.84800 -1.42900 22.61700
C  16.82300 -0.27400 22.93100
C  16.52500 -0.40400 24.38800
C  19.18100 -0.90400 22.02300
C  15.55800 -0.39800 21.99200
C  15.23400 0.74900 21.01600
N  16.48600 0.22400 27.31900
C  15.70200 0.90400 26.42500
C  15.04200 2.00900 27.07700
C  15.32900 1.80700 28.42400
C  16.20500 0.67500 28.59500
C  14.11400 3.03500 26.50400
C  15.05600 2.31700 29.75800
O  14.28900 3.18900 30.14800
C  15.93800 1.47400 30.80900
C  16.84100 2.52500 31.39800
O  17.87600 3.02100 30.89200
O  16.42800 2.75800 32.73700
C  17.31300 3.51400 33.63100
H  19.63900 -4.25200 29.92600
H  19.37000 -3.34900 23.54300
H  15.26600 1.35900 24.38200
H  18.51700 -0.56600 32.19400
H  17.78600 -3.36800 31.57300
H  19.96000 -2.22800 33.05400
H  20.58000 -2.95600 31.47900
H  19.59600 -3.85100 32.68900
H  16.26300 -2.49500 32.70100
H  15.61300 -0.88700 32.22000
H  15.98500 -1.21900 34.80300
H  16.30900 0.32100 33.87200
H  20.99900 -6.90600 27.80800
H  20.49200 -6.07400 29.16300
H  21.95100 -5.53500 28.40600
H  22.28800 -6.61200 25.46700
H  21.63400 -7.40200 24.07500
H  20.80800 -7.48500 25.76500
H  17.56600 -2.06700 21.77900
H  17.17100 0.73100 22.68900
H  19.92600 -0.71300 22.79600
H  19.14700 0.07600 21.54600
H  19.50600 -1.72000 21.37700
H  14.67100 -0.39500 22.62600
H  15.52200 -1.35500 21.47100
H  14.22600 1.08300 21.26100
H  15.24400 0.36400 19.99600
H  15.93900 1.57600 21.09800
H  14.28500 4.03200 26.91000
H  13.07900 2.80900 26.76100
H  14.25400 3.09500 25.42500
H  15.36300 1.04700 31.63100
H  17.33500 2.88800 34.52200
H  16.88300 4.47200 33.92200
H  18.35800 3.51000 33.31800
Mg 16.23400 51.79400 26.66600
C  18.25900 50.50200 29.31800
C  13.96700 52.74100 29.09400
C  14.67700 53.52300 24.33800
C  18.39700 50.41300 24.36600
N  16.27700 51.86300 29.02300
C  17.14300 51.24400 29.83700
C  16.69900 51.25200 31.28500
C  15.17000 51.70900 31.15000
C  15.07000 52.11100 29.64800
C  14.11100 50.68300 31.67300
C  17.59300 52.21500 32.13000
C  17.79800 51.79900 33.58400
H  17.24800 52.60500 34.72600
N  14.51700 52.86300 26.68800
C  13.71500 53.15500 27.76600
C  12.60400 53.91000 27.27100
C  12.89000 54.31200 25.92800
C  14.08900 53.54600 25.55500
C  11.41700 54.26000 28.10400
C  12.19700 55.29100 25.04600
O  12.57900 55.63200 23.92300
C  10.97300 56.05600 25.56300
N  16.42900 51.90200 24.57100
C  15.67500 52.73000 23.80800
C  16.23300 52.82600 22.32900
C  17.33400 51.66900 22.36500
C  17.41200 51.28200 23.86600
C  15.05800 52.82000 21.26200
C  18.78100 52.05200 21.78000
C  19.66900 53.15700 22.45700
N  17.90400 50.55500 26.77700
C  18.66200 50.06900 25.72700
C  19.83800 49.37400 26.29100
C  19.65100 49.42400 27.65600
C  18.54400 50.26300 27.92400
C  20.95500 48.71100 25.48000
C  20.19500 49.01900 28.89600
O  21.16000 48.26500 29.04400
C  19.40100 49.68600 30.06000
C  18.78000 48.49200 30.81600
O  18.32500 47.46100 30.32500
O  18.97000 48.73600 32.21200
C  18.41600 47.67200 32.94800
H  13.27300 52.96900 29.90600
H  14.23500 54.17200 23.58000
H  19.03200 49.98700 23.58600
H  16.74100 50.20900 31.60000
H  14.98600 52.68800 31.59400
H  13.65200 51.07100 32.58300
H  14.60800 49.80200 32.08000
H  13.40900 50.47400 30.86500
H  17.15700 53.21100 32.05200
H  18.53900 52.34100 31.60500
H  18.87900 51.85000 33.71800
H  17.48600 50.77600 33.79500
H  11.70800 55.00300 28.84700
H  11.13900 53.36600 28.66300
H  10.52400 54.51500 27.53500
H  10.04300 55.50300 25.69800
H  10.75500 56.87400 24.87600
H  11.26900 56.60500 26.45600
H  16.75900 53.75600 22.11200
H  16.92000 50.81500 21.82900
H  15.34300 52.14500 20.45500
H  14.90700 53.81500 20.84300
H  14.10700 52.47000 21.66400
H  18.71000 52.28900 20.71800
H  19.39600 51.16100 21.65200
H  19.51000 54.13400 22.00200
H  20.68800 52.78400 22.34500
H  19.46000 53.19700 23.52600
H  21.57200 49.47700 25.01000
H  20.51300 48.02200 24.76100
H  21.59700 48.00200 26.00400
H  19.98100 50.31400 30.73700
H  18.61900 46.71700 32.46300
H  17.36400 47.82800 33.18700
H  19.04800 47.54800 33.82700

