158

Mg 1.82300 8.80700 25.26000
C  1.93200 10.30800 28.35600
C  2.26900 5.73100 26.85700
C  1.57700 7.25400 22.23100
C  1.82000 11.81700 23.69700
N  2.18900 8.11200 27.38800
C  1.96900 8.88600 28.51700
C  1.98100 8.02900 29.80300
C  2.37600 6.54500 29.40000
C  2.26500 6.77000 27.82600
C  3.75500 6.09500 29.73900
C  0.68300 8.26300 30.66200
C  0.93200 8.51900 32.19700
H  2.31400 8.24400 32.82800
N  1.95000 6.80700 24.64700
C  2.14600 5.67800 25.41800
C  2.12800 4.42900 24.58500
C  1.77000 4.88300 23.25800
C  1.75800 6.34600 23.33500
C  2.28400 2.96800 25.11700
C  1.54000 4.09800 21.93900
O  1.18900 4.62000 20.93300
C  1.63800 2.54400 21.93700
N  1.51900 9.41100 23.27700
C  1.60400 8.63100 22.17900
C  1.78000 9.41000 20.90200
C  1.40500 10.83200 21.38700
C  1.55400 10.72100 22.87700
C  3.18600 9.27100 20.31800
C  0.00400 11.21200 20.92000
C  -0.04800 12.19000 19.74700
N  1.82900 10.76700 25.82100
C  1.94800 11.91700 25.07200
C  2.04300 13.06400 26.02300
C  2.01000 12.47700 27.31200
C  1.90000 11.08400 27.13500
C  1.88400 14.48200 25.60300
C  2.00900 12.70200 28.64800
O  2.11500 13.76500 29.24000
C  1.87900 11.38700 29.41700
C  3.13700 11.27800 30.24000
O  4.16900 10.82600 29.89800
O  2.91900 11.77100 31.51700
C  4.20400 12.35200 32.07100
H  2.26100 4.79500 27.42000
H  1.61600 6.99200 21.17200
H  1.92000 12.71200 23.08000
H  2.79500 8.49900 30.35400
H  1.59100 5.85700 29.71400
H  4.23000 6.89700 30.30500
H  4.40200 5.90000 28.88300
H  3.71200 5.17900 30.32700
H  0.02200 7.40400 30.54100
H  0.21100 9.19000 30.33700
H  0.21100 7.91900 32.75100
H  0.73400 9.54800 32.49500
H  2.76100 2.99800 26.09600
H  2.95500 2.51700 24.38600
H  1.31900 2.47400 25.22300
H  2.40000 2.02300 22.51600
H  1.87000 2.32100 20.89500
H  0.67200 2.16000 22.26500
H  1.20200 9.05300 20.05000
H  2.01500 11.56500 20.85900
H  3.76300 10.19400 20.37100
H  3.19300 9.00000 19.26300
H  3.66400 8.40600 20.77800
H  -0.51600 11.65700 21.76800
H  -0.56700 10.33800 20.60400
H  -0.47700 11.74900 18.84700
H  0.88800 12.62200 19.39400
H  -0.68600 13.02700 20.03400
H  1.44600 14.51800 24.60600
H  2.84700 14.99400 25.61200
H  1.27000 14.92500 26.38700
H  0.95800 11.41300 29.99900
H  5.08000 12.57300 31.46100
H  4.61400 11.60900 32.75400
H  4.00400 13.24500 32.66400
Mg -10.92700 16.88600 42.82000
C  -7.38300 16.73900 42.18000
C  -10.78300 20.14700 41.71200
C  -14.22000 16.90500 42.75500
C  -10.84800 13.39800 43.09300
N  -9.22600 18.33200 42.21700
C  -7.91300 18.00600 42.02000
C  -7.18500 19.28400 41.45700
C  -8.24400 20.39900 41.52100
C  -9.50000 19.56300 41.82400
C  -7.88200 21.43700 42.58600
C  -6.68000 18.94700 39.99700
C  -5.15900 19.23600 39.81300
H  -4.60200 19.63200 38.49500
N  -12.39300 18.39000 42.54600
C  -12.10800 19.61600 41.95100
C  -13.40300 20.22500 41.63000
C  -14.44300 19.35900 42.16100
C  -13.71600 18.19400 42.59000
C  -13.49400 21.57000 41.01600
C  -15.97300 19.63400 42.11300
O  -16.40900 20.75000 41.73000
C  -17.03600 18.74100 42.67100
N  -12.33400 15.32400 42.67900
C  -13.63400 15.64600 42.89600
C  -14.39200 14.47200 43.29200
C  -13.41000 13.33300 43.37800
C  -12.10900 14.06700 43.02300
C  -15.24900 14.59200 44.59200
C  -13.78200 12.07600 42.41500
C  -14.73800 11.10900 43.13200
N  -9.47100 15.36900 42.76300
C  -9.59700 13.99800 43.00400
C  -8.25400 13.40500 43.17400
C  -7.37800 14.45900 42.85400
C  -8.17800 15.61000 42.61500
C  -7.83100 12.05300 43.44300
C  -6.00400 14.75400 42.62300
O  -5.04600 13.93000 42.67900
C  -5.95700 16.23200 42.23300
C  -5.16100 17.00400 43.14700
O  -4.08400 17.55800 42.92000
O  -5.79700 17.05500 44.41500
C  -4.99400 17.52800 45.57200
H  -10.76600 21.18900 41.38500
H  -15.28200 16.90000 43.00900
H  -10.79700 12.33100 43.31900
H  -6.32900 19.40100 42.12100
H  -8.33000 20.98600 40.60600
H  -6.87800 21.81300 42.39000
H  -7.67400 20.84800 43.47900
H  -8.63000 22.22400 42.68900
H  -7.30800 19.44500 39.25800
H  -6.76800 17.86700 39.87600
H  -4.58400 18.41600 40.24300
H  -5.01100 20.10600 40.45300
H  -12.51900 21.92600 40.68100
H  -13.96300 22.26700 41.71000
H  -14.19900 21.59100 40.18500
H  -16.91600 17.80800 42.11900
H  -18.02100 19.12500 42.40100
H  -16.87200 18.61300 43.74100
H  -15.19100 14.34300 42.56100
H  -13.24700 12.92100 44.37400
H  -15.05600 15.49800 45.16700
H  -15.00200 13.68000 45.13500
H  -16.32400 14.57800 44.40900
H  -12.80000 11.65500 42.19900
H  -14.20900 12.53000 41.52100
H  -15.65800 10.96400 42.56600
H  -14.99600 11.41700 44.14500
H  -14.24400 10.15000 43.28800
H  -7.15300 11.68400 42.67400
H  -8.62000 11.30100 43.47400
H  -7.21700 12.07900 44.34200
H  -5.46700 16.18800 41.26000
H  -4.03100 17.01900 45.61800
H  -5.44300 17.28800 46.53500
H  -4.79200 18.59000 45.43500

