158

Mg 25.70900 1.63500 29.54800
C  27.76600 1.21700 32.35000
C  23.00700 1.82000 31.68300
C  23.72000 1.76800 26.88000
C  28.39700 0.57300 27.52700
N  25.49200 1.48000 31.76700
C  26.42900 1.36700 32.70600
C  25.77400 1.59200 34.12400
C  24.28000 1.69500 33.81200
C  24.24400 1.66700 32.30200
C  23.41100 0.62100 34.54700
C  26.32500 2.86200 34.85600
C  25.60500 3.10600 36.23400
H  26.48600 3.41800 37.44400
N  23.60400 1.70800 29.30900
C  22.70600 1.78100 30.32500
C  21.34600 1.93600 29.71400
C  21.60300 1.95800 28.29500
C  23.01700 1.86400 28.09200
C  20.12800 2.12000 30.59200
C  20.55300 2.01900 27.19400
O  20.76100 2.11700 25.96100
C  19.11700 2.13400 27.64000
N  26.05300 1.34200 27.45700
C  25.08800 1.55900 26.59400
C  25.72200 1.61100 25.16700
C  27.15800 1.18700 25.41500
C  27.23700 1.00000 26.91700
C  24.93100 0.83400 24.05200
C  28.21600 2.24900 24.85900
C  29.57700 1.53800 24.52100
N  27.71700 1.03300 29.80000
C  28.65000 0.63600 28.87100
C  29.87900 0.35500 29.54700
C  29.61100 0.56200 30.89600
C  28.30200 1.01300 31.01700
C  31.21400 0.03200 28.98900
C  30.17700 0.44100 32.22200
O  31.26300 0.11400 32.69700
C  28.96900 0.88500 33.17500
C  28.65500 -0.23200 34.04400
O  28.19600 -1.29000 33.66700
O  28.95300 0.08200 35.35000
C  28.72400 -0.93800 36.33700
H  22.21200 2.00000 32.41000
H  23.10400 1.99300 26.00700
H  29.24400 0.41500 26.85700
H  26.02100 0.66800 34.64600
H  23.96900 2.69800 34.10400
H  22.50400 1.16200 34.81600
H  23.87100 0.21700 35.44900
H  23.03500 -0.18600 33.91900
H  26.16700 3.67100 34.14300
H  27.40200 2.77100 34.99900
H  25.08800 2.18000 36.48500
H  24.95900 3.89400 35.84700
H  19.55300 1.21900 30.37500
H  19.66400 3.10000 30.48300
H  20.34900 2.01100 31.65300
H  19.01800 2.99100 28.30700
H  18.95300 1.21700 28.20500
H  18.47800 2.28500 26.77000
H  25.70900 2.64700 24.82900
H  27.34200 0.20200 24.98400
H  24.60900 1.51400 23.26300
H  24.11500 0.20000 24.39800
H  25.53900 0.12400 23.49200
H  28.24500 3.08000 25.56300
H  27.90300 2.62400 23.88400
H  29.70500 1.73100 23.45600
H  29.53300 0.45200 24.44300
H  30.47000 1.95400 24.98800
H  31.52200 0.69000 28.17600
H  31.16900 -0.97500 28.57600
H  31.95400 0.05200 29.78800
H  29.27900 1.79700 33.68400
H  29.59700 -1.01900 36.98400
H  28.51900 -1.98500 36.11500
H  27.92500 -0.53500 36.95900
Mg 40.45000 9.42800 29.18200
C  42.25500 10.59200 31.81400
C  38.19600 7.91100 31.40800
C  38.76500 8.18300 26.56600
C  43.04100 10.51400 26.99500
N  40.26000 9.26100 31.30600
C  41.04300 9.88700 32.20100
C  40.50200 9.82100 33.69000
C  39.35700 8.75200 33.46400
C  39.26900 8.58300 31.94200
C  39.40700 7.44400 34.22900
C  40.14400 11.21200 34.24000
C  40.06800 11.32600 35.76100
H  40.91700 12.38400 36.42900
N  38.70500 8.15100 29.00700
C  37.93200 7.66900 30.03800
C  36.79100 6.96200 29.45600
C  36.83300 7.28600 28.05000
C  38.16300 7.90400 27.84200
C  35.79400 6.20600 30.27500
C  35.84400 7.07100 26.89700
O  36.03100 7.54700 25.79000
C  34.57100 6.33500 27.22200
N  40.88700 9.20900 27.08900
C  39.98300 8.70700 26.22500
C  40.44800 8.88600 24.83300
C  41.81800 9.58100 24.92400
C  41.96600 9.81100 26.44200
C  40.55100 7.52600 24.09400
C  41.90200 10.83900 24.07800
C  40.94200 12.01300 24.52700
N  42.31700 10.37900 29.31800
C  43.21700 10.77500 28.35900
C  44.34300 11.46100 29.00900
C  44.01000 11.39200 30.40400
C  42.75800 10.78800 30.50300
C  45.66300 12.06800 28.51100
C  44.43300 11.68100 31.77700
O  45.41300 12.20200 32.22600
C  43.30300 11.23800 32.78200
C  43.78000 10.31300 33.80000
O  44.37400 9.23900 33.59500
O  43.54700 10.71800 35.09500
C  44.03600 9.85800 36.23800
H  37.47900 7.57200 32.15900
H  38.20600 8.02100 25.64200
H  43.83900 10.76200 26.29200
H  41.17800 9.36600 34.41400
H  38.41100 9.21300 33.74900
H  38.54800 7.42700 34.89900
H  40.35400 7.31300 34.75200
H  39.43300 6.57300 33.57500
H  39.17400 11.38000 33.77400
H  40.83800 11.93500 33.81100
H  40.17400 10.30300 36.12100
H  39.02900 11.60600 35.93500
H  34.82400 6.70000 30.22500
H  36.07800 6.06100 31.31700
H  35.84600 5.32200 29.63900
H  34.11500 7.01400 27.94300
H  34.74300 5.30800 27.54300
H  33.99000 6.48100 26.31100
H  39.73200 9.52700 24.31900
H  42.56900 8.86500 24.58800
H  41.58900 7.47200 23.76500
H  39.85100 7.38700 23.27000
H  40.27800 6.70600 24.75900
H  41.53800 10.52700 23.09900
H  42.92600 11.20500 24.15800
H  40.55900 11.94000 25.54500
H  40.09600 12.09200 23.84400
H  41.49400 12.95100 24.48000
H  46.13900 12.49500 29.39300
H  45.52100 12.76000 27.68100
H  46.31800 11.31900 28.06500
H  43.01400 12.13700 33.32700
H  45.05500 9.53200 36.03100
H  43.32900 9.06000 36.46200
H  44.06000 10.44900 37.15300

