158

Mg 47.98900 34.27700 26.83100
C  46.11300 32.62200 29.32400
C  47.90300 37.08500 28.83000
C  49.21000 36.00900 24.23300
C  47.15700 31.58300 24.60500
N  47.30500 34.67800 28.96400
C  46.76200 33.81400 29.74300
C  46.72500 34.48700 31.15700
C  47.03400 36.04800 30.94700
C  47.44300 35.95300 29.51000
C  45.69700 36.88000 31.00500
C  47.94200 33.86300 32.04500
C  48.00200 34.33900 33.57500
H  47.08300 35.41300 34.15000
N  48.49600 36.24600 26.53200
C  48.37500 37.22700 27.51200
C  48.93400 38.43900 26.99800
C  49.53000 38.12700 25.75200
C  49.05600 36.80800 25.39100
C  49.10600 39.67000 27.82800
C  50.35000 38.98400 24.90100
O  50.85400 38.57200 23.85400
C  50.85200 40.31400 25.39300
N  48.12300 33.77900 24.80000
C  48.68500 34.73700 23.88300
C  48.74600 34.20700 22.46100
C  48.22700 32.74200 22.59200
C  47.75100 32.67000 24.08200
C  47.96600 35.18500 21.56800
C  49.31900 31.73800 22.25300
C  49.17100 30.99300 20.87700
N  46.95400 32.39000 26.86500
C  46.77100 31.40300 25.94200
C  45.89300 30.35800 26.47300
C  45.58100 30.90200 27.76700
C  46.24800 32.09900 27.99200
C  45.45200 29.10300 25.74800
C  44.81100 30.59000 29.01000
O  44.17500 29.55700 29.31500
C  45.05800 31.78200 30.07100
C  45.29400 31.27800 31.44300
O  46.18100 30.52600 31.72800
O  44.43200 31.89000 32.24700
C  44.58200 31.69600 33.70500
H  47.85600 37.91200 29.54100
H  49.53500 36.64600 23.40800
H  47.02800 30.70300 23.97000
H  45.78100 34.31200 31.67300
H  47.84600 36.44900 31.55400
H  45.25000 37.10800 30.03800
H  45.89200 37.76800 31.60500
H  45.01200 36.38300 31.69300
H  48.83200 34.04000 31.44200
H  47.89900 32.77400 32.04100
H  49.04800 34.38100 33.87900
H  47.65100 33.49800 34.17300
H  50.09100 39.73200 28.29000
H  48.27900 39.79500 28.52700
H  48.86700 40.50500 27.16900
H  49.99700 40.98500 25.47300
H  51.65500 40.68200 24.75400
H  51.34600 40.09500 26.34000
H  49.79300 34.13900 22.16300
H  47.45700 32.51600 21.85500
H  47.84000 36.13400 22.08900
H  46.97200 34.85500 21.26900
H  48.55600 35.39400 20.67600
H  49.48200 31.01000 23.04800
H  50.26300 32.27900 22.32700
H  50.18300 30.97000 20.47300
H  48.42500 31.43600 20.21600
H  48.84400 29.98200 21.11800
H  44.36400 29.05200 25.71900
H  45.91000 28.24900 26.24800
H  45.86500 29.04300 24.74100
H  44.06500 32.23000 30.10400
H  45.64200 31.53500 33.89900
H  44.10300 30.78200 34.05800
H  44.23500 32.56900 34.25700
Mg 30.18800 58.33700 39.93700
C  27.10600 56.87600 38.95400
C  31.73100 55.52300 38.93900
C  33.12100 59.97100 40.29900
C  28.54500 61.22900 40.71100
N  29.42100 56.30800 39.22800
C  28.17000 55.93000 38.86300
C  28.17200 54.55400 38.11900
C  29.62200 54.05200 38.44700
C  30.33300 55.35800 38.89900
C  29.83900 53.03000 39.63700
C  27.80600 54.50000 36.57100
C  28.69600 55.40900 35.63600
H  27.86400 56.32900 34.78800
N  32.15300 57.86400 39.57000
C  32.56300 56.61100 39.26400
C  33.98400 56.66400 39.16400
C  34.49100 57.92100 39.54300
C  33.24000 58.61600 39.86800
C  34.73100 55.38000 38.72800
C  35.91100 58.38600 39.44100
O  36.72500 57.52200 39.01800
C  36.34700 59.78500 39.69100
N  30.76900 60.38300 40.25900
C  32.06000 60.74200 40.57000
C  32.10900 62.20800 40.75000
C  30.66300 62.59300 41.08600
C  29.89800 61.30800 40.69100
C  33.10300 62.77400 41.81800
C  30.01400 63.84100 40.43800
C  29.42700 64.83400 41.48700
N  28.25500 58.93900 39.95900
C  27.70800 60.19400 40.28300
C  26.28700 60.17000 40.08600
C  25.98400 58.85900 39.56500
C  27.22800 58.14800 39.47600
C  25.29000 61.23400 40.39900
C  24.88600 57.98100 39.15500
O  23.69700 58.07300 39.17500
C  25.67400 56.73700 38.64000
C  24.99800 55.59800 39.30700
O  24.93000 55.37600 40.49200
O  24.63700 54.79600 38.31000
C  23.95900 53.51000 38.74900
H  32.26300 54.64300 38.57100
H  34.08900 60.47400 40.35800
H  27.92300 62.05100 41.07400
H  27.45300 53.93300 38.65300
H  30.14100 53.70400 37.55300
H  28.93000 53.15700 40.22500
H  30.72000 53.23200 40.24700
H  29.92000 51.99900 39.29100
H  26.74000 54.72600 36.55400
H  27.85000 53.45600 36.26000
H  29.20300 54.74300 34.93700
H  29.40600 56.00700 36.20800
H  34.75800 55.29500 37.64200
H  34.21300 54.46400 39.01500
H  35.75700 55.34800 39.09500
H  35.75600 60.36700 38.98300
H  37.39900 59.94300 39.45700
H  36.32400 60.09800 40.73400
H  32.25300 62.64000 39.76000
H  30.70700 62.51600 42.17300
H  33.87000 62.10800 42.21400
H  32.57800 63.11600 42.71000
H  33.64700 63.55900 41.29300
H  29.18100 63.55900 39.79300
H  30.66000 64.49800 39.85600
H  28.54000 65.34100 41.10800
H  30.18800 65.61200 41.54100
H  29.25300 64.34800 42.44700
H  25.60100 61.62000 41.37000
H  24.25600 60.88800 40.39300
H  25.39400 62.02400 39.65400
H  25.45800 56.62500 37.57800
H  24.07200 52.71600 38.01100
H  22.90100 53.76700 38.79300
H  24.34700 53.05500 39.66000

