158

Mg 36.37300 49.74900 24.70000
C  36.22500 48.06700 27.77100
C  35.34900 52.65000 26.23000
C  35.97200 51.23400 21.58400
C  36.99600 46.67800 23.12700
N  35.76400 50.21400 26.71300
C  35.99000 49.42800 27.83400
C  35.74200 50.31700 29.15300
C  35.28000 51.72400 28.58300
C  35.47600 51.55000 27.09600
C  33.98600 52.22500 29.09800
C  37.09800 50.39300 29.95600
C  37.14900 50.51000 31.49300
H  35.93300 50.76600 32.31400
N  35.75300 51.70900 23.99000
C  35.48400 52.74300 24.81000
C  35.17600 53.91100 24.03300
C  35.39100 53.58900 22.65300
C  35.75100 52.11000 22.67700
C  34.74200 55.31700 24.60100
C  35.16900 54.32500 21.34000
O  35.28500 53.76400 20.22000
C  34.66600 55.76900 21.42800
N  36.51100 49.03000 22.66000
C  36.34600 49.87400 21.60700
C  36.77100 49.15200 20.29700
C  37.22300 47.75400 20.82500
C  36.79700 47.76900 22.25000
C  35.70500 49.09900 19.21700
C  38.79900 47.46400 20.69700
C  39.28400 46.04500 20.37900
N  36.60800 47.75800 25.24700
C  36.78300 46.61300 24.52100
C  36.90100 45.51300 25.39400
C  36.71600 45.96700 26.68300
C  36.50400 47.32800 26.57700
C  37.15700 44.11400 24.98100
C  36.60600 45.62700 28.09000
O  36.76900 44.56600 28.65900
C  36.28700 47.03200 28.83500
C  35.07200 46.90500 29.70900
O  33.96300 47.06600 29.35500
O  35.44700 46.41500 30.97300
C  34.32000 46.36400 31.94000
H  35.11700 53.56900 26.77400
H  35.75600 51.61300 20.58300
H  37.36200 45.71700 22.76000
H  34.95300 49.80800 29.70700
H  35.97300 52.50500 28.89200
H  33.80100 51.78500 30.07800
H  33.11700 52.23600 28.44000
H  34.25900 53.26200 29.29300
H  37.67900 51.22700 29.56300
H  37.66700 49.50200 29.69000
H  37.86600 51.30900 31.68000
H  37.68700 49.70400 31.99300
H  35.53800 56.04100 24.42700
H  34.43100 55.24200 25.64300
H  33.86400 55.60400 24.02200
H  35.36600 56.42500 21.94600
H  33.65000 55.78300 21.82200
H  34.58500 56.04900 20.37800
H  37.56600 49.71100 19.80200
H  36.70100 46.93600 20.32800
H  35.85900 49.87400 18.46700
H  34.70300 49.31300 19.58700
H  35.55700 48.11000 18.78500
H  39.32100 47.75400 21.60800
H  39.13800 48.26800 20.04200
H  39.99400 46.18000 19.56300
H  38.45600 45.42500 20.03400
H  39.70100 45.49300 21.22200
H  37.91100 43.98200 24.20400
H  36.20100 43.65900 24.72100
H  37.67200 43.67700 25.83600
H  37.06600 47.21800 29.57500
H  34.56700 46.04700 32.95300
H  33.51200 45.80500 31.46700
H  33.90500 47.36900 32.01900
Mg -10.53100 40.15500 43.17000
C  -9.94400 36.91500 42.29600
C  -7.63500 41.25000 41.58900
C  -11.65900 43.43600 43.21400
C  -13.87700 39.27900 44.15700
N  -9.02900 39.20300 42.01800
C  -8.91600 37.80100 41.82100
C  -7.68300 37.49700 41.02000
C  -6.87900 38.85400 41.00700
C  -7.90300 39.84100 41.60100
C  -5.47800 38.86100 41.69900
C  -7.93800 36.84400 39.59100
C  -6.90000 35.83600 39.17400
H  -5.73500 36.29200 38.35800
N  -9.68400 42.06900 42.60600
C  -8.49300 42.27600 42.00100
C  -8.34300 43.67300 41.73400
C  -9.49900 44.33100 42.14300
C  -10.32800 43.27700 42.69200
C  -7.04700 44.26000 41.08300
C  -9.75400 45.84400 42.14600
O  -8.89300 46.54500 41.64000
C  -10.92000 46.52000 42.69300
N  -12.50700 41.17200 43.78800
C  -12.62300 42.51900 43.70900
C  -14.04000 42.95700 43.98900
C  -14.82500 41.61000 44.53800
C  -13.71300 40.61600 44.10500
C  -14.26700 44.20400 44.84900
C  -16.28200 41.30000 43.91900
C  -16.37900 40.53400 42.68300
N  -11.69800 38.47200 43.32000
C  -12.96800 38.27500 43.74900
C  -13.32100 36.82200 43.62200
C  -12.11600 36.28800 43.04800
C  -11.19400 37.30500 42.81800
C  -14.62600 36.27200 44.00900
C  -11.42100 35.02200 42.72600
O  -11.87000 33.88100 42.79300
C  -10.06000 35.45400 42.00700
C  -8.98400 34.64000 42.60700
O  -8.34100 34.82800 43.62200
O  -8.80300 33.58200 41.75600
C  -7.64900 32.68100 42.02100
H  -6.79000 41.60000 40.99200
H  -12.20700 44.37900 43.16700
H  -14.88200 39.04500 44.51300
H  -7.12100 36.81300 41.65700
H  -6.69500 39.12700 39.96800
H  -4.83800 38.01800 41.43900
H  -5.42800 39.05000 42.77100
H  -5.09700 39.72500 41.15400
H  -8.02700 37.67800 38.89500
H  -8.93800 36.41200 39.64200
H  -7.40800 35.04400 38.62400
H  -6.47200 35.36100 40.05700
H  -6.25800 44.57300 41.76700
H  -7.35300 45.08300 40.43700
H  -6.59500 43.61900 40.32600
H  -10.79800 47.60300 42.68400
H  -11.09100 46.27700 43.74200
H  -11.73600 46.24000 42.02600
H  -14.50600 43.15100 43.02200
H  -14.93700 41.54800 45.62000
H  -13.40600 44.48200 45.45600
H  -14.88800 43.88700 45.68700
H  -14.75100 45.04300 44.34700
H  -16.81300 42.23200 43.72800
H  -16.98700 40.84500 44.61600
H  -17.02000 41.07500 41.98700
H  -16.75300 39.57300 43.03700
H  -15.48700 40.25700 42.12200
H  -14.87400 35.29800 43.58800
H  -15.41400 37.00700 43.84300
H  -14.58100 36.11600 45.08700
H  -10.08800 35.23800 40.93900
H  -7.53200 31.96700 41.20600
H  -7.86800 32.04100 42.87600
H  -6.69300 33.15900 42.23500

