158

Mg 34.71200 3.56800 29.74500
C  32.33400 4.16500 32.36800
C  37.08500 3.57000 32.28500
C  36.79700 3.17600 27.37300
C  32.10500 3.92900 27.51300
N  34.67200 3.81500 32.09800
C  33.59100 4.02600 32.86800
C  33.99200 3.90100 34.37400
C  35.56500 4.22900 34.33000
C  35.84600 3.88400 32.76200
C  36.01200 5.72500 34.64200
C  33.60600 2.55300 35.07700
C  33.06500 2.76800 36.48600
H  33.69800 3.90900 37.36000
N  36.72600 3.43400 29.84300
C  37.50200 3.35600 30.94400
C  38.90100 3.08300 30.50300
C  38.84900 3.02600 29.04900
C  37.47000 3.24600 28.65100
C  40.07700 2.78100 31.43900
C  39.91900 2.68700 28.08300
O  39.70200 2.64300 26.92400
C  41.29800 2.38600 28.70500
N  34.47800 3.65400 27.73300
C  35.50800 3.48400 26.94900
C  35.18400 3.56700 25.40100
C  33.66000 3.61400 25.49500
C  33.35100 3.76200 27.02000
C  35.77000 4.67500 24.58400
C  32.97900 2.28000 24.87100
C  32.63900 1.15100 25.76600
N  32.69400 3.93000 29.92100
C  31.75300 4.02800 28.86700
C  30.43200 4.25100 29.43800
C  30.66400 4.32400 30.85100
C  32.04900 4.15100 31.04900
C  29.16200 4.20500 28.65900
C  29.97800 4.44600 32.07700
O  28.85000 4.78500 32.34500
C  31.11500 4.30200 33.13900
C  31.13700 5.58400 33.93800
O  31.42900 6.73500 33.54800
O  30.67400 5.34100 35.16300
C  30.45700 6.58600 35.98600
H  37.80300 3.55800 33.10800
H  37.50100 3.00800 26.55500
H  31.42900 4.08100 26.66900
H  33.61700 4.68100 35.03800
H  36.04300 3.53200 35.01800
H  36.78600 6.06900 33.95600
H  36.30000 5.83100 35.68800
H  35.16800 6.39200 34.46300
H  34.45100 1.86500 35.06200
H  32.77300 2.19500 34.47200
H  33.25300 1.90000 37.11700
H  32.03000 3.10900 36.51400
H  39.72300 2.84400 32.46800
H  40.91900 3.44800 31.25100
H  40.42200 1.75700 31.29800
H  41.58000 3.27900 29.26400
H  42.05100 2.27000 27.92500
H  41.26600 1.45100 29.26300
H  35.64000 2.69500 24.93200
H  33.32800 4.50900 24.96900
H  35.03400 5.25500 24.02700
H  36.44800 4.22500 23.85900
H  36.30300 5.39700 25.20200
H  33.77500 1.85700 24.25900
H  32.13400 2.64700 24.28900
H  31.58100 1.11900 26.02700
H  33.15200 1.19300 26.72700
H  32.95800 0.16400 25.43100
H  28.62700 5.15400 28.65100
H  28.58400 3.42000 29.14700
H  29.35500 3.83700 27.65200
H  30.90700 3.40700 33.72600
H  29.74800 7.32400 35.61200
H  31.36100 7.11400 36.28700
H  30.14100 5.99000 36.84300
Mg 26.96200 50.86100 26.77100
C  25.04100 51.86300 29.44300
C  29.57600 50.21500 28.95500
C  28.93200 50.04400 24.10900
C  24.54400 52.05500 24.63400
N  27.29900 51.13600 28.89200
C  26.27700 51.37400 29.76700
C  26.73300 51.24400 31.26200
C  28.26200 50.92900 31.08000
C  28.42800 50.75200 29.56500
C  29.26000 51.98900 31.58100
C  25.85600 50.14800 31.97100
C  25.40100 50.41900 33.42900
H  26.50500 50.85100 34.38200
N  29.04900 50.11500 26.57000
C  29.92400 49.97900 27.62200
C  31.13300 49.44000 26.99400
C  31.02900 49.51200 25.60600
C  29.66000 49.85100 25.36200
C  32.28400 48.95400 27.95700
C  32.15200 49.33100 24.55200
O  32.02000 49.53600 23.36500
C  33.47800 48.81900 25.07100
N  26.78800 51.14100 24.64500
C  27.65900 50.62400 23.79000
C  27.12600 50.65500 22.37900
C  25.73700 51.39900 22.45300
C  25.66400 51.49700 23.96900
C  28.01800 51.33400 21.23100
C  24.66300 50.54100 21.69700
C  23.95300 49.41200 22.46300
N  25.14100 51.83100 26.92400
C  24.31200 52.25200 25.95900
C  23.10800 52.78400 26.55400
C  23.33600 52.70400 27.94400
C  24.56300 52.05000 28.13500
C  21.84600 53.36200 25.86600
C  22.73200 52.88200 29.25000
O  21.60700 53.33900 29.46800
C  23.84800 52.42900 30.32300
C  24.22300 53.54500 31.24700
O  25.02600 54.42200 30.92000
O  23.49300 53.45000 32.39800
C  23.78200 54.58400 33.34900
H  30.31800 49.95900 29.71500
H  29.36800 49.76200 23.14800
H  23.71100 52.27400 23.96200
H  26.53600 52.15700 31.82300
H  28.52400 49.95800 31.50100
H  28.75100 52.74900 32.17300
H  29.60300 52.60500 30.74900
H  30.11000 51.57100 32.12200
H  26.27200 49.14100 32.01000
H  24.96500 50.00800 31.36000
H  24.96200 49.55500 33.92800
H  24.57800 51.13300 33.39400
H  33.14000 49.62200 27.86400
H  32.62500 47.93000 27.80600
H  31.90500 48.87200 28.97500
H  34.03900 49.39200 25.80900
H  34.11800 48.76000 24.19100
H  33.14700 47.86000 25.47000
H  26.94000 49.63500 22.04200
H  25.76900 52.46200 22.21500
H  27.48300 51.95400 20.51300
H  28.31900 50.48300 20.62100
H  28.92600 51.84300 21.55300
H  25.18000 50.03500 20.88100
H  24.00800 51.16500 21.08900
H  24.12600 49.15900 23.50900
H  24.22600 48.49600 21.94100
H  22.93900 49.78100 22.31000
H  21.41800 54.14500 26.49200
H  21.13500 52.54700 25.73200
H  22.20300 53.78400 24.92600
H  23.52100 51.63200 30.99000
H  23.92200 55.46200 32.71800
H  24.71100 54.29000 33.83700
H  22.97500 54.73100 34.06800

