158

Mg 30.31200 58.13900 40.37200
C  27.26700 56.47400 39.36700
C  32.12500 55.46500 39.21700
C  33.19600 60.03300 40.62500
C  28.40400 61.03300 40.80700
N  29.74000 56.15000 39.56000
C  28.48700 55.74300 39.21400
C  28.57900 54.46400 38.42800
C  30.12700 53.95500 38.77700
C  30.71900 55.24800 39.27700
C  30.14900 52.81800 39.82900
C  28.37000 54.76600 36.95500
C  27.32300 53.77300 36.37200
H  26.53200 54.22500 35.20400
N  32.34200 57.84200 39.91600
C  32.88400 56.67600 39.45500
C  34.29600 56.71600 39.49800
C  34.66500 58.04000 39.90000
C  33.39600 58.71400 40.12200
C  35.17300 55.63700 39.13500
C  36.08200 58.59800 40.01300
O  37.06400 57.87400 39.80000
C  36.30700 59.97800 40.40700
N  30.72400 60.29000 40.48100
C  32.01100 60.76200 40.78200
C  31.87800 62.33500 41.07400
C  30.37300 62.59300 41.22200
C  29.78700 61.23800 40.74000
C  32.71600 62.88100 42.29300
C  29.84600 63.76200 40.42700
C  29.56500 63.63200 38.89700
N  28.30800 58.65600 40.17600
C  27.68900 59.86400 40.44900
C  26.28100 59.76700 40.25900
C  26.05300 58.47900 39.78600
C  27.29000 57.78600 39.80300
C  25.34200 60.95100 40.39200
C  25.08900 57.54500 39.35000
O  23.87400 57.74200 39.17800
C  25.80600 56.19100 39.03000
C  25.14100 55.06200 39.89300
O  24.71900 55.16600 41.02600
O  25.23200 53.88200 39.14500
C  24.61700 52.82100 39.89000
H  32.61700 54.56300 38.84800
H  34.06300 60.61600 40.94400
H  27.79200 61.91800 40.99300
H  27.91300 53.70000 38.82900
H  30.72000 53.69600 37.90000
H  30.97100 52.13500 39.61300
H  29.23700 52.22100 39.86000
H  30.34100 53.27000 40.80200
H  29.34100 54.50200 36.53800
H  28.16100 55.77900 36.61000
H  26.60500 53.33800 37.06600
H  27.87400 52.87900 36.08200
H  35.61700 55.05300 39.94200
H  35.87500 56.15600 38.48200
H  34.69600 54.88800 38.50300
H  35.97400 60.12400 41.43400
H  35.80600 60.61600 39.67900
H  37.38900 60.07400 40.49700
H  32.29000 62.90700 40.24300
H  30.18100 62.69100 42.29100
H  33.18800 62.06200 42.83500
H  32.05700 63.19400 43.10300
H  33.34900 63.70600 41.96500
H  30.57700 64.56800 40.36100
H  28.95000 64.24300 40.81800
H  29.65400 62.60700 38.53900
H  30.38700 64.17200 38.42700
H  28.66000 64.06700 38.47300
H  25.78400 61.81200 40.89300
H  24.52200 60.49500 40.94700
H  24.87600 61.21700 39.44300
H  25.59000 55.83800 38.02200
H  25.00000 52.69600 40.90300
H  24.82000 51.85800 39.42100
H  23.53200 52.88400 39.96800
Mg 26.41900 49.75000 25.99200
C  24.22300 51.03500 28.43400
C  28.40500 48.66400 28.66300
C  28.69700 48.78100 23.67200
C  24.48000 51.14800 23.58100
N  26.23800 49.76900 28.29700
C  25.28800 50.38300 29.07800
C  25.44900 49.96200 30.57800
C  26.90100 49.41900 30.65500
C  27.20000 49.22900 29.08800
C  27.96700 50.36800 31.32600
C  24.26300 49.11200 31.11100
C  23.75100 49.46900 32.53000
H  23.85900 48.28300 33.56500
N  28.32400 48.88900 26.17100
C  29.00000 48.54400 27.32800
C  30.31600 48.00000 27.03500
C  30.47500 48.12100 25.58500
C  29.14800 48.64900 25.08600
C  31.21100 47.46900 28.05900
C  31.68400 47.84100 24.76300
O  31.82600 48.14600 23.57700
C  32.85200 47.17200 25.35900
N  26.57100 49.89000 23.91500
C  27.42900 49.23500 23.16600
C  27.06800 49.31400 21.63600
C  25.86300 50.31100 21.60800
C  25.58400 50.46000 23.09300
C  28.29800 49.77200 20.76300
C  24.62700 49.72500 20.93500
C  23.86100 48.62800 21.73300
N  24.67600 50.85900 25.96600
C  23.96300 51.34400 24.90600
C  22.76800 52.04300 25.35200
C  22.85100 51.98300 26.71700
C  24.08000 51.27800 27.03700
C  21.63100 52.54100 24.44700
C  22.14400 52.31100 27.98000
O  21.12900 52.97100 28.14000
C  22.98100 51.63700 29.10200
C  23.43900 52.70900 30.03800
O  24.28800 53.56400 29.93200
O  22.69200 52.48200 31.22300
C  22.89700 53.29800 32.36500
H  28.90200 48.32400 29.57400
H  29.44100 48.29900 23.03300
H  23.92400 51.60300 22.75800
H  25.45900 50.87400 31.17600
H  26.87500 48.45600 31.16400
H  28.53800 49.92000 32.13900
H  27.46400 51.15100 31.89200
H  28.66100 50.83800 30.62800
H  24.58000 48.07000 31.07400
H  23.43900 49.09300 30.39700
H  22.75600 49.91400 32.51600
H  24.44700 50.21500 32.91400
H  30.75700 47.57400 29.04400
H  32.20100 47.91600 28.15400
H  31.30700 46.42600 27.75800
H  32.53800 46.26700 25.87800
H  33.23200 47.90700 26.06900
H  33.60300 46.97600 24.59400
H  26.76700 48.32400 21.29300
H  26.05800 51.27800 21.14400
H  28.42000 49.02200 19.98100
H  29.24100 49.82700 21.30600
H  28.16600 50.76500 20.33500
H  24.91900 49.25300 19.99700
H  23.95000 50.50300 20.58200
H  22.86800 49.00300 21.97900
H  24.29500 48.38300 22.70300
H  23.77500 47.69000 21.18400
H  21.07400 51.65300 24.15000
H  21.91800 53.10800 23.56100
H  21.02000 53.16000 25.10400
H  22.33200 50.90100 29.57500
H  23.28000 52.61600 33.12400
H  21.93100 53.64200 32.73500
H  23.53700 54.18100 32.34400

