158

Mg -11.29000 16.19200 42.08100
C  -7.85900 16.00700 41.98800
C  -11.22600 19.43100 41.01600
C  -14.67500 16.21700 41.99200
C  -11.41800 12.64600 42.89800
N  -9.69600 17.45400 41.35400
C  -8.31000 17.19600 41.39900
C  -7.54700 18.36800 40.70700
C  -8.67000 19.49000 40.70100
C  -9.94900 18.78200 41.07100
C  -8.33300 20.57800 41.72000
C  -7.02600 18.05800 39.28500
C  -5.50200 17.86800 39.15100
H  -4.87600 18.52500 37.87100
N  -12.78200 17.69200 41.54100
C  -12.50900 18.94600 41.23200
C  -13.72700 19.69600 41.02100
C  -14.81600 18.75500 41.24700
C  -14.12900 17.48600 41.67000
C  -13.80400 21.14500 40.55800
C  -16.23700 19.08200 40.99200
O  -16.61600 20.12200 40.56100
C  -17.35600 18.01100 41.29800
N  -12.80500 14.60000 42.34900
C  -14.14600 14.96600 42.27100
C  -15.02900 13.70900 42.53400
C  -13.99500 12.52100 42.68600
C  -12.65200 13.28500 42.64000
C  -15.98400 13.93500 43.73600
C  -14.02800 11.54000 41.40400
C  -14.33500 10.13400 41.82500
N  -9.89500 14.61900 42.52600
C  -10.09400 13.28200 42.80100
C  -8.76600 12.69800 43.04400
C  -7.85100 13.75300 42.77300
C  -8.62300 14.85400 42.42900
C  -8.50100 11.31900 43.32100
C  -6.47200 14.14400 42.61300
O  -5.45400 13.49800 42.89300
C  -6.38600 15.64700 42.15200
C  -5.68600 16.36700 43.26200
O  -5.98600 16.30700 44.46100
O  -4.48900 16.92100 42.79500
C  -3.49700 17.30900 43.80900
H  -11.10700 20.43300 40.60000
H  -15.75800 16.19100 42.13400
H  -11.55100 11.60100 43.18800
H  -6.64100 18.72000 41.20100
H  -8.72300 19.95400 39.71600
H  -9.16500 20.80500 42.38700
H  -8.05200 21.46100 41.14600
H  -7.48500 20.27900 42.33700
H  -7.25300 18.77400 38.49500
H  -7.49600 17.20800 38.79100
H  -5.26200 16.81600 39.29900
H  -5.06700 18.42400 39.98200
H  -14.40500 21.82200 41.16500
H  -14.22500 21.24900 39.55800
H  -12.87200 21.68800 40.71800
H  -18.36300 18.37300 41.09000
H  -17.21500 17.72000 42.33900
H  -17.29100 17.18900 40.58600
H  -15.76800 13.48400 41.76500
H  -13.95100 12.05200 43.66800
H  -16.99400 13.79900 43.34900
H  -15.82100 14.97000 44.03900
H  -15.68200 13.23400 44.51400
H  -13.08900 11.48900 40.85400
H  -14.76200 11.90200 40.68400
H  -14.30100 9.98400 42.90500
H  -13.55600 9.48400 41.42600
H  -15.33500 9.89100 41.46500
H  -7.74000 11.04200 42.59200
H  -9.39700 10.70700 43.42500
H  -8.07700 11.33200 44.32500
H  -5.82400 15.71000 41.22000
H  -3.23700 18.36600 43.75000
H  -2.52500 16.84500 43.64200
H  -3.85900 17.02400 44.79800
Mg -5.93900 25.49300 26.23300
C  -4.04100 26.95500 28.82000
C  -7.23200 23.33300 28.51000
C  -7.15700 23.80500 23.59900
C  -4.21000 27.71500 24.06700
N  -5.58700 25.18100 28.41000
C  -5.06000 26.10500 29.27800
C  -5.52600 25.87500 30.72100
C  -6.29900 24.54700 30.55500
C  -6.42300 24.29600 29.07600
C  -5.89800 23.27900 31.31900
C  -6.26800 27.08200 31.35600
C  -6.82300 26.83800 32.72300
H  -6.14800 25.82200 33.62700
N  -7.13500 23.84900 26.05100
C  -7.56900 23.09600 27.12100
C  -8.36900 22.00800 26.60200
C  -8.40900 22.17300 25.18700
C  -7.53700 23.27600 24.84200
C  -9.06500 21.11500 27.53700
C  -9.25500 21.44600 24.15400
O  -9.36900 21.82700 22.97900
C  -10.18500 20.36600 24.61500
N  -5.67500 25.62300 24.13500
C  -6.22900 24.79900 23.23800
C  -5.98800 25.25300 21.77600
C  -5.21700 26.56600 21.91700
C  -5.00800 26.70900 23.50100
C  -5.39100 24.14800 20.86300
C  -5.77300 27.84400 21.24200
C  -5.05600 28.47800 20.06200
N  -4.42100 27.00600 26.36800
C  -3.80100 27.79100 25.38600
C  -2.81700 28.66500 25.94700
C  -2.84000 28.28400 27.32800
C  -3.79600 27.28500 27.49000
C  -1.98200 29.70300 25.23700
C  -2.30900 28.56100 28.63500
O  -1.45300 29.42200 28.92400
C  -3.06900 27.69700 29.65600
C  -2.15000 27.09800 30.72100
O  -1.47100 26.10800 30.55500
O  -2.27400 27.82800 31.88900
C  -1.87600 27.21600 33.11500
H  -7.68000 22.67200 29.25600
H  -7.31700 23.21100 22.69600
H  -3.75000 28.43500 23.38700
H  -4.68700 25.69400 31.39400
H  -7.31200 24.79800 30.87000
H  -5.04300 23.38700 31.98600
H  -5.57200 22.44600 30.69600
H  -6.73900 23.02600 31.96500
H  -7.10700 27.19200 30.67000
H  -5.60500 27.94800 31.37900
H  -7.86900 26.57700 32.56400
H  -6.76500 27.74400 33.32700
H  -10.07900 21.51400 27.56500
H  -8.64300 21.21700 28.53600
H  -9.09600 20.05800 27.27400
H  -10.74300 20.00800 23.75000
H  -10.98800 20.72400 25.25800
H  -9.54800 19.61600 25.08300
H  -6.95600 25.52700 21.35700
H  -4.17600 26.49500 21.60200
H  -5.53200 23.13300 21.23600
H  -4.31200 24.29800 20.84200
H  -5.86700 24.17400 19.88300
H  -5.84900 28.58200 22.04000
H  -6.77000 27.64600 20.84900
H  -4.44600 29.31700 20.39800
H  -5.82400 28.92600 19.43100
H  -4.48900 27.75700 19.47300
H  -2.03800 29.73400 24.14900
H  -0.94000 29.70300 25.55900
H  -2.33100 30.64000 25.67100
H  -3.69100 28.50300 30.04500
H  -1.27100 28.00200 33.56700
H  -1.35500 26.26300 33.03000
H  -2.74600 27.17900 33.77100

