158

Mg -1.78600 17.39900 26.25400
C  -1.91100 15.17600 28.97100
C  -2.27900 20.04900 28.56700
C  -2.41300 19.62300 23.69300
C  -2.02100 14.71500 24.17500
N  -1.99200 17.59200 28.53100
C  -2.01400 16.49200 29.37800
C  -2.11300 16.98100 30.83900
C  -2.20700 18.58300 30.76600
C  -2.15500 18.78600 29.21800
C  -3.55500 19.19900 31.41800
C  -1.01400 16.40200 31.82300
C  -0.73200 17.24400 32.95700
H  -0.28700 16.63800 34.30600
N  -2.15900 19.51000 26.13300
C  -2.20900 20.41800 27.20300
C  -2.23100 21.78700 26.66800
C  -2.08100 21.64500 25.28000
C  -2.32800 20.20200 24.94000
C  -2.21500 23.06200 27.53100
C  -1.89100 22.71700 24.26200
O  -2.01300 22.56100 23.03500
C  -1.39200 24.02700 24.76600
N  -2.16300 17.13300 24.27600
C  -2.33900 18.18500 23.39800
C  -2.66400 17.68700 22.00800
C  -2.28500 16.20600 22.04300
C  -2.09500 15.98200 23.60600
C  -4.08000 18.02400 21.58700
C  -0.97100 15.83100 21.22600
C  0.47500 16.03300 21.69200
N  -1.86200 15.34300 26.49000
C  -1.89900 14.32800 25.54000
C  -1.88300 13.04400 26.14400
C  -2.03700 13.35900 27.51900
C  -1.89600 14.74900 27.66700
C  -1.91300 11.72600 25.56800
C  -2.19900 12.70400 28.78000
O  -2.38400 11.50700 29.08000
C  -2.07200 13.84000 29.80300
C  -0.86100 13.47600 30.77400
O  0.26500 13.75700 30.60600
O  -1.36700 12.77000 31.80300
C  -0.50300 12.46000 32.93400
H  -2.41200 20.90100 29.23700
H  -2.48200 20.26100 22.80900
H  -2.10000 13.87800 23.47900
H  -3.05500 16.62900 31.25900
H  -1.40300 19.19600 31.17400
H  -3.35000 20.18100 31.84400
H  -3.93600 18.67600 32.29600
H  -4.32800 19.29900 30.65700
H  -0.10700 16.12700 31.28600
H  -1.41700 15.54800 32.36800
H  -1.52200 17.96700 33.15900
H  0.14800 17.76800 32.58400
H  -2.77000 23.86500 27.04500
H  -1.21600 23.45200 27.72800
H  -2.84600 22.95600 28.41400
H  -1.22100 24.57600 23.84100
H  -0.47600 23.87500 25.33700
H  -2.19100 24.54900 25.29300
H  -2.02200 18.17400 21.27300
H  -3.04400 15.50500 21.69800
H  -4.54300 18.53300 22.43200
H  -4.55500 17.05900 21.41000
H  -3.92000 18.69800 20.74600
H  -1.01800 16.20300 20.20200
H  -0.99000 14.74800 21.10000
H  0.48200 16.32700 22.74200
H  1.16300 16.65600 21.12100
H  1.03800 15.10000 21.66800
H  -1.23100 11.20900 26.24200
H  -1.49700 11.87500 24.57100
H  -2.96800 11.45600 25.59800
H  -2.91200 14.02100 30.47300
H  -0.85200 11.48300 33.26900
H  -0.77800 13.30300 33.56800
H  0.58400 12.44800 32.84500
Mg 25.91200 50.27600 26.41900
C  23.59300 51.52400 28.70600
C  28.04700 49.54900 29.04500
C  28.14800 49.52000 24.11700
C  23.70100 51.53500 23.79400
N  25.79000 50.55300 28.67200
C  24.72000 51.07800 29.39600
C  24.94800 50.84900 30.89700
C  26.37900 50.47600 30.88600
C  26.81600 50.18600 29.42100
C  27.40800 51.32300 31.72000
C  23.96600 49.82200 31.56900
C  24.16400 49.37100 33.03800
H  24.68700 50.36100 34.08100
N  27.83400 49.52000 26.51500
C  28.53700 49.22400 27.69000
C  29.83800 48.64300 27.29900
C  29.82800 48.64700 25.86800
C  28.57600 49.27200 25.41200
C  30.88500 48.21500 28.36000
C  30.94800 48.09300 24.92900
O  30.77700 48.01500 23.66500
C  32.29700 47.49900 25.45200
N  25.78600 50.24400 24.22000
C  26.90100 49.98000 23.53200
C  26.60000 50.22400 22.02300
C  25.12200 50.70700 21.98800
C  24.85800 50.83500 23.43700
C  27.55500 51.06800 21.33400
C  23.99500 49.82400 21.40000
C  23.05100 50.62500 20.35200
N  23.91200 51.31500 26.22200
C  23.18800 51.68000 25.12700
C  21.99000 52.27800 25.56300
C  22.11000 52.25300 26.94300
C  23.28900 51.67000 27.30800
C  20.87100 52.83200 24.74900
C  21.40000 52.58800 28.19200
O  20.36200 53.15200 28.41600
C  22.32300 52.14500 29.34900
C  22.72500 53.20500 30.19800
O  23.48100 54.10500 29.90700
O  22.27600 52.95900 31.44300
C  22.35600 54.17600 32.41200
H  28.66100 49.28800 29.90900
H  28.79100 49.23800 23.28100
H  23.05600 51.93400 23.00900
H  24.99000 51.80400 31.42100
H  26.42100 49.50800 31.38600
H  27.82700 52.09700 31.07700
H  28.23900 50.81100 32.20500
H  26.88400 51.88700 32.49200
H  24.05800 48.92200 30.96100
H  22.97700 50.22100 31.34000
H  24.67800 48.41100 33.01600
H  23.10800 49.36000 33.31100
H  31.11300 47.16300 28.18900
H  30.48700 48.34300 29.36700
H  31.73900 48.89000 28.41700
H  32.97900 48.26900 25.81200
H  32.57100 46.84200 24.62700
H  32.09200 46.78100 26.24600
H  26.79000 49.25600 21.56100
H  25.07100 51.69400 21.52900
H  28.44700 51.27500 21.92600
H  27.17400 52.08500 21.24400
H  27.95000 50.66500 20.40100
H  23.29100 49.33600 22.07400
H  24.46700 48.97700 20.90100
H  22.81900 49.99000 19.49800
H  23.60200 51.52100 20.06600
H  22.15700 50.89000 20.91700
H  20.32600 53.52700 25.38800
H  20.24700 52.01200 24.39400
H  21.34200 53.42100 23.96200
H  21.86100 51.33900 29.91800
H  22.36500 55.08200 31.80600
H  23.24400 54.04700 33.03100
H  21.49500 54.12500 33.07800

