158

Mg 1.42200 41.77700 25.53200
C  3.07700 41.91800 28.58600
C  -1.42300 40.76900 27.25000
C  0.04700 40.98500 22.53400
C  4.48200 42.62200 23.84000
N  0.86000 41.59700 27.74100
C  1.68900 41.73400 28.81000
C  0.85300 41.60300 30.17600
C  -0.61500 41.19100 29.66600
C  -0.41600 41.24300 28.15600
C  -1.06000 39.78800 30.24800
C  0.88600 42.86500 31.13300
C  1.41700 42.74900 32.61400
H  1.31200 41.42100 33.44500
N  -0.38400 41.00500 25.03600
C  -1.44000 40.58200 25.80200
C  -2.56900 40.18800 24.98900
C  -2.09800 40.13700 23.66900
C  -0.79700 40.74400 23.63000
C  -3.97500 39.83700 25.59100
C  -2.86100 39.82000 22.41800
O  -2.34000 39.73300 21.30100
C  -4.29700 39.40500 22.42600
N  2.10500 42.00000 23.50400
C  1.34200 41.56000 22.44000
C  2.04000 41.65500 21.12200
C  3.39000 42.32900 21.46800
C  3.32800 42.42600 23.01400
C  2.17700 40.32400 20.33500
C  3.61200 43.68300 20.76100
C  2.84800 44.85200 21.35800
N  3.38000 42.38200 26.04000
C  4.54500 42.55000 25.28800
C  5.69200 42.59900 26.17100
C  5.15000 42.41800 27.46700
C  3.74500 42.18400 27.34400
C  7.10500 42.78100 25.78500
C  5.46800 42.32000 28.87000
O  6.56900 42.49400 29.35400
C  4.16900 41.99000 29.68900
C  4.36000 40.82600 30.53800
O  3.99100 39.68600 30.32100
O  5.11300 41.22100 31.59700
C  5.32000 40.29800 32.68100
H  -2.31500 40.52100 27.82900
H  -0.34000 40.60100 21.58800
H  5.44300 42.83700 23.36700
H  1.28900 40.79900 30.76900
H  -1.25500 42.02600 29.94900
H  -1.01700 38.96500 29.53400
H  -2.11200 39.85600 30.52300
H  -0.53900 39.44100 31.14100
H  -0.07300 43.37700 31.21700
H  1.52500 43.59500 30.63700
H  1.21600 43.59300 33.27300
H  2.49400 42.77800 32.44500
H  -4.68200 40.52400 25.12500
H  -4.13800 39.93600 26.66400
H  -4.21500 38.82800 25.25600
H  -4.89600 40.22000 22.83100
H  -4.34800 38.45100 22.95100
H  -4.74500 39.47800 21.43500
H  1.28000 42.24200 20.60700
H  4.22300 41.70900 21.13600
H  1.36100 40.29200 19.61400
H  2.12300 39.51800 21.06700
H  3.11400 40.32300 19.77700
H  3.37700 43.53900 19.70600
H  4.65800 43.97000 20.86200
H  2.08200 44.56200 22.07700
H  2.29600 45.36300 20.56900
H  3.50500 45.57800 21.83900
H  7.30700 42.34200 24.80800
H  7.76600 42.32300 26.52000
H  7.43900 43.81100 25.65900
H  4.15800 42.86000 30.34600
H  6.39100 40.14700 32.81200
H  4.82700 39.33700 32.53600
H  4.88000 40.79200 33.54700
Mg -12.01300 16.76000 41.49700
C  -9.04200 14.91900 41.07400
C  -10.49300 19.42800 40.11600
C  -14.99000 18.05800 41.26000
C  -13.53100 13.52200 42.16100
N  -10.10600 17.01600 40.59800
C  -8.93800 16.19600 40.65100
C  -7.65400 16.82100 40.09100
C  -8.21000 18.29000 39.82000
C  -9.71400 18.25200 40.18300
C  -7.50800 19.49800 40.43700
C  -7.30500 16.17200 38.69000
C  -5.97000 15.32700 38.59600
H  -5.02500 15.70300 37.47800
N  -12.64300 18.59200 40.83600
C  -11.86200 19.55300 40.36100
C  -12.71900 20.73600 40.13200
C  -14.01700 20.33400 40.44400
C  -13.91000 18.91200 40.89500
C  -12.25200 22.07100 39.61300
C  -15.18800 21.27400 40.39100
O  -15.10100 22.44600 39.95000
C  -16.63400 20.86900 40.72400
N  -13.93800 15.90800 41.83000
C  -15.05000 16.70600 41.65100
C  -16.38900 15.93600 41.85600
C  -15.80700 14.58400 42.28800
C  -14.33100 14.69600 42.07800
C  -17.39100 16.55100 42.79800
C  -16.34300 13.32500 41.51800
C  -16.75300 12.21600 42.52200
N  -11.45300 14.64400 41.67300
C  -12.14500 13.50400 41.96200
C  -11.30000 12.39000 42.15700
C  -10.05700 12.96500 41.86900
C  -10.22000 14.31500 41.54200
C  -11.60300 10.98500 42.47200
C  -8.65300 12.57500 41.67100
O  -8.14600 11.48800 41.80000
C  -7.99300 13.82100 41.25700
C  -7.05400 14.09700 42.33400
O  -7.23700 14.61000 43.43700
O  -5.79200 13.62000 41.92600
C  -4.70000 14.24100 42.67300
H  -10.02400 20.37800 39.85200
H  -15.98100 18.51300 41.21300
H  -14.01800 12.61700 42.53100
H  -6.78400 16.82000 40.74800
H  -8.21700 18.52000 38.75400
H  -7.58900 20.33500 39.74300
H  -6.50000 19.33000 40.81800
H  -7.98600 19.77200 41.37800
H  -7.37100 16.88000 37.86400
H  -8.09100 15.53500 38.28500
H  -6.21000 14.29200 38.35200
H  -5.43000 15.47700 39.53100
H  -12.30800 22.07000 38.52400
H  -11.18300 22.28200 39.65500
H  -12.67900 22.99800 39.99500
H  -17.25900 21.76100 40.77200
H  -16.68400 20.35600 41.68400
H  -16.95200 20.17300 39.94800
H  -16.85200 15.83400 40.87500
H  -15.98000 14.52400 43.36300
H  -18.39700 16.67300 42.39700
H  -16.93300 17.47700 43.14600
H  -17.49600 15.93000 43.68700
H  -15.76800 12.92700 40.68100
H  -17.27800 13.63100 41.04800
H  -17.28800 11.40500 42.02800
H  -17.27800 12.58500 43.40400
H  -15.85700 11.68800 42.84900
H  -10.69300 10.38900 42.54000
H  -12.16200 10.43200 41.71700
H  -12.10700 10.96600 43.43900
H  -7.51000 13.71200 40.28600
H  -4.00100 14.23000 41.83700
H  -4.36300 13.60600 43.49200
H  -4.78700 15.27100 43.01800

