158

Mg 6.00000 53.22400 41.27200
C  4.20800 50.24400 41.45900
C  8.54100 51.47400 39.76100
C  7.54800 56.21800 40.76000
C  3.27300 54.78500 42.47700
N  6.25800 51.10500 40.60100
C  5.41400 50.06400 40.76700
C  5.86800 48.90800 39.89500
C  7.35900 49.17700 39.70900
C  7.42200 50.68200 40.06200
C  8.27800 48.25100 40.51400
C  5.07000 48.99300 38.55300
C  4.88000 47.70500 37.75600
H  5.64300 47.52300 36.50600
N  7.73900 53.75700 40.43700
C  8.66900 52.89200 39.86000
C  9.78200 53.61500 39.32600
C  9.62600 54.94100 39.77200
C  8.28100 55.01100 40.38400
C  10.87600 52.95600 38.49100
C  10.55900 56.08600 39.51600
O  11.49300 56.06000 38.75300
C  10.44700 57.43400 40.20200
N  5.47100 55.22400 41.54800
C  6.24800 56.29000 41.32400
C  5.52500 57.60300 41.50200
C  4.23200 57.13600 42.12700
C  4.28000 55.61500 41.98000
C  6.27500 58.63000 42.31500
C  2.91600 57.80200 41.50600
C  1.92400 58.44800 42.47300
N  4.05400 52.67500 41.83900
C  3.13000 53.41000 42.45500
C  2.06700 52.56300 43.00500
C  2.40300 51.27400 42.66700
C  3.63500 51.47700 41.91700
C  0.92000 53.02400 43.86100
C  2.10100 49.84500 42.70100
O  1.11200 49.31200 43.12300
C  3.30600 49.09200 42.08800
C  2.93100 47.95500 41.19400
O  2.25900 48.08300 40.17000
O  3.54400 46.77600 41.61900
C  3.53300 45.62500 40.71200
H  9.43300 51.04500 39.29900
H  7.92700 57.22000 40.54700
H  2.45500 55.37000 42.90100
H  5.57700 47.99600 40.41600
H  7.69200 49.00700 38.68600
H  7.71300 47.48400 41.04500
H  9.01300 48.79100 41.11100
H  8.80600 47.64100 39.78100
H  5.53800 49.65300 37.82300
H  4.04700 49.36700 38.59500
H  3.81700 47.64800 37.52000
H  5.00500 46.78300 38.32400
H  11.05800 53.69500 37.71000
H  10.63900 52.02400 37.97900
H  11.82400 52.88700 39.02400
H  11.40400 57.94100 40.32700
H  10.02100 57.24300 41.18700
H  9.95500 58.21500 39.62400
H  5.39200 58.04800 40.51600
H  4.12400 57.32600 43.19500
H  6.62400 59.46800 41.71000
H  7.15800 58.17800 42.76600
H  5.65400 58.94700 43.15200
H  2.40400 56.98200 41.00400
H  3.08500 58.54200 40.72400
H  2.35100 58.61300 43.46300
H  1.05900 57.78700 42.51200
H  1.65800 59.37100 41.95700
H  1.11200 53.95500 44.39400
H  0.62800 52.22600 44.54400
H  0.05300 53.25300 43.24000
H  3.92700 48.58800 42.82900
H  4.55300 45.23900 40.71600
H  3.20700 45.79200 39.68500
H  2.83100 44.87100 41.06700
Mg 1.77000 42.66100 25.89900
C  2.78800 42.50200 29.34100
C  -1.25900 41.19500 26.87800
C  0.97200 42.35000 22.55700
C  4.95400 43.59000 25.07100
N  0.85800 42.01900 27.89200
C  1.41400 42.19000 29.17600
C  0.32500 41.75800 30.26400
C  -0.86100 41.15000 29.40100
C  -0.43100 41.53200 27.95300
C  -1.17800 39.61300 29.63400
C  -0.09200 42.97000 31.14800
C  -0.04700 42.79500 32.71700
H  -0.65600 41.56500 33.44800
N  0.11400 41.90300 24.88900
C  -1.02900 41.40200 25.47700
C  -1.95200 41.05900 24.41800
C  -1.41800 41.46200 23.11800
C  -0.02800 41.95600 23.49600
C  -3.29200 40.48700 24.63900
C  -1.96000 41.38800 21.67900
O  -1.37200 41.91400 20.78000
C  -3.20600 40.62800 21.43000
N  2.91500 42.78400 24.08200
C  2.30900 42.68700 22.82500
C  3.30700 43.20400 21.76100
C  4.40400 43.91400 22.57000
C  4.11500 43.34200 24.00500
C  3.80300 42.18400 20.69300
C  4.26500 45.47900 22.53700
C  2.94900 46.15500 22.75600
N  3.53300 43.06800 26.97800
C  4.79100 43.38300 26.43900
C  5.75900 43.40200 27.56700
C  5.00400 43.08200 28.72400
C  3.66700 42.92500 28.31400
C  7.19600 43.64900 27.43900
C  5.03800 42.93300 30.20400
O  5.96000 43.00400 30.98000
C  3.64100 42.51900 30.66100
C  3.70400 41.12800 31.24900
O  4.33300 40.20000 30.84000
O  3.09800 41.13200 32.50200
C  3.12800 39.82100 33.11900
H  -2.14600 40.59900 27.10200
H  0.69700 42.34400 21.50000
H  5.94900 43.98500 24.85400
H  0.82400 40.98600 30.85000
H  -1.73700 41.75800 29.62800
H  -2.18100 39.42200 30.01600
H  -0.47400 39.24400 30.38000
H  -1.02400 39.10600 28.68100
H  -1.12000 43.25400 30.92200
H  0.52600 43.85800 31.01800
H  -0.47300 43.71400 33.12100
H  0.97500 42.86700 33.08900
H  -3.54900 39.61300 24.04100
H  -4.07200 41.24500 24.56300
H  -3.31400 39.97400 25.60000
H  -3.30300 40.56500 20.34600
H  -4.02400 40.88600 22.10200
H  -2.97400 39.58400 21.64100
H  2.93600 43.97700 21.08800
H  5.44900 43.74000 22.31300
H  3.91500 41.21500 21.17800
H  4.64100 42.58100 20.11900
H  3.02400 41.92900 19.97500
H  4.57200 45.67000 21.50900
H  4.99000 45.81900 23.27700
H  3.00500 46.80500 23.62900
H  2.14900 45.44800 22.97400
H  2.69500 46.74100 21.87300
H  7.34000 44.71700 27.60300
H  7.42300 43.40800 26.40000
H  7.77200 43.13000 28.20500
H  3.28900 43.17900 31.45400
H  3.05400 40.06100 34.18000
H  4.02600 39.22100 32.97200
H  2.30800 39.19400 32.77100

