158

Mg 25.32500 -0.03900 28.90000
C  27.49100 -0.50600 31.73800
C  22.74600 0.36700 31.07700
C  23.57300 0.14600 26.18700
C  28.21600 -1.01900 27.00600
N  25.24700 0.00000 31.12800
C  26.25500 -0.10400 32.05800
C  25.70800 0.16100 33.50300
C  24.12200 0.18300 33.30900
C  23.99700 0.17200 31.75200
C  23.31400 -0.93500 33.96200
C  26.35100 1.37500 34.28700
C  27.26800 0.98000 35.44200
H  26.95200 1.54800 36.77600
N  23.45500 0.27400 28.64200
C  22.52200 0.36900 29.65000
C  21.27900 0.74200 28.98000
C  21.47000 0.72000 27.52700
C  22.85400 0.37600 27.37100
C  19.96800 1.02500 29.78000
C  20.48700 0.97500 26.38600
O  20.85100 0.96900 25.21500
C  19.14600 1.42900 26.63500
N  25.79100 -0.52000 26.94100
C  24.89900 -0.27400 25.97800
C  25.54700 -0.38400 24.58500
C  27.06700 -0.60500 24.85400
C  27.02400 -0.62400 26.39300
C  24.89700 -1.34900 23.58600
C  28.00900 0.42800 24.20200
C  27.63900 1.93100 24.33500
N  27.37900 -0.64500 29.22700
C  28.38700 -1.05500 28.34800
C  29.61200 -1.40000 29.04800
C  29.30800 -1.18000 30.37000
C  27.97800 -0.80500 30.46100
C  30.94100 -1.74800 28.47600
C  29.81600 -1.18200 31.70600
O  30.91200 -1.44100 32.20100
C  28.67200 -0.69100 32.63600
C  28.49700 -1.97200 33.51900
O  27.75600 -2.93600 33.30500
O  29.23200 -1.75500 34.63500
C  28.96900 -2.79800 35.68400
H  21.92400 0.61100 31.75400
H  22.97700 0.25500 25.27800
H  29.03800 -1.22800 26.31800
H  26.03500 -0.73000 34.03900
H  23.65100 1.12900 33.57600
H  23.32500 -0.86800 35.05000
H  23.63600 -1.95900 33.77400
H  22.27600 -0.86300 33.63500
H  25.69600 2.21500 34.52000
H  27.01300 1.83400 33.55300
H  28.24400 1.44100 35.28700
H  27.42900 -0.09200 35.55500
H  19.20000 0.68500 29.08500
H  19.88200 2.09800 29.95500
H  19.95000 0.52400 30.74700
H  19.16800 2.23400 27.37000
H  18.63200 0.52200 26.95200
H  18.84900 1.73900 25.63400
H  25.25000 0.55400 24.11700
H  27.32000 -1.60300 24.49500
H  25.65600 -1.69200 22.88200
H  24.08400 -0.88300 23.03000
H  24.41900 -2.20200 24.06800
H  28.21900 0.23400 23.15000
H  28.91800 0.42300 24.80200
H  28.33500 2.49300 24.95600
H  26.61200 2.04800 24.68300
H  27.81000 2.47900 23.40800
H  31.71800 -2.12400 29.14100
H  31.40100 -0.86600 28.03100
H  30.73600 -2.44100 27.66000
H  28.97900 0.20800 33.17100
H  29.84500 -2.87400 36.32700
H  28.88000 -3.83300 35.35400
H  28.07200 -2.60100 36.27200
Mg 9.41100 47.96800 27.55300
C  7.11100 47.74800 30.27800
C  11.87300 48.27200 29.67800
C  11.40300 48.48700 24.77300
C  6.56200 48.02400 25.31200
N  9.38500 47.95100 29.77500
C  8.43500 47.84300 30.73000
C  8.96400 48.00500 32.18400
C  10.51300 48.27500 31.93200
C  10.65000 48.08100 30.36500
C  11.08800 49.60300 32.58900
C  8.53600 46.87800 33.15400
C  9.63500 46.28000 34.05000
H  9.07300 45.80500 35.39800
N  11.40300 48.22800 27.28600
C  12.27400 48.23100 28.29900
C  13.59000 48.42300 27.84100
C  13.50700 48.50600 26.43200
C  12.06000 48.34300 26.03800
C  14.88200 48.41900 28.74000
C  14.64300 48.54300 25.42300
O  14.41100 48.50700 24.18600
C  16.09600 48.47300 25.87000
N  9.06100 48.16200 25.38600
C  10.06600 48.34000 24.45900
C  9.55700 48.54300 23.02100
C  8.04500 48.32900 23.22800
C  7.85300 48.16700 24.72200
C  10.00000 49.92100 22.41200
C  7.24800 47.14200 22.52000
C  5.94400 47.45500 21.76800
N  7.29600 47.91200 27.66100
C  6.29600 47.97200 26.69200
C  5.02300 47.84600 27.34800
C  5.28900 47.69700 28.70600
C  6.68000 47.76300 28.85200
C  3.66600 47.71800 26.69200
C  4.68700 47.62600 29.97700
O  3.49300 47.42700 30.27000
C  5.84100 47.70100 31.07300
C  5.70100 46.40600 31.70900
O  5.93900 45.35500 31.19600
O  5.36900 46.50300 33.04600
C  5.24200 45.15600 33.74400
H  12.68800 48.62700 30.31100
H  12.03700 48.81000 23.94500
H  5.77500 47.96800 24.55600
H  8.46800 48.89100 32.58100
H  11.14000 47.48900 32.35400
H  12.10100 49.35200 32.90700
H  10.41900 50.00100 33.35200
H  11.19000 50.30400 31.76100
H  8.16500 46.01400 32.60200
H  7.63400 47.23100 33.65200
H  10.29600 47.11800 34.27100
H  10.17000 45.43400 33.61900
H  14.68700 48.46400 29.81100
H  15.44400 49.32700 28.52200
H  15.57400 47.60800 28.51400
H  16.20500 47.44200 26.20700
H  16.15900 49.28600 26.59300
H  16.84400 48.50200 25.07800
H  9.97400 47.79000 22.35200
H  7.55700 49.29000 23.06700
H  10.80400 50.45600 22.91700
H  9.13700 50.58300 22.32900
H  10.32500 49.66600 21.40400
H  7.01700 46.40100 23.28600
H  7.88600 46.62000 21.80700
H  5.76900 48.52900 21.83500
H  5.12900 46.88500 22.21200
H  5.93600 47.18600 20.71100
H  3.91000 47.54400 25.64400
H  3.14600 48.67200 26.77200
H  3.13900 46.93600 27.24000
H  5.71900 48.58100 31.70400
H  4.89200 45.21100 34.77500
H  6.18400 44.63500 33.57200
H  4.44600 44.56800 33.28700

