158

Mg 24.15500 1.38400 29.65500
C  26.45300 1.19400 32.29900
C  21.63100 1.09700 31.85800
C  22.13400 1.23100 26.95400
C  26.90300 0.99300 27.42900
N  24.06500 1.31700 31.84900
C  25.13300 1.30300 32.77500
C  24.62000 1.43700 34.18100
C  23.07800 1.25600 34.03900
C  22.90400 1.19100 32.48100
C  22.45700 0.09200 34.87600
C  25.06800 2.80200 34.84500
C  25.95400 2.71800 36.21300
H  25.45500 3.43000 37.45100
N  22.15300 1.16000 29.45100
C  21.22500 1.12600 30.50200
C  19.92600 1.10600 29.90200
C  20.11500 1.06000 28.49400
C  21.45700 1.19700 28.25200
C  18.64000 1.19100 30.71300
C  19.05700 0.92100 27.40300
O  19.28400 0.97600 26.17600
C  17.67100 0.62500 27.89100
N  24.43100 1.12100 27.45100
C  23.42600 1.19100 26.59700
C  23.93900 1.12500 25.15700
C  25.47800 0.93500 25.28600
C  25.65900 1.06700 26.82500
C  23.26100 0.02900 24.23600
C  26.32800 1.99700 24.49000
C  25.94400 3.47800 24.70400
N  26.23200 1.05900 29.77700
C  27.15600 0.83000 28.80600
C  28.45400 0.68400 29.43000
C  28.23700 0.75100 30.82500
C  26.86000 1.07900 30.95400
C  29.68700 0.31400 28.59100
C  28.93200 0.69800 32.06400
O  30.13200 0.53600 32.36800
C  27.75200 1.02900 33.12500
C  27.81600 -0.07200 34.17900
O  27.32300 -1.23000 34.09300
O  28.53700 0.39300 35.23500
C  28.66100 -0.55000 36.34000
H  20.83100 0.99000 32.59300
H  21.42800 1.26500 26.12200
H  27.74300 0.82200 26.75400
H  25.04800 0.61700 34.75800
H  22.54600 2.17700 34.27700
H  21.57600 0.36700 35.45500
H  23.15600 -0.16700 35.67000
H  22.38100 -0.79100 34.24000
H  24.23200 3.49100 34.97000
H  25.71600 3.25000 34.09200
H  26.85600 3.29700 36.01300
H  26.21100 1.67800 36.41200
H  18.05200 2.04100 30.36800
H  18.84000 1.09300 31.78000
H  18.01500 0.31200 30.55100
H  17.56400 -0.39000 28.27500
H  17.00200 0.45900 27.04600
H  17.23900 1.30800 28.62200
H  23.57100 1.99900 24.61900
H  25.86100 -0.06100 25.06400
H  22.86000 -0.77200 24.85600
H  24.14100 -0.38400 23.74200
H  22.57500 0.51200 23.54000
H  26.07300 1.76100 23.45600
H  27.38400 1.85900 24.72200
H  26.90500 3.78800 25.11300
H  25.17000 3.72800 25.43000
H  25.72000 4.00900 23.77800
H  29.82400 0.90700 27.68700
H  29.51900 -0.73700 28.35700
H  30.55300 0.44700 29.24000
H  27.96800 1.97600 33.61900
H  29.40300 -1.31800 36.12100
H  27.76900 -1.13700 36.55800
H  28.85400 -0.08100 37.30500
Mg 9.74200 47.29400 24.80600
C  7.78400 47.38500 27.68300
C  12.32900 48.87100 26.63200
C  11.52400 47.28300 22.06600
C  6.95200 46.15000 22.98900
N  10.07700 47.91500 27.00100
C  9.11900 47.81800 27.98100
C  9.69800 48.44100 29.25700
C  10.95600 49.31300 28.80700
C  11.17400 48.66300 27.40000
C  10.86500 50.86400 28.74000
C  10.02300 47.30700 30.24700
C  9.89200 47.58300 31.78400
H  9.67200 46.37900 32.71700
N  11.70400 47.93200 24.45400
C  12.55600 48.53600 25.31300
C  13.79300 48.73000 24.52200
C  13.62400 48.23100 23.22900
C  12.24500 47.74800 23.17200
C  15.05900 49.20600 25.17900
C  14.66000 48.24900 22.09000
O  14.49000 47.74900 20.93100
C  15.90700 49.04400 22.22600
N  9.26700 46.75600 22.78200
C  10.25000 46.83500 21.83100
C  9.77900 46.27700 20.50000
C  8.21000 46.02300 20.72900
C  8.08000 46.37500 22.23200
C  10.22300 47.13100 19.19900
C  7.81500 44.63000 20.46300
C  8.35500 43.59000 21.50600
N  7.78400 46.83500 25.18300
C  6.78500 46.43600 24.36800
C  5.52900 46.28800 25.14500
C  5.85000 46.66300 26.45600
C  7.23400 46.99000 26.41500
C  4.20200 46.06200 24.69500
C  5.36000 46.83900 27.79300
O  4.24900 46.60600 28.28900
C  6.66000 47.16400 28.65000
C  6.87800 46.01700 29.60300
O  7.34200 44.97000 29.33500
O  6.49900 46.22900 30.84000
C  6.41000 45.10500 31.78400
H  13.19800 49.29400 27.14100
H  12.22900 47.04900 21.26500
H  6.15900 45.66500 22.41500
H  8.94600 49.06000 29.74600
H  11.77400 49.04800 29.47800
H  11.22300 51.16200 27.75500
H  11.43400 51.38500 29.50900
H  9.78200 50.97300 28.79800
H  11.03800 46.99300 30.00000
H  9.36900 46.44700 30.10600
H  9.15500 48.36400 31.97100
H  10.86900 47.88900 32.16000
H  15.88500 48.66300 24.71900
H  15.01500 49.25600 26.26700
H  15.16200 50.28300 25.04500
H  16.26100 49.37800 21.25100
H  16.64800 48.39900 22.69800
H  15.73300 49.88800 22.89400
H  10.23100 45.28600 20.45100
H  7.57200 46.66500 20.12200
H  9.53900 47.97000 19.06700
H  10.15600 46.49500 18.31700
H  11.21200 47.56500 19.34600
H  8.18600 44.30100 19.49200
H  6.72900 44.59500 20.38200
H  8.70400 42.70600 20.97100
H  7.54300 43.35800 22.19600
H  9.19700 43.90000 22.12400
H  4.06800 46.90900 24.02300
H  3.49900 46.05800 25.52800
H  4.11500 45.09300 24.20200
H  6.56700 48.08600 29.22400
H  7.25400 44.43200 31.63500
H  5.45400 44.61200 31.60300
H  6.48300 45.42600 32.82300

