158

Mg -0.41900 7.28300 27.27200
C  0.57700 9.36400 29.99000
C  -0.40100 4.64500 29.33100
C  -0.62900 5.31000 24.55400
C  0.28600 10.08200 25.24400
N  0.16500 7.05000 29.37700
C  0.27500 8.03700 30.31900
C  0.07400 7.44200 31.75800
C  0.09600 5.91200 31.49500
C  -0.01900 5.82500 29.96200
C  1.31600 5.13100 32.11500
C  -1.18800 8.10500 32.37600
C  -1.10700 8.50000 33.83600
H  -0.21800 7.64100 34.80700
N  -0.62700 5.25000 27.06100
C  -0.62500 4.32300 28.00500
C  -1.04800 3.02300 27.50900
C  -1.17800 3.22300 26.04800
C  -0.73300 4.61300 25.84300
C  -1.44900 1.79100 28.36300
C  -1.52700 2.26700 25.03600
O  -1.49100 2.55900 23.82000
C  -1.98100 0.96800 25.44900
N  -0.49400 7.65600 25.12400
C  -0.52200 6.68900 24.22100
C  -0.49900 7.23100 22.77500
C  -0.37100 8.80600 23.09500
C  -0.15300 8.86900 24.59100
C  0.49200 6.70400 21.73300
C  -1.68600 9.57400 22.68600
C  -1.69700 11.11900 22.79300
N  0.20400 9.34900 27.49900
C  0.47200 10.34800 26.61200
C  0.74200 11.62200 27.25800
C  0.79500 11.21800 28.58700
C  0.52700 9.82200 28.69300
C  0.84100 12.93100 26.55800
C  1.12500 11.77800 29.94500
O  1.55200 12.88800 30.23400
C  0.84100 10.57700 30.91000
C  2.03000 10.39700 31.81900
O  3.02000 9.90400 31.35400
O  1.90900 11.00400 33.03100
C  3.03300 10.73200 33.92700
H  -0.44100 3.76300 29.97300
H  -0.88000 4.73300 23.66200
H  0.49100 10.93900 24.59900
H  0.96700 7.62200 32.35600
H  -0.75400 5.37700 31.92100
H  0.89400 4.19700 32.48600
H  1.76000 5.72200 32.91500
H  2.09500 4.84200 31.40900
H  -1.99000 7.36900 32.31700
H  -1.42600 9.03700 31.86400
H  -2.12100 8.42000 34.22900
H  -0.85500 9.56000 33.88600
H  -2.52800 1.66600 28.27600
H  -1.35700 1.91700 29.44200
H  -0.99600 0.87300 27.99000
H  -1.21500 0.31800 25.87100
H  -2.27400 0.58000 24.47400
H  -2.87200 0.99000 26.07800
H  -1.44800 6.98400 22.29900
H  0.46200 9.34600 22.64400
H  0.95200 7.58800 21.29100
H  0.01700 6.03700 21.01300
H  1.29000 6.15800 22.23600
H  -2.48100 9.40800 23.41300
H  -1.99800 9.22100 21.70300
H  -2.14200 11.51100 23.70700
H  -2.22100 11.49200 21.91300
H  -0.68100 11.43600 22.55600
H  0.23900 12.97800 25.65100
H  1.84700 13.25500 26.29000
H  0.37200 13.67200 27.20700
H  -0.00800 10.94900 31.48300
H  3.37500 11.65700 34.39200
H  3.87000 10.19900 33.47600
H  2.63000 10.07000 34.69400
Mg 45.64800 5.48100 47.31400
C  43.54600 8.27000 46.71400
C  42.87900 3.45700 46.84900
C  47.72900 2.94100 47.14300
C  48.49400 7.80400 47.25100
N  43.53400 5.86300 46.69300
C  42.85700 7.05200 46.64300
C  41.27700 6.91700 46.57100
C  41.19200 5.44400 46.60800
C  42.66500 4.89200 46.83200
C  40.27000 4.86900 47.72100
C  40.62800 7.65700 45.36000
C  39.29000 7.20500 44.90700
H  39.14600 6.51400 43.48800
N  45.39400 3.39500 47.08700
C  44.15000 2.80200 46.95400
C  44.40500 1.32400 46.90100
C  45.83100 1.14100 46.88700
C  46.38200 2.49700 47.01900
C  43.34500 0.28300 46.73100
C  46.50100 -0.27000 46.80800
O  45.79200 -1.24700 46.87900
C  47.96400 -0.33900 46.55500
N  47.79300 5.41200 47.27300
C  48.37200 4.18900 47.20600
C  49.92800 4.28000 47.17400
C  50.12500 5.79800 47.17900
C  48.70700 6.46100 47.17400
C  50.68200 3.62300 48.28900
C  51.19900 6.56200 46.27200
C  52.55700 6.86700 46.89400
N  46.00000 7.51500 47.12000
C  47.19500 8.27700 47.13300
C  46.80200 9.65400 47.02500
C  45.43400 9.67700 46.96600
C  44.99400 8.39200 46.81900
C  47.81800 10.82600 47.09900
C  44.31600 10.55800 46.86200
O  44.28400 11.79400 46.68200
C  43.01200 9.67700 46.70900
C  41.99600 9.93600 47.82600
O  41.96100 9.33300 48.94200
O  41.03100 10.81100 47.40300
C  39.79300 11.05200 48.19700
H  42.05900 2.73900 46.78800
H  48.30000 2.02200 47.28500
H  49.36300 8.46500 47.24200
H  40.90900 7.37600 47.48900
H  40.89700 4.94900 45.68300
H  40.81200 4.28000 48.46100
H  39.45800 4.26400 47.31900
H  39.77500 5.65100 48.29700
H  41.32600 7.51200 44.53600
H  40.50600 8.73500 45.46500
H  38.58000 8.01000 45.09700
H  38.93100 6.52100 45.67600
H  43.50400 -0.38400 45.88400
H  42.38500 0.79000 46.63600
H  43.34200 -0.44000 47.54700
H  48.47600 -0.20000 47.50800
H  48.11900 0.38500 45.75500
H  48.28500 -1.34000 46.27000
H  50.42200 3.90300 46.27800
H  50.45600 6.01900 48.19300
H  50.85800 2.58700 47.99800
H  50.13900 3.64200 49.23400
H  51.62800 4.10300 48.53900
H  50.87300 7.55100 45.95000
H  51.37100 5.94100 45.39300
H  53.29000 6.23700 46.39100
H  52.66800 6.68800 47.96300
H  52.79900 7.92600 46.79800
H  47.25800 11.75000 47.24000
H  48.47700 10.89700 46.23400
H  48.52800 10.73900 47.92200
H  42.46500 9.78000 45.77200
H  38.94400 11.16300 47.52100
H  39.96300 11.91200 48.84400
H  39.59600 10.20200 48.85000

