158

Mg 35.84000 1.84100 29.97600
C  33.73700 3.38000 32.37500
C  38.25900 1.72800 32.28100
C  37.84600 0.98600 27.47700
C  33.21200 2.83700 27.44200
N  35.91700 2.58800 32.08300
C  34.94200 3.07500 32.87300
C  35.27300 2.96700 34.34100
C  36.91900 2.97900 34.22000
C  37.08300 2.40500 32.81200
C  37.65100 4.32300 34.49400
C  34.64500 1.73500 35.05900
C  34.50400 1.86100 36.55000
H  35.00400 3.09700 37.32100
N  37.72800 1.26700 29.94300
C  38.58600 1.30400 31.03200
C  39.93300 0.77100 30.57800
C  39.80200 0.53200 29.14400
C  38.40900 0.84900 28.78500
C  41.21100 0.63900 31.35500
C  40.90400 0.21500 28.12700
O  40.60700 0.08200 26.95400
C  42.32000 -0.12500 28.35500
N  35.49000 1.84800 27.80600
C  36.55800 1.46300 27.09400
C  36.15300 1.47000 25.57700
C  34.61700 1.88900 25.50700
C  34.42600 2.21200 26.99000
C  37.00900 2.32500 24.59900
C  33.45400 0.91500 24.99500
C  33.09100 1.17700 23.48000
N  33.88900 2.87800 29.86600
C  32.90500 3.11300 28.82200
C  31.69700 3.63800 29.35300
C  31.99600 3.78200 30.73900
C  33.34700 3.32400 30.99900
C  30.44700 4.02100 28.66700
C  31.42700 4.17700 32.01600
O  30.31300 4.65300 32.21700
C  32.53200 3.93800 33.11000
C  32.65600 5.10000 34.00500
O  33.54400 5.96300 33.91400
O  31.65800 5.02600 35.01300
C  31.72800 6.14200 35.98900
H  39.00800 1.69500 33.07500
H  38.49800 0.83900 26.61300
H  32.48000 3.14600 26.69400
H  34.91700 3.88700 34.80500
H  37.35200 2.28800 34.94400
H  37.99600 4.88100 33.62400
H  38.48400 4.29200 35.19600
H  36.88200 4.97700 34.90600
H  35.30300 0.89200 34.85200
H  33.65500 1.55700 34.63900
H  34.90700 0.92800 36.94300
H  33.48600 1.74000 36.92000
H  41.90700 1.36900 30.94000
H  41.56800 -0.33900 31.03400
H  40.97200 0.77100 32.41000
H  42.43000 -1.04100 28.93500
H  42.81900 0.64200 28.94600
H  42.76100 -0.22800 27.36300
H  36.19900 0.47700 25.13100
H  34.63300 2.84900 24.99000
H  37.52600 3.06300 25.21100
H  36.36000 2.82600 23.88000
H  37.74000 1.77400 24.00700
H  32.53600 0.91000 25.58200
H  33.88200 -0.07100 24.81600
H  33.60300 2.04300 23.06200
H  32.06100 1.53200 23.45000
H  33.06900 0.23700 22.92900
H  30.24600 3.43900 27.76800
H  30.34800 5.10500 28.60200
H  29.71300 3.75300 29.42700
H  32.36500 3.05000 33.72000
H  31.45700 7.11600 35.58000
H  32.73400 6.18600 36.40600
H  31.10400 5.89100 36.84600
Mg 9.34600 47.72800 26.25400
C  7.21400 48.13800 29.03600
C  11.85100 49.08400 28.49300
C  11.55700 47.73900 23.70600
C  6.79500 47.07500 24.24500
N  9.50400 48.46800 28.53300
C  8.50500 48.25100 29.45100
C  8.88400 48.54100 30.90100
C  10.43000 48.93100 30.71800
C  10.63800 48.90500 29.15700
C  10.81200 50.29600 31.38400
C  8.67200 47.36300 31.89100
C  9.62200 46.83500 32.96000
H  8.94800 46.31500 34.23500
N  11.43400 48.24500 26.11800
C  12.24100 48.80800 27.13900
C  13.55800 48.88600 26.57200
C  13.45000 48.39200 25.22200
C  12.12000 48.12400 24.99900
C  14.84000 49.40700 27.21900
C  14.62200 48.33600 24.21300
O  14.50800 47.94800 23.09600
C  16.05100 48.67400 24.61900
N  9.20400 47.42300 24.24300
C  10.19700 47.43400 23.39200
C  9.78000 47.03900 21.94400
C  8.27600 46.97200 22.12200
C  8.05300 47.12000 23.67500
C  10.29700 47.95900 20.79200
C  7.67200 45.63400 21.48800
C  7.34600 45.64600 20.00400
N  7.39100 47.60800 26.53300
C  6.40600 47.27500 25.60000
C  5.08300 47.36900 26.20200
C  5.34000 47.71000 27.55200
C  6.73700 47.84700 27.67900
C  3.69100 47.04300 25.51300
C  4.74200 48.07200 28.78000
O  3.57500 48.12900 29.08500
C  5.91900 48.29600 29.77000
C  5.60900 47.23200 30.83900
O  5.98500 46.06000 30.83200
O  5.04500 47.78600 31.99500
C  4.53900 46.63500 32.77800
H  12.69800 49.41000 29.10000
H  12.22300 47.74900 22.84100
H  5.98600 46.88000 23.53800
H  8.34600 49.44600 31.18400
H  11.05500 48.20900 31.24300
H  11.71100 50.18600 31.99100
H  10.02900 50.63500 32.06200
H  10.93100 51.15600 30.72400
H  8.53700 46.49700 31.24400
H  7.71800 47.64400 32.33700
H  10.39900 47.50900 33.32000
H  10.01500 45.91500 32.52800
H  14.47300 49.66900 28.21100
H  15.17800 50.30900 26.70900
H  15.54500 48.62600 27.50300
H  16.14400 48.00600 25.47500
H  16.04400 49.75800 24.72500
H  16.82900 48.34200 23.93100
H  10.20000 46.05800 21.72600
H  7.89800 47.88600 21.66500
H  11.03400 48.68700 21.13000
H  9.57100 48.52300 20.20700
H  10.72100 47.26800 20.06400
H  6.77600 45.24100 21.96900
H  8.38800 44.83300 21.67300
H  7.57000 46.56400 19.46100
H  6.31400 45.31300 19.89200
H  7.99100 44.97400 19.43700
H  3.87600 46.69000 24.49900
H  3.20400 48.01800 25.47000
H  3.26200 46.28200 26.16500
H  5.79000 49.30900 30.15100
H  3.98100 45.97900 32.11000
H  3.88700 46.97200 33.58400
H  5.29000 45.97300 33.21000

