158

Mg 35.85300 1.06100 29.53400
C  33.70200 2.27000 32.19400
C  38.48700 1.50400 31.70600
C  37.97000 0.39000 27.03000
C  33.24600 1.66400 27.31500
N  36.03500 1.88200 31.75100
C  35.05500 2.18700 32.64900
C  35.64900 2.24700 34.04900
C  37.20500 2.31000 33.79000
C  37.25800 1.90500 32.29600
C  37.87100 3.69200 34.08700
C  35.18300 1.04800 34.97100
C  35.23100 1.32000 36.53000
H  36.29100 2.27400 37.11800
N  37.92500 0.86600 29.40300
C  38.82300 1.02500 30.44100
C  40.08500 0.52300 29.95900
C  39.99000 0.18400 28.56000
C  38.60800 0.57700 28.26300
C  41.23100 0.25500 30.92800
C  41.09100 -0.29300 27.50900
O  40.79100 -0.39300 26.31500
C  42.45400 -0.57200 27.98900
N  35.63400 1.07200 27.59200
C  36.58700 0.57400 26.64500
C  36.01600 0.48100 25.18900
C  34.59400 0.56500 25.47800
C  34.47600 1.23000 26.86200
C  36.61200 1.55500 24.22800
C  33.80700 -0.76200 25.33700
C  32.65500 -0.82500 24.36900
N  33.87100 1.62900 29.71900
C  32.97900 1.94900 28.69500
C  31.68200 2.34900 29.26100
C  31.90000 2.44300 30.62500
C  33.23100 2.04600 30.84900
C  30.40600 2.45400 28.50900
C  31.24500 2.67100 31.88800
O  30.10500 3.04400 32.11300
C  32.42000 2.50400 33.00100
C  32.41800 3.68200 33.89200
O  32.36600 4.85700 33.47600
O  32.47600 3.29300 35.18300
C  32.88800 4.35900 36.08200
H  39.27200 1.41000 32.46000
H  38.53500 0.17300 26.12100
H  32.39000 1.69100 26.63800
H  35.25600 3.20600 34.38600
H  37.60600 1.55900 34.47100
H  37.08900 4.45100 34.05700
H  38.53600 3.83200 33.23500
H  38.32600 3.64000 35.07700
H  35.62100 0.09300 34.67800
H  34.12600 0.86900 34.77800
H  35.19700 0.34200 37.01000
H  34.28500 1.82400 36.72800
H  41.37600 -0.82500 30.95100
H  40.85700 0.39400 31.94200
H  42.08400 0.89300 30.69400
H  42.43700 -1.41000 28.68600
H  42.94700 0.33200 28.34700
H  42.91900 -1.01000 27.10700
H  36.25300 -0.49900 24.77400
H  34.19500 1.27500 24.75500
H  37.61000 1.86300 24.53700
H  35.85700 2.33400 24.12000
H  36.72600 1.04400 23.27200
H  33.40100 -0.95800 26.32900
H  34.44300 -1.63700 25.20700
H  31.74600 -0.70400 24.95800
H  32.71400 -1.76900 23.82600
H  32.58400 -0.01400 23.64400
H  30.42500 1.58100 27.85700
H  30.32300 3.32800 27.86300
H  29.59200 2.48200 29.23400
H  32.14400 1.62500 33.58300
H  32.03000 5.01400 36.23300
H  33.62400 5.02500 35.63100
H  33.39100 3.92300 36.94500
Mg 0.65900 43.19700 25.81200
C  2.28600 43.08900 29.11900
C  -2.06800 41.86000 27.29100
C  -0.53200 42.72100 22.76300
C  3.82700 43.71600 24.50600
N  0.22000 42.56600 27.95400
C  0.88100 42.82600 29.15600
C  -0.03800 42.76300 30.35300
C  -1.26200 42.08400 29.77700
C  -1.08900 42.14500 28.22400
C  -1.29200 40.58000 30.28000
C  -0.21400 44.18300 30.99100
C  0.45200 44.50600 32.43500
H  -0.45500 44.33600 33.69600
N  -1.09700 42.52200 25.17100
C  -2.13300 41.96600 25.86300
C  -3.27800 41.78200 24.99900
C  -2.77900 42.03500 23.65200
C  -1.42700 42.44100 23.84300
C  -4.69100 41.29300 25.38700
C  -3.60900 41.93000 22.38700
O  -3.26800 42.24300 21.27500
C  -4.97000 41.20800 22.40800
N  1.54200 43.16900 23.95300
C  0.84900 42.91000 22.81600
C  1.67700 42.98500 21.53100
C  2.92400 43.70600 22.13500
C  2.77000 43.54000 23.62800
C  1.97700 41.62600 20.86200
C  3.03200 45.23300 21.76300
C  3.42700 45.44200 20.27700
N  2.64000 43.43600 26.56800
C  3.86000 43.50700 25.89500
C  4.95800 43.55800 26.87400
C  4.35800 43.36500 28.03100
C  2.98600 43.25600 27.86800
C  6.41600 43.92500 26.69900
C  4.65100 43.00400 29.44700
O  5.72800 42.73800 29.90300
C  3.36000 43.04700 30.24200
C  3.37000 41.76500 31.01100
O  3.01800 40.66500 30.68800
O  3.96700 42.04800 32.22800
C  4.00700 41.07500 33.35800
H  -2.96900 41.57500 27.83900
H  -0.92600 42.55500 21.75800
H  4.82200 43.91100 24.10200
H  0.48400 42.18400 31.11600
H  -2.20400 42.50100 30.13200
H  -0.64000 40.22000 31.07600
H  -1.05700 39.94000 29.43000
H  -2.32600 40.40200 30.57500
H  -1.29800 44.28900 30.94100
H  0.29600 44.86100 30.30700
H  0.86900 45.51200 32.38000
H  1.28800 43.81000 32.51100
H  -5.51300 41.95900 25.12400
H  -4.72100 41.23400 26.47500
H  -4.85700 40.28600 25.00500
H  -4.83500 40.27700 22.95900
H  -5.38100 41.14700 21.40100
H  -5.61400 41.86000 22.99900
H  1.14700 43.65700 20.85600
H  3.72000 43.15800 21.63100
H  1.50900 40.80200 21.40100
H  3.04300 41.39800 20.85200
H  1.70900 41.60700 19.80500
H  3.85000 45.71900 22.29500
H  2.08800 45.77600 21.81100
H  3.45100 44.39700 19.96800
H  4.37100 45.97000 20.14200
H  2.62400 45.97200 19.76300
H  6.91000 43.76100 27.65600
H  6.52200 44.98800 26.47900
H  6.89600 43.34100 25.91400
H  3.44500 43.89700 30.91900
H  5.04000 40.72900 33.33900
H  3.28600 40.25800 33.33800
H  3.91000 41.59600 34.31000

