158

Mg 47.32600 25.20600 27.93800
C  48.45400 27.40200 30.43100
C  46.39300 22.99800 30.45100
C  46.63800 23.00700 25.50600
C  48.53500 27.48100 25.56900
N  47.57800 25.13400 30.17400
C  47.93200 26.22600 30.94000
C  47.55500 26.02200 32.39800
C  47.03400 24.50900 32.37200
C  47.00700 24.19900 30.90200
C  47.90400 23.57200 33.30800
C  46.36900 27.00000 32.88500
C  46.55300 27.75000 34.18300
H  47.27600 27.04400 35.36600
N  46.66500 23.27400 27.94700
C  46.24800 22.52000 29.06700
C  45.84200 21.19300 28.63200
C  45.76400 21.21400 27.22900
C  46.41400 22.49900 26.81900
C  45.58700 20.09800 29.62400
C  45.20400 20.19000 26.34000
O  45.26000 20.25500 25.11100
C  44.41400 19.06300 26.92900
N  47.59500 25.22600 25.90900
C  47.14900 24.20900 25.11100
C  47.42200 24.55700 23.62300
C  47.89700 26.03200 23.62300
C  48.04400 26.26500 25.12100
C  48.40600 23.50600 22.99500
C  46.75800 27.00400 22.98600
C  47.17300 28.28000 22.20300
N  48.12900 27.10900 27.90000
C  48.59200 27.91600 26.90800
C  49.01400 29.15900 27.34500
C  48.95400 29.01900 28.71500
C  48.51400 27.74900 29.02200
C  49.57100 30.33100 26.47600
C  49.24100 29.63500 29.91400
O  49.72600 30.69500 30.10800
C  48.87500 28.71800 31.09200
C  50.06000 28.55000 31.93100
O  51.19100 28.14600 31.65400
O  49.63600 28.61600 33.20900
C  50.73600 28.58400 34.17400
H  46.05800 22.33600 31.25300
H  46.33300 22.34900 24.69000
H  48.87800 28.25400 24.87900
H  48.48400 26.13400 32.95700
H  45.99600 24.54000 32.70300
H  48.52000 23.04700 32.57800
H  47.23200 23.02800 33.97100
H  48.54700 24.17400 33.95000
H  45.38400 26.54400 32.78500
H  46.35700 27.74900 32.09400
H  45.61600 28.11000 34.60800
H  47.12700 28.63800 33.92000
H  45.83600 19.08100 29.32100
H  44.56900 20.09100 30.01300
H  46.20100 20.36500 30.48300
H  43.78100 19.26300 27.79400
H  45.19700 18.31400 27.05100
H  43.85200 18.52600 26.16500
H  46.48500 24.46700 23.07300
H  48.90000 26.19600 23.23000
H  48.70000 22.76500 23.73900
H  49.29900 24.09900 22.79800
H  47.97300 22.99200 22.13700
H  46.14700 27.34600 23.82100
H  46.10100 26.35400 22.40800
H  48.24700 28.23400 22.02100
H  46.77100 29.18800 22.65300
H  46.50200 28.19500 21.34800
H  48.90100 30.30100 25.61600
H  50.64000 30.14200 26.38000
H  49.40000 31.31600 26.91100
H  48.07600 29.21000 31.64800
H  50.33400 29.08000 35.05700
H  51.65200 29.13400 33.95800
H  50.92400 27.55200 34.47000
Mg 35.75000 48.96500 25.76000
C  36.29900 47.01500 28.67700
C  34.44500 51.40600 27.73800
C  34.65700 50.49700 22.96500
C  36.75200 46.24800 23.94500
N  35.40000 49.17200 28.01600
C  35.74800 48.24800 29.02400
C  35.45600 48.82500 30.45800
C  34.73400 50.20000 30.08900
C  34.87800 50.29200 28.52600
C  33.26100 50.27700 30.57300
C  36.74300 48.91900 31.31000
C  36.79800 48.24200 32.62400
H  37.04100 49.21500 33.73200
N  34.83000 50.86800 25.36200
C  34.47300 51.72000 26.33000
C  33.93300 52.88800 25.64300
C  33.85900 52.68200 24.25600
C  34.42700 51.29600 24.09200
C  33.33400 54.06800 26.43700
C  33.22400 53.53300 23.18000
O  33.20200 53.16000 21.99400
C  32.76300 54.92700 23.57600
N  35.77000 48.50700 23.75100
C  35.30700 49.28100 22.79700
C  35.56200 48.73600 21.41900
C  36.42600 47.41600 21.69800
C  36.38000 47.39900 23.28200
C  34.19600 48.38100 20.79800
C  37.98300 47.50700 21.16900
C  38.54500 46.36700 20.46000
N  36.46600 47.03400 26.16300
C  36.80300 46.02700 25.31900
C  37.15100 44.93700 26.08200
C  36.98000 45.23800 27.43700
C  36.57100 46.53100 27.40100
C  37.52800 43.59700 25.50600
C  37.03700 44.71600 28.80700
O  37.33600 43.65000 29.29400
C  36.50000 45.83900 29.62900
C  35.20100 45.29600 30.36300
O  34.05400 45.25400 29.94800
O  35.59500 45.19000 31.68400
C  34.63100 44.64200 32.62400
H  34.09000 52.24100 28.34400
H  34.47400 51.05700 22.04600
H  37.16200 45.43300 23.34400
H  34.84200 48.05800 30.93000
H  35.36000 50.99200 30.50000
H  33.12900 49.47800 31.30300
H  32.58700 50.07900 29.73900
H  33.12600 51.20000 31.13600
H  36.96700 49.98000 31.41800
H  37.52300 48.49100 30.68000
H  37.52800 47.43300 32.65700
H  35.89600 47.64800 32.76400
H  33.81100 55.04600 26.37200
H  33.26900 53.86400 27.50600
H  32.32500 54.17100 26.03900
H  33.53300 55.30400 24.24900
H  31.84200 54.91000 24.15800
H  32.53600 55.43200 22.63700
H  36.08800 49.51200 20.86300
H  35.94900 46.51700 21.30800
H  33.29200 48.43000 21.40600
H  34.22900 47.42500 20.27500
H  34.01500 49.04700 19.95400
H  38.60100 47.79900 22.01800
H  38.05600 48.44100 20.61200
H  37.85500 45.54400 20.26900
H  39.32900 45.97600 21.10800
H  38.88700 46.69600 19.47800
H  37.56800 42.82500 26.27400
H  38.53300 43.62000 25.08400
H  36.87400 43.29500 24.68700
H  37.18800 46.14200 30.41800
H  34.01300 45.43600 33.04400
H  35.10900 44.19900 33.49700
H  33.89800 43.99700 32.13800

