158

Mg 35.48800 3.08600 29.54100
C  33.02000 4.21600 31.72900
C  37.70600 3.39700 32.23100
C  37.90900 2.01300 27.43700
C  33.21300 3.17100 26.90900
N  35.29500 3.74800 31.67600
C  34.17900 3.97500 32.37500
C  34.42200 4.03800 33.88600
C  36.03900 4.00900 33.98400
C  36.37300 3.71500 32.55400
C  36.66300 5.24800 34.54000
C  33.78100 2.98900 34.78800
C  33.72500 3.23000 36.28500
H  34.72500 4.19000 37.01100
N  37.62200 2.78400 29.80300
C  38.24200 2.81900 31.02100
C  39.55900 2.20600 30.89500
C  39.59300 1.74500 29.50000
C  38.35600 2.17900 28.85300
C  40.48400 1.94400 32.10000
C  40.74600 1.00100 28.81100
O  40.61400 0.59700 27.62200
C  42.00600 0.54300 29.63300
N  35.56300 2.77600 27.48200
C  36.68400 2.42500 26.84000
C  36.41500 2.21000 25.33800
C  34.86500 2.28400 25.24300
C  34.47400 2.68400 26.60400
C  37.23700 3.17800 24.44700
C  34.22200 0.87000 24.90600
C  33.88000 0.70700 23.39200
N  33.51100 3.67500 29.30400
C  32.76400 3.71000 28.12200
C  31.39000 4.21600 28.53000
C  31.48000 4.43700 29.91500
C  32.80200 4.10000 30.35800
C  30.20100 4.35500 27.64900
C  30.71900 4.83200 31.04500
O  29.57800 5.25200 31.03400
C  31.63000 4.53700 32.27700
C  31.54000 5.73100 33.28800
O  31.89200 6.84900 33.12900
O  30.87300 5.20500 34.33600
C  30.80800 5.95900 35.56200
H  38.36700 3.38500 33.10100
H  38.69900 1.55900 26.83500
H  32.65700 3.41000 25.99900
H  33.95200 4.93900 34.27900
H  36.30500 3.25900 34.73000
H  35.90200 6.01100 34.69700
H  37.41700 5.69800 33.89400
H  37.08400 4.96100 35.50400
H  34.29100 2.03300 34.66200
H  32.79900 2.76200 34.37200
H  33.71700 2.22800 36.71400
H  32.70800 3.57700 36.47000
H  40.51300 2.79500 32.78100
H  41.50600 1.61300 31.91700
H  39.93800 1.30300 32.79200
H  42.64800 0.05400 28.90000
H  41.72100 -0.10000 30.46500
H  42.52800 1.36200 30.12700
H  36.80000 1.20000 25.19800
H  34.62100 2.98700 24.44600
H  36.75900 3.88900 23.77300
H  37.99300 2.69300 23.82900
H  37.68900 3.83200 25.19300
H  33.23700 0.82900 25.37100
H  34.80200 0.01300 25.24800
H  34.27300 1.45200 22.70100
H  32.80600 0.88400 23.33300
H  34.09300 -0.29400 23.01500
H  29.77600 5.33000 27.88800
H  29.73500 3.44200 28.01900
H  30.33000 4.19200 26.57900
H  31.13000 3.69500 32.75600
H  29.91300 5.74000 36.14300
H  30.87400 7.04400 35.47300
H  31.70700 5.65800 36.10000
Mg 5.68100 54.70200 40.79800
C  5.10100 51.17200 40.89300
C  8.81300 54.18600 39.44300
C  5.83400 58.03400 39.91200
C  2.28600 54.98100 41.60200
N  6.71100 52.91100 40.12300
C  6.33800 51.57400 40.37800
C  7.53700 50.66100 40.06000
C  8.80400 51.65300 39.92900
C  8.10400 53.06000 39.93400
C  9.99800 51.55800 40.98500
C  7.47200 49.78300 38.74000
C  6.68400 50.29800 37.58700
H  7.46200 50.60100 36.22600
N  7.18700 55.93200 39.85500
C  8.38100 55.53000 39.39500
C  9.09100 56.63600 38.84500
C  8.20800 57.78800 38.90500
C  7.00400 57.31700 39.61000
C  10.41800 56.62900 38.12700
C  8.55700 59.13800 38.26700
O  9.61200 59.40800 37.62700
C  7.65800 60.35900 38.34500
N  4.25200 56.23700 40.65100
C  4.63400 57.55200 40.41100
C  3.38400 58.47100 40.67000
C  2.28300 57.52300 41.17000
C  2.96300 56.16200 41.16500
C  3.69300 59.58400 41.66900
C  0.94700 57.42000 40.36400
C  -0.32300 57.51200 41.19500
N  4.05700 53.41500 41.33100
C  2.80000 53.70100 41.70300
C  2.03100 52.50800 42.09400
C  3.00400 51.47100 41.86000
C  4.12900 52.09000 41.26000
C  0.65000 52.40300 42.68100
C  3.21400 50.05100 41.92200
O  2.53600 49.16500 42.42500
C  4.57400 49.80400 41.10300
C  4.32200 49.09700 39.90000
O  3.79400 49.60600 38.91300
O  4.64200 47.76500 40.03900
C  4.40100 46.91100 38.91900
H  9.88300 53.98200 39.36500
H  5.84900 59.10200 39.68200
H  1.27000 55.06600 41.99400
H  7.72200 50.05400 40.94700
H  9.25200 51.46200 38.95400
H  10.08900 52.37700 41.69800
H  10.92100 51.50900 40.40600
H  9.91300 50.65200 41.58300
H  7.12400 48.80400 39.07000
H  8.50800 49.80000 38.40200
H  6.30600 51.24400 37.97400
H  5.87000 49.59400 37.41800
H  10.29700 56.82200 37.06100
H  10.99800 55.71900 38.27600
H  11.03300 57.44900 38.49800
H  8.04800 61.23200 37.82200
H  7.52700 60.72000 39.36500
H  6.71100 60.21400 37.82500
H  3.13400 58.78100 39.65500
H  2.14300 57.77300 42.22200
H  3.19400 59.45200 42.63000
H  3.32800 60.43200 41.08900
H  4.74200 59.76400 41.90100
H  1.01900 56.46700 39.84000
H  0.76300 58.21600 39.64300
H  -0.77300 58.43800 40.83500
H  -0.06900 57.49300 42.25500
H  -0.98500 56.66100 41.03800
H  0.80000 52.01400 43.68800
H  0.16700 51.54400 42.21500
H  0.09400 53.33000 42.53900
H  5.28300 49.25500 41.72200
H  4.53800 45.89700 39.29400
H  5.12000 46.98300 38.10200
H  3.39900 46.93800 38.49100

