158

Mg 24.64300 -6.79000 47.16000
C  26.71500 -4.23100 45.95500
C  22.30800 -5.93600 44.78700
C  22.83500 -9.37000 48.15500
C  27.34400 -7.97400 49.03100
N  24.63400 -5.38400 45.47700
C  25.49500 -4.34800 45.25200
C  25.11400 -3.47900 44.12300
C  23.65600 -3.98300 43.71200
C  23.45400 -5.18300 44.68600
C  22.51400 -2.94400 43.79000
C  26.10800 -3.52700 42.89400
C  26.55100 -2.21500 42.22300
H  26.60200 -2.10700 40.68200
N  22.79100 -7.55600 46.49500
C  21.94600 -7.02300 45.55900
C  20.72500 -7.78500 45.50500
C  20.82000 -8.58500 46.67000
C  22.18400 -8.52600 47.16800
C  19.60100 -7.44400 44.49900
C  19.73100 -9.61800 47.05500
O  18.69700 -9.64900 46.33900
C  19.84900 -10.51800 48.30700
N  25.09100 -8.57300 48.24600
C  24.15300 -9.38900 48.64700
C  24.62000 -10.46300 49.65900
C  26.08800 -10.04600 49.75400
C  26.20300 -8.78200 48.94600
C  23.81600 -10.37900 50.99000
C  27.06400 -11.17900 49.28500
C  27.92700 -11.74200 50.39500
N  26.60800 -6.15200 47.61200
C  27.59800 -6.75500 48.31400
C  28.81900 -5.97400 48.32500
C  28.44500 -4.94800 47.49000
C  27.14600 -5.14700 46.98800
C  30.09700 -6.26800 48.96800
C  28.96100 -3.65300 46.80500
O  30.00000 -3.06500 46.82600
C  27.82600 -3.18200 45.85600
C  27.38100 -1.89500 46.32800
O  26.83200 -1.73100 47.39500
O  27.60000 -0.97200 45.37900
C  27.20900 0.39500 45.83200
H  21.63700 -5.45300 44.07200
H  22.24900 -10.21300 48.52600
H  28.22500 -8.28500 49.59700
H  25.16900 -2.47400 44.54100
H  23.65700 -4.37200 42.69400
H  22.99200 -1.96700 43.86000
H  21.77400 -2.99800 44.58900
H  21.98100 -2.92500 42.84000
H  25.79400 -4.20400 42.09900
H  27.01500 -4.06000 43.18100
H  27.58900 -2.10600 42.53800
H  26.15700 -1.35200 42.76000
H  19.62500 -8.25400 43.76900
H  19.70600 -6.47400 44.01400
H  18.65800 -7.41400 45.04500
H  20.27600 -10.17100 49.24800
H  20.45300 -11.35700 47.96200
H  18.85000 -10.88300 48.54400
H  24.55800 -11.47900 49.26900
H  26.23500 -9.86600 50.81900
H  23.19900 -9.48100 50.95000
H  24.48400 -10.45100 51.84800
H  23.18200 -11.26600 51.02700
H  27.72100 -10.88800 48.46600
H  26.49500 -12.01500 48.87800
H  27.92600 -11.12500 51.29400
H  28.96300 -11.83800 50.07100
H  27.63700 -12.72700 50.76300
H  30.30500 -7.33700 48.92200
H  30.15300 -5.97400 50.01600
H  30.85600 -5.71000 48.41900
H  28.14400 -3.10900 44.81600
H  27.16400 0.93700 44.88800
H  27.88200 0.84700 46.56000
H  26.19800 0.49500 46.22500
Mg -2.05000 33.97000 25.57300
C  -3.81800 32.49400 28.29200
C  -0.86200 36.34500 27.93500
C  -1.04700 35.88800 23.08900
C  -3.59700 31.80700 23.43600
N  -2.32800 34.37100 27.75800
C  -3.06900 33.56500 28.67100
C  -2.78900 33.96900 30.09000
C  -2.12700 35.40500 29.91800
C  -1.75600 35.36200 28.45700
C  -2.99900 36.61300 30.32800
C  -1.84800 32.93900 30.89300
C  -2.26800 32.31400 32.19900
H  -1.17700 31.83700 33.12500
N  -1.03800 35.83400 25.50500
C  -0.52500 36.58400 26.59500
C  0.26000 37.65200 26.02800
C  0.14500 37.53800 24.55100
C  -0.72300 36.41200 24.34200
C  1.15600 38.63000 26.84700
C  0.76600 38.43800 23.49600
O  0.52100 38.26800 22.29100
C  1.71800 39.49900 23.86900
N  -2.40900 33.92900 23.54600
C  -1.83300 34.83300 22.66900
C  -1.94700 34.30600 21.23400
C  -2.54800 32.92200 21.43900
C  -2.79300 32.81500 22.91800
C  -2.76600 35.11200 20.31400
C  -1.78000 31.67300 20.93800
C  -0.43700 31.33300 21.54900
N  -3.44400 32.47700 25.76400
C  -3.89800 31.60500 24.83400
C  -4.87400 30.72000 25.41500
C  -4.76900 31.00100 26.78300
C  -3.91800 32.05000 26.94500
C  -5.87500 29.87800 24.72500
C  -5.37000 30.64000 28.01800
O  -6.25700 29.84600 28.33200
C  -4.55200 31.45700 29.13400
C  -5.41300 32.12500 30.18000
O  -6.11200 33.10200 29.99900
O  -5.15300 31.49200 31.35500
C  -5.95600 31.91400 32.46100
H  -0.24100 36.96700 28.58200
H  -0.63700 36.48500 22.27200
H  -3.99500 31.09300 22.71100
H  -3.67100 34.19300 30.68900
H  -1.26600 35.45300 30.58500
H  -2.98600 37.38000 29.55400
H  -2.62000 37.04300 31.25500
H  -4.00000 36.26600 30.58300
H  -0.80300 33.21900 31.02900
H  -1.74200 32.05900 30.26000
H  -2.97500 31.49700 32.05000
H  -2.84800 33.05200 32.75300
H  2.16800 38.82800 26.49600
H  1.19400 38.29900 27.88500
H  0.66500 39.60100 26.92300
H  1.37700 40.34500 24.46400
H  1.98600 39.84400 22.87100
H  2.57200 38.98300 24.31000
H  -0.95300 34.27500 20.78800
H  -3.58200 32.87500 21.10000
H  -3.22000 35.90200 20.91300
H  -3.61900 34.61600 19.85000
H  -2.14300 35.57700 19.55000
H  -1.58700 31.90800 19.89200
H  -2.48400 30.84100 20.97800
H  0.39000 31.57300 20.88100
H  -0.37000 30.27200 21.79000
H  -0.23600 31.84600 22.48900
H  -5.77400 30.00400 23.64700
H  -6.88400 30.09700 25.07300
H  -5.67100 28.83700 24.97800
H  -3.75900 30.95400 29.68700
H  -6.99200 32.14300 32.21100
H  -5.47200 32.81300 32.84100
H  -5.98100 31.15000 33.23800

