158

Mg 47.75300 24.22200 28.06500
C  48.23100 26.48400 30.81500
C  46.79100 21.88500 30.32900
C  47.42800 22.08600 25.47100
C  48.92500 26.74500 25.97700
N  47.52600 24.23800 30.30500
C  47.72200 25.22700 31.18700
C  47.21000 24.78700 32.58700
C  46.77700 23.27700 32.40700
C  47.07400 23.11700 30.87800
C  47.60800 22.23700 33.28600
C  46.13700 25.79200 33.12700
C  46.42300 26.26700 34.60700
H  46.28300 25.15200 35.62200
N  47.27700 22.12600 27.93900
C  46.86500 21.40200 28.99300
C  46.42200 20.09400 28.50800
C  46.52200 20.22200 27.10700
C  47.10400 21.47600 26.76000
C  46.01800 18.97400 29.31800
C  46.07400 19.15400 26.02200
O  46.38100 19.30000 24.83500
C  45.20100 18.04200 26.40100
N  48.33600 24.31000 26.02000
C  48.06300 23.27400 25.15800
C  48.30800 23.77900 23.69900
C  48.54800 25.29800 23.83300
C  48.65400 25.45100 25.36600
C  49.44600 23.02000 22.95200
C  47.39100 26.13700 23.23700
C  45.92600 25.74700 23.53700
N  48.38500 26.22400 28.29000
C  48.89900 27.09000 27.38100
C  49.24000 28.32400 27.97400
C  48.99900 28.13300 29.31200
C  48.50800 26.89200 29.47100
C  49.89400 29.51800 27.33800
C  49.05700 28.73700 30.57200
O  49.49300 29.84100 30.88600
C  48.44100 27.67400 31.63000
C  49.39900 27.43200 32.81700
O  50.21600 26.59500 33.06100
O  49.16400 28.53200 33.71000
C  49.75100 28.48900 35.04900
H  46.51700 21.09600 31.03300
H  47.36400 21.54400 24.52600
H  49.17800 27.52400 25.25600
H  48.11000 24.86600 33.19800
H  45.72600 23.11200 32.64600
H  46.92000 21.59100 33.83200
H  48.22800 22.70700 34.05000
H  48.32300 21.63300 32.72700
H  45.15400 25.32400 33.19300
H  46.06300 26.68300 32.50300
H  45.69400 27.07100 34.70700
H  47.43500 26.66800 34.66400
H  46.41700 18.92400 30.33100
H  46.45400 18.06000 28.91500
H  44.95800 18.90300 29.56300
H  44.50300 18.41000 27.15200
H  45.69900 17.18400 26.85300
H  44.70100 17.80800 25.46100
H  47.34800 23.60500 23.21400
H  49.45300 25.69400 23.37200
H  49.97400 22.43400 23.70400
H  50.22400 23.74700 22.71700
H  49.30200 22.32900 22.12100
H  47.59300 25.86500 22.20100
H  47.67200 27.16900 23.44900
H  46.01800 25.05200 24.37100
H  45.49800 25.35600 22.61400
H  45.46800 26.66700 23.90000
H  50.67600 29.16000 26.66800
H  50.33000 30.06800 28.17200
H  49.15100 29.95700 26.67300
H  47.52200 28.14200 31.98500
H  50.82800 28.33900 34.97300
H  49.27300 27.75500 35.69800
H  49.55800 29.43400 35.55600
Mg 9.41900 47.85500 26.41600
C  7.62200 48.00200 29.39300
C  12.16800 49.00400 28.09000
C  11.22300 47.68200 23.59400
C  6.45800 47.33900 24.74800
N  9.79600 48.36300 28.52000
C  8.88500 48.45900 29.54200
C  9.54600 49.00400 30.83300
C  10.86000 49.62400 30.24600
C  10.96700 48.92800 28.88600
C  10.81800 51.15700 30.14100
C  9.87000 47.74100 31.74400
C  9.48300 47.86200 33.18600
H  9.29300 46.54300 34.01000
N  11.43900 48.16700 25.92700
C  12.38000 48.56600 26.77800
C  13.64400 48.57800 26.14900
C  13.40500 48.25900 24.82400
C  12.01300 48.02100 24.69100
C  14.93600 48.94100 26.88800
C  14.35500 48.05600 23.69000
O  13.97800 47.86900 22.52900
C  15.87400 48.30500 23.86200
N  8.95100 47.80100 24.43000
C  9.83100 47.58100 23.40100
C  9.23500 47.32300 22.04800
C  7.71800 47.18700 22.41700
C  7.67600 47.35200 24.01000
C  9.62900 48.48100 21.04700
C  7.06100 45.95400 21.88000
C  5.72100 46.22000 21.27300
N  7.43300 47.75500 26.91300
C  6.34600 47.63300 26.10500
C  5.13400 47.56700 26.90900
C  5.59800 47.77900 28.22500
C  7.00100 47.78500 28.16800
C  3.74600 47.27800 26.44200
C  5.22300 47.87000 29.68400
O  4.08700 47.84900 30.17100
C  6.52100 47.89100 30.52100
C  6.60900 46.57500 31.24900
O  7.06100 45.57400 30.86500
O  6.01500 46.76300 32.52600
C  5.64600 45.56100 33.33800
H  12.95000 49.44500 28.71200
H  11.66700 47.45300 22.62300
H  5.56500 47.11900 24.15800
H  8.81100 49.66200 31.29700
H  11.73700 49.39000 30.84900
H  10.77200 51.48600 29.10300
H  11.67000 51.62000 30.63800
H  10.01100 51.53400 30.76900
H  10.95900 47.70800 31.71200
H  9.49800 46.83400 31.26700
H  8.61700 48.48700 33.40300
H  10.26600 48.48100 33.62400
H  14.85300 48.92000 27.97500
H  15.21700 49.92900 26.52300
H  15.85500 48.37200 26.74400
H  16.01400 49.30500 24.27300
H  16.31100 48.20200 22.86900
H  16.31200 47.54300 24.50600
H  9.56900 46.40000 21.57200
H  7.17500 48.03600 22.00100
H  8.88400 49.23600 20.79500
H  10.08500 48.05600 20.15300
H  10.53200 48.94100 21.44600
H  6.75400 45.24800 22.65200
H  7.70700 45.54900 21.10100
H  5.75600 46.46000 20.21000
H  5.33000 47.11200 21.76200
H  5.00300 45.42700 21.48300
H  3.07900 48.11600 26.64300
H  3.45600 46.46200 27.10400
H  3.69600 47.15000 25.36100
H  6.39900 48.78500 31.13200
H  4.57600 45.63400 33.53300
H  6.28300 45.39400 34.20600
H  5.65200 44.62700 32.77600

