158

Mg 0.20600 7.40700 24.71900
C  0.92300 9.29900 27.58800
C  0.70800 4.56800 26.60700
C  0.03600 5.61500 21.84100
C  0.46200 10.42300 22.77700
N  0.80600 7.02700 26.79100
C  0.78000 7.89900 27.83800
C  0.68300 7.20700 29.17900
C  0.91900 5.76400 28.79600
C  0.73100 5.74800 27.29600
C  2.41600 5.18000 29.17600
C  -0.66600 7.51400 29.90900
C  -0.65500 7.58100 31.47200
H  0.63500 7.25500 32.38100
N  0.46200 5.36200 24.32700
C  0.60400 4.32600 25.21700
C  0.53100 3.07900 24.52500
C  0.30100 3.37500 23.12500
C  0.32200 4.82000 23.04100
C  0.59800 1.75500 25.28100
C  0.17100 2.40000 21.98600
O  -0.09000 2.71900 20.84300
C  0.12200 0.94100 22.24200
N  0.22500 7.98300 22.57300
C  0.08100 6.97800 21.61200
C  0.25300 7.73100 20.27400
C  0.05600 9.22400 20.57000
C  0.21400 9.26600 22.06500
C  1.55600 7.28400 19.49200
C  -1.18700 10.04800 20.11200
C  -2.38700 10.38500 21.03600
N  0.67600 9.41600 25.07000
C  0.66500 10.51500 24.22600
C  0.97600 11.72300 24.99900
C  1.01800 11.23600 26.32500
C  0.83200 9.86300 26.33000
C  1.00600 13.16200 24.47200
C  1.28500 11.63600 27.65100
O  1.63500 12.76500 28.03900
C  1.03200 10.34200 28.60700
C  2.19900 10.33200 29.53900
O  3.25200 9.71400 29.39900
O  1.87200 11.16300 30.63600
C  3.00100 11.28800 31.58100
H  0.50500 3.67900 27.20900
H  0.08800 5.04500 20.91100
H  0.41100 11.40400 22.30100
H  1.48900 7.61700 29.78800
H  0.17400 5.09500 29.22600
H  2.98100 5.93900 29.71700
H  3.00300 4.86900 28.31200
H  2.19500 4.35900 29.85700
H  -1.37600 6.71800 29.68400
H  -1.04700 8.44400 29.48500
H  -1.37100 6.79800 31.72100
H  -1.23500 8.45200 31.77700
H  -0.44500 1.54400 25.51400
H  1.09900 1.96900 26.22600
H  1.25600 0.98300 24.88300
H  1.12500 0.71000 22.60100
H  0.04800 0.28500 21.37500
H  -0.75000 0.70800 22.85400
H  -0.58900 7.37700 19.68000
H  0.87600 9.82900 20.18400
H  1.27800 6.81000 18.55000
H  2.18800 6.59500 20.05200
H  2.22500 8.14400 19.52700
H  -1.54200 9.56600 19.20100
H  -0.73700 10.99700 19.81800
H  -2.50000 11.45100 20.84200
H  -2.10900 10.25000 22.08100
H  -3.18000 9.74400 20.65100
H  0.07500 13.38600 23.95100
H  1.87600 13.17600 23.81500
H  1.16600 13.93400 25.22400
H  0.11900 10.60100 29.14500
H  2.84000 10.41200 32.20900
H  2.89800 12.15600 32.23300
H  3.95900 11.17300 31.07400
Mg 43.97900 4.19600 47.10700
C  42.09300 7.16700 47.34500
C  40.98700 2.50600 46.58300
C  45.75700 1.68600 45.96700
C  46.88900 6.45500 46.74200
N  41.78600 4.81500 46.88100
C  41.26400 5.98700 47.10200
C  39.78700 5.95900 47.12400
C  39.42100 4.43600 47.02500
C  40.80100 3.87300 46.85400
C  38.46700 3.94100 48.14600
C  39.07600 6.69700 45.91100
C  39.39700 6.15100 44.52000
H  40.43100 7.02900 43.72200
N  43.44200 2.25800 46.57500
C  42.14400 1.79700 46.32700
C  42.21500 0.42000 45.81100
C  43.59300 0.17900 45.60700
C  44.33900 1.41300 46.06400
C  40.97200 -0.43200 45.50400
C  44.10500 -1.04900 44.93100
O  43.30400 -1.96300 44.63600
C  45.56700 -1.33200 44.73800
N  45.96900 4.17900 46.19300
C  46.48200 2.92300 46.07500
C  48.02100 2.99500 45.94800
C  48.37500 4.48700 46.12700
C  46.98800 5.10000 46.34100
C  48.77400 2.06000 46.83400
C  49.09900 5.27800 44.99000
C  50.58500 5.59700 45.18700
N  44.49200 6.38400 47.03000
C  45.70300 7.04800 47.03000
C  45.46100 8.45600 47.15200
C  44.07000 8.55400 47.36000
C  43.51800 7.25000 47.24500
C  46.44900 9.54000 47.01300
C  42.97100 9.51100 47.51800
O  42.92300 10.72100 47.58800
C  41.76500 8.64200 47.52800
C  40.97000 8.76600 48.78300
O  41.33100 8.29800 49.86800
O  39.78500 9.34700 48.56800
C  38.86100 9.48000 49.77700
H  40.06600 1.92800 46.68000
H  46.44600 0.84000 45.90500
H  47.77700 7.08700 46.81800
H  39.29400 6.31200 48.03000
H  38.77400 4.20500 46.17900
H  37.78500 4.76200 48.36900
H  39.09200 3.69500 49.00400
H  37.93900 3.02400 47.88700
H  39.31400 7.75800 45.99000
H  37.98900 6.70600 45.98300
H  38.48300 6.14800 43.92600
H  39.82600 5.15000 44.55000
H  40.18200 0.29000 45.29500
H  40.58400 -1.02400 46.33300
H  40.95800 -0.90900 44.52400
H  45.83400 -1.67500 45.73800
H  46.18400 -0.48500 44.43900
H  45.77900 -2.20200 44.11600
H  48.23400 2.81000 44.89500
H  48.97600 4.63800 47.02300
H  48.78800 1.08200 46.35200
H  48.25800 2.02800 47.79300
H  49.78000 2.46800 46.92800
H  48.56500 6.20300 44.77100
H  48.99000 4.73500 44.05100
H  51.04600 4.98700 45.96400
H  50.76200 6.62600 45.49800
H  51.03700 5.30600 44.23900
H  46.49300 9.63600 45.92800
H  47.32200 9.15200 47.53700
H  46.01200 10.44200 47.44100
H  41.15400 9.05700 46.72700
H  39.29400 9.11700 50.70900
H  37.88700 9.00200 49.67100
H  38.83900 10.51500 50.11900

