158

Mg 48.07500 15.31500 28.70400
C  46.02600 15.51000 31.46900
C  50.44700 16.97500 30.42100
C  49.75500 15.63700 25.77700
C  45.36800 13.90800 26.89100
N  48.03100 16.35000 30.55300
C  47.22100 16.10700 31.61800
C  47.86500 16.40900 33.00400
C  49.17300 17.23200 32.59600
C  49.23600 16.80800 31.09100
C  49.23100 18.77400 32.76700
C  48.10000 15.13100 33.87500
C  47.80800 15.40400 35.33700
H  47.94700 16.88900 35.83800
N  49.91500 16.06700 28.20300
C  50.75000 16.76400 29.07100
C  51.98900 17.06200 28.41400
C  51.81800 16.55200 27.06400
C  50.45900 16.07300 26.96000
C  53.20900 17.81300 29.09400
C  52.81200 16.64600 25.85800
O  52.52600 16.19600 24.73800
C  54.07700 17.37700 26.00800
N  47.57200 14.88300 26.60200
C  48.43900 15.12100 25.61500
C  47.86400 14.73600 24.32400
C  46.49600 14.01500 24.71700
C  46.48600 14.21600 26.16200
C  47.73900 15.79300 23.13200
C  46.28100 12.54200 24.17700
C  47.39000 11.54400 24.65200
N  46.16400 14.61700 29.15600
C  45.17900 14.09900 28.26100
C  43.97100 13.85300 29.09100
C  44.27500 14.48600 30.35000
C  45.64100 14.83100 30.37800
C  42.76200 13.19500 28.65700
C  43.65600 14.85400 31.67300
O  42.51500 14.65300 32.18400
C  44.83600 15.46200 32.46900
C  44.26800 16.74900 33.00500
O  43.96200 17.78700 32.44800
O  44.13300 16.56600 34.36400
C  43.80900 17.67300 35.28100
H  51.17600 17.49800 31.04200
H  50.41700 15.70900 24.91100
H  44.53900 13.45600 26.34200
H  47.14200 17.06900 33.48400
H  50.02400 16.80400 33.12600
H  48.27700 19.10500 33.17700
H  49.18000 19.25800 31.79100
H  50.05400 19.15000 33.37400
H  49.14500 14.83000 33.95600
H  47.49800 14.31800 33.46900
H  48.44500 14.82100 36.00300
H  46.75500 15.16200 35.47600
H  52.90300 18.78600 29.48100
H  54.11400 17.80500 28.48700
H  53.40500 17.35600 30.06400
H  54.61100 17.62000 25.08800
H  54.76900 16.83500 26.65200
H  53.80700 18.36900 26.37100
H  48.60500 14.03700 23.93500
H  45.69100 14.64500 24.33800
H  46.72900 15.59000 22.77400
H  48.57700 15.63400 22.45300
H  47.79800 16.79500 23.55600
H  46.19000 12.59200 23.09200
H  45.35700 12.14000 24.59400
H  47.21300 11.40500 25.71900
H  48.39900 11.87800 24.40600
H  47.17000 10.66700 24.04500
H  41.86700 13.81100 28.57500
H  42.52500 12.46500 29.43000
H  42.91100 12.88100 27.62400
H  45.03100 14.82900 33.33500
H  44.63600 18.38000 35.23400
H  43.87500 17.30100 36.30300
H  42.86300 18.19500 35.13600
Mg -10.26800 17.12300 41.05300
C  -6.77500 17.14300 41.13900
C  -10.18400 20.60200 40.24100
C  -13.53800 16.90100 40.36300
C  -10.23700 13.70300 41.74300
N  -8.69800 18.63800 40.63200
C  -7.35200 18.35700 40.73300
C  -6.57800 19.68700 40.52500
C  -7.64100 20.81500 40.62600
C  -8.94700 20.01600 40.49700
C  -7.59800 21.80400 41.89100
C  -5.81700 19.66000 39.16200
C  -4.38400 19.42600 39.14300
H  -3.81000 18.45700 38.04900
N  -11.70000 18.52400 40.41900
C  -11.46500 19.92500 40.18500
C  -12.68200 20.48300 39.75800
C  -13.61100 19.45300 39.66400
C  -13.01800 18.22100 40.16700
C  -12.85200 21.99100 39.38900
C  -15.03700 19.59600 39.15100
O  -15.43800 20.69000 38.74500
C  -16.07000 18.60200 39.12800
N  -11.65800 15.47800 40.86700
C  -12.95700 15.77600 40.82000
C  -13.81000 14.47200 41.17300
C  -12.77200 13.45200 41.62600
C  -11.49600 14.23100 41.43900
C  -14.94000 14.78700 42.26000
C  -12.70500 12.07700 40.82800
C  -13.07300 10.89100 41.72900
N  -8.81300 15.62900 41.46400
C  -8.96100 14.30000 41.78400
C  -7.58000 13.76100 41.98600
C  -6.69800 14.85800 41.84100
C  -7.46600 15.95600 41.46700
C  -7.36400 12.33000 42.37700
C  -5.23900 15.27700 41.87900
O  -4.24200 14.68400 42.15100
C  -5.25300 16.83500 41.45200
C  -4.70000 17.53200 42.68500
O  -3.49600 17.65800 42.98200
O  -5.71000 18.21900 43.34900
C  -5.19000 18.96400 44.49400
H  -10.11700 21.69000 40.19300
H  -14.60200 16.67000 40.28400
H  -10.29900 12.74000 42.25400
H  -5.71500 19.76400 41.18600
H  -7.67300 21.53900 39.81200
H  -7.20300 22.71600 41.44300
H  -6.81800 21.51800 42.59600
H  -8.55900 22.05200 42.34000
H  -6.09900 20.55700 38.61000
H  -6.19200 18.79500 38.61600
H  -4.21600 18.89400 40.07900
H  -3.75200 20.30800 39.24700
H  -11.87200 22.44500 39.24400
H  -13.33200 22.40100 40.27800
H  -13.41400 22.16200 38.47100
H  -15.77300 17.79600 38.45800
H  -17.01300 19.06700 38.83900
H  -16.11400 18.20700 40.14300
H  -14.31300 14.16200 40.25700
H  -12.90000 13.17100 42.67100
H  -14.95700 15.81200 42.62900
H  -14.91000 14.06700 43.07800
H  -15.87100 14.59600 41.72500
H  -11.80300 11.85300 40.25800
H  -13.47700 12.09100 40.05800
H  -14.13300 10.64000 41.76600
H  -12.73000 11.19100 42.71900
H  -12.63700 9.98900 41.29900
H  -7.86100 12.17700 43.33500
H  -6.33400 11.97600 42.34800
H  -7.93400 11.69700 41.69600
H  -4.59600 16.93600 40.58800
H  -4.36300 19.61500 44.21200
H  -4.80800 18.29600 45.26700
H  -5.97700 19.56700 44.94800

