158

Mg 47.56000 34.32600 28.22400
C  45.76500 32.48300 30.47900
C  47.49600 37.02800 30.33700
C  48.59600 36.46600 25.62400
C  47.11000 31.82000 25.82700
N  46.61400 34.74500 30.04100
C  46.06300 33.75700 30.89500
C  45.98500 34.29400 32.30100
C  46.12800 35.86300 32.01900
C  46.83300 35.87400 30.74200
C  44.70900 36.55900 31.95700
C  47.04900 33.67400 33.32700
C  47.88200 34.59700 34.18300
H  47.06800 35.34600 35.31400
N  48.17200 36.38000 28.07100
C  48.13400 37.26400 29.11800
C  48.80300 38.50400 28.77200
C  49.11100 38.37600 27.38700
C  48.61400 37.03700 26.93800
C  49.06700 39.71100 29.80500
C  49.74300 39.40100 26.50500
O  50.04800 39.16200 25.35400
C  50.11900 40.70200 27.00700
N  47.67400 34.23300 25.99100
C  48.17300 35.17500 25.18600
C  48.36600 34.74400 23.73700
C  48.28100 33.16900 23.91400
C  47.66200 33.02800 25.36600
C  47.27200 35.29400 22.82200
C  49.57600 32.37000 23.78800
C  49.50400 31.03700 23.02300
N  46.69400 32.42100 28.11900
C  46.60500 31.54200 27.10100
C  45.89000 30.35200 27.53300
C  45.50200 30.68000 28.88400
C  46.09700 31.92000 29.14200
C  45.46500 29.23500 26.64700
C  44.84200 30.22800 30.13300
O  44.34800 29.18400 30.41100
C  44.82600 31.50400 31.14600
C  45.18300 31.14400 32.57900
O  46.08300 30.42800 32.96700
O  44.20500 31.68500 33.42700
C  44.21000 31.27600 34.82000
H  47.54100 37.87500 31.02500
H  49.14200 37.00500 24.84700
H  47.13200 30.94600 25.17200
H  45.03500 33.96500 32.72200
H  46.83800 36.32100 32.70800
H  44.85200 37.31700 31.18700
H  44.46500 37.01600 32.91700
H  43.92600 35.87600 31.62900
H  47.73400 33.05200 32.75100
H  46.53200 33.00700 34.01700
H  48.58500 35.15100 33.56000
H  48.59500 34.03900 34.79100
H  48.74400 40.69700 29.46900
H  50.14300 39.85800 29.90400
H  48.67100 39.49300 30.79700
H  50.82700 40.55000 27.82200
H  49.26900 41.26600 27.39000
H  50.59500 41.29000 26.22200
H  49.32500 35.11700 23.37600
H  47.58900 32.77600 23.17000
H  46.71000 36.05400 23.36600
H  46.54600 34.62400 22.36200
H  47.63800 35.71600 21.88700
H  49.86200 32.16400 24.82000
H  50.37000 32.98300 23.36400
H  50.03100 31.10100 22.07100
H  48.45200 30.79100 22.87700
H  49.83300 30.23800 23.68800
H  45.56900 28.27100 27.14400
H  45.93500 29.28000 25.66400
H  44.43300 29.32300 26.30700
H  43.86500 32.01800 31.12300
H  43.77300 32.14100 35.31700
H  45.19500 31.23000 35.28500
H  43.72100 30.36400 35.16400
Mg 41.85200 41.01100 26.89200
C  41.40600 43.43400 29.36700
C  42.50900 38.75900 29.50500
C  42.70200 38.65900 24.61600
C  41.37800 43.36000 24.48800
N  41.93300 41.07600 29.20300
C  41.62800 42.18800 29.96400
C  41.69100 41.86100 31.49100
C  42.01900 40.35700 31.45700
C  42.22200 40.02700 29.97100
C  43.26300 39.90100 32.29900
C  40.37200 42.17900 32.19900
C  40.06600 41.42500 33.49800
H  39.41800 42.19900 34.57400
N  42.40800 38.95800 27.04700
C  42.61300 38.24000 28.14600
C  43.01300 36.92700 27.77800
C  43.25400 36.89400 26.35200
C  42.79800 38.21900 25.91900
C  43.38700 36.00900 28.86800
C  43.81100 35.78200 25.47000
O  43.98600 35.97400 24.24500
C  44.26000 34.50000 26.15800
N  41.86500 40.98700 24.85500
C  42.32800 39.92700 24.09900
C  42.05000 40.24600 22.68200
C  41.34300 41.60400 22.66500
C  41.51900 42.01200 24.12400
C  43.38900 40.21100 21.86800
C  39.85900 41.50400 22.25200
C  38.90500 40.28700 22.75200
N  41.38700 43.02400 26.89300
C  41.24400 43.89100 25.81600
C  41.09600 45.27500 26.23300
C  41.05900 45.11400 27.64500
C  41.30500 43.76100 27.99800
C  41.01800 46.51300 25.34000
C  40.93100 45.78700 28.88200
O  40.70400 46.95200 29.11800
C  41.02200 44.74600 30.02600
C  41.95700 45.28000 30.95600
O  43.17100 45.38400 30.76300
O  41.38800 45.57900 32.21400
C  42.46700 45.87900 33.24900
H  42.53200 38.12600 30.39500
H  43.03800 38.01400 23.80200
H  41.26600 44.12700 23.71900
H  42.53900 42.40500 31.90800
H  41.29400 39.65100 31.86300
H  44.14800 39.81800 31.66800
H  43.17600 38.95500 32.83200
H  43.34000 40.65100 33.08700
H  39.61700 42.03400 31.42700
H  40.41300 43.23500 32.46600
H  40.95000 40.97300 33.94800
H  39.41600 40.57300 33.30100
H  44.44000 36.21700 29.05400
H  43.28100 34.96200 28.58200
H  42.72200 36.14200 29.72200
H  45.20500 34.60300 26.69000
H  44.37500 33.73400 25.39100
H  43.57900 33.90400 26.76500
H  41.44300 39.45700 22.23900
H  41.76800 42.50300 22.22000
H  44.13600 39.57500 22.34300
H  43.85500 41.18600 21.73100
H  43.19500 39.78200 20.88400
H  39.62900 41.47800 21.18700
H  39.42000 42.44300 22.59100
H  38.34500 39.82400 21.94000
H  38.21400 40.75200 23.45600
H  39.32400 39.49900 23.37800
H  39.95200 46.66100 25.17000
H  41.49300 46.37200 24.36900
H  41.44400 47.35400 25.88600
H  40.04700 44.57400 30.48300
H  42.74700 46.93200 33.24800
H  43.30100 45.18400 33.14700
H  41.94200 45.65600 34.17800

