158

Mg 41.36300 41.13400 27.20400
C  40.59200 43.54700 29.45200
C  42.32400 38.97700 29.67200
C  42.02200 38.83900 24.72300
C  40.72900 43.60500 24.69800
N  41.40800 41.28900 29.21000
C  41.00500 42.33200 30.00700
C  41.00700 41.98000 31.47900
C  41.61400 40.58100 31.51100
C  41.89000 40.25000 29.99800
C  42.83700 40.45700 32.47100
C  39.73100 42.21900 32.35500
C  39.78500 43.32200 33.35700
H  39.13600 43.01400 34.73700
N  42.09000 39.14500 27.21000
C  42.43600 38.45200 28.34000
C  42.79600 37.07800 27.90300
C  42.64200 37.02200 26.45700
C  42.26000 38.41300 26.06700
C  43.24200 36.00900 28.93600
C  42.81100 35.84500 25.53500
O  42.44300 35.92800 24.34200
C  43.24500 34.47500 26.09600
N  41.57700 41.26500 25.00100
C  41.66900 40.10700 24.22900
C  41.31300 40.43600 22.70400
C  40.64200 41.79800 22.84200
C  40.95800 42.26200 24.25600
C  42.60100 40.40000 21.80400
C  39.08800 41.92300 22.70200
C  38.31500 40.87700 23.32100
N  40.92300 43.17100 27.00900
C  40.80500 44.05300 25.92800
C  40.67200 45.37900 26.41000
C  40.44200 45.23500 27.82200
C  40.71400 43.90000 28.11700
C  40.46600 46.65400 25.71500
C  40.08000 45.89700 29.09900
O  39.70300 47.04300 29.35700
C  40.26500 44.85700 30.17500
C  41.36000 45.43500 30.97000
O  42.58500 45.27800 30.92400
O  40.83500 46.11200 32.08100
C  41.77000 46.83100 32.97400
H  42.51300 38.40000 30.57900
H  42.29300 38.17900 23.89700
H  40.32000 44.28700 23.94900
H  41.78300 42.58700 31.94500
H  40.96700 39.89000 32.05200
H  43.16300 39.41700 32.48300
H  42.60600 40.83000 33.46900
H  43.62500 41.13700 32.14800
H  39.52300 41.27500 32.85800
H  38.87500 42.47600 31.73000
H  39.09600 44.09100 33.00900
H  40.72600 43.85700 33.48400
H  42.82100 36.20100 29.92200
H  44.32300 36.13800 28.87400
H  42.99200 35.00300 28.59900
H  44.10600 34.63700 26.74400
H  43.53500 33.75300 25.33300
H  42.38700 33.97500 26.54600
H  40.62400 39.73100 22.23700
H  41.14500 42.55400 22.23800
H  42.45400 39.73400 20.95400
H  43.51000 40.15200 22.35200
H  42.81500 41.39400 21.41100
H  39.09200 41.66500 21.64300
H  38.82800 42.97300 22.83800
H  39.00500 40.16100 23.76700
H  37.68300 40.39600 22.57500
H  37.72100 41.41400 24.06100
H  39.52000 46.73100 25.17900
H  41.24900 46.77000 24.96500
H  40.61700 47.50600 26.37800
H  39.34900 44.70600 30.74700
H  42.58800 47.33000 32.45500
H  42.25000 46.11000 33.63500
H  41.17200 47.48600 33.60800
Mg 36.49100 50.08200 24.97200
C  36.12000 48.52100 28.19800
C  35.83900 53.05900 26.37000
C  36.46400 51.19600 21.97700
C  37.12100 46.72900 23.68000
N  35.95800 50.59200 27.11000
C  35.93700 49.89000 28.29900
C  35.73100 50.79300 29.50000
C  35.42000 52.19000 28.83700
C  35.81300 51.93900 27.34700
C  33.89200 52.63100 29.00900
C  36.92500 50.79100 30.48200
C  36.68000 50.47700 32.01900
H  35.51400 51.10400 32.80900
N  36.16400 51.91400 24.26300
C  36.04900 53.03200 25.00700
C  36.01500 54.17100 24.08300
C  36.15200 53.64500 22.78200
C  36.23300 52.24700 22.94400
C  35.86600 55.58700 24.57200
C  36.18500 54.40200 21.47000
O  36.19100 53.79700 20.39400
C  36.17300 55.87400 21.42400
N  36.66800 49.04900 23.04700
C  36.57800 49.79200 22.00900
C  36.92600 48.99800 20.70800
C  37.26600 47.58400 21.21400
C  37.02800 47.80300 22.71900
C  35.72900 48.94800 19.65400
C  38.75700 47.17200 21.12800
C  39.39600 47.05600 19.68300
N  36.56500 48.08700 25.66600
C  36.86600 46.87500 25.03800
C  36.88600 45.76400 26.02300
C  36.58800 46.38700 27.22600
C  36.36500 47.75800 26.99400
C  37.21100 44.31400 25.85800
C  36.53000 46.10200 28.67300
O  36.66400 45.05200 29.22200
C  36.24400 47.50600 29.26000
C  35.05100 47.26500 30.00300
O  33.90500 47.18900 29.56900
O  35.33500 47.04400 31.31800
C  34.34300 46.44800 32.22300
H  35.71100 54.05400 26.80200
H  36.80400 51.56900 21.00800
H  37.39300 45.78100 23.21300
H  34.82700 50.40100 29.96700
H  36.10000 52.93400 29.25100
H  33.35900 51.83400 29.52900
H  33.47600 52.69800 28.00400
H  33.92900 53.60400 29.49900
H  37.43400 51.74700 30.36100
H  37.68500 50.05100 30.23300
H  37.62200 50.73800 32.50000
H  36.54200 49.40900 32.18900
H  35.02800 56.14700 24.15700
H  36.83800 56.02800 24.34900
H  35.83600 55.67900 25.65800
H  35.19700 56.20600 21.77800
H  36.34400 56.28700 20.43100
H  36.89400 56.33300 22.10000
H  37.81200 49.41900 20.23400
H  36.70300 46.77000 20.75600
H  34.77300 48.93600 20.17800
H  35.79300 48.08000 18.99900
H  35.84600 49.89700 19.13000
H  38.86700 46.22700 21.65900
H  39.35600 47.84100 21.74600
H  39.84700 47.96900 19.29400
H  38.62400 46.65500 19.02700
H  40.13900 46.27000 19.54800
H  37.29800 43.77400 26.80100
H  38.03900 44.22200 25.15500
H  36.31400 43.91600 25.38400
H  37.05500 47.70900 29.95800
H  34.15000 47.21300 32.97500
H  34.86400 45.54200 32.53100
H  33.44300 46.09100 31.72000

