158

Mg 1.52300 -2.09500 45.37900
C  4.83500 -1.02600 44.81900
C  0.37900 0.40600 43.36100
C  -1.50100 -3.68500 45.11200
C  2.82800 -5.02600 46.95300
N  2.59200 -0.56800 44.08400
C  3.86700 -0.22300 44.13000
C  4.17500 0.98700 43.22500
C  2.70900 1.59200 43.11500
C  1.79500 0.42700 43.62500
C  2.49200 2.88900 43.95300
C  4.71900 0.50100 41.85500
C  5.77400 1.34600 41.14400
H  5.31500 2.13300 39.95100
N  -0.46900 -1.52900 44.51200
C  -0.69500 -0.47300 43.70900
C  -2.02000 -0.55500 43.25800
C  -2.61800 -1.71700 43.91700
C  -1.53300 -2.35000 44.56300
C  -2.67900 0.43800 42.34800
C  -4.07200 -2.04100 43.96800
O  -4.83400 -1.33700 43.37600
C  -4.61200 -3.21500 44.74200
N  0.86000 -4.23600 45.69000
C  -0.52900 -4.49500 45.66800
C  -0.80100 -5.91400 46.36000
C  0.63500 -6.39700 46.81200
C  1.53800 -5.17800 46.47400
C  -1.77300 -5.75000 47.50200
C  0.98600 -7.76200 46.15300
C  1.34800 -8.92200 47.06000
N  3.41800 -2.83700 45.95800
C  3.78300 -4.03000 46.57900
C  5.22100 -4.03900 46.82000
C  5.72500 -2.93900 46.07100
C  4.57400 -2.21600 45.60400
C  5.89200 -5.02100 47.71800
C  6.82700 -2.16900 45.70000
O  7.99400 -2.33400 45.84200
C  6.31000 -0.91300 44.82800
C  6.87800 0.31300 45.46800
O  7.23400 0.34200 46.61900
O  7.10600 1.27100 44.53700
C  8.01800 2.28500 45.05400
H  0.00900 1.30500 42.86200
H  -2.45800 -4.20100 45.00800
H  3.02300 -5.79800 47.70000
H  4.82000 1.68700 43.75600
H  2.36200 1.78000 42.09900
H  3.42500 3.44200 44.06100
H  2.26500 2.58100 44.97400
H  1.63000 3.46600 43.61600
H  3.87500 0.53700 41.16600
H  5.00700 -0.54900 41.90000
H  6.51200 0.63900 40.76400
H  6.16200 2.12900 41.79600
H  -3.66400 0.24800 41.92100
H  -2.06100 0.57700 41.46100
H  -2.80700 1.37800 42.88500
H  -4.55600 -4.10500 44.11500
H  -5.62300 -2.88800 44.98200
H  -4.05500 -3.35200 45.66900
H  -1.13200 -6.58600 45.56800
H  0.64700 -6.63000 47.87600
H  -2.70700 -6.03100 47.01500
H  -1.87600 -4.71700 47.83500
H  -1.64800 -6.49400 48.28900
H  1.86700 -7.77200 45.51000
H  0.17200 -8.27000 45.63800
H  1.03700 -9.86300 46.60600
H  0.70100 -8.85000 47.93400
H  2.36300 -8.90600 47.45600
H  6.26500 -4.72300 48.69800
H  6.80400 -5.27200 47.17600
H  5.25200 -5.89700 47.81900
H  6.76300 -1.04600 43.84600
H  8.88400 1.76700 45.46800
H  7.49800 2.96000 45.73300
H  8.28300 2.89800 44.19200
Mg 27.64900 49.70800 26.91200
C  25.48600 50.72800 29.67100
C  29.99000 48.90500 29.17100
C  29.67100 49.30400 24.35600
C  25.08100 50.88800 24.72100
N  27.68400 49.77400 29.27200
C  26.69200 50.16300 30.12000
C  27.12500 49.85500 31.51400
C  28.67600 49.39200 31.37600
C  28.80400 49.30700 29.86200
C  29.78300 50.26100 32.03600
C  26.13900 48.87200 32.21800
C  25.38900 49.27700 33.50400
H  26.15900 49.86100 34.73200
N  29.53300 49.22000 26.79900
C  30.37300 48.85900 27.84800
C  31.68300 48.41800 27.31800
C  31.56300 48.53800 25.90000
C  30.19700 48.98900 25.61600
C  32.91100 48.05700 28.15000
C  32.62700 48.29700 24.79900
O  32.45800 48.50600 23.57700
C  33.95600 47.65600 25.24300
N  27.43800 50.13600 24.83300
C  28.44700 49.80600 23.96100
C  27.99500 49.99600 22.45100
C  26.42100 50.18500 22.62100
C  26.24900 50.31200 24.10100
C  28.82200 51.12800 21.74000
C  25.62300 49.02000 22.01100
C  24.48500 49.45600 21.10700
N  25.78500 50.66500 27.08200
C  24.87900 51.04100 26.10100
C  23.72900 51.62400 26.73000
C  23.95600 51.52700 28.14200
C  25.18300 50.90000 28.28100
C  22.62900 52.27000 25.91500
C  23.36800 51.78100 29.43200
O  22.32400 52.39900 29.75700
C  24.35300 51.24300 30.51100
C  24.74100 52.37600 31.41000
O  25.65100 53.17400 31.30800
O  23.85000 52.34000 32.47200
C  24.06900 53.31800 33.56500
H  30.77900 48.70400 29.90000
H  30.21200 48.97000 23.46800
H  24.18000 51.12700 24.15300
H  27.06100 50.80200 32.04800
H  28.69400 48.34400 31.67800
H  30.08300 49.72500 32.93600
H  29.55700 51.31000 32.22500
H  30.70700 50.25200 31.45800
H  26.69300 48.07800 32.72000
H  25.38900 48.35200 31.62100
H  24.93300 48.32000 33.76000
H  24.56900 49.92700 33.19800
H  33.62600 48.81400 27.82700
H  33.31200 47.07100 27.91800
H  32.78100 48.13400 29.22900
H  33.79200 46.76900 25.85400
H  34.49800 48.47300 25.72100
H  34.54700 47.40100 24.36300
H  28.32800 49.15700 21.84000
H  26.09600 51.17500 22.30300
H  29.41700 51.60500 22.51900
H  28.12600 51.70900 21.13500
H  29.51000 50.66000 21.03600
H  25.24000 48.46900 22.87000
H  26.41400 48.62400 21.37500
H  24.59800 50.46600 20.71400
H  23.62300 49.46900 21.77400
H  24.35700 48.64900 20.38600
H  23.00600 52.98800 25.18700
H  22.06300 52.81700 26.66900
H  22.08500 51.44300 25.45800
H  23.86300 50.48800 31.12600
H  23.47600 52.96800 34.41000
H  23.70500 54.34100 33.47700
H  25.11500 53.49200 33.81500

