158

Mg -0.67600 -3.08400 43.63200
C  2.94600 -3.19500 43.39300
C  -0.53400 -0.33200 41.87400
C  -4.00500 -3.26400 43.56300
C  -0.50800 -6.34600 45.06800
N  1.07100 -1.85500 42.78900
C  2.40200 -2.03800 42.76700
C  3.13700 -0.79500 42.13400
C  1.93900 0.19800 41.86000
C  0.76300 -0.70200 42.26400
C  1.96500 1.54800 42.79200
C  4.02900 -1.20200 40.89700
C  5.23000 -0.22400 40.80300
H  5.37500 0.68900 39.55700
N  -2.07200 -1.93900 42.80500
C  -1.82700 -0.80500 42.08000
C  -3.02500 -0.27600 41.64000
C  -4.03900 -1.22100 42.00500
C  -3.33800 -2.24700 42.82500
C  -3.32000 1.03300 41.03500
C  -5.52800 -1.14000 41.67500
O  -6.02000 -0.06300 41.22500
C  -6.44900 -2.22300 41.96700
N  -2.12200 -4.71700 44.04400
C  -3.45500 -4.43400 44.11300
C  -4.22500 -5.55000 44.80800
C  -3.07400 -6.41800 45.35300
C  -1.79700 -5.81100 44.80700
C  -5.12500 -5.00000 45.98200
C  -3.20000 -7.89200 45.03200
C  -3.66400 -8.73900 46.19400
N  0.82100 -4.53500 44.04900
C  0.67600 -5.80500 44.64500
C  1.95200 -6.27300 44.97200
C  2.87700 -5.35100 44.40000
C  2.15800 -4.29700 43.92000
C  2.19500 -7.56000 45.74600
C  4.30500 -4.95300 44.26900
O  5.32100 -5.37400 44.75500
C  4.35200 -3.67200 43.42700
C  5.35100 -2.71400 44.02300
O  5.37700 -2.31000 45.18800
O  6.33100 -2.41500 43.12800
C  7.39700 -1.57800 43.59700
H  -0.71700 0.59200 41.32200
H  -5.09400 -3.21400 43.63200
H  -0.51700 -7.29900 45.60100
H  3.81400 -0.41900 42.90200
H  1.71300 0.41200 40.81500
H  1.16300 1.54200 43.53000
H  2.05100 2.43100 42.15800
H  2.79400 1.38900 43.48100
H  3.54300 -1.13000 39.92400
H  4.32300 -2.24900 40.98100
H  6.10800 -0.86600 40.86400
H  5.34000 0.34500 41.72600
H  -4.27900 1.52200 41.20700
H  -3.16000 0.97000 39.95900
H  -2.52000 1.73600 41.26900
H  -5.95700 -3.18200 41.80600
H  -7.15000 -2.20900 41.13300
H  -6.92300 -2.14600 42.94600
H  -4.78800 -6.08400 44.04200
H  -2.94000 -6.19700 46.41200
H  -5.34600 -3.94200 45.83900
H  -4.63200 -5.08500 46.95100
H  -6.12100 -5.42800 46.09300
H  -2.18200 -8.21400 44.81200
H  -3.89000 -8.04800 44.20300
H  -3.98800 -8.16700 47.06300
H  -2.87100 -9.32400 46.66100
H  -4.52300 -9.34000 45.89600
H  3.22100 -7.65300 46.10200
H  1.98900 -8.33200 45.00500
H  1.49100 -7.54900 46.57800
H  4.60000 -3.96800 42.40700
H  6.96200 -0.59100 43.43900
H  8.30600 -1.60500 42.99700
H  7.70000 -1.76500 44.62700
Mg 0.76300 42.96800 25.57000
C  2.54800 42.72700 28.39700
C  -2.09900 41.74700 27.42400
C  -0.87900 42.58400 22.69000
C  3.68100 43.89600 23.85000
N  0.30300 42.36200 27.63500
C  1.21400 42.44600 28.64600
C  0.51500 42.03800 30.03000
C  -0.81400 41.45700 29.61000
C  -0.91500 41.90100 28.10500
C  -1.11600 39.96900 29.89000
C  0.46400 43.31700 30.89400
C  1.34500 43.21500 32.26200
H  0.51800 43.46500 33.61600
N  -1.22800 42.35900 25.05500
C  -2.25300 42.03300 25.98500
C  -3.48800 41.91100 25.22800
C  -3.16200 42.00100 23.87400
C  -1.69200 42.35400 23.79400
C  -4.79000 41.65600 25.97200
C  -4.17000 41.97800 22.66200
O  -3.82700 42.23800 21.50800
C  -5.62000 41.61700 22.88300
N  1.37900 43.05000 23.47000
C  0.44500 42.97000 22.50400
C  1.11700 43.22300 21.18300
C  2.48800 43.92800 21.56500
C  2.55900 43.67000 23.03600
C  1.25400 41.90400 20.32800
C  2.55600 45.41000 21.21300
C  3.83600 45.80600 20.50600
N  2.73200 43.26100 25.98300
C  3.84900 43.63400 25.20000
C  5.08200 43.58200 25.96400
C  4.62600 43.20000 27.22000
C  3.23600 43.06700 27.20600
C  6.46800 43.78600 25.40700
C  5.05000 42.84900 28.54100
O  6.19600 42.73500 28.93800
C  3.75000 42.68000 29.42300
C  3.82200 41.46700 30.30800
O  3.44200 40.32300 30.01400
O  4.42600 41.78600 31.48400
C  4.55100 40.79000 32.51600
H  -2.97600 41.39700 27.97200
H  -1.37600 42.54400 21.71800
H  4.63100 44.23600 23.43200
H  1.02800 41.27700 30.61900
H  -1.61700 41.98100 30.12800
H  -1.94900 39.95800 30.59300
H  -0.29000 39.47300 30.40100
H  -1.23900 39.46500 28.93200
H  -0.57300 43.45400 31.20200
H  0.76700 44.24300 30.40600
H  2.06900 44.02900 32.22000
H  1.90600 42.28400 32.34700
H  -4.64500 42.00200 26.99500
H  -5.12100 40.61900 25.90800
H  -5.62000 42.18400 25.50100
H  -6.18400 41.52500 21.95400
H  -6.16100 42.44700 23.33700
H  -5.78300 40.66700 23.39200
H  0.41600 43.89000 20.68000
H  3.35200 43.43600 21.11700
H  2.28100 41.77700 19.98300
H  0.52800 41.78100 19.52400
H  1.05800 41.05600 20.98300
H  2.54800 45.93700 22.16700
H  1.65500 45.76500 20.71200
H  4.49100 46.56500 20.93300
H  3.42500 46.33500 19.64700
H  4.39500 44.97800 20.07000
H  6.89500 42.91600 24.90700
H  7.09800 43.95700 26.28000
H  6.43200 44.71100 24.83100
H  3.77000 43.58600 30.02700
H  4.09300 39.82500 32.29600
H  4.12900 41.01600 33.49500
H  5.59800 40.68600 32.80400

