158

Mg 17.05000 -0.63800 28.13500
C  16.01900 1.35200 30.83000
C  19.15700 -2.49100 30.15000
C  18.40000 -2.05800 25.40000
C  15.30300 1.62600 25.99800
N  17.48300 -0.62500 30.20000
C  16.95700 0.32200 31.13900
C  17.47400 -0.08500 32.56500
C  18.48300 -1.22300 32.29200
C  18.39200 -1.47100 30.78000
C  19.90000 -0.99300 32.82800
C  16.25900 -0.54500 33.42300
C  16.14500 -0.07100 34.86400
H  17.44300 0.43900 35.54800
N  18.37300 -2.21100 27.85900
C  19.20400 -2.86600 28.80300
C  19.92700 -3.98300 28.17500
C  19.74100 -3.87200 26.81400
C  18.80900 -2.65600 26.64300
C  20.69900 -4.99200 28.94000
C  20.32900 -4.70600 25.79900
O  19.96600 -4.57800 24.59100
C  21.28200 -5.88300 26.05300
N  16.87400 -0.29900 25.96700
C  17.63800 -0.97500 25.09900
C  17.26900 -0.67400 23.65000
C  16.18600 0.44100 23.83400
C  16.08900 0.61100 25.32500
C  18.43200 -0.18600 22.82600
C  14.76400 0.20100 23.15000
C  13.62500 -0.44800 23.92900
N  15.77700 1.02100 28.29200
C  15.23100 1.91500 27.39800
C  14.52100 2.94800 28.04100
C  14.78700 2.74900 29.41100
C  15.60800 1.63100 29.47600
C  13.84700 4.15800 27.37100
C  14.57500 3.34300 30.77900
O  13.96400 4.38400 31.10400
C  15.38000 2.43400 31.74600
C  16.37900 3.27200 32.35900
O  17.48900 3.49200 31.90900
O  15.98300 3.58700 33.66100
C  17.04800 4.22300 34.54000
H  19.90800 -2.91700 30.81800
H  18.84400 -2.58400 24.55200
H  14.83300 2.28400 25.26400
H  17.95500 0.81300 32.95200
H  18.09500 -2.12100 32.77200
H  20.73600 -1.19700 32.16000
H  20.09100 -1.75700 33.58100
H  20.03400 -0.04700 33.35300
H  16.17200 -1.63000 33.36700
H  15.38900 -0.14900 32.89900
H  15.77300 -0.78200 35.60100
H  15.42300 0.74600 34.88700
H  20.64400 -4.79600 30.01100
H  21.72200 -5.10400 28.58300
H  20.24900 -5.97000 28.77000
H  20.79800 -6.55300 26.76300
H  22.15500 -5.46900 26.55700
H  21.54900 -6.41900 25.14300
H  16.86400 -1.57300 23.18600
H  16.62300 1.41100 23.59800
H  18.11500 0.72800 22.32400
H  18.67300 -1.00600 22.14900
H  19.34200 0.08500 23.36100
H  15.04300 -0.31700 22.23300
H  14.43800 1.22100 22.94600
H  13.85100 -1.40500 24.40000
H  12.79100 -0.62000 23.24900
H  13.25400 0.22600 24.70100
H  14.31000 4.34900 26.40200
H  13.92300 4.99700 28.06300
H  12.79800 4.00400 27.12100
H  14.70400 1.93800 32.44100
H  16.65100 4.03400 35.53700
H  17.06700 5.29700 34.35200
H  18.02700 3.75800 34.42200
Mg 50.70200 44.54400 41.88800
C  47.79900 46.15200 40.86500
C  49.51800 41.57500 40.86800
C  53.88100 43.33700 41.91600
C  51.88500 47.66200 42.79400
N  48.87700 44.01400 40.83200
C  47.76200 44.74200 40.74800
C  46.54500 43.87800 40.18000
C  47.09900 42.48800 40.59000
C  48.60500 42.68400 40.76700
C  46.31000 41.67100 41.68900
C  46.30700 44.13000 38.63300
C  44.98600 43.91500 37.99700
H  44.85400 43.07100 36.74600
N  51.53500 42.68900 41.52800
C  50.86300 41.60400 41.15000
C  51.74300 40.42400 41.23200
C  53.02600 40.93900 41.43300
C  52.85100 42.39200 41.59000
C  51.37300 39.03200 40.96600
C  54.25300 40.09300 41.40600
O  54.19800 38.87100 41.28300
C  55.63500 40.65700 41.58200
N  52.57400 45.42100 42.35000
C  53.69700 44.69800 42.32300
C  54.86100 45.45500 42.87800
C  54.29500 46.93600 43.07600
C  52.83900 46.68800 42.70100
C  55.51900 44.81400 44.23000
C  54.81400 48.00200 41.98700
C  55.49500 49.29900 42.58700
N  49.98900 46.54300 41.87800
C  50.57400 47.68800 42.25000
C  49.64100 48.79000 42.12500
C  48.51200 48.23200 41.57000
C  48.77100 46.86100 41.41100
C  49.90600 50.16900 42.60100
C  47.24200 48.54600 41.01300
O  46.68800 49.63200 40.95600
C  46.66100 47.13500 40.63600
C  45.35800 46.93300 41.27900
O  45.19400 46.15000 42.22700
O  44.30700 47.65300 40.70400
C  43.10400 47.61400 41.55200
H  49.02700 40.60300 40.78000
H  54.92200 43.00800 41.89700
H  52.31400 48.60500 43.14000
H  45.54100 43.89800 40.60400
H  47.10800 41.82700 39.72300
H  45.66900 42.27600 42.33100
H  47.00800 41.20500 42.38400
H  45.68000 40.84800 41.35100
H  46.94800 43.45100 38.07100
H  46.61600 45.16200 38.46700
H  44.64000 44.90900 37.71300
H  44.40900 43.41100 38.77200
H  51.87800 38.72600 40.05000
H  50.30800 38.87200 40.80100
H  51.72200 38.32300 41.71700
H  55.80800 40.84100 42.64300
H  55.80000 41.55100 40.98200
H  56.38600 39.90300 41.34400
H  55.56500 45.42800 42.04600
H  54.33100 47.27100 44.11200
H  56.59800 44.77200 44.08300
H  55.34800 43.73800 44.24200
H  55.13900 45.33500 45.11000
H  53.92900 48.21600 41.38700
H  55.53400 47.51600 41.32900
H  54.84300 50.10500 42.25100
H  56.45600 49.33100 42.07300
H  55.54200 49.27600 43.67500
H  50.74900 50.68400 42.13900
H  50.04700 50.15600 43.68200
H  49.02000 50.78400 42.44300
H  46.34700 47.14800 39.59200
H  42.74600 46.58500 41.54800
H  42.34800 48.25500 41.09800
H  43.41300 47.98500 42.52900

