158

Mg 10.24100 47.13000 26.05200
C  7.74900 47.31200 28.21900
C  12.50700 48.20100 28.37600
C  12.66800 46.91500 23.57300
C  7.86000 46.62100 23.37900
N  10.03200 47.77000 28.03300
C  8.94200 47.71000 28.76100
C  9.30400 47.89700 30.23200
C  10.75900 48.48600 30.21500
C  11.13000 48.19100 28.76900
C  10.85800 49.98800 30.52800
C  9.07300 46.77700 31.21900
C  9.73500 47.02900 32.53700
H  9.07100 46.38100 33.77800
N  12.25600 47.59200 25.91000
C  13.01200 47.92500 27.01300
C  14.39900 48.02900 26.66100
C  14.50300 47.61200 25.27500
C  13.06900 47.36500 24.81200
C  15.51800 48.57100 27.59600
C  15.77400 47.40800 24.42300
O  15.69600 47.03200 23.28400
C  17.14200 47.77600 24.99600
N  10.26500 46.93000 23.80400
C  11.38400 46.80500 23.03700
C  11.13000 46.38200 21.55000
C  9.62900 46.38500 21.50400
C  9.19400 46.65300 22.98300
C  11.81500 47.30500 20.56000
C  9.03200 45.05100 20.84900
C  7.67400 45.20500 20.17500
N  8.20300 46.84700 25.83200
C  7.37000 46.78600 24.68000
C  5.99500 46.62400 25.15000
C  6.09200 46.85600 26.56700
C  7.45200 47.00400 26.84400
C  4.72400 46.39100 24.34200
C  5.31300 46.90300 27.83400
O  4.13700 46.78900 28.04500
C  6.41900 47.17400 28.95500
C  6.27800 46.01200 29.77700
O  6.86800 45.01500 29.63100
O  5.37900 46.23100 30.74600
C  5.07800 45.23100 31.71700
H  13.20000 48.46100 29.17900
H  13.42000 46.78400 22.79200
H  7.11900 46.52800 22.58200
H  8.70700 48.76600 30.51000
H  11.47100 47.83000 30.71700
H  11.43300 50.41900 29.70800
H  11.52400 50.13200 31.38000
H  9.88300 50.47000 30.59300
H  9.36100 45.81600 30.79300
H  7.99100 46.75400 31.34900
H  9.91000 48.09600 32.67400
H  10.72000 46.56400 32.52000
H  15.10300 48.90200 28.54800
H  16.01600 49.47600 27.24600
H  16.31600 47.83100 27.65500
H  17.58500 47.06100 25.68900
H  17.20600 48.76700 25.44500
H  17.84700 47.74700 24.16400
H  11.45800 45.37300 21.30100
H  9.37000 47.30500 20.97900
H  11.51900 48.32700 20.79600
H  11.35800 47.14200 19.58400
H  12.87400 47.04900 20.51600
H  8.94600 44.34100 21.67200
H  9.81500 44.70600 20.17400
H  7.34400 46.23300 20.02000
H  6.90800 44.60400 20.66400
H  7.85400 44.82200 19.17100
H  4.96200 45.78000 23.47000
H  4.34100 47.33700 23.95900
H  3.97200 45.91700 24.97200
H  6.31100 48.10200 29.51700
H  4.53600 44.34500 31.38500
H  4.39000 45.55800 32.49700
H  5.95400 44.99400 32.32000
Mg -2.38400 34.21400 27.22200
C  -3.88300 32.44400 29.80000
C  -0.84400 36.23400 29.43300
C  -1.19600 36.01800 24.62900
C  -4.50000 32.42100 24.90900
N  -2.51700 34.41200 29.34000
C  -2.96500 33.42100 30.19400
C  -2.70700 33.78900 31.68200
C  -1.84600 35.12700 31.56100
C  -1.74400 35.29600 30.03000
C  -2.41000 36.42400 32.37400
C  -2.08200 32.58200 32.47200
C  -2.78900 32.15400 33.73300
H  -1.98000 32.23900 35.02200
N  -1.16900 35.82200 27.06900
C  -0.47800 36.50400 28.10600
C  0.33300 37.49900 27.64000
C  0.22600 37.50800 26.24200
C  -0.77100 36.40100 25.88300
C  1.23000 38.38200 28.48500
C  0.90200 38.35500 25.15800
O  0.61800 38.25600 23.98300
C  1.97100 39.23000 25.53600
N  -2.78500 34.17100 25.08600
C  -2.05300 34.99700 24.22700
C  -2.47300 34.77700 22.73900
C  -3.45900 33.52800 22.80900
C  -3.63300 33.36600 24.36800
C  -3.06300 36.09300 22.01000
C  -2.84100 32.33000 22.01600
C  -1.83200 31.51600 22.81300
N  -3.82500 32.72300 27.28700
C  -4.61300 32.13100 26.27000
C  -5.47400 31.15700 26.91300
C  -5.18500 31.27500 28.26900
C  -4.24300 32.23100 28.44400
C  -6.45400 30.26900 26.24700
C  -5.49300 30.65000 29.53200
O  -6.23600 29.70600 29.79100
C  -4.74400 31.50200 30.57000
C  -5.80600 32.17300 31.30000
O  -6.65900 32.97800 30.91200
O  -5.83300 31.58400 32.57100
C  -6.99200 31.90000 33.42600
H  -0.14400 36.48700 30.23200
H  -0.74500 36.42600 23.72200
H  -5.01100 31.81000 24.16100
H  -3.68100 34.07300 32.08200
H  -0.80100 34.90400 31.77800
H  -2.90000 36.18100 33.31600
H  -2.81000 37.21600 31.74100
H  -1.46000 36.84300 32.70500
H  -1.06100 32.84400 32.74700
H  -1.97100 31.63100 31.95000
H  -3.28500 31.18900 33.63100
H  -3.60100 32.82700 34.00800
H  2.25700 38.27100 28.13800
H  1.33700 38.09000 29.53000
H  0.89600 39.40500 28.31200
H  1.62400 40.05700 26.15700
H  2.34700 39.72100 24.63800
H  2.78300 38.56900 25.83900
H  -1.53400 34.47800 22.27400
H  -4.42600 33.81800 22.39800
H  -3.73700 36.61500 22.69000
H  -3.70700 35.73000 21.21000
H  -2.35400 36.86900 21.72100
H  -2.33900 32.79300 21.16600
H  -3.60700 31.64700 21.64800
H  -0.91900 31.51000 22.21800
H  -2.18200 30.48400 22.84100
H  -1.60700 31.88700 23.81200
H  -6.65800 30.69000 25.26300
H  -7.34200 30.05300 26.84200
H  -6.07700 29.24800 26.19100
H  -4.13300 30.76700 31.09500
H  -7.88500 31.46500 32.97700
H  -7.04600 32.98300 33.53700
H  -6.83400 31.34600 34.35200

