158

Mg 25.47700 0.52500 28.85500
C  27.46200 0.34000 31.62200
C  22.70700 0.99400 30.82300
C  23.75800 0.46000 25.96600
C  28.38600 -0.38100 26.87100
N  25.12400 0.55900 31.00600
C  26.10100 0.64000 31.93300
C  25.51200 1.01500 33.35000
C  23.94600 1.10800 33.00900
C  23.89700 0.87200 31.52000
C  23.05600 0.21500 33.90400
C  26.14800 2.32000 33.98300
C  25.59500 2.71500 35.38400
H  26.42000 2.36700 36.64200
N  23.51400 0.64800 28.43000
C  22.52100 0.91300 29.38700
C  21.21000 1.01900 28.73300
C  21.46000 0.62100 27.36700
C  22.98900 0.57300 27.19200
C  19.99800 1.37200 29.50400
C  20.48200 0.41100 26.21900
O  20.80100 -0.10400 25.12700
C  19.07500 0.72800 26.48100
N  26.03200 0.23000 26.67800
C  25.11100 0.37700 25.64700
C  25.66700 0.19400 24.26000
C  27.13500 0.04300 24.61500
C  27.25500 -0.12000 26.10600
C  25.02200 -0.90200 23.33700
C  28.19500 1.05400 24.07800
C  29.48600 0.51200 23.46700
N  27.50800 0.06600 29.13900
C  28.47900 -0.33400 28.23900
C  29.62400 -0.79800 29.06300
C  29.29300 -0.39200 30.35600
C  27.96300 0.05700 30.35400
C  30.81900 -1.42300 28.55500
C  29.80000 -0.42100 31.72000
O  30.90700 -0.73700 32.15900
C  28.59100 -0.05300 32.61000
C  28.09200 -1.22200 33.39700
O  27.19200 -1.91000 33.04100
O  28.55500 -1.11800 34.64700
C  28.13200 -2.11900 35.63100
H  21.94800 1.21700 31.57600
H  23.00900 0.48600 25.17200
H  29.25100 -0.67500 26.27200
H  25.64100 0.21700 34.08200
H  23.65200 2.15400 33.09400
H  22.45400 -0.50500 33.35000
H  22.36900 0.89500 34.40800
H  23.56600 -0.24100 34.75300
H  25.94400 3.20200 33.37600
H  27.22800 2.20100 34.07800
H  24.59800 2.31300 35.56600
H  25.53100 3.80000 35.46100
H  19.34300 2.08400 29.00300
H  20.28900 1.87100 30.42800
H  19.35400 0.50600 29.65800
H  18.87200 0.04800 27.30800
H  18.40500 0.53700 25.64300
H  18.97800 1.67100 27.01900
H  25.60400 1.16500 23.76700
H  27.40900 -0.94800 24.25400
H  24.64600 -1.76200 23.89200
H  25.69100 -1.36000 22.60900
H  24.26700 -0.50500 22.65900
H  28.46200 1.78900 24.83800
H  27.80200 1.67100 23.27000
H  29.60600 0.94600 22.47400
H  29.35200 -0.57000 23.46700
H  30.37000 0.77800 24.04700
H  30.49000 -2.25100 27.92600
H  31.51200 -1.83100 29.29000
H  31.23400 -0.60000 27.97400
H  28.85100 0.83900 33.18100
H  28.96200 -2.57100 36.17500
H  27.66700 -2.99100 35.17200
H  27.44000 -1.72900 36.37700
Mg -5.13200 25.45200 25.69500
C  -3.71500 26.99100 28.46300
C  -6.68200 23.20000 27.78000
C  -6.65900 24.20400 22.94600
C  -3.31600 27.63300 23.52000
N  -5.03500 25.03000 27.90400
C  -4.49900 25.86900 28.83300
C  -4.84000 25.46400 30.26000
C  -5.67300 24.16200 30.02700
C  -5.77700 24.05600 28.51300
C  -5.11300 22.83600 30.63300
C  -5.56600 26.66800 31.00100
C  -5.56500 26.81300 32.52200
H  -4.82000 25.80800 33.36900
N  -6.40700 23.84200 25.40400
C  -6.89700 22.99000 26.38700
C  -7.87300 22.03600 25.72800
C  -7.87100 22.34600 24.31400
C  -6.90900 23.51600 24.14800
C  -8.56100 20.99900 26.49400
C  -8.76100 21.75000 23.22500
O  -8.56800 21.99000 22.04300
C  -9.86900 20.84700 23.47500
N  -4.99600 25.87400 23.46700
C  -5.85100 25.26200 22.64900
C  -5.52300 25.64500 21.19200
C  -4.39200 26.79500 21.32100
C  -4.17200 26.73300 22.84900
C  -5.02900 24.42800 20.31600
C  -4.89600 28.18900 20.81100
C  -3.89000 29.00100 20.01100
N  -3.79000 26.99100 25.85500
C  -3.11300 27.77100 24.94900
C  -2.31000 28.72300 25.66400
C  -2.48400 28.42300 27.02300
C  -3.46600 27.40900 27.14400
C  -1.46300 29.88000 25.20100
C  -2.06700 28.74800 28.30100
O  -1.14800 29.48800 28.68600
C  -2.86000 27.91000 29.34700
C  -1.85200 27.12400 30.11500
O  -1.32400 26.06100 29.73400
O  -1.51400 27.76600 31.23300
C  -0.46300 27.24800 32.11000
H  -7.15500 22.48200 28.45300
H  -7.21800 23.97700 22.03600
H  -2.75200 28.43300 23.03500
H  -3.91900 25.25700 30.80500
H  -6.68400 24.35100 30.38600
H  -4.77800 22.11500 29.88700
H  -5.90800 22.34900 31.19800
H  -4.27300 23.08000 31.28300
H  -6.63500 26.62800 30.79300
H  -5.26400 27.64000 30.61300
H  -6.59400 26.60400 32.81600
H  -5.24400 27.82000 32.78800
H  -9.52400 20.73700 26.05500
H  -8.77200 21.49300 27.44300
H  -7.91800 20.12300 26.41900
H  -9.58700 20.08000 24.19600
H  -10.20300 20.33700 22.57200
H  -10.75100 21.31500 23.91200
H  -6.33500 26.10600 20.63000
H  -3.44000 26.49400 20.88400
H  -4.11000 24.61100 19.75900
H  -5.84400 24.16600 19.64100
H  -4.90300 23.53100 20.92200
H  -5.24200 28.65100 21.73500
H  -5.78700 28.20100 20.18300
H  -4.22300 29.27500 19.01000
H  -2.89800 28.56200 19.90400
H  -3.69800 29.88500 20.62000
H  -0.45200 29.49800 25.06100
H  -1.58600 30.72700 25.87500
H  -1.84800 30.23700 24.24600
H  -3.39100 28.55300 30.04800
H  0.34500 27.96900 31.98400
H  -0.02000 26.31600 31.75900
H  -0.91700 27.13600 33.09400

