158

Mg 42.32300 41.39600 26.68400
C  41.42600 43.85000 29.21800
C  43.43600 39.36600 29.23700
C  43.75200 39.53700 24.34200
C  41.58400 43.92500 24.31200
N  42.46600 41.58700 28.93800
C  41.85800 42.60400 29.72800
C  41.81500 42.17600 31.20100
C  42.57300 40.76400 31.20600
C  42.85500 40.57000 29.74000
C  43.65000 40.52800 32.29900
C  40.42000 42.33500 31.91600
C  40.40300 41.67800 33.33000
H  39.76700 42.48500 34.48000
N  43.29800 39.58900 26.77600
C  43.69100 38.90500 27.89400
C  44.18300 37.60700 27.49300
C  44.21400 37.67600 26.08500
C  43.77300 38.97800 25.66700
C  44.45000 36.42000 28.47400
C  44.57600 36.58600 25.12400
O  44.63900 36.68200 23.91900
C  44.91600 35.18700 25.66400
N  42.72200 41.79200 24.76900
C  43.24700 40.76600 23.89000
C  43.12900 41.11300 22.45000
C  42.11000 42.24700 22.51300
C  42.21400 42.78000 23.93100
C  44.44900 41.35600 21.82900
C  40.72200 41.93900 21.91500
C  39.68900 41.28700 22.79900
N  41.56200 43.42400 26.71700
C  41.35800 44.25200 25.65100
C  40.98000 45.59600 26.15700
C  40.95800 45.43600 27.52600
C  41.37200 44.15300 27.82100
C  40.67400 46.77500 25.26800
C  40.71900 46.08800 28.71200
O  40.48500 47.30200 28.87400
C  40.93200 45.09200 29.87800
C  41.96800 45.64600 30.89200
O  43.20500 45.81600 30.73600
O  41.31000 45.80800 32.12200
C  42.00400 46.21800 33.31200
H  43.74100 38.64000 29.99400
H  44.02100 38.87700 23.51500
H  41.32600 44.65900 23.54600
H  42.44900 42.87000 31.75300
H  41.84600 39.98500 31.43600
H  44.54000 40.37200 31.68900
H  43.51600 39.60200 32.85700
H  43.94000 41.38800 32.90300
H  39.61800 41.92900 31.29900
H  40.35900 43.40700 32.10300
H  41.40700 41.39100 33.64500
H  39.79600 40.77700 33.24600
H  43.72100 35.61300 28.40300
H  44.55200 36.72000 29.51700
H  45.39900 35.91300 28.29500
H  45.84100 35.25200 26.23800
H  45.08600 34.42800 24.90100
H  43.99000 34.96000 26.19200
H  42.58200 40.32800 21.92900
H  42.58100 43.04600 21.94100
H  45.20400 40.95300 22.50300
H  44.61000 42.43100 21.74900
H  44.48700 40.78000 20.90400
H  40.81200 41.42300 20.95900
H  40.21700 42.89400 21.77700
H  39.43400 40.41500 22.19600
H  38.77300 41.82000 23.05300
H  40.05800 40.87900 23.74000
H  41.59400 47.31000 25.03600
H  40.01500 47.44200 25.82500
H  40.13700 46.33700 24.42700
H  39.97700 44.90100 30.36800
H  43.08700 46.30300 33.22500
H  41.79000 45.57800 34.16800
H  41.66300 47.20400 33.62600
Mg -11.54100 16.91500 42.22100
C  -8.29900 17.87000 41.86300
C  -12.59300 20.23200 41.73500
C  -14.86500 16.00500 42.54800
C  -10.39500 13.62900 42.43800
N  -10.56600 18.81100 41.68300
C  -9.20000 18.98000 41.73100
C  -8.70700 20.39600 41.58400
C  -10.13900 21.16300 41.71600
C  -11.19600 20.04600 41.76500
C  -10.24200 22.18600 42.94000
C  -8.02200 20.64600 40.21100
C  -6.75200 21.37400 40.26000
H  -5.62500 21.06400 39.26300
N  -13.48000 17.93700 41.93500
C  -13.68300 19.29500 41.76900
C  -15.08300 19.59500 41.84900
C  -15.75100 18.40000 42.08300
C  -14.73200 17.38100 42.23500
C  -15.55600 21.05000 41.70700
C  -17.25500 18.37200 42.21800
O  -17.95400 19.35700 42.08600
C  -18.00400 16.97500 42.40200
N  -12.46100 15.04400 42.09000
C  -13.81300 14.96400 42.52300
C  -14.10100 13.52500 42.90500
C  -12.76000 12.73200 42.46100
C  -11.78000 13.87100 42.39600
C  -14.48200 13.38000 44.39600
C  -12.80300 11.99800 41.14400
C  -13.70300 10.76000 41.06400
N  -9.72200 15.87200 42.17900
C  -9.37000 14.54700 42.27500
C  -7.93000 14.45400 42.40200
C  -7.44400 15.73800 42.15800
C  -8.57300 16.55700 42.08900
C  -7.21800 13.18200 42.78700
C  -6.27900 16.51500 42.06700
O  -5.13300 16.08400 42.14200
C  -6.76400 18.01300 41.87900
C  -6.33700 18.81500 43.13400
O  -6.82600 18.58300 44.18200
O  -5.29900 19.58600 42.90600
C  -4.65300 20.20600 44.04200
H  -12.88400 21.25200 41.47600
H  -15.85300 15.66900 42.86900
H  -10.10300 12.61400 42.71600
H  -8.24700 20.65600 42.53800
H  -10.23600 21.84500 40.87200
H  -10.12300 23.19800 42.55200
H  -9.55000 21.98700 43.75900
H  -11.24500 22.24300 43.36400
H  -8.59800 21.10400 39.40700
H  -7.83200 19.69400 39.71600
H  -6.38000 21.12200 41.25300
H  -6.97000 22.44100 40.21200
H  -16.53500 21.13800 41.23600
H  -14.82300 21.60600 41.12200
H  -15.57000 21.48700 42.70600
H  -19.02300 17.16800 42.06600
H  -17.98200 16.64400 43.44000
H  -17.61600 16.23400 41.70300
H  -14.88100 13.12400 42.25800
H  -12.26900 12.01000 43.11300
H  -15.46500 12.94000 44.55900
H  -14.38100 14.32700 44.92800
H  -13.77500 12.75500 44.94200
H  -11.81200 11.73500 40.77300
H  -13.18000 12.71400 40.41300
H  -14.53500 10.97500 40.39200
H  -14.02900 10.65700 42.09900
H  -13.16400 9.87300 40.73400
H  -7.36600 12.95400 43.84300
H  -6.15900 13.33100 42.58000
H  -7.67500 12.41100 42.16600
H  -6.31200 18.24300 40.91400
H  -5.24600 21.01600 44.46400
H  -3.75600 20.76200 43.76700
H  -4.26300 19.51100 44.78600

