158

Mg 9.58100 47.41500 27.59200
C  7.32400 47.28000 30.29500
C  11.99100 48.28400 29.89000
C  11.83600 47.72500 25.01500
C  7.03700 47.13200 25.33500
N  9.63500 47.89500 29.85500
C  8.63000 47.67700 30.75000
C  9.08100 47.92600 32.16700
C  10.52000 48.31000 32.00500
C  10.73800 48.19100 30.49800
C  10.97900 49.65600 32.62700
C  8.82600 46.81000 33.09600
C  9.81400 46.55600 34.27000
H  9.32700 45.65600 35.42400
N  11.58100 48.00100 27.43400
C  12.41200 48.22100 28.50400
C  13.73700 48.40300 28.02600
C  13.70000 48.24900 26.64600
C  12.35300 48.01900 26.29600
C  14.94600 48.70400 28.91500
C  14.84300 48.49900 25.65000
O  14.74100 48.46000 24.46600
C  16.25000 48.79700 26.16100
N  9.49500 47.53000 25.41400
C  10.51000 47.46800 24.61800
C  10.09200 47.33800 23.15300
C  8.49500 47.22100 23.23800
C  8.31700 47.28200 24.70800
C  10.64900 48.40000 22.19700
C  7.92700 45.87100 22.65400
C  7.60800 45.90300 21.10700
N  7.58200 47.15100 27.76100
C  6.63100 47.14500 26.75500
C  5.32800 47.03500 27.38300
C  5.57700 46.98600 28.76100
C  6.96600 47.20700 28.91600
C  4.05200 46.80900 26.76800
C  4.93900 46.84000 30.04600
O  3.72300 46.72000 30.31700
C  6.06300 46.89800 31.08100
C  6.15400 45.52400 31.69400
O  6.70900 44.52200 31.21800
O  5.61000 45.61200 32.96800
C  5.68600 44.35000 33.78100
H  12.73800 48.73400 30.54600
H  12.52400 47.74600 24.16700
H  6.25900 47.07600 24.57100
H  8.47300 48.75200 32.53700
H  11.09500 47.54900 32.53300
H  10.12000 50.20400 33.01300
H  11.52500 50.22900 31.87700
H  11.62900 49.37500 33.45600
H  8.63300 45.83400 32.65000
H  7.94500 47.09300 33.67300
H  9.95500 47.54900 34.69700
H  10.77500 46.16500 33.93900
H  14.61200 48.52100 29.93600
H  15.22400 49.74900 28.78500
H  15.78000 48.03400 28.70100
H  16.89000 49.10200 25.33400
H  16.73500 47.88700 26.51500
H  16.24900 49.65200 26.83800
H  10.47100 46.42200 22.69900
H  8.03300 48.08400 22.75700
H  11.29000 48.99400 22.84800
H  9.82500 48.93600 21.72700
H  11.22900 47.93300 21.40000
H  7.01800 45.58600 23.18500
H  8.70100 45.11900 22.80600
H  7.80400 46.90200 20.71500
H  6.58400 45.62200 20.86100
H  8.26500 45.17600 20.63000
H  3.51100 47.64400 27.21400
H  3.60300 45.84100 26.99100
H  4.06200 46.92400 25.68400
H  5.77700 47.66900 31.79600
H  6.30200 43.60300 33.27900
H  4.64100 44.05300 33.86300
H  5.94500 44.60000 34.81000
Mg -11.87600 16.80000 42.99300
C  -8.32900 17.15900 42.79400
C  -11.99300 20.27600 42.19400
C  -15.13500 16.67000 42.56200
C  -11.54200 13.38100 42.87000
N  -10.34000 18.44800 42.31800
C  -8.90000 18.37200 42.39500
C  -8.22000 19.72900 42.21000
C  -9.45400 20.66700 42.45700
C  -10.68200 19.76700 42.32000
C  -9.45900 21.18100 43.94700
C  -7.48300 19.65400 40.83400
C  -5.92600 19.89900 40.94100
H  -5.13100 18.98600 39.95400
N  -13.38800 18.26900 42.51800
C  -13.22200 19.60200 42.32200
C  -14.47900 20.27100 42.06400
C  -15.46400 19.22100 42.21600
C  -14.73600 17.94900 42.45600
C  -14.74700 21.70900 41.55200
C  -17.04600 19.37400 42.00500
O  -17.56400 20.45000 41.84800
C  -17.98100 18.19600 41.98800
N  -13.13600 15.27700 42.67500
C  -14.47300 15.43900 42.62700
C  -15.23400 14.04700 42.62800
C  -14.06900 13.01600 42.67100
C  -12.85700 13.93200 42.76200
C  -16.27100 13.88100 43.78000
C  -14.09400 12.05600 41.50500
C  -14.74100 10.72000 41.74800
N  -10.29900 15.50400 43.00800
C  -10.30900 14.12300 42.91000
C  -8.93200 13.64100 42.95500
C  -8.14700 14.79900 42.99400
C  -9.05200 15.91700 42.95400
C  -8.47700 12.19300 42.98200
C  -6.74300 15.31200 42.98300
O  -5.67600 14.76000 43.08600
C  -6.85400 16.86100 43.05900
C  -6.36500 17.16000 44.39400
O  -6.94300 16.95900 45.47600
O  -5.14300 17.91900 44.22100
C  -4.39400 18.40800 45.42400
H  -12.10500 21.36200 42.18500
H  -16.22700 16.66500 42.55100
H  -11.41900 12.30000 42.97100
H  -7.47500 19.92300 42.98200
H  -9.47900 21.46200 41.71200
H  -8.47000 21.20400 44.40400
H  -10.01600 20.50400 44.59400
H  -10.03900 22.10300 43.88600
H  -7.96900 20.41500 40.22300
H  -7.60600 18.67100 40.37900
H  -5.60500 19.80200 41.97800
H  -5.86900 20.91500 40.55100
H  -15.52800 22.14200 42.17600
H  -15.18600 21.49800 40.57700
H  -13.83900 22.31100 41.51200
H  -19.03300 18.48100 41.97100
H  -17.98300 17.74100 42.97900
H  -17.92100 17.32900 41.33000
H  -15.83700 14.05600 41.72000
H  -14.12100 12.42700 43.58600
H  -16.19000 14.66000 44.53800
H  -16.27500 12.87000 44.18900
H  -17.19300 14.10800 43.24500
H  -13.12100 11.88500 41.04400
H  -14.63500 12.55500 40.70200
H  -15.59500 10.89200 42.40400
H  -13.99900 10.07500 42.21900
H  -15.13200 10.27700 40.83200
H  -9.29100 11.66500 42.48500
H  -8.22400 11.77400 43.95600
H  -7.50700 12.03600 42.51100
H  -6.21500 17.39500 42.35500
H  -4.41500 19.49700 45.47000
H  -3.36000 18.06700 45.37600
H  -4.73200 18.02700 46.38800

