158

Mg 46.51900 34.87000 27.77600
C  44.81000 32.94400 30.25600
C  46.70300 37.43500 30.00800
C  47.74900 36.55900 25.32200
C  46.02500 32.16100 25.57100
N  45.99600 35.12000 29.91600
C  45.37000 34.18300 30.71200
C  45.46800 34.62800 32.18100
C  45.60800 36.14900 32.07700
C  46.15100 36.28900 30.60300
C  44.34800 36.96500 32.31100
C  46.62000 33.85000 32.92400
C  46.37600 33.67700 34.45000
H  45.52400 34.76400 35.21200
N  47.16100 36.78500 27.66400
C  47.19900 37.71200 28.69100
C  47.81400 38.91800 28.22000
C  47.98000 38.70500 26.79800
C  47.64100 37.30500 26.54800
C  47.92300 40.12000 29.12500
C  48.51600 39.64100 25.64900
O  48.39500 39.38900 24.45800
C  49.16500 40.88500 26.06500
N  46.81400 34.41500 25.72900
C  47.34800 35.28400 24.95500
C  47.50100 34.81700 23.51600
C  46.97400 33.34700 23.55400
C  46.60700 33.27900 25.04300
C  47.00300 35.70800 22.37300
C  47.90500 32.12200 23.20300
C  49.07900 31.78600 24.15700
N  45.80400 32.91000 27.92200
C  45.66400 32.02900 26.95500
C  45.16500 30.79200 27.52200
C  44.80500 31.10300 28.79100
C  45.11400 32.46500 29.03500
C  44.90200 29.51100 26.84800
C  44.12000 30.59500 29.93700
O  43.66900 29.48400 30.17400
C  43.90900 31.87200 30.87800
C  44.07300 31.55700 32.29100
O  44.99700 31.06300 32.86500
O  42.87300 32.01300 32.83800
C  42.64900 31.67100 34.26600
H  46.79900 38.27600 30.69900
H  48.07600 37.14200 24.45900
H  45.87300 31.30500 24.91100
H  44.51500 34.46300 32.68300
H  46.40800 36.42000 32.76700
H  44.41000 37.52100 33.24700
H  43.43700 36.38900 32.47000
H  44.17100 37.57200 31.42400
H  47.47600 34.50100 32.74600
H  46.89200 32.96100 32.35400
H  47.29700 33.82200 35.01500
H  45.99600 32.67200 34.63300
H  48.68000 40.81900 28.76900
H  48.35600 39.84800 30.08700
H  46.96200 40.60300 29.30100
H  48.33700 41.51100 26.39800
H  49.81700 41.17800 25.24200
H  49.63200 40.57700 27.00100
H  48.57500 34.66700 23.40100
H  46.16300 33.24600 22.83200
H  46.35100 35.29200 21.60500
H  47.84100 36.27400 21.96700
H  46.37600 36.37200 22.96900
H  48.44900 32.22500 22.26400
H  47.14400 31.34300 23.15200
H  50.05900 32.05300 23.76000
H  49.03000 30.73500 24.44100
H  49.01900 32.39100 25.06200
H  45.69000 29.32700 26.11800
H  43.95500 29.39000 26.32300
H  45.08900 28.73400 27.58900
H  42.89400 32.24000 30.72500
H  42.80800 32.59400 34.82300
H  43.42800 31.00300 34.63400
H  41.62600 31.32600 34.41300
Mg -8.56100 40.71900 43.11800
C  -7.54300 37.43500 42.40500
C  -5.53700 41.68100 41.46300
C  -9.67500 43.82500 43.05700
C  -11.53100 39.53300 44.34600
N  -6.73300 39.65000 42.17100
C  -6.56600 38.29600 42.00700
C  -5.39200 37.91000 41.12200
C  -4.54700 39.15000 41.12800
C  -5.64200 40.30700 41.56200
C  -3.43200 39.21000 42.14800
C  -5.67600 37.45900 39.64600
C  -4.85500 36.24200 39.13000
H  -3.84900 36.52100 37.95100
N  -7.71200 42.51000 42.39600
C  -6.47800 42.68000 41.80100
C  -6.35000 44.06200 41.48000
C  -7.44300 44.78300 42.05000
C  -8.34000 43.70400 42.56100
C  -5.10300 44.62900 40.82400
C  -7.60300 46.29600 42.16700
O  -6.82600 47.01900 41.56600
C  -8.82400 46.92200 43.00100
N  -10.40400 41.51700 43.52300
C  -10.59000 42.83800 43.47000
C  -11.96700 43.24000 44.05300
C  -12.49800 41.92300 44.62300
C  -11.42500 40.90300 44.12900
C  -11.96600 44.30900 45.24700
C  -13.92800 41.61800 44.16800
C  -14.69700 41.01500 45.31400
N  -9.47300 38.79700 43.32900
C  -10.66800 38.48300 43.94700
C  -10.74100 37.02700 43.99400
C  -9.52000 36.53300 43.38700
C  -8.79700 37.68800 43.05200
C  -11.80000 36.17400 44.52000
C  -8.76100 35.38300 42.94100
O  -9.03800 34.19200 43.05600
C  -7.49600 35.96000 42.22500
C  -6.24400 35.25100 42.60800
O  -5.53400 35.36100 43.64200
O  -6.06000 34.23000 41.70000
C  -4.93000 33.38200 42.11800
H  -4.55200 41.87400 41.03200
H  -10.17300 44.78800 43.19100
H  -12.48800 39.23500 44.78000
H  -4.87700 37.09700 41.63400
H  -4.03600 39.39100 40.19600
H  -3.76300 39.93500 42.89200
H  -2.47700 39.47600 41.69600
H  -3.32800 38.24400 42.64200
H  -5.49200 38.27000 38.94100
H  -6.71700 37.14700 39.56800
H  -5.57100 35.42300 39.05800
H  -4.30400 36.03400 40.04700
H  -5.45000 45.44400 40.18800
H  -4.63600 43.90400 40.15700
H  -4.35800 45.02200 41.51500
H  -8.44500 47.93100 43.16200
H  -8.98100 46.42300 43.95800
H  -9.74400 47.00500 42.42300
H  -12.49800 43.74900 43.24700
H  -12.32000 41.83800 45.69500
H  -11.90500 45.31800 44.83900
H  -11.17700 44.14200 45.98100
H  -12.80900 44.14500 45.91800
H  -13.91400 40.83500 43.41100
H  -14.40800 42.51400 43.77400
H  -14.31100 41.31800 46.28800
H  -14.60500 39.92900 45.29800
H  -15.75100 41.28600 45.26800
H  -12.61900 35.98100 43.82600
H  -12.29000 36.71900 45.32700
H  -11.37300 35.22900 44.85200
H  -7.71400 35.80600 41.16800
H  -4.61100 32.60700 41.42200
H  -5.11500 32.86300 43.05900
H  -4.02900 33.98600 42.22300

