158

Mg 8.92100 3.35100 27.86000
C  10.59900 1.86900 30.63000
C  6.96500 5.05800 29.94100
C  7.42900 4.51800 25.12700
C  10.62100 1.00000 25.79300
N  8.97500 3.56400 30.07000
C  9.73700 2.90300 30.97700
C  9.24900 3.25200 32.38800
C  7.93400 4.12200 32.16300
C  7.93600 4.22100 30.66500
C  6.66100 3.55200 32.83600
C  10.38900 4.02800 33.14400
C  10.89900 3.36400 34.38700
H  11.43400 4.38700 35.45400
N  7.42000 4.58600 27.62000
C  6.78600 5.29300 28.59400
C  5.94900 6.34900 28.01600
C  6.00600 6.17700 26.63500
C  6.98700 5.01900 26.40600
C  4.99400 7.22800 28.84700
C  5.21000 6.88700 25.53500
O  5.38800 6.66800 24.37100
C  4.15600 7.95400 25.96200
N  8.75300 2.48700 25.79000
C  8.19700 3.33900 24.84700
C  8.45600 2.81200 23.41600
C  9.64900 1.85900 23.61100
C  9.67600 1.76900 25.15800
C  7.25000 2.06400 22.83600
C  10.98300 2.32900 23.06900
C  11.40800 1.52300 21.80100
N  10.34800 1.81800 28.12200
C  10.84700 0.91900 27.23000
C  11.75600 -0.08300 27.84800
C  11.69800 0.25200 29.20000
C  10.85900 1.42900 29.34500
C  12.55300 -1.15900 27.20800
C  12.14300 -0.02800 30.48600
O  12.85300 -0.91500 30.91300
C  11.51500 1.01200 31.47400
C  10.70200 0.26700 32.47300
O  9.59700 -0.13100 32.40200
O  11.49200 0.20500 33.58900
C  10.88800 -0.27900 34.81100
H  6.43200 5.72100 30.62600
H  6.97500 5.07800 24.30700
H  11.20500 0.31500 25.17500
H  9.02600 2.30200 32.87400
H  8.01100 5.15800 32.49300
H  6.12400 4.32300 33.38800
H  6.89400 2.77100 33.56000
H  5.94000 3.33300 32.04800
H  9.97100 4.95400 33.53900
H  11.13800 4.33500 32.41400
H  11.76700 2.76900 34.10200
H  10.08400 2.81300 34.85700
H  4.06500 6.66600 28.75400
H  4.89900 8.28800 28.61300
H  5.35500 7.40200 29.86100
H  3.90700 8.64700 25.15800
H  4.54400 8.62000 26.73300
H  3.32500 7.45200 26.45700
H  8.58800 3.71500 22.82100
H  9.34600 0.97200 23.05400
H  6.35500 2.35900 23.38400
H  7.39100 0.98600 22.76100
H  7.12300 2.48700 21.83900
H  11.76300 2.25900 23.82700
H  10.95300 3.35500 22.70200
H  10.63300 1.00700 21.23400
H  12.11000 0.78800 22.19300
H  12.04500 2.08100 21.11400
H  13.31900 -0.88800 26.48200
H  11.84100 -1.90400 26.85100
H  13.12000 -1.61400 28.02100
H  12.19700 1.72000 31.94500
H  9.86900 -0.63400 34.65700
H  10.75000 0.56800 35.48400
H  11.61200 -0.93700 35.29100
Mg 30.46600 57.80400 39.41300
C  27.63600 55.81900 38.73500
C  32.30100 55.08700 38.11900
C  33.04300 59.78200 39.58200
C  28.28300 60.45400 40.39400
N  29.99000 55.71900 38.59900
C  28.79500 55.14500 38.45000
C  28.75400 53.70500 37.90400
C  30.29600 53.45400 38.09100
C  30.91500 54.82100 38.24500
C  30.61700 52.47500 39.23400
C  28.29000 53.60300 36.49100
C  28.58300 54.77300 35.60400
H  27.64400 55.03100 34.36300
N  32.38900 57.42300 39.06400
C  32.95900 56.34600 38.41700
C  34.40100 56.62400 38.22700
C  34.59500 57.90600 38.59500
C  33.34400 58.38600 39.18100
C  35.35900 55.60500 37.70500
C  35.92200 58.70600 38.48100
O  36.87300 58.17900 37.96900
C  36.15100 60.09400 38.84300
N  30.60200 59.85200 39.84900
C  31.80500 60.40500 39.97200
C  31.76200 61.84000 40.32700
C  30.24700 61.99200 40.83700
C  29.69600 60.67000 40.38900
C  32.75700 62.40300 41.36000
C  29.45300 63.17700 40.20100
C  28.68100 63.99900 41.23800
N  28.37800 58.15400 39.57700
C  27.66800 59.25300 39.94700
C  26.27600 59.00400 39.78100
C  26.17600 57.70300 39.32700
C  27.45600 57.20700 39.23100
C  25.18500 59.96200 40.01500
C  25.30300 56.67000 38.77400
O  24.05000 56.67800 38.66100
C  26.16800 55.42100 38.48800
C  25.85900 54.31800 39.47500
O  26.48200 54.10500 40.48800
O  24.69100 53.66100 39.05600
C  24.05800 52.43800 39.71000
H  33.01200 54.30700 37.83800
H  33.82600 60.54200 39.53600
H  27.66700 61.26600 40.78600
H  28.03400 53.18600 38.53700
H  30.69100 52.96900 37.19800
H  31.65300 52.13800 39.18800
H  30.10600 51.52300 39.09300
H  30.27200 52.83600 40.20300
H  27.25400 53.29900 36.34100
H  28.87500 52.83500 35.98500
H  29.56300 54.47500 35.23000
H  28.69500 55.74600 36.08200
H  35.74400 55.89700 36.72900
H  34.96900 54.63000 37.41200
H  36.13400 55.40500 38.44500
H  35.76000 60.18400 39.85700
H  35.67500 60.74700 38.11100
H  37.20900 60.32500 38.96600
H  32.02400 62.32300 39.38600
H  30.27200 61.96800 41.92700
H  32.79800 61.60700 42.10300
H  32.27800 63.24300 41.86400
H  33.70300 62.83100 41.02900
H  28.82900 62.68500 39.45500
H  30.26100 63.78300 39.78900
H  29.15900 64.94600 41.48900
H  28.37200 63.45600 42.13200
H  27.79200 64.31000 40.69000
H  25.48500 60.54700 40.88500
H  24.31100 59.37400 40.29700
H  24.90200 60.61600 39.19000
H  25.92300 55.01400 37.50700
H  24.94800 51.89200 40.02300
H  23.33700 51.89400 39.10000
H  23.32300 52.64900 40.48600

