158

Mg 35.20400 1.68500 29.38500
C  32.90000 2.94900 31.81100
C  37.62900 1.79300 31.66300
C  37.49100 1.09900 27.01900
C  32.71000 2.17200 26.98800
N  35.27800 2.38000 31.46700
C  34.18100 2.64300 32.29100
C  34.71700 2.69900 33.70700
C  36.27500 2.61900 33.58100
C  36.43600 2.26200 32.13800
C  37.04600 3.87800 33.84600
C  34.02000 1.61200 34.56500
C  33.71100 2.10300 35.97200
H  34.70600 2.96900 36.70100
N  37.16600 1.21400 29.46600
C  38.02600 1.31600 30.45800
C  39.29300 0.73300 30.12200
C  39.18700 0.40000 28.76300
C  37.90500 0.99000 28.35500
C  40.51500 0.52700 31.04000
C  40.23200 -0.27800 27.84200
O  40.09200 -0.33600 26.63400
C  41.46700 -0.90100 28.39300
N  35.10000 1.67600 27.36200
C  36.20100 1.45900 26.55800
C  35.76900 1.47700 25.08800
C  34.22100 1.60800 25.06700
C  33.98700 1.77000 26.59400
C  36.40100 2.55300 24.25000
C  33.45300 0.42700 24.41300
C  32.40000 0.71300 23.29900
N  33.12300 2.40000 29.32500
C  32.26100 2.58000 28.31500
C  30.95800 3.09300 28.77600
C  31.17300 3.19200 30.16200
C  32.51700 2.80200 30.44100
C  29.68400 3.35000 28.02100
C  30.63900 3.71900 31.44600
O  29.51000 4.20400 31.67700
C  31.62000 3.36000 32.53400
C  31.71700 4.48400 33.50900
O  32.40400 5.45700 33.30300
O  30.77800 4.32700 34.53300
C  30.98300 5.23200 35.67500
H  38.39200 1.63800 32.42800
H  38.17500 0.73200 26.25100
H  31.98600 2.27500 26.17700
H  34.41000 3.71300 33.96600
H  36.66000 1.78000 34.16100
H  37.93100 3.89600 33.21000
H  37.50800 4.03500 34.82100
H  36.42500 4.72600 33.55600
H  34.69000 0.75400 34.62000
H  33.12300 1.35100 34.00300
H  33.56700 1.20800 36.57800
H  32.80300 2.70500 35.96900
H  40.44200 1.03500 32.00200
H  41.37200 0.96200 30.52500
H  40.62100 -0.55400 31.13300
H  41.37500 -1.68100 29.14900
H  42.14500 -0.08100 28.63100
H  41.97700 -1.33700 27.53400
H  36.01300 0.48800 24.69900
H  33.80500 2.46900 24.54400
H  36.90800 3.17000 24.99100
H  35.68700 3.22900 23.78100
H  37.06300 2.26300 23.43400
H  32.99200 -0.25400 25.12900
H  34.04300 -0.28700 23.83900
H  31.69000 1.48500 23.59500
H  31.96400 -0.27200 23.13000
H  32.82800 0.86000 22.30800
H  28.94600 2.57200 28.21500
H  29.81400 3.31200 26.93900
H  29.40500 4.32200 28.42600
H  31.22500 2.57400 33.17800
H  30.30800 6.08700 35.64900
H  31.96700 5.70000 35.64000
H  30.80000 4.69300 36.60400
Mg -1.28400 34.19700 27.38800
C  -3.02800 32.90900 30.07100
C  0.37300 36.34600 29.40100
C  -0.34800 36.10400 24.64900
C  -3.32700 32.39800 25.16000
N  -1.31700 34.51500 29.51700
C  -2.04100 33.80500 30.50300
C  -1.65500 34.21300 31.92000
C  -0.63800 35.39100 31.68600
C  -0.41700 35.35300 30.11200
C  -1.25000 36.76400 32.23500
C  -1.01900 33.03000 32.71500
C  -1.71000 32.54600 34.03500
H  -0.78000 32.08600 35.15100
N  -0.07700 35.99900 27.06100
C  0.50300 36.65500 28.04000
C  1.38400 37.72100 27.48600
C  1.08100 37.78600 26.11500
C  0.17200 36.60100 25.87600
C  2.42900 38.41800 28.29700
C  1.53100 38.72600 25.08700
O  1.24300 38.70100 23.92400
C  2.43800 39.85600 25.47600
N  -1.71000 34.11800 25.24300
C  -1.17900 35.01700 24.33300
C  -1.71700 34.68800 22.93300
C  -2.17300 33.26900 23.00100
C  -2.37900 33.21100 24.60600
C  -2.65400 35.73900 22.24300
C  -1.31100 32.09600 22.42700
C  -0.30500 31.51300 23.35100
N  -2.84700 32.97100 27.58800
C  -3.62600 32.32500 26.56500
C  -4.55000 31.40600 27.21800
C  -4.36400 31.58500 28.57200
C  -3.35800 32.62900 28.76200
C  -5.38700 30.39900 26.51500
C  -4.74700 31.06400 29.84900
O  -5.47600 30.19000 30.22700
C  -3.91100 31.94600 30.85200
C  -4.84300 32.71900 31.66200
O  -5.25300 33.83500 31.29700
O  -5.13400 32.18200 32.84800
C  -6.01900 32.96900 33.66700
H  1.06100 36.95500 29.99200
H  0.01500 36.72100 23.82400
H  -3.86100 31.81100 24.40900
H  -2.59000 34.58400 32.34000
H  0.35700 35.15400 32.06400
H  -2.10800 36.52300 32.86200
H  -1.49500 37.33600 31.34100
H  -0.40900 37.23000 32.75000
H  0.04900 33.18800 32.86100
H  -1.08700 32.25100 31.95600
H  -2.26100 31.63500 33.79900
H  -2.52400 33.21400 34.31800
H  3.33600 38.72800 27.77900
H  2.78800 37.81200 29.12900
H  1.96800 39.29100 28.76000
H  3.43300 39.50600 25.75200
H  2.01800 40.39000 26.32900
H  2.57800 40.62100 24.71300
H  -0.76700 34.62000 22.40300
H  -3.17700 33.12200 22.60200
H  -2.31800 36.19400 21.31200
H  -2.80800 36.61800 22.86800
H  -3.60100 35.22100 22.08600
H  -0.74900 32.53600 21.60200
H  -2.00100 31.39700 21.95500
H  0.67200 31.98400 23.24500
H  -0.26700 30.43900 23.16700
H  -0.70600 31.47600 24.36400
H  -4.75400 29.64900 26.04100
H  -6.00200 30.84300 25.73300
H  -6.06600 30.06200 27.29800
H  -3.35400 31.34600 31.57200
H  -6.48100 32.23000 34.32200
H  -6.68900 33.71900 33.24600
H  -5.37100 33.65000 34.21900

