158

Mg 0.29700 7.16300 26.13200
C  1.41300 9.30700 28.90100
C  0.03600 4.66300 28.37000
C  -0.57000 5.22100 23.57300
C  1.00000 9.81600 23.98800
N  0.63500 7.00400 28.42500
C  1.00700 7.97800 29.38600
C  0.92300 7.38900 30.78200
C  0.54200 5.84400 30.54700
C  0.34600 5.87100 29.00200
C  1.64300 4.82900 30.95300
C  -0.16300 8.12900 31.61900
C  0.16700 8.47900 33.10300
H  1.36600 7.79500 33.66500
N  -0.11100 5.18500 25.93500
C  -0.19200 4.32800 27.03400
C  -0.66800 3.04400 26.58900
C  -0.99000 3.22000 25.19500
C  -0.57200 4.60300 24.80600
C  -0.86400 1.85800 27.60700
C  -1.58700 2.22900 24.24900
O  -1.99400 2.57100 23.14900
C  -1.77400 0.81400 24.64700
N  0.31500 7.46600 24.08500
C  -0.10500 6.48000 23.20300
C  -0.24800 7.01200 21.72500
C  0.16100 8.54000 22.00100
C  0.50600 8.62600 23.50200
C  0.78100 6.39100 20.67800
C  -0.96800 9.53900 21.66500
C  -0.62300 10.74600 20.65400
N  1.05400 9.14100 26.39100
C  1.31900 10.09700 25.32500
C  1.86100 11.26900 25.89900
C  1.99000 11.04600 27.25400
C  1.45300 9.71100 27.52000
C  2.07800 12.58300 25.19700
C  2.30900 11.73200 28.49700
O  2.64700 12.88500 28.71300
C  1.81100 10.61000 29.63600
C  3.00600 10.31400 30.49900
O  3.86600 9.42600 30.40900
O  2.91800 11.16900 31.53700
C  4.06500 11.31000 32.51600
H  0.05200 3.85400 29.10400
H  -0.84500 4.58600 22.72800
H  1.12900 10.58400 23.22200
H  1.97000 7.38600 31.08400
H  -0.30300 5.43900 31.10400
H  1.36000 3.99400 31.59400
H  2.45700 5.33500 31.47200
H  2.04400 4.33700 30.06700
H  -1.08200 7.54400 31.61200
H  -0.49400 9.00500 31.06100
H  -0.75300 8.14400 33.58300
H  0.31900 9.53700 33.31600
H  -1.72600 1.23800 27.35900
H  -1.09900 2.20500 28.61300
H  0.09400 1.33700 27.58300
H  -2.20200 0.24700 23.82000
H  -2.52300 0.86000 25.43700
H  -0.80800 0.39600 24.93300
H  -1.28200 6.80200 21.45200
H  1.05100 8.81400 21.43500
H  1.59000 5.85600 21.17500
H  1.24700 7.14000 20.03800
H  0.26600 5.68700 20.02500
H  -1.34400 9.84800 22.64000
H  -1.79300 8.99300 21.20900
H  0.35400 10.50000 20.23900
H  -0.51000 11.62700 21.28600
H  -1.45800 10.88700 19.96700
H  1.28700 12.82300 24.48600
H  3.07000 12.64100 24.75000
H  2.10500 13.34200 25.97800
H  0.96500 10.95800 30.22900
H  4.30700 12.35300 32.72100
H  5.01700 11.00900 32.07900
H  3.78500 10.89500 33.48400
Mg 9.82200 48.87300 25.65000
C  7.90200 49.29600 28.64500
C  12.44800 50.22400 27.45400
C  11.65200 48.53500 23.00600
C  6.91300 47.85000 24.10100
N  10.05600 49.69300 27.75300
C  9.17600 49.73100 28.80000
C  9.81000 50.21100 30.09900
C  11.15600 50.77800 29.60800
C  11.25100 50.18900 28.15100
C  11.27100 52.31300 29.50000
C  10.07100 49.05100 31.14500
C  9.47600 49.21200 32.48300
H  10.42200 49.88000 33.46800
N  11.81100 49.32700 25.26900
C  12.77700 49.76200 26.11300
C  14.07900 49.76900 25.48600
C  13.81600 49.36600 24.12600
C  12.34900 49.06400 24.11600
C  15.32300 50.31000 26.14200
C  14.82800 49.25900 22.97900
O  14.56800 48.94100 21.85800
C  16.25200 49.39300 23.34600
N  9.31100 48.51600 23.76000
C  10.26300 48.38600 22.80900
C  9.71200 47.81000 21.51300
C  8.24500 47.59100 21.91700
C  8.14400 47.96400 23.37000
C  9.86300 48.85800 20.38000
C  7.77000 46.13600 21.72500
C  8.41500 45.13600 22.65700
N  7.76800 48.68800 26.16800
C  6.71100 48.32900 25.42700
C  5.45400 48.45200 26.19800
C  5.93100 48.75300 27.45700
C  7.32100 48.91500 27.41800
C  4.02100 48.22400 25.78600
C  5.50000 49.01100 28.79500
O  4.37000 49.12500 29.21300
C  6.76800 49.22000 29.68500
C  6.93500 48.07300 30.55900
O  7.34600 47.00500 30.19100
O  6.41000 48.41700 31.77600
C  6.28600 47.32400 32.69300
H  13.25700 50.58400 28.09400
H  12.35700 48.23000 22.22900
H  6.01000 47.38000 23.70600
H  9.08500 50.93000 30.48000
H  11.90500 50.37200 30.28700
H  12.16800 52.50100 28.91000
H  11.44700 52.67200 30.51400
H  10.39800 52.75800 29.02300
H  11.13800 48.84800 31.23100
H  9.79800 48.12600 30.63700
H  9.05600 48.23500 32.71800
H  8.58300 49.83700 32.49500
H  15.15500 50.59400 27.18100
H  15.73400 51.12400 25.54400
H  16.02900 49.48300 26.22900
H  16.44500 50.43400 23.60800
H  16.90900 49.34200 22.47800
H  16.57600 48.62800 24.05200
H  10.24000 46.91300 21.18800
H  7.56300 48.29400 21.43900
H  10.16800 49.82200 20.78800
H  8.95100 49.06000 19.81900
H  10.53100 48.39300 19.65600
H  7.99300 45.81600 20.70700
H  6.69500 46.05100 21.88000
H  9.21300 45.64300 23.20000
H  8.83500 44.34700 22.03300
H  7.72500 44.81200 23.43700
H  3.70200 48.91400 25.00500
H  3.55000 48.60100 26.69400
H  3.88500 47.16400 25.57200
H  6.63500 50.16300 30.21600
H  5.92100 47.78900 33.60900
H  7.22800 46.83200 32.93400
H  5.52900 46.69700 32.22100

