158

Mg -2.69500 34.98300 27.08500
C  -3.76500 33.02900 29.74300
C  -0.95700 37.02000 29.23900
C  -2.25200 37.05800 24.57100
C  -4.45200 32.88600 24.86400
N  -2.48200 34.93300 29.19000
C  -2.96000 34.10900 30.11900
C  -2.39300 34.38300 31.52300
C  -1.50900 35.65000 31.24600
C  -1.67400 35.94800 29.82200
C  -1.85200 36.84900 32.10100
C  -1.50000 33.30000 32.11300
C  -1.92700 32.54300 33.39200
H  -1.06800 32.51900 34.69400
N  -1.55600 36.66000 26.93200
C  -0.93000 37.42100 27.87300
C  -0.16600 38.44900 27.28500
C  -0.51000 38.44300 25.89100
C  -1.57600 37.37900 25.72000
C  0.94400 39.25600 28.12200
C  0.15500 39.21700 24.67800
O  -0.15500 39.10600 23.45900
C  1.29000 40.16400 24.93800
N  -3.26300 34.96100 25.04700
C  -3.06800 35.99100 24.28300
C  -3.47400 35.70400 22.83600
C  -3.82600 34.26000 22.91300
C  -3.79400 33.97000 24.32000
C  -4.62600 36.69100 22.52400
C  -3.11400 33.14500 21.92600
C  -1.73700 32.59600 22.41300
N  -3.97100 33.36900 27.24800
C  -4.45900 32.55100 26.23600
C  -5.21100 31.42400 26.85300
C  -4.91400 31.57800 28.24800
C  -4.12300 32.69900 28.41500
C  -6.04500 30.45100 26.15300
C  -5.12400 30.97800 29.57400
O  -5.73600 29.99600 29.98600
C  -4.41400 31.95600 30.50300
C  -5.37900 32.53700 31.38700
O  -6.25900 33.34200 31.16400
O  -5.16000 32.00800 32.61100
C  -6.28300 32.09700 33.53600
H  -0.34100 37.67100 29.86300
H  -2.07400 37.73100 23.73000
H  -4.91900 32.19100 24.16400
H  -3.17800 34.61700 32.24200
H  -0.44400 35.44600 31.35300
H  -2.40900 37.60300 31.54500
H  -0.94300 37.38300 32.37500
H  -2.26600 36.55500 33.06600
H  -0.45700 33.59500 32.23600
H  -1.46100 32.44300 31.44100
H  -2.08900 31.49600 33.13600
H  -2.91500 32.88700 33.69900
H  0.71700 40.32100 28.16800
H  1.77100 39.05400 27.44100
H  1.18200 38.92600 29.13300
H  2.20200 39.62200 25.18700
H  0.95700 40.89300 25.67800
H  1.50500 40.74800 24.04300
H  -2.66300 35.90500 22.13500
H  -4.91200 34.33200 22.85000
H  -4.99800 37.04800 23.48500
H  -5.51100 36.27300 22.04500
H  -4.20000 37.39800 21.81300
H  -2.97800 33.56100 20.92700
H  -3.89400 32.39100 21.82300
H  -1.31000 32.14800 21.51600
H  -1.84300 31.69400 23.01500
H  -1.02800 33.20700 22.97200
H  -5.55100 30.04100 25.27100
H  -6.94100 30.95300 25.78800
H  -6.19200 29.61300 26.83500
H  -3.70300 31.34000 31.05300
H  -6.27700 33.09700 33.96900
H  -6.36500 31.32000 34.29600
H  -7.18400 32.08600 32.92400
Mg -5.31400 24.97500 26.52500
C  -3.86100 26.99600 29.02200
C  -6.52900 22.73600 28.94500
C  -6.90700 23.46700 24.04100
C  -4.20900 27.50000 24.19100
N  -5.28100 24.99500 28.67100
C  -4.61400 25.87900 29.54100
C  -4.90300 25.50600 31.02700
C  -5.65700 24.08800 30.91000
C  -5.86100 23.89300 29.38200
C  -4.81600 22.98300 31.67100
C  -5.82300 26.61400 31.73900
C  -5.49700 26.88600 33.15200
H  -6.53000 26.45400 34.18500
N  -6.41600 23.30600 26.46700
C  -6.84500 22.48500 27.54000
C  -7.64400 21.40500 27.05600
C  -7.69900 21.59000 25.61500
C  -6.92300 22.84800 25.31200
C  -8.28000 20.36500 27.80700
C  -8.46300 20.74000 24.53900
O  -8.53700 21.12300 23.37900
C  -9.14800 19.50200 24.88200
N  -5.53100 25.42100 24.43100
C  -6.25500 24.60200 23.67300
C  -6.41600 25.14900 22.21600
C  -5.76200 26.60700 22.39400
C  -5.19100 26.58400 23.81400
C  -5.63500 24.39300 21.08500
C  -6.81200 27.75200 22.19500
C  -6.55800 28.75700 21.12000
N  -4.09800 26.81900 26.48000
C  -3.70200 27.65500 25.50400
C  -2.83800 28.71400 25.99900
C  -2.91600 28.55000 27.41500
C  -3.74900 27.37100 27.65800
C  -2.13200 29.64500 25.10100
C  -2.55300 29.08300 28.68800
O  -1.90000 30.05200 28.98100
C  -3.08700 28.11500 29.80100
C  -1.99300 27.53300 30.69400
O  -1.21100 26.62000 30.49400
O  -2.09200 28.21900 31.84900
C  -1.21000 27.68600 32.89000
H  -6.79700 22.06400 29.76300
H  -7.45600 23.01300 23.21300
H  -3.93100 28.31400 23.51700
H  -3.94100 25.25800 31.47500
H  -6.60100 24.20800 31.44100
H  -5.10300 22.92600 32.72100
H  -3.74000 22.98700 31.50000
H  -5.07100 22.02500 31.21900
H  -6.88200 26.44900 31.53900
H  -5.55100 27.56900 31.29000
H  -5.32200 27.93800 33.38000
H  -4.56100 26.47500 33.53100
H  -9.36000 20.32000 27.67100
H  -7.98600 20.56900 28.83700
H  -7.89400 19.41900 27.42700
H  -9.94200 19.82000 25.55800
H  -8.36100 18.87200 25.29700
H  -9.64300 19.07900 24.00800
H  -7.47300 25.17600 21.95000
H  -4.96300 26.81100 21.68100
H  -6.13500 23.43900 20.91400
H  -4.62100 24.10600 21.36300
H  -5.68000 25.09600 20.25300
H  -6.95600 28.38100 23.07400
H  -7.78000 27.33300 21.92100
H  -6.91100 28.36700 20.16500
H  -5.51000 29.04100 21.02900
H  -7.23900 29.59000 21.29700
H  -2.55600 30.63900 25.24200
H  -2.07700 29.28000 24.07600
H  -1.11700 29.61400 25.49600
H  -3.71100 28.70300 30.47400
H  -0.13100 27.60300 32.76600
H  -1.58100 26.66500 32.98700
H  -1.44900 28.13600 33.85400

