158

Mg 9.22900 3.45000 28.44500
C  10.71700 1.91200 31.22900
C  7.96800 5.87200 30.40600
C  7.93300 4.75400 25.56800
C  10.57900 0.78800 26.50900
N  9.30900 3.72800 30.62000
C  9.98800 3.04700 31.56800
C  9.74200 3.77000 32.91800
C  8.86500 5.06400 32.59300
C  8.65500 4.85900 31.06000
C  7.49300 5.22200 33.41000
C  11.09700 4.06800 33.75600
C  11.06100 5.24600 34.69100
H  11.84000 5.14600 36.03900
N  8.03800 5.07600 28.01100
C  7.59700 5.94300 29.00200
C  6.65100 6.87400 28.36200
C  6.75700 6.66400 26.92100
C  7.59600 5.42900 26.77100
C  5.82300 7.92400 29.17900
C  5.84400 7.30000 25.76400
O  5.79800 6.87400 24.58700
C  4.95800 8.47100 26.08100
N  9.24400 2.95300 26.38100
C  8.67700 3.63700 25.37900
C  8.97700 2.99700 23.98600
C  9.71600 1.73000 24.33800
C  9.95400 1.81600 25.88800
C  7.73100 2.80100 23.07600
C  10.99200 1.47900 23.53400
C  11.06500 0.27300 22.52900
N  10.32300 1.74000 28.74900
C  10.73500 0.74900 27.87600
C  11.44300 -0.28100 28.57800
C  11.52600 0.20900 29.90300
C  10.74900 1.32200 29.95900
C  11.95200 -1.52800 27.98100
C  12.12300 -0.14500 31.19200
O  12.99700 -0.96000 31.41100
C  11.55200 1.04500 32.17600
C  10.75700 0.38100 33.30000
O  9.60800 -0.04500 33.27700
O  11.51800 0.44600 34.41600
C  10.87200 0.13100 35.74800
H  7.52000 6.61700 31.06700
H  7.62500 5.24500 24.64200
H  10.83800 -0.16500 26.04300
H  9.05900 3.11600 33.46100
H  9.48000 5.96200 32.65700
H  7.37900 6.24800 33.75800
H  7.33600 4.42300 34.13500
H  6.65700 5.13600 32.71600
H  11.86900 4.22600 33.00300
H  11.32900 3.19600 34.36800
H  10.01500 5.37300 34.97200
H  11.56100 6.00800 34.09300
H  6.61300 8.59400 29.51800
H  5.31600 7.48600 30.03900
H  5.06800 8.51000 28.65400
H  4.40300 8.87800 25.23700
H  5.44900 9.21800 26.70500
H  4.13300 8.07700 26.67400
H  9.69400 3.67700 23.52500
H  9.06400 0.86100 24.24400
H  7.60400 1.74500 22.83700
H  7.75400 3.41000 22.17300
H  6.82900 2.87100 23.68400
H  11.83800 1.49900 24.22100
H  11.17100 2.36800 22.92900
H  10.18300 -0.36600 22.48700
H  11.87800 -0.41000 22.77400
H  11.23300 0.60700 21.50500
H  11.33600 -2.03000 27.23500
H  11.97300 -2.19700 28.84100
H  13.00300 -1.44300 27.70200
H  12.38700 1.58900 32.61800
H  9.81700 -0.13600 35.80500
H  10.86100 0.95600 36.46100
H  11.45800 -0.68800 36.16600
Mg 46.47600 24.42800 28.13500
C  47.00500 26.71000 30.82000
C  45.22600 22.16800 30.23300
C  46.57600 22.21900 25.60600
C  47.53300 27.00200 25.98300
N  46.08400 24.49800 30.30600
C  46.45900 25.46100 31.23700
C  45.87900 25.01900 32.59800
C  45.28300 23.59400 32.38700
C  45.51600 23.40000 30.88300
C  45.86200 22.46800 33.30500
C  44.92400 26.01100 33.32100
C  45.25400 26.81500 34.57500
H  44.32500 26.80600 35.82800
N  45.99400 22.40100 27.98800
C  45.46200 21.65200 29.01400
C  45.23100 20.29800 28.48000
C  45.69800 20.31100 27.11600
C  46.19800 21.62600 26.86900
C  44.78200 19.22700 29.48400
C  45.73000 19.19700 26.12100
O  46.28800 19.25200 25.06100
C  45.11200 17.95400 26.55400
N  47.03400 24.63200 26.09400
C  46.87100 23.54700 25.19000
C  47.01900 24.02400 23.67600
C  47.12200 25.58800 23.87700
C  47.26300 25.76500 25.42100
C  48.17800 23.30900 22.99200
C  45.97600 26.49000 23.34600
C  44.55800 26.16300 23.68600
N  47.26900 26.44000 28.29400
C  47.68000 27.32200 27.32500
C  48.14100 28.60400 27.99000
C  47.92600 28.42300 29.35900
C  47.40000 27.09100 29.48900
C  48.68300 29.79800 27.24500
C  47.94100 28.94400 30.72400
O  48.37200 30.05700 31.09000
C  47.35500 27.91300 31.76100
C  48.42500 27.58000 32.76700
O  49.58500 27.17600 32.51300
O  48.09000 28.04100 34.10700
C  49.12700 28.00500 35.13200
H  44.69400 21.59800 30.99800
H  46.59800 21.56400 24.73200
H  47.89300 27.85400 25.40300
H  46.64800 24.78700 33.33500
H  44.19600 23.57100 32.46500
H  45.06600 21.86200 33.73900
H  46.46600 22.84700 34.12900
H  46.55000 21.78100 32.81200
H  44.04800 25.40200 33.54200
H  44.57600 26.69500 32.54700
H  45.40200 27.83900 34.23300
H  46.16900 26.44800 35.04100
H  43.71900 19.08300 29.29300
H  44.73000 19.55100 30.52400
H  45.31800 18.27800 29.47500
H  45.54600 17.52000 27.45500
H  44.89700 17.27800 25.72600
H  44.07800 18.21200 26.78600
H  46.07500 23.85300 23.15700
H  48.02800 25.97900 23.41400
H  48.60900 22.51400 23.59900
H  48.89000 24.05000 22.62800
H  47.72600 22.88400 22.09600
H  46.06000 26.52300 22.25900
H  46.20500 27.54400 23.50400
H  44.51200 25.20300 24.20100
H  43.99400 25.99000 22.77000
H  44.14800 26.92900 24.34500
H  48.55800 30.68600 27.86500
H  47.90900 29.96900 26.49700
H  49.65500 29.69300 26.76300
H  46.50400 28.36100 32.27400
H  49.97200 27.34900 34.92300
H  48.71700 27.71400 36.09900
H  49.47400 29.02900 35.26900

