158

Mg 23.64800 -4.03200 45.87100
C  26.08300 -2.02200 44.16800
C  21.36400 -3.21300 43.49300
C  21.83000 -6.85800 46.75100
C  26.47700 -5.46700 47.52800
N  23.68600 -2.67000 44.16700
C  24.74000 -1.93500 43.66500
C  24.30800 -1.06900 42.51700
C  22.69900 -1.17000 42.64600
C  22.56300 -2.41000 43.49600
C  22.02700 0.06500 43.32200
C  24.90300 -1.51800 41.12100
C  25.76100 -0.48300 40.38700
H  25.53700 -0.44600 38.86900
N  21.77200 -4.73900 45.39600
C  20.98400 -4.26100 44.29800
C  19.81400 -4.95600 44.16900
C  19.95700 -5.95900 45.17000
C  21.23200 -5.92700 45.84900
C  18.58200 -4.48300 43.34800
C  18.87100 -6.98400 45.31800
O  17.92000 -7.03000 44.52100
C  18.99700 -8.04200 46.38900
N  24.10400 -5.93800 46.95400
C  23.17600 -6.84100 47.24800
C  23.78100 -7.99200 48.15500
C  25.10800 -7.32800 48.69800
C  25.26800 -6.26100 47.58200
C  22.78500 -8.50300 49.24100
C  26.32600 -8.23000 48.92000
C  27.10500 -8.14000 50.26000
N  25.77100 -3.73500 45.93200
C  26.74100 -4.32500 46.71500
C  27.98500 -3.65900 46.54400
C  27.78200 -2.74900 45.52600
C  26.42000 -2.83700 45.18200
C  29.25000 -3.97600 47.31400
C  28.37800 -1.75800 44.70400
O  29.55500 -1.34200 44.64400
C  27.27200 -1.24200 43.75200
C  27.09800 0.25800 43.83100
O  26.39400 0.85400 44.64000
O  27.97500 0.92000 43.05100
C  27.89200 2.36000 43.08200
H  20.57500 -2.90600 42.80200
H  21.27200 -7.66500 47.23000
H  27.29300 -5.74800 48.19800
H  24.63700 -0.05400 42.73700
H  22.13800 -1.37800 41.73400
H  22.76600 0.68200 43.83300
H  21.30500 -0.33500 44.03400
H  21.45900 0.72900 42.66900
H  24.05700 -1.64500 40.44500
H  25.38800 -2.49000 41.21400
H  26.77700 -0.85600 40.52100
H  25.58400 0.46700 40.89000
H  18.31800 -5.23800 42.60800
H  18.75600 -3.48800 42.93800
H  17.75700 -4.33300 44.04400
H  19.78500 -8.64400 45.93700
H  18.02900 -8.54200 46.43100
H  19.14400 -7.59600 47.37300
H  24.09700 -8.74800 47.43600
H  24.80400 -6.67000 49.51200
H  22.43600 -9.45300 48.83600
H  21.85600 -7.98800 49.48600
H  23.30600 -8.67600 50.18300
H  27.02300 -7.98200 48.12000
H  26.09200 -9.28700 48.79900
H  26.89400 -7.37600 51.00900
H  28.17500 -8.13500 50.05500
H  26.90300 -9.09500 50.74600
H  29.07400 -3.86100 48.38300
H  29.95800 -3.20100 47.01900
H  29.58700 -4.98900 47.09600
H  27.71800 -1.48200 42.78700
H  28.58900 2.73100 42.33200
H  28.10700 2.64100 44.11300
H  26.91800 2.77400 42.82000
Mg -1.70900 33.58900 27.29200
C  -3.74500 31.91400 29.60200
C  -0.62400 35.63500 29.80900
C  -0.15800 35.44500 25.01200
C  -3.19600 31.73700 24.68900
N  -2.11500 33.75100 29.46700
C  -2.94000 32.92700 30.19700
C  -2.90600 33.35200 31.66400
C  -2.07600 34.66100 31.62900
C  -1.54700 34.70000 30.21800
C  -2.90700 35.86200 32.09000
C  -2.35500 32.18100 32.53800
C  -3.22800 31.76900 33.69000
H  -2.63300 31.67000 35.10600
N  -0.46900 35.22700 27.43600
C  -0.09000 35.96200 28.53000
C  0.76600 37.04900 28.13300
C  0.93200 36.89400 26.79800
C  0.10200 35.83200 26.33300
C  1.28300 38.15500 29.14600
C  1.80800 37.78000 25.82900
O  2.02700 37.57700 24.65700
C  2.65200 38.89400 26.39700
N  -1.65400 33.57800 25.28200
C  -1.05000 34.52300 24.51000
C  -1.28700 34.36200 22.96100
C  -2.00300 32.98600 22.90200
C  -2.29000 32.70900 24.39200
C  -2.06800 35.47700 22.34600
C  -1.23500 31.89000 22.09000
C  -0.21000 31.07400 22.95400
N  -3.18600 32.09800 27.11400
C  -3.67400 31.40800 25.97500
C  -4.53500 30.35600 26.42400
C  -4.50900 30.53200 27.83700
C  -3.78900 31.62900 28.18600
C  -5.20300 29.37200 25.69500
C  -5.13500 30.02100 29.01500
O  -5.83000 29.04200 29.08300
C  -4.68300 30.93800 30.28900
C  -5.93000 31.55100 30.70400
O  -6.71100 32.21400 30.02800
O  -6.22600 31.20300 31.96200
C  -7.29600 31.76400 32.75400
H  -0.27700 36.37700 30.53200
H  0.24800 36.09700 24.23600
H  -3.52000 31.07200 23.88500
H  -3.93600 33.48400 31.99500
H  -1.30500 34.49800 32.38200
H  -2.54800 36.70800 31.50400
H  -2.80500 36.05100 33.15900
H  -3.97800 35.84500 31.88900
H  -1.40400 32.40600 33.02000
H  -2.13800 31.35800 31.85600
H  -3.54100 30.75700 33.43400
H  -4.14800 32.34000 33.81300
H  2.35300 38.27400 28.97400
H  1.10400 37.98300 30.20800
H  0.67100 39.05100 29.03600
H  2.11400 39.55200 27.07900
H  3.08700 39.46000 25.57400
H  3.46200 38.36200 26.89500
H  -0.33100 34.29000 22.44300
H  -3.01300 33.02600 22.49400
H  -2.73800 35.07800 21.58500
H  -1.37800 36.15600 21.84500
H  -2.58700 35.89700 23.20800
H  -0.70000 32.25700 21.21400
H  -2.00400 31.21900 21.70600
H  0.67900 30.71100 22.44000
H  -0.65500 30.15600 23.33800
H  0.20300 31.76000 23.69400
H  -4.56100 28.90300 24.94900
H  -6.00700 29.83000 25.11900
H  -5.52800 28.58800 26.37900
H  -4.19500 30.30000 31.02600
H  -8.11600 32.23300 32.21000
H  -6.90400 32.56200 33.38500
H  -7.70500 31.04800 33.46600

