158

Mg 24.20700 -4.70600 45.63700
C  26.00800 -2.04500 44.43500
C  21.37000 -3.71400 43.82500
C  22.76600 -7.56300 46.45200
C  27.14100 -5.73400 47.37700
N  23.89900 -3.28200 44.01500
C  24.77500 -2.25200 43.79400
C  24.16500 -1.33600 42.72100
C  22.65200 -1.64700 42.88900
C  22.61500 -2.94000 43.63800
C  21.99200 -0.54300 43.70200
C  24.62400 -1.77100 41.32300
C  25.60100 -0.91500 40.46200
H  26.66300 -1.61900 39.59400
N  22.30800 -5.46900 45.24200
C  21.24000 -4.87200 44.57700
C  20.10300 -5.76700 44.74700
C  20.47400 -6.95100 45.45000
C  21.91200 -6.69000 45.71900
C  18.79000 -5.43100 44.10200
C  19.61700 -8.20900 45.68900
O  18.39100 -8.24000 45.40400
C  20.05800 -9.46800 46.41500
N  24.82600 -6.33400 46.73000
C  24.01800 -7.38200 46.95800
C  24.62600 -8.54200 47.84600
C  25.92600 -7.84000 48.32900
C  26.01200 -6.55100 47.40900
C  23.74900 -9.09800 48.99700
C  27.17900 -8.72900 48.19600
C  27.99300 -8.88800 49.48900
N  26.19800 -4.07400 45.92500
C  27.25600 -4.52600 46.70300
C  28.42600 -3.65700 46.52300
C  27.96700 -2.68400 45.61300
C  26.62300 -2.93800 45.36500
C  29.78500 -3.88100 47.22000
C  28.35800 -1.46300 44.96400
O  29.39800 -0.81400 44.98900
C  27.09900 -1.00200 44.07400
C  26.66900 0.33400 44.55600
O  26.28500 0.59900 45.67400
O  26.93100 1.25800 43.62200
C  26.88100 2.66900 43.97900
H  20.44800 -3.31400 43.39900
H  22.43400 -8.56800 46.71900
H  27.98700 -6.16900 47.91200
H  24.36600 -0.29100 42.95300
H  22.14600 -1.85300 41.94600
H  22.61700 -0.18400 44.52000
H  20.99600 -0.78300 44.07400
H  21.95200 0.43400 43.22100
H  23.72400 -1.95300 40.73600
H  25.14600 -2.70500 41.52900
H  26.04000 -0.13300 41.08200
H  24.89700 -0.39100 39.81600
H  18.36300 -6.24600 43.51800
H  18.80200 -4.60900 43.38600
H  18.16200 -5.05200 44.90900
H  20.32000 -9.11700 47.41300
H  20.93300 -9.77600 45.84300
H  19.20200 -10.13700 46.32600
H  24.94200 -9.30300 47.13200
H  25.83600 -7.49300 49.35900
H  23.58600 -10.14600 48.74300
H  22.80000 -8.56900 49.07900
H  24.24400 -9.00600 49.96400
H  27.91900 -8.33200 47.50200
H  26.89200 -9.76800 48.03500
H  29.06400 -9.01400 49.32900
H  27.64500 -9.73500 50.08000
H  27.91500 -7.95800 50.05400
H  30.01900 -4.91600 46.97200
H  29.72400 -3.78300 48.30400
H  30.46400 -3.15200 46.77800
H  27.28300 -1.05900 43.00100
H  27.77700 3.00400 44.50200
H  25.99700 2.85500 44.59000
H  26.73500 3.21000 43.04400
Mg -10.92100 38.78100 41.75100
C  -9.21400 35.83500 40.63200
C  -8.20400 40.63100 40.73800
C  -12.80300 41.45100 42.06700
C  -13.64600 36.74800 42.57800
N  -9.06300 38.22600 40.50900
C  -8.50900 37.01700 40.26600
C  -7.18000 37.11200 39.58700
C  -6.74300 38.60600 39.87000
C  -8.08300 39.22500 40.45800
C  -5.58500 38.68500 40.87100
C  -7.17600 36.63700 38.11000
C  -6.21200 35.52100 37.69900
H  -5.01800 35.98200 36.77600
N  -10.54100 40.82900 41.40800
C  -9.35700 41.39000 41.00900
C  -9.44300 42.79000 40.95400
C  -10.82400 43.08600 41.28600
C  -11.46500 41.77700 41.61700
C  -8.30400 43.73600 40.35600
C  -11.43000 44.50500 41.19900
O  -10.64200 45.44400 40.91800
C  -12.83900 44.83800 41.60000
N  -13.00300 39.04200 42.00400
C  -13.38900 40.23400 42.39200
C  -14.81400 40.17300 43.03400
C  -15.13100 38.73500 43.06300
C  -13.82800 38.12600 42.52700
C  -14.80700 41.00800 44.34900
C  -16.38900 38.30000 42.28800
C  -17.70900 38.30000 43.05200
N  -11.44000 36.70600 41.61500
C  -12.51100 36.06800 42.10600
C  -12.24400 34.59700 42.06000
C  -11.01900 34.43900 41.53200
C  -10.51600 35.75400 41.20400
C  -13.24500 33.56300 42.46100
C  -10.01700 33.42100 41.06700
O  -9.91400 32.19300 41.01200
C  -8.77900 34.36700 40.53700
C  -7.53300 34.07900 41.32700
O  -6.74400 33.16700 41.06000
O  -7.25300 34.93300 42.30300
C  -5.92100 34.78600 42.96000
H  -7.22800 41.12100 40.72000
H  -13.46500 42.31900 42.09100
H  -14.52800 36.25100 42.98700
H  -6.53900 36.46100 40.18100
H  -6.39600 39.04800 38.93600
H  -4.66900 38.32400 40.40400
H  -5.87800 38.16300 41.78200
H  -5.44100 39.74300 41.09000
H  -7.07300 37.48400 37.43200
H  -8.21600 36.34600 37.96400
H  -6.81600 34.74200 37.23300
H  -5.72300 35.13300 38.59300
H  -7.43600 43.11900 40.12300
H  -7.98300 44.38700 41.16900
H  -8.61900 44.32100 39.49200
H  -13.55600 44.13400 41.17700
H  -13.03200 45.87000 41.30800
H  -12.84300 44.71900 42.68300
H  -15.56400 40.68700 42.43300
H  -15.37100 38.42900 44.08100
H  -15.35200 41.92800 44.13900
H  -13.82200 41.34000 44.67800
H  -15.38100 40.42100 45.06500
H  -16.26300 37.33700 41.79400
H  -16.42100 39.04600 41.49400
H  -18.29800 37.39700 42.89600
H  -18.31200 39.13700 42.70000
H  -17.59700 38.37900 44.13400
H  -13.81000 33.84800 43.34900
H  -12.75500 32.60400 42.62400
H  -13.79600 33.31600 41.55300
H  -8.54000 34.04900 39.52200
H  -5.43900 35.76200 43.02500
H  -5.16700 34.14500 42.50500
H  -6.09900 34.40300 43.96500

