158

Mg 54.71000 22.88900 44.67900
C  52.84900 25.63800 43.75700
C  52.09900 20.97100 43.54900
C  56.78200 20.27500 44.86300
C  57.48500 25.03700 45.40400
N  52.72900 23.26900 43.57900
C  52.16500 24.48400 43.46300
C  50.66700 24.34000 42.98600
C  50.32400 22.86200 43.41600
C  51.79800 22.36800 43.55900
C  49.43700 22.80500 44.62000
C  50.55200 24.49300 41.45800
C  49.17400 24.77800 41.01800
H  48.73400 24.03100 39.70300
N  54.49500 20.88400 44.26800
C  53.36600 20.34100 43.75800
C  53.66900 18.88300 43.60900
C  55.03400 18.61100 43.79500
C  55.49900 19.93200 44.35800
C  52.67100 17.84900 43.11600
C  55.77900 17.40300 43.67700
O  55.29800 16.41900 43.16000
C  57.33300 17.23900 43.96200
N  56.87100 22.75900 44.94600
C  57.45800 21.49600 45.09200
C  58.93400 21.59000 45.54700
C  59.11200 23.16700 45.81400
C  57.72100 23.67700 45.39800
C  59.46900 20.64000 46.62500
C  60.31400 23.78100 44.97800
C  61.48400 22.92900 44.60300
N  55.16300 24.91700 44.61500
C  56.26500 25.62700 44.96700
C  55.90900 27.03700 44.92500
C  54.58800 27.12100 44.43800
C  54.18700 25.81200 44.24100
C  56.80800 28.13800 45.06900
C  53.46000 27.98200 44.21000
O  53.32100 29.20300 44.22900
C  52.31900 27.07600 43.63600
C  52.16300 27.39100 42.21100
O  52.96500 27.13000 41.35800
O  51.03700 28.12400 42.03800
C  50.62700 28.41000 40.69700
H  51.20400 20.37300 43.36500
H  57.51700 19.48100 45.00500
H  58.35500 25.67800 45.56300
H  50.09500 25.12800 43.47500
H  49.79500 22.20200 42.72900
H  48.58500 22.14900 44.44200
H  48.95000 23.75500 44.83700
H  50.08500 22.53500 45.45300
H  50.92100 23.59600 40.95900
H  51.24600 25.28000 41.16300
H  48.95600 25.83600 40.87100
H  48.52700 24.45000 41.83100
H  52.78400 17.64000 42.05200
H  51.65600 18.16300 43.35500
H  52.88100 16.93600 43.67400
H  57.63500 17.34800 45.00400
H  57.72300 18.06200 43.36400
H  57.62800 16.26100 43.58200
H  59.46800 21.19800 44.68200
H  59.35900 23.47600 46.83000
H  60.15600 21.13600 47.31100
H  60.09300 19.92900 46.08300
H  58.66600 20.20600 47.22000
H  60.66700 24.61900 45.57900
H  59.87600 24.17900 44.06300
H  61.36100 22.52800 43.59700
H  61.57700 22.19500 45.40400
H  62.40900 23.49900 44.67800
H  56.78500 28.62500 44.09500
H  57.83100 27.93000 45.38400
H  56.33300 28.78000 45.81100
H  51.37300 27.34900 44.10400
H  49.56000 28.60900 40.59400
H  50.85400 27.57300 40.03700
H  51.12500 29.34600 40.44500
Mg -4.68600 25.55100 25.78800
C  -3.79000 27.10300 28.72300
C  -6.63200 23.37000 27.55200
C  -5.06900 23.63900 22.96500
C  -2.55000 27.63600 24.02000
N  -5.05000 25.27700 27.96500
C  -4.58300 26.02400 28.97100
C  -5.20500 25.63600 30.34200
C  -6.08300 24.36900 29.99600
C  -5.94200 24.32900 28.41300
C  -5.59200 23.08600 30.64600
C  -6.01100 26.83600 31.08100
C  -5.75700 26.91900 32.64300
H  -5.16600 25.65600 33.35200
N  -5.69500 23.79600 25.32800
C  -6.46400 23.07200 26.19300
C  -7.06200 21.91900 25.54500
C  -6.54400 21.96200 24.19500
C  -5.73500 23.18900 24.10900
C  -7.96000 20.90800 26.30300
C  -6.75600 21.02300 23.10000
O  -6.22900 21.05900 21.99800
C  -7.59800 19.84900 23.39000
N  -4.09800 25.68500 23.72600
C  -4.37200 24.82700 22.77200
C  -3.60600 25.14900 21.43700
C  -3.05400 26.56100 21.74000
C  -3.20600 26.68900 23.27200
C  -2.68400 24.00700 20.95000
C  -3.70000 27.66100 20.83100
C  -2.80300 28.31100 19.80700
N  -3.40000 26.98200 26.26800
C  -2.58700 27.75500 25.43800
C  -1.85400 28.75300 26.18800
C  -2.29400 28.45300 27.52200
C  -3.23200 27.44700 27.50100
C  -0.92200 29.77800 25.58500
C  -2.05700 28.85500 28.88000
O  -1.36200 29.73300 29.41800
C  -2.95100 27.95700 29.76000
C  -2.13900 27.09700 30.68100
O  -1.62700 26.03900 30.33100
O  -1.90300 27.80400 31.85300
C  -1.12900 27.06600 32.83000
H  -7.25600 22.68300 28.12600
H  -5.13200 23.08600 22.02600
H  -1.87900 28.34700 23.53500
H  -4.35000 25.34100 30.95000
H  -7.10600 24.64900 30.24700
H  -5.96800 22.29600 29.99500
H  -6.09600 22.78300 31.56400
H  -4.50600 23.11800 30.55300
H  -7.05800 26.76000 30.78800
H  -5.59900 27.74200 30.63600
H  -6.75200 27.07700 33.06000
H  -5.26200 27.86400 32.86400
H  -7.63700 19.89500 26.06600
H  -9.00700 20.95800 26.00200
H  -8.00200 20.98400 27.39000
H  -7.04600 19.24000 24.10500
H  -7.81900 19.27100 22.49200
H  -8.55200 20.23500 23.74900
H  -4.22600 25.23800 20.54600
H  -1.98700 26.36200 21.63800
H  -1.65300 24.34600 20.85400
H  -3.07200 23.72700 19.97000
H  -2.75800 23.10900 21.56400
H  -4.10800 28.43800 21.47700
H  -4.60400 27.31700 20.32800
H  -3.45000 28.30800 18.93000
H  -1.90900 27.79400 19.45900
H  -2.49000 29.27700 20.20300
H  -1.65400 30.53000 25.28900
H  -0.47100 29.41700 24.66100
H  -0.19000 29.97500 26.36700
H  -3.58300 28.72300 30.20900
H  -0.28200 26.47700 32.47800
H  -1.82500 26.39600 33.33400
H  -0.74700 27.88800 33.43600

