158

Mg 2.31600 -0.63100 44.12600
C  5.62200 0.33300 43.97500
C  1.39700 2.54100 43.09400
C  -0.76300 -1.66100 43.95600
C  3.53300 -3.98100 44.61800
N  3.41400 1.21500 43.37400
C  4.75800 1.39500 43.57100
C  5.17900 2.82500 43.25400
C  3.77200 3.53900 43.16300
C  2.78000 2.40000 43.16100
C  3.53400 4.53100 44.36600
C  5.97700 2.94400 41.94800
C  5.46100 2.18100 40.72300
H  5.32100 2.98700 39.42800
N  0.54000 0.40500 43.61000
C  0.32500 1.66900 43.16900
C  -1.10900 1.92000 42.97200
C  -1.72300 0.66700 43.11500
C  -0.65800 -0.23700 43.57600
C  -1.75800 3.18800 42.46600
C  -3.24200 0.36500 42.98900
O  -3.95600 1.17100 42.46400
C  -3.85500 -0.92800 43.60000
N  1.52100 -2.58500 44.21000
C  0.18100 -2.68300 44.35500
C  -0.23400 -4.15900 44.62000
C  1.08400 -4.92700 44.57000
C  2.13800 -3.80500 44.47200
C  -1.07600 -4.41600 45.84200
C  1.22800 -5.88000 43.35400
C  1.82300 -7.34200 43.48700
N  4.13900 -1.68200 44.37600
C  4.51200 -2.92700 44.75200
C  5.93800 -3.00000 45.02800
C  6.38900 -1.73800 44.71100
C  5.27600 -0.98400 44.30100
C  6.68400 -4.11000 45.61100
C  7.64200 -0.96400 44.55400
O  8.80800 -1.23000 44.78400
C  7.11000 0.50500 44.18900
C  7.46800 1.53200 45.19800
O  8.37800 2.36500 45.08300
O  6.76800 1.43400 46.44100
C  6.87400 2.62400 47.29600
H  0.99100 3.53700 42.90700
H  -1.74000 -2.12300 44.11200
H  3.83900 -4.98900 44.90500
H  5.86900 3.11500 44.04600
H  3.68900 4.09500 42.23000
H  4.29000 4.27900 45.10900
H  2.54700 4.28900 44.76100
H  3.57200 5.56600 44.02700
H  6.93800 2.46000 42.12000
H  6.24300 3.98700 41.77700
H  4.54100 1.66000 40.98800
H  6.15300 1.38300 40.45100
H  -1.10600 4.00700 42.77000
H  -2.59300 3.51000 43.08900
H  -2.03600 3.08800 41.41700
H  -3.56600 -1.08500 44.63900
H  -3.74500 -1.71500 42.85500
H  -4.84800 -0.48300 43.65800
H  -0.86900 -4.45400 43.78500
H  1.24900 -5.56300 45.44000
H  -1.81000 -3.63200 46.02900
H  -0.50000 -4.55700 46.75600
H  -1.72200 -5.28700 45.73200
H  1.79600 -5.38400 42.56600
H  0.26100 -6.00100 42.86600
H  1.04600 -8.09300 43.34300
H  2.33500 -7.47100 44.44000
H  2.60200 -7.58800 42.76500
H  5.91200 -4.81600 45.92000
H  7.33200 -3.71800 46.39500
H  7.31800 -4.47400 44.80300
H  7.57200 0.74300 43.23100
H  7.88800 3.00600 47.40900
H  6.42600 2.49200 48.28100
H  6.19200 3.30100 46.78200
Mg -5.52900 24.73900 26.77600
C  -3.73800 26.17500 29.33200
C  -6.88800 22.60200 29.21600
C  -7.36200 23.25000 24.37800
C  -3.77500 26.52700 24.44400
N  -5.25200 24.41600 28.88000
C  -4.67900 25.27400 29.76100
C  -5.00100 24.99600 31.19000
C  -5.70600 23.63600 31.14000
C  -5.97600 23.52800 29.64700
C  -5.07600 22.42400 31.87000
C  -5.82300 26.20900 31.77000
C  -5.52800 26.74600 33.23100
H  -4.78100 25.87300 34.25300
N  -6.86800 23.15200 26.75600
C  -7.35100 22.41500 27.88400
C  -8.31600 21.38300 27.44900
C  -8.43300 21.45000 26.03800
C  -7.50300 22.66100 25.64300
C  -8.98600 20.39300 28.39700
C  -9.21200 20.56600 25.02400
O  -8.98900 20.66500 23.81900
C  -10.11600 19.53700 25.57900
N  -5.59000 24.90000 24.74700
C  -6.48300 24.24800 23.99300
C  -6.21100 24.52300 22.48100
C  -4.95700 25.48600 22.43700
C  -4.72400 25.65600 23.92800
C  -6.08700 23.26500 21.60200
C  -5.10500 26.76700 21.62800
C  -3.97400 27.07000 20.55200
N  -4.02300 26.10500 26.77300
C  -3.40100 26.74700 25.80900
C  -2.45700 27.72900 26.37100
C  -2.59600 27.59500 27.75900
C  -3.50200 26.48500 27.97600
C  -1.57900 28.83500 25.59000
C  -2.15900 28.05200 29.05800
O  -1.41500 28.95400 29.38100
C  -2.86700 27.14400 30.11000
C  -1.79500 26.43100 30.79700
O  -0.95100 25.73000 30.21800
O  -1.79600 26.76600 32.16200
C  -0.71600 26.08200 32.93300
H  -7.31900 22.10800 30.08900
H  -7.98200 22.84000 23.57800
H  -3.20300 27.06200 23.68300
H  -4.09700 24.96500 31.79800
H  -6.68000 23.82000 31.59300
H  -5.76900 21.90800 32.53500
H  -4.29700 22.81300 32.52600
H  -4.59300 21.82900 31.09500
H  -6.90900 26.14700 31.70900
H  -5.56900 27.08200 31.16700
H  -6.47300 27.12000 33.62400
H  -4.94000 27.64600 33.05000
H  -10.02400 20.69000 28.54700
H  -8.51900 20.26800 29.37500
H  -9.03100 19.37900 28.00000
H  -9.68200 18.65000 26.04200
H  -10.95100 19.30100 24.91900
H  -10.78500 19.90600 26.35600
H  -7.10800 25.07600 22.20300
H  -4.15700 24.84900 22.06000
H  -7.07500 23.17300 21.15000
H  -5.86700 22.39900 22.22700
H  -5.36700 23.44600 20.80400
H  -5.13000 27.60500 22.32400
H  -6.10100 26.64500 21.20300
H  -4.37400 27.09800 19.53800
H  -3.04000 26.51500 20.63700
H  -3.74200 28.13000 20.66000
H  -1.86000 29.86100 25.83000
H  -1.70400 28.63300 24.52600
H  -0.51500 28.67400 25.76400
H  -3.39700 27.69100 30.89000
H  -0.44200 25.13200 32.47300
H  -1.11000 25.86300 33.92600
H  0.12900 26.74500 33.11800

