158

Mg 0.43900 7.87900 26.30100
C  1.34900 9.74900 29.04400
C  0.36200 5.11000 28.36700
C  0.11200 5.98700 23.56000
C  1.16200 10.65700 24.34300
N  0.92600 7.44800 28.44000
C  1.10400 8.43600 29.40300
C  1.09400 7.80900 30.78700
C  1.18500 6.27000 30.58100
C  0.85200 6.25900 29.00400
C  2.60400 5.63200 30.81700
C  -0.23000 8.20500 31.55300
C  -0.35200 7.90600 33.04100
H  0.85500 7.28300 33.77600
N  0.07000 5.84500 26.03800
C  -0.01300 4.90200 26.98900
C  -0.46300 3.68600 26.37400
C  -0.65300 3.97700 24.94800
C  -0.15200 5.29800 24.78300
C  -0.71500 2.39000 27.06400
C  -1.28800 3.09600 23.85100
O  -1.41300 3.44800 22.66100
C  -1.81700 1.77300 24.13300
N  0.67800 8.26400 24.26300
C  0.47600 7.29500 23.32100
C  0.75700 7.80500 21.85300
C  1.09100 9.30700 22.12300
C  1.02400 9.42700 23.69700
C  1.81800 7.01300 21.03400
C  0.19900 10.38600 21.35800
C  -1.24100 10.36100 21.72600
N  1.11300 9.84000 26.58400
C  1.15700 10.92200 25.66200
C  1.36900 12.20000 26.36800
C  1.53500 11.70400 27.73300
C  1.26600 10.35400 27.75400
C  1.51500 13.57100 25.78400
C  1.78000 12.15100 29.04100
O  1.88600 13.36500 29.37600
C  1.58500 10.93700 29.96100
C  2.86900 10.97000 30.77900
O  3.83600 10.17000 30.62500
O  2.66600 11.81500 31.85700
C  3.58500 11.53300 32.99800
H  0.30400 4.19900 28.96600
H  0.03700 5.38300 22.65300
H  1.54600 11.50600 23.77400
H  1.93500 8.24200 31.32700
H  0.42000 5.69900 31.10700
H  3.16100 5.29800 29.94200
H  2.42000 4.70800 31.36400
H  3.18400 6.22200 31.52600
H  -1.07400 7.60300 31.21700
H  -0.53600 9.24000 31.39700
H  -1.16200 7.21100 33.25800
H  -0.60000 8.83700 33.55100
H  -1.77600 2.25300 27.27200
H  -0.22300 2.35500 28.03700
H  -0.31000 1.56600 26.47600
H  -0.91000 1.17300 24.20900
H  -2.24200 1.33200 23.23200
H  -2.45800 1.62900 25.00300
H  -0.21900 7.71600 21.37800
H  2.12200 9.55800 21.87200
H  2.60000 7.71600 20.75000
H  1.44100 6.52400 20.13600
H  2.31000 6.17100 21.52200
H  0.53600 10.42900 20.32200
H  0.49600 11.37500 21.70800
H  -1.57300 11.39200 21.84100
H  -1.37600 9.83500 22.67100
H  -1.86800 9.97600 20.92200
H  1.79700 14.29500 26.54900
H  0.61600 13.83700 25.22700
H  2.31500 13.61700 25.04500
H  0.70900 11.05200 30.60000
H  4.22000 12.40300 32.83300
H  4.16400 10.60900 32.98200
H  2.98700 11.69800 33.89400
Mg 24.53200 -5.53000 45.08900
C  26.55100 -3.05500 43.71500
C  22.09300 -4.64000 42.76600
C  22.88700 -8.45000 45.64100
C  27.32300 -6.85500 46.71800
N  24.37800 -3.97800 43.48700
C  25.29200 -3.07500 43.05700
C  24.77900 -2.20100 41.99300
C  23.27300 -2.54000 42.01100
C  23.25600 -3.84400 42.75800
C  22.34400 -1.41600 42.57100
C  25.42800 -2.52100 40.61900
C  25.85300 -1.29300 39.82800
H  26.10600 -1.47600 38.28800
N  22.72400 -6.34000 44.38000
C  21.84400 -5.79100 43.50000
C  20.65600 -6.61100 43.44000
C  20.92100 -7.82600 44.20400
C  22.23400 -7.57900 44.77500
C  19.48700 -6.24900 42.47100
C  20.06200 -8.97100 44.26800
O  18.92300 -8.88000 43.77600
C  20.38800 -10.24100 45.01400
N  25.04200 -7.37900 46.06500
C  24.12400 -8.39500 46.19200
C  24.74700 -9.57800 46.89400
C  26.18300 -9.17900 47.20900
C  26.21600 -7.72900 46.60900
C  23.88100 -10.26100 47.93200
C  27.29400 -10.06000 46.76000
C  28.09600 -10.77400 47.84500
N  26.58400 -4.99100 45.28500
C  27.55200 -5.62100 46.05800
C  28.74800 -4.75900 45.95300
C  28.40600 -3.78500 44.99700
C  27.04800 -3.96700 44.64400
C  30.04900 -5.06100 46.52900
C  28.95700 -2.70900 44.15000
O  30.09200 -2.28000 44.13900
C  27.75900 -2.12700 43.33200
C  27.49100 -0.70500 43.79100
O  27.46900 -0.24300 44.95600
O  27.47300 0.17400 42.69300
C  27.25000 1.56200 42.92900
H  21.28700 -4.22600 42.15600
H  22.41100 -9.38300 45.95100
H  28.05900 -7.26900 47.41000
H  25.01600 -1.15600 42.19200
H  22.95500 -2.83700 41.01200
H  22.90900 -0.56000 42.94000
H  21.70200 -1.68900 43.40900
H  21.67500 -0.94700 41.85000
H  24.83600 -3.19000 39.99500
H  26.33800 -3.02200 40.95000
H  26.74300 -0.89800 40.31800
H  25.02100 -0.58800 39.83100
H  19.66200 -6.55800 41.44100
H  19.46500 -5.16100 42.40800
H  18.56100 -6.72500 42.79300
H  21.32500 -10.69500 44.69100
H  19.59200 -10.95400 44.79800
H  20.35900 -10.08900 46.09300
H  24.85400 -10.33600 46.11900
H  26.23200 -9.13200 48.29700
H  23.44800 -11.19500 47.57300
H  23.24100 -9.48300 48.34800
H  24.51900 -10.56700 48.76100
H  27.99000 -9.57500 46.07600
H  26.91500 -10.83500 46.09400
H  27.61900 -11.74000 48.01100
H  28.21800 -10.32300 48.82900
H  29.07000 -10.95700 47.39000
H  30.63600 -5.75500 45.92800
H  29.87300 -5.46300 47.52700
H  30.61800 -4.13300 46.47300
H  28.08800 -2.25600 42.30100
H  27.99700 1.95700 43.61800
H  26.23200 1.59500 43.31700
H  27.38200 2.16600 42.03200

