158

Mg -0.14500 7.90000 26.58600
C  0.62300 9.81900 29.30500
C  -0.60200 5.23500 28.71000
C  -0.84800 6.07800 23.80900
C  0.48200 10.72900 24.56200
N  -0.19900 7.66100 28.82400
C  0.18200 8.57500 29.79800
C  -0.05400 8.05500 31.19800
C  -0.35100 6.50300 31.02200
C  -0.37500 6.41200 29.43000
C  0.62500 5.48000 31.59800
C  -1.19900 8.78900 31.99500
C  -0.86400 8.93200 33.40100
H  -1.00100 7.67500 34.24200
N  -0.62200 5.90400 26.32300
C  -0.80100 4.99000 27.27900
C  -1.15400 3.76700 26.67400
C  -1.14000 3.87300 25.25400
C  -0.92300 5.35600 25.06800
C  -1.58300 2.47300 27.45600
C  -1.20500 2.88100 24.12400
O  -1.10300 3.20800 22.96300
C  -1.26800 1.37300 24.38100
N  -0.40300 8.39800 24.52700
C  -0.41000 7.41400 23.58200
C  -0.04500 7.95300 22.18900
C  -0.07700 9.46700 22.43800
C  0.01100 9.56700 23.98200
C  1.26800 7.41700 21.65500
C  -1.37300 10.14800 21.92000
C  -1.31600 11.64300 21.44900
N  0.44900 9.89000 26.82000
C  0.70600 10.90500 25.89900
C  1.20000 12.09200 26.55000
C  1.26000 11.68700 27.95100
C  0.70800 10.35100 28.04100
C  1.56100 13.39300 25.95900
C  1.60900 12.16100 29.24300
O  2.04100 13.22300 29.67900
C  1.08100 11.03300 30.18400
C  2.18800 10.72700 31.12500
O  3.05300 9.93200 30.95400
O  1.98200 11.49900 32.28500
C  2.97700 11.45200 33.31800
H  -0.78800 4.42300 29.41600
H  -0.76700 5.39900 22.95800
H  0.81500 11.46800 23.83000
H  0.91300 8.14800 31.69400
H  -1.38300 6.31400 31.32000
H  1.51400 5.89400 32.07300
H  0.95500 4.82200 30.79500
H  0.12800 4.90900 32.38300
H  -2.09800 8.21200 31.77700
H  -1.39500 9.71800 31.46100
H  -1.47600 9.70900 33.85800
H  0.15800 9.30900 33.36200
H  -2.58600 2.13300 27.19700
H  -1.63500 2.69200 28.52200
H  -0.78100 1.73700 27.39600
H  -0.55400 1.09500 25.15600
H  -1.05300 0.94200 23.40400
H  -2.29900 1.18800 24.68300
H  -0.80600 7.58200 21.50300
H  0.73800 10.06900 22.03600
H  1.77000 8.24900 21.16100
H  1.24200 6.55200 20.99200
H  1.86200 7.09000 22.50800
H  -2.09800 10.16500 22.73400
H  -1.77400 9.51800 21.12600
H  -1.55500 11.78500 20.39500
H  -0.34300 12.09400 21.64300
H  -2.04700 12.27500 21.95200
H  2.34300 13.93500 26.49200
H  0.65900 13.99300 26.08200
H  1.85700 13.25300 24.92000
H  0.20900 11.40100 30.72500
H  3.46200 12.42800 33.35300
H  3.70600 10.66700 33.11800
H  2.54500 11.18800 34.28300
Mg -12.22700 16.75200 41.21800
C  -9.12400 14.99600 41.22300
C  -10.51400 19.66700 40.56700
C  -15.13700 18.09900 40.82700
C  -13.74300 13.56800 41.78700
N  -10.01800 17.19900 40.78300
C  -8.92800 16.35300 40.90400
C  -7.65000 17.13800 40.60500
C  -8.10700 18.68600 40.54700
C  -9.64100 18.53500 40.62900
C  -7.53800 19.43500 41.73400
C  -6.84500 16.59000 39.32600
C  -5.33700 16.94600 39.20600
H  -4.95000 17.57800 37.82900
N  -12.81000 18.69500 40.66500
C  -11.95400 19.83000 40.52400
C  -12.80500 20.93600 40.12200
C  -14.15300 20.44000 40.02000
C  -14.10300 19.02900 40.51300
C  -12.14500 22.29700 39.69600
C  -15.28800 21.20200 39.50200
O  -15.20200 22.38300 39.33600
C  -16.58600 20.49300 39.23000
N  -14.15100 15.96100 41.36100
C  -15.23200 16.79700 41.27700
C  -16.58000 16.04400 41.41500
C  -16.10700 14.61600 41.58900
C  -14.57800 14.69100 41.53800
C  -17.49500 16.78900 42.46300
C  -16.56400 13.52800 40.55200
C  -17.21900 12.30900 41.11600
N  -11.63700 14.63700 41.58000
C  -12.37700 13.48800 41.77300
C  -11.46100 12.37800 41.98600
C  -10.16700 12.95300 41.68300
C  -10.32600 14.31200 41.46500
C  -11.79500 11.04100 42.39500
C  -8.78100 12.62800 41.60100
O  -8.19700 11.54800 41.64900
C  -8.02200 13.95800 41.20200
C  -6.98600 14.26000 42.27100
O  -7.11800 13.98700 43.44700
O  -5.80300 14.82300 41.80900
C  -4.87000 15.26600 42.90000
H  -10.01800 20.63700 40.49100
H  -16.14700 18.50900 40.75800
H  -14.17700 12.59100 42.00900
H  -6.87500 17.01200 41.36200
H  -7.71700 19.16300 39.64800
H  -7.01800 20.35100 41.45400
H  -6.96500 18.79600 42.40600
H  -8.41100 19.71700 42.32500
H  -7.22400 17.06800 38.42300
H  -6.84300 15.51600 39.14000
H  -4.72700 16.07100 39.43100
H  -5.10200 17.66800 39.98800
H  -12.72500 22.76900 38.90300
H  -11.15000 22.10000 39.29700
H  -12.10900 22.95600 40.56400
H  -16.34900 19.48600 38.88700
H  -17.04400 20.96700 38.36200
H  -17.08000 20.44700 40.20100
H  -17.04000 16.12900 40.43000
H  -16.32700 14.32400 42.61600
H  -18.50200 16.91000 42.06300
H  -17.05000 17.74500 42.73700
H  -17.63300 16.12500 43.31700
H  -15.65100 13.19500 40.05700
H  -17.14900 13.95300 39.73600
H  -16.83400 12.18000 42.12700
H  -16.96000 11.40000 40.57300
H  -18.30500 12.39500 41.13200
H  -11.85100 10.43400 41.49100
H  -12.74700 10.86300 42.89600
H  -11.03600 10.55300 43.00600
H  -7.61300 13.78600 40.20700
H  -3.83400 15.48000 42.63800
H  -4.83900 14.57400 43.74200
H  -5.38300 16.11100 43.35900

