158

Mg 8.35400 3.99900 28.18400
C  9.73700 2.37300 31.09400
C  6.58600 6.01000 30.34700
C  6.79900 5.13200 25.53700
C  9.90500 1.43400 26.25000
N  8.15200 4.05900 30.49100
C  8.77100 3.34800 31.44600
C  8.62100 4.02100 32.80600
C  7.48800 5.06800 32.52400
C  7.36500 4.97900 31.00100
C  6.12000 4.94900 33.30800
C  9.94400 4.56200 33.33600
C  10.58100 3.97600 34.65100
H  10.66300 4.87600 35.90200
N  6.92000 5.47300 27.96200
C  6.33200 6.28100 28.95700
C  5.49700 7.26500 28.31500
C  5.63800 7.08900 26.90600
C  6.38700 5.83400 26.71200
C  4.72500 8.39000 29.06200
C  5.12100 7.92100 25.84800
O  4.99000 7.42600 24.67500
C  4.72600 9.38200 26.01800
N  8.13100 3.23900 26.26100
C  7.62600 4.01000 25.28000
C  8.05100 3.63000 23.86100
C  9.15400 2.61400 24.04500
C  9.06100 2.37600 25.59900
C  6.94300 3.24800 22.82500
C  10.57300 3.00200 23.51700
C  11.44700 3.88800 24.45400
N  9.58400 2.17800 28.51000
C  10.10800 1.25300 27.62500
C  11.03000 0.42500 28.30500
C  10.86200 0.84100 29.65400
C  9.92700 1.81200 29.73600
C  11.92400 -0.55900 27.69200
C  11.30300 0.56200 30.95900
O  12.08500 -0.25900 31.31000
C  10.62400 1.48300 31.94400
C  9.92300 0.76700 32.93500
O  8.79600 0.28300 32.78500
O  10.61900 0.70500 34.14300
C  9.69700 0.32000 35.22200
H  6.26900 6.76300 31.07100
H  6.46000 5.50800 24.56900
H  10.30700 0.69900 25.54900
H  8.20400 3.28700 33.49500
H  7.75800 6.10700 32.71400
H  5.57000 5.88800 33.37200
H  6.47900 4.62700 34.28500
H  5.58100 4.06400 32.97100
H  9.71200 5.61200 33.51300
H  10.68700 4.57800 32.53800
H  11.60200 3.68100 34.40800
H  9.98300 3.12100 34.96700
H  5.05000 9.39200 28.78400
H  4.95800 8.21000 30.11100
H  3.64200 8.31500 28.95800
H  3.83100 9.32200 26.63800
H  4.48500 9.77700 25.03100
H  5.51600 9.95100 26.50900
H  8.56800 4.49200 23.44000
H  8.81900 1.68200 23.59200
H  5.98300 3.07500 23.31100
H  7.21300 2.37500 22.23100
H  6.82800 4.07700 22.12700
H  10.47700 3.57300 22.59300
H  11.07900 2.05100 23.35300
H  10.96100 4.28800 25.34300
H  11.76500 4.72600 23.83200
H  12.34100 3.34100 24.75500
H  12.10300 -0.23400 26.66700
H  11.63900 -1.61000 27.73600
H  12.85400 -0.41900 28.24300
H  11.31500 2.05700 32.56300
H  9.37100 -0.71800 35.16000
H  8.89200 1.05300 35.16300
H  10.17900 0.38900 36.19700
Mg 17.30200 -0.56500 28.57300
C  15.96700 0.64500 31.57800
C  19.45500 -2.49800 30.53900
C  18.40600 -1.94400 25.79900
C  15.17000 1.46800 26.74400
N  17.72800 -0.88300 30.83600
C  17.04600 -0.24900 31.84900
C  17.52000 -0.69700 33.25000
C  18.82900 -1.50700 32.89600
C  18.66300 -1.71100 31.34700
C  20.14200 -0.82500 33.36500
C  16.33800 -1.51600 33.91200
C  15.87600 -0.95100 35.37300
H  16.98400 -0.56300 36.33000
N  18.72200 -1.99500 28.24300
C  19.49000 -2.69700 29.13000
C  20.21600 -3.77000 28.43900
C  19.84700 -3.67100 27.05700
C  18.94400 -2.49200 26.97900
C  21.19200 -4.73600 29.14400
C  20.22500 -4.51700 25.79600
O  19.75400 -4.34300 24.68900
C  21.29700 -5.55800 26.03800
N  16.99900 -0.21000 26.54500
C  17.57000 -0.85700 25.59400
C  17.16400 -0.35700 24.18200
C  16.08300 0.78200 24.55900
C  16.01900 0.65600 26.03700
C  18.27400 0.10500 23.22900
C  14.61300 0.76000 23.88200
C  14.39100 0.61900 22.35700
N  15.82000 0.78300 29.01600
C  15.08500 1.56100 28.10400
C  14.18800 2.41600 28.88900
C  14.50300 2.13600 30.21900
C  15.49800 1.10600 30.27800
C  13.21800 3.40800 28.36300
C  14.31500 2.48000 31.63500
O  13.50200 3.27600 32.09600
C  15.24600 1.58700 32.54400
C  16.15800 2.55300 33.14900
O  17.10500 3.11700 32.59400
O  15.76200 2.82300 34.42300
C  16.59300 3.79800 35.13300
H  20.10600 -3.12400 31.15200
H  18.69700 -2.45500 24.87900
H  14.67200 2.31100 26.26000
H  17.65900 0.21800 33.82600
H  18.75200 -2.52800 33.27100
H  20.64900 -0.58600 32.43000
H  20.84100 -1.43300 33.93900
H  19.98100 0.12200 33.88100
H  16.78700 -2.47900 34.15600
H  15.57400 -1.62600 33.14200
H  15.35800 -1.75700 35.89300
H  15.16300 -0.13800 35.23800
H  22.25200 -4.73200 28.89300
H  20.81000 -5.74700 28.99700
H  21.07100 -4.63000 30.22200
H  22.22900 -5.00000 26.12500
H  21.34200 -6.15100 25.12400
H  21.02000 -6.22600 26.85400
H  16.71300 -1.23900 23.72600
H  16.44100 1.78400 24.32000
H  18.06100 1.13800 22.95200
H  18.35200 -0.52900 22.34600
H  19.24100 0.19500 23.72500
H  14.10100 1.67800 24.17200
H  14.08300 -0.05900 24.36700
H  15.30500 0.19900 21.93700
H  14.32500 1.63000 21.95500
H  13.46800 0.05400 22.22600
H  12.92700 3.10600 27.35600
H  13.72200 4.37000 28.27300
H  12.41000 3.47900 29.09000
H  14.69600 1.06100 33.32400
H  16.34800 4.83000 34.88500
H  17.62900 3.50600 34.96000
H  16.48600 3.62200 36.20400

