158

Mg 7.65100 3.95100 27.73400
C  8.96600 2.58700 30.68200
C  6.08200 6.38200 29.65700
C  5.90000 4.93600 25.02000
C  8.91600 1.18500 25.87400
N  7.62500 4.48100 29.96800
C  8.20700 3.74700 30.98100
C  7.91700 4.38500 32.34500
C  7.04000 5.59100 31.97300
C  6.95500 5.54200 30.42000
C  5.68500 5.67600 32.61800
C  9.16700 4.77000 33.20000
C  9.08900 4.43700 34.66700
H  10.39200 4.55600 35.44300
N  6.31100 5.51700 27.39900
C  5.80300 6.39700 28.32500
C  5.04800 7.43700 27.61300
C  5.03000 7.10600 26.23200
C  5.73900 5.80700 26.14800
C  4.38200 8.63100 28.19700
C  4.30600 7.77700 25.06300
O  4.28900 7.26200 23.95300
C  3.59400 9.09600 25.17400
N  7.48200 3.22600 25.80700
C  6.56500 3.72400 24.92100
C  6.56800 2.99000 23.58500
C  7.53700 1.72800 23.84100
C  8.04900 2.08300 25.25700
C  5.14500 2.65200 23.06900
C  8.70400 1.56700 22.91400
C  8.84900 0.08400 22.28600
N  8.82200 2.34100 28.12800
C  9.22900 1.31800 27.31000
C  10.07800 0.47700 28.14200
C  10.00600 0.86800 29.43700
C  9.21000 2.04400 29.40300
C  10.80400 -0.75200 27.71100
C  10.38600 0.57600 30.81700
O  11.13400 -0.20300 31.35000
C  9.59500 1.64800 31.65000
C  8.72000 0.89300 32.51400
O  7.80000 0.21200 32.10100
O  9.07000 1.10300 33.83800
C  8.22300 0.32000 34.76400
H  5.55500 7.21800 30.12200
H  5.24600 5.36300 24.25700
H  9.26600 0.33400 25.28600
H  7.28900 3.72600 32.94500
H  7.63900 6.50100 32.00000
H  5.23900 6.65500 32.79700
H  5.82500 5.37200 33.65500
H  4.96300 5.13700 32.00500
H  9.29700 5.84500 33.07300
H  10.12100 4.30300 32.95300
H  8.68800 3.44000 34.84900
H  8.25900 5.00700 35.08500
H  4.89600 9.59100 28.15000
H  4.21900 8.47000 29.26300
H  3.39300 8.73800 27.75300
H  2.67900 8.98900 25.75600
H  3.35900 9.42400 24.16100
H  4.28300 9.80700 25.63000
H  6.96900 3.69300 22.85500
H  7.04600 0.75700 23.89200
H  4.99400 3.12500 22.09800
H  4.43600 2.98600 23.82600
H  5.11900 1.56200 23.05400
H  9.59200 1.81300 23.49700
H  8.75300 2.29800 22.10700
H  8.86500 0.04200 21.19700
H  8.09900 -0.60900 22.66700
H  9.81700 -0.34300 22.54500
H  10.40600 -1.24600 26.82400
H  10.73100 -1.63800 28.34100
H  11.86200 -0.52800 27.57400
H  10.34300 2.15400 32.26100
H  7.45600 0.92300 35.24900
H  8.85300 -0.09200 35.55200
H  7.61000 -0.44100 34.28100
Mg 16.20800 -1.45100 28.92700
C  15.08100 0.80800 31.52000
C  18.04100 -3.08500 31.12600
C  17.43200 -3.28500 26.29000
C  14.32300 0.43200 26.75100
N  16.23300 -1.28200 31.06500
C  15.85300 -0.27400 31.93300
C  16.24900 -0.60400 33.37600
C  17.19100 -1.86900 33.23500
C  17.11000 -2.15400 31.71400
C  18.64600 -1.66500 33.67000
C  15.03200 -0.95700 34.19100
C  15.14700 -0.52600 35.58700
H  16.52100 -0.24500 36.24700
N  17.50200 -2.99300 28.73400
C  18.15700 -3.48600 29.79200
C  18.99500 -4.57400 29.32300
C  18.86500 -4.60400 27.90900
C  17.92300 -3.53700 27.58700
C  19.75400 -5.52300 30.21700
C  19.62600 -5.55700 26.93200
O  19.42700 -5.41000 25.74200
C  20.59000 -6.60300 27.46100
N  16.06200 -1.22600 26.76600
C  16.64800 -2.18300 25.95200
C  16.26000 -1.83900 24.45900
C  15.14500 -0.77700 24.62000
C  15.14000 -0.53200 26.11700
C  17.51100 -1.40000 23.61900
C  13.75100 -1.23000 24.14200
C  12.97100 -0.15300 23.38200
N  14.95700 0.31600 29.07100
C  14.21600 0.82400 28.09100
C  13.39700 1.91700 28.58900
C  13.75300 1.99800 29.95100
C  14.65900 1.01200 30.20400
C  12.49600 2.71300 27.76400
C  13.50100 2.63400 31.25800
O  12.67100 3.53900 31.53400
C  14.38200 1.84000 32.32500
C  15.30900 2.86600 32.80700
O  16.20500 3.34800 32.13700
O  15.02200 3.04300 34.15200
C  15.48100 4.38900 34.56400
H  18.57700 -3.67700 31.87000
H  17.63900 -4.01800 25.50800
H  13.70700 1.06600 26.10900
H  16.74700 0.28200 33.77000
H  16.69000 -2.64900 33.80800
H  19.43700 -1.92300 32.96500
H  18.61800 -2.26800 34.57700
H  18.73900 -0.60700 33.91400
H  14.75900 -2.01000 34.26200
H  14.16100 -0.48700 33.73500
H  14.50100 -1.22000 36.12400
H  14.65600 0.44200 35.68600
H  20.79300 -5.37700 29.92200
H  19.37600 -6.52000 29.98900
H  19.70100 -5.33400 31.28900
H  21.02500 -7.24100 26.69100
H  20.24200 -7.29600 28.22700
H  21.37700 -5.99600 27.91000
H  15.91900 -2.77700 24.02100
H  15.56500 0.10800 24.14000
H  17.70100 -0.32800 23.67800
H  17.26400 -1.60300 22.57700
H  18.43200 -1.91400 23.89100
H  13.11800 -1.40600 25.01200
H  13.87300 -2.19200 23.64300
H  12.07500 -0.59800 22.94900
H  13.53900 0.45100 22.67400
H  12.57700 0.56100 24.10500
H  11.87900 2.05800 27.14900
H  13.10600 3.22600 27.02000
H  11.98200 3.44700 28.38400
H  13.72400 1.40700 33.07800
H  15.24600 5.22400 33.90400
H  16.54700 4.32500 34.78400
H  14.88200 4.64200 35.43900

