158

Mg 46.89700 16.31900 28.25400
C  45.03100 15.85200 31.16800
C  49.23800 17.99200 30.02200
C  48.30600 17.26500 25.30400
C  44.37900 14.69300 26.58200
N  46.99400 16.94400 30.34300
C  46.24800 16.51500 31.38700
C  46.89900 16.82900 32.76100
C  48.18200 17.71600 32.33700
C  48.14100 17.48800 30.82300
C  48.02400 19.18900 32.74500
C  47.15100 15.52600 33.60900
C  46.75300 15.53200 35.16900
H  46.34300 16.84600 35.85300
N  48.51100 17.48500 27.71500
C  49.43600 18.01400 28.62800
C  50.56300 18.59800 27.92800
C  50.30700 18.47900 26.58500
C  48.98200 17.73800 26.46900
C  51.61100 19.38000 28.72900
C  51.23100 18.88300 25.38700
O  50.92900 18.61400 24.20700
C  52.60100 19.52900 25.59200
N  46.39200 16.10100 26.26600
C  47.16000 16.53300 25.17600
C  46.64700 15.91200 23.86000
C  45.29500 15.34800 24.30900
C  45.38900 15.32200 25.82800
C  46.61100 16.92300 22.66400
C  44.96100 13.97500 23.75100
C  45.65100 12.72400 24.22100
N  45.09100 15.34200 28.71900
C  44.19000 14.68400 27.92800
C  43.04900 14.27500 28.70400
C  43.39900 14.64800 30.00500
C  44.59800 15.33400 29.96300
C  41.93400 13.60200 28.24900
C  42.93300 14.64800 31.36200
O  41.82500 14.22400 31.72900
C  43.98600 15.41300 32.13100
C  43.36600 16.54500 32.85900
O  43.36700 17.69100 32.46000
O  42.95100 16.14100 34.09800
C  42.29900 17.16500 34.96700
H  50.11700 18.26700 30.60900
H  48.76700 17.33400 24.31600
H  43.61500 14.17900 25.99500
H  46.12900 17.44800 33.22100
H  49.10700 17.35300 32.78600
H  46.99800 19.42000 33.03500
H  48.32700 19.93900 32.01400
H  48.70000 19.35000 33.58500
H  48.21300 15.29100 33.54400
H  46.65000 14.70700 33.09200
H  47.57400 15.05400 35.70300
H  45.86400 14.92500 35.34000
H  52.36600 19.85500 28.10200
H  52.08800 18.71300 29.44700
H  51.08300 20.19400 29.22600
H  53.28200 18.88200 26.14500
H  52.62800 20.40000 26.24700
H  53.02000 19.71000 24.60200
H  47.30000 15.09400 23.55300
H  44.50300 16.05500 24.06100
H  47.48600 16.67600 22.06300
H  46.69400 17.97500 22.93700
H  45.66600 16.75900 22.14600
H  45.03400 14.02800 22.66500
H  43.90300 13.85600 23.98300
H  45.35300 12.44600 25.23200
H  46.72600 12.90100 24.23600
H  45.46300 11.95700 23.46900
H  41.84700 13.79000 27.17900
H  41.07700 14.08400 28.71900
H  41.97000 12.57100 28.60100
H  44.37400 14.70500 32.86300
H  42.78000 18.14200 34.92100
H  42.04300 16.75400 35.94300
H  41.36300 17.31600 34.42900
Mg 16.79400 51.97700 26.66800
C  18.56400 50.54000 29.23600
C  14.30000 52.94200 28.94900
C  15.19100 53.51900 24.15000
C  19.17500 50.69200 24.41000
N  16.49000 51.74600 28.74100
C  17.38200 51.19500 29.60600
C  16.88600 51.37900 31.02600
C  15.35200 51.82100 30.93500
C  15.35200 52.18700 29.47400
C  14.29400 50.75800 31.37600
C  17.74800 52.33400 31.84500
C  17.76200 52.16900 33.36900
H  16.61600 51.32100 33.97600
N  15.04800 53.11000 26.59400
C  14.20100 53.37700 27.62700
C  13.18100 54.34000 27.13500
C  13.42700 54.57900 25.77000
C  14.56400 53.69600 25.45800
C  12.02300 54.79200 27.98300
C  12.73800 55.48300 24.70600
O  13.11200 55.56900 23.55300
C  11.56200 56.34100 25.13700
N  17.08900 52.00300 24.63800
C  16.24500 52.72700 23.75500
C  16.70400 52.50900 22.27800
C  18.15700 51.99100 22.45700
C  18.13500 51.48000 23.90400
C  15.77900 51.54800 21.47200
C  19.33400 52.98400 22.25600
C  20.18400 52.71800 21.04400
N  18.49700 50.78600 26.76000
C  19.46700 50.40900 25.78000
C  20.61700 49.71900 26.41400
C  20.30700 49.78000 27.74800
C  19.02400 50.36100 27.94000
C  21.86200 49.18700 25.72000
C  20.81000 49.43700 29.07100
O  21.86900 48.94100 29.37600
C  19.71300 49.99400 30.09500
C  19.33800 48.84900 31.02600
O  18.70000 47.83700 30.80700
O  19.85900 49.13900 32.27500
C  19.40700 48.18700 33.25800
H  13.52900 53.27800 29.64600
H  14.55900 53.79800 23.30500
H  20.05900 50.38600 23.84800
H  16.90000 50.36600 31.42800
H  15.19400 52.70800 31.55000
H  13.47300 50.69800 30.66100
H  13.87100 51.17300 32.29100
H  14.80100 49.80600 31.53300
H  17.41400 53.33500 31.57500
H  18.78300 52.25300 31.51100
H  17.69000 53.17300 33.78600
H  18.71400 51.80900 33.76000
H  12.25800 55.83600 28.19300
H  11.82400 54.28500 28.92700
H  11.11400 54.85300 27.38500
H  10.72500 55.64800 25.21700
H  11.31500 57.10500 24.40000
H  11.69300 56.82800 26.10400
H  16.69900 53.46200 21.74900
H  18.25600 51.20700 21.70600
H  15.53600 52.10000 20.56400
H  14.84000 51.36300 21.99400
H  16.30000 50.62800 21.20700
H  19.97600 52.93600 23.13600
H  18.94500 53.98700 22.08500
H  21.18800 52.37300 21.29100
H  20.21700 53.58900 20.38900
H  19.77000 51.86400 20.50800
H  21.52800 48.64100 24.83800
H  22.24400 48.47500 26.45200
H  22.51700 50.03200 25.50500
H  20.06500 50.79800 30.74100
H  19.65700 47.13100 33.15200
H  18.32000 48.24100 33.21000
H  19.76400 48.48300 34.24400

