158

Mg 43.38200 3.31400 47.20000
C  41.31800 5.97600 46.59900
C  40.60600 1.29100 47.35900
C  45.48300 0.73800 47.52400
C  46.20600 5.55400 46.86600
N  41.22100 3.57700 46.85700
C  40.63000 4.74700 46.59400
C  39.15200 4.61400 46.63100
C  38.91000 3.16700 47.20900
C  40.29800 2.64700 47.17300
C  38.38800 3.15800 48.71600
C  38.53900 4.85300 45.22100
C  37.26200 5.79400 45.06900
H  36.76800 6.12000 43.70500
N  43.03000 1.24600 47.14100
C  41.84900 0.63600 47.26800
C  42.03900 -0.79200 47.25200
C  43.48600 -0.94300 47.27300
C  44.10800 0.41800 47.30500
C  40.98900 -1.94100 47.26000
C  44.24100 -2.29200 47.14200
O  43.56000 -3.35500 46.91700
C  45.76900 -2.41900 47.18100
N  45.52200 3.11400 47.09400
C  46.14800 1.92300 47.42500
C  47.68200 2.07700 47.56100
C  47.91900 3.64500 47.29400
C  46.48900 4.18500 47.06700
C  48.26200 1.68000 48.98600
C  48.92200 3.95500 46.15000
C  50.35300 4.50500 46.41900
N  43.71700 5.36300 46.92800
C  44.88500 6.13000 46.80300
C  44.47100 7.54900 46.66200
C  43.08000 7.49200 46.58700
C  42.67900 6.14600 46.72700
C  45.38800 8.70600 46.40100
C  41.84400 8.33300 46.40000
O  41.70800 9.50200 45.97500
C  40.65600 7.33500 46.53800
C  39.86200 7.85900 47.74100
O  39.93400 7.39400 48.87500
O  39.08000 8.93300 47.42700
C  38.19900 9.54000 48.45200
H  39.85400 0.56700 47.68200
H  46.22200 0.01500 47.87500
H  47.11500 6.15900 46.84200
H  38.62500 5.36000 47.22600
H  38.26100 2.54500 46.59200
H  38.04400 4.14600 49.02500
H  39.09600 2.68200 49.39400
H  37.52700 2.49000 48.73900
H  38.21100 3.86600 44.89400
H  39.28100 5.05600 44.44800
H  37.53100 6.67100 45.65800
H  36.49400 5.32900 45.68700
H  40.92100 -2.36200 46.25600
H  39.99900 -1.50600 47.39100
H  41.17500 -2.76600 47.94800
H  46.19200 -1.77300 46.41100
H  46.14300 -3.43700 47.08200
H  46.10900 -2.28200 48.20800
H  48.23600 1.53800 46.79300
H  48.30200 4.23100 48.13000
H  47.68700 0.89400 49.47500
H  48.25900 2.47600 49.73100
H  49.31000 1.38000 48.96200
H  48.58400 4.69700 45.42800
H  49.15100 3.06800 45.56000
H  50.46700 4.64500 47.49400
H  50.44300 5.43000 45.84900
H  51.14000 3.89600 45.97600
H  44.80500 9.61600 46.54000
H  45.74500 8.56100 45.38100
H  46.27000 8.63000 47.03700
H  40.03100 7.50200 45.66000
H  38.56900 9.27800 49.44300
H  37.21900 9.14000 48.19000
H  38.16900 10.62700 48.37700
Mg 41.47300 41.44000 26.90500
C  41.11500 43.68800 29.47500
C  41.95700 39.06300 29.31200
C  41.98700 39.18900 24.51400
C  41.33800 43.91700 24.49700
N  41.47800 41.36200 29.16100
C  41.24800 42.44500 30.01300
C  41.07700 42.05600 31.48800
C  41.52000 40.55500 31.45800
C  41.65400 40.26000 29.91000
C  42.88000 40.25000 32.19000
C  39.64900 42.32300 32.00200
C  39.50800 41.86600 33.48400
H  38.93100 42.93100 34.44800
N  41.87300 39.45500 26.87400
C  42.08000 38.60600 27.96700
C  42.60900 37.33600 27.54300
C  42.69100 37.37400 26.13000
C  42.22200 38.70000 25.78200
C  42.70100 36.21700 28.43800
C  43.08600 36.19800 25.19000
O  43.02300 36.20800 23.94600
C  43.53900 34.86500 25.80100
N  41.67800 41.60100 24.83500
C  41.89800 40.49700 24.04800
C  41.90500 40.85500 22.52500
C  41.67500 42.38400 22.53600
C  41.56300 42.70600 24.03000
C  43.23000 40.49900 21.86300
C  40.47700 42.84600 21.77200
C  39.07800 42.86800 22.39700
N  41.33200 43.37800 26.93700
C  41.22000 44.25800 25.90900
C  40.97900 45.55900 26.50200
C  40.98200 45.41500 27.87600
C  41.18600 44.06800 28.11100
C  40.71200 46.89000 25.78000
C  40.78500 46.10100 29.11800
O  40.60800 47.30400 29.26400
C  40.78600 45.00600 30.21900
C  41.77800 45.36100 31.25700
O  42.91200 45.66900 30.99500
O  41.22700 45.42900 32.52800
C  42.17700 45.77900 33.61200
H  42.16300 38.46900 30.20400
H  42.12900 38.51900 23.66300
H  40.99200 44.74100 23.87000
H  41.75800 42.68800 32.05900
H  40.74700 40.00500 31.99600
H  42.61000 39.57100 32.99900
H  43.34300 41.17400 32.53500
H  43.62300 39.83400 31.51000
H  38.96200 41.74900 31.38000
H  39.36700 43.36800 31.87600
H  40.40600 41.46200 33.95000
H  38.75600 41.07800 33.53000
H  43.68000 35.75800 28.57300
H  41.96300 35.46700 28.15100
H  42.35700 36.61200 29.39400
H  44.38400 35.01700 26.47300
H  43.75600 34.34200 24.87000
H  42.81700 34.26800 26.35800
H  41.01100 40.40500 22.09300
H  42.47500 43.01100 22.14400
H  43.50100 41.30500 21.18100
H  43.21300 39.57700 21.28100
H  43.93100 40.38000 22.68900
H  40.45300 42.11800 20.96100
H  40.68500 43.76900 21.22900
H  38.79100 43.10200 23.42200
H  38.56500 41.97600 22.03800
H  38.70600 43.74400 21.86400
H  40.99300 46.86800 24.72700
H  41.45400 47.54800 26.23100
H  39.71700 47.29600 25.96300
H  39.77500 44.81100 30.57600
H  41.71300 45.72500 34.59700
H  42.46300 46.82800 33.55000
H  43.04400 45.12700 33.72100

