158

Mg 42.38900 41.48500 26.92700
C  41.64400 43.93100 29.38300
C  43.38100 39.40100 29.42600
C  43.12700 39.23500 24.58300
C  41.73500 43.88400 24.44300
N  42.36400 41.72600 29.12300
C  41.94500 42.73200 29.95600
C  41.92700 42.32600 31.38000
C  42.70100 40.96600 31.36000
C  42.92000 40.69200 29.84300
C  44.02300 40.94900 32.24900
C  40.55200 42.19000 31.88200
C  40.36500 41.67000 33.33300
H  39.74600 42.60200 34.31200
N  43.27500 39.58200 26.96400
C  43.60400 38.88600 28.09400
C  44.17800 37.65800 27.68100
C  44.01400 37.48400 26.26100
C  43.41500 38.80200 25.88800
C  44.77100 36.61000 28.64000
C  44.39500 36.28300 25.44600
O  44.23100 36.24700 24.24300
C  44.93700 34.99200 26.17500
N  42.30300 41.53900 24.84700
C  42.67000 40.51200 24.11400
C  42.61800 40.79800 22.58500
C  41.87800 42.20000 22.55700
C  42.00900 42.64200 24.02700
C  44.00900 40.91900 21.78400
C  40.44600 42.10300 21.95000
C  39.36500 41.73700 22.95800
N  41.76600 43.45800 26.86500
C  41.58900 44.34300 25.79500
C  41.33800 45.70000 26.35700
C  41.27800 45.45700 27.64200
C  41.56700 44.19000 27.98300
C  41.15700 46.95500 25.55400
C  40.99200 46.24800 28.85100
O  40.62900 47.42200 28.91000
C  41.04900 45.20800 30.03700
C  41.90100 45.79200 31.08900
O  43.14000 46.01900 31.00800
O  41.18400 45.90800 32.26900
C  41.99700 46.31600 33.42700
H  43.52200 38.77500 30.30900
H  43.16500 38.50800 23.77000
H  41.53700 44.58300 23.62800
H  42.49600 42.99800 32.02200
H  42.06800 40.20000 31.80600
H  43.77400 40.72800 33.28700
H  44.45400 41.94800 32.31600
H  44.87200 40.29600 32.04700
H  40.12400 41.51700 31.13900
H  40.13500 43.19400 31.80500
H  41.24600 41.16500 33.72900
H  39.64100 40.87300 33.16500
H  45.76800 36.24400 28.39300
H  44.00800 35.83200 28.67900
H  44.74200 36.99500 29.65900
H  45.94200 35.15200 26.56700
H  44.88900 34.19200 25.43600
H  44.29300 34.68100 26.99800
H  41.96400 40.07800 22.09400
H  42.50600 42.89600 21.99900
H  44.42800 41.85300 22.16000
H  43.89300 40.82000 20.70500
H  44.66600 40.11500 22.11500
H  40.48100 41.34900 21.16300
H  40.32000 43.10400 21.53600
H  39.84900 41.53700 23.91400
H  38.82300 40.85700 22.61200
H  38.72600 42.62000 22.96600
H  41.52600 46.87100 24.53200
H  41.82000 47.65600 26.06000
H  40.14600 47.35400 25.64300
H  40.03000 45.06000 30.39400
H  42.37200 47.30700 33.17400
H  42.80400 45.65200 33.74000
H  41.24300 46.64900 34.13900
Mg 36.22500 49.52700 25.16700
C  36.38200 47.69400 28.11400
C  35.19800 52.21400 26.87600
C  35.96800 51.12700 22.17900
C  37.78700 46.86700 23.55100
N  35.71900 49.77400 27.21500
C  35.97000 48.99200 28.32800
C  35.80200 49.69000 29.59100
C  35.43600 51.14900 29.18500
C  35.49900 51.08500 27.65300
C  34.05600 51.60600 29.79700
C  37.08300 49.55000 30.48100
C  36.84000 48.94200 31.86900
H  35.46700 49.01800 32.52600
N  35.58200 51.39800 24.60600
C  35.23100 52.42600 25.47500
C  34.75700 53.56700 24.73200
C  35.03600 53.26900 23.33700
C  35.57900 51.86900 23.33500
C  34.08500 54.81400 25.31800
C  34.79800 54.19200 22.10500
O  35.15500 53.78000 20.99900
C  34.13000 55.47300 22.26900
N  36.64200 48.99700 23.12400
C  36.53500 49.85700 22.06600
C  36.94400 49.22200 20.69800
C  37.82800 48.06200 21.29600
C  37.48500 47.97500 22.77200
C  35.72700 48.82600 19.87400
C  39.37400 48.09200 20.98700
C  40.41400 48.57500 22.02000
N  36.85200 47.66600 25.62000
C  37.48400 46.69800 24.87100
C  37.73100 45.53800 25.69500
C  37.24400 45.81400 26.94200
C  36.73300 47.17200 26.88600
C  38.39100 44.29800 25.26200
C  37.08900 45.28600 28.28500
O  37.34800 44.22500 28.79400
C  36.54800 46.53300 29.07800
C  35.27200 46.18100 29.79200
O  34.11600 46.34900 29.36900
O  35.50800 45.54700 30.94400
C  34.43900 45.13800 31.77100
H  35.06200 53.16300 27.40000
H  35.87100 51.58300 21.19100
H  38.49200 46.26800 22.96900
H  34.92500 49.25800 30.07200
H  36.13600 51.90500 29.54300
H  33.32200 51.49000 29.00000
H  34.00100 52.65200 30.10000
H  33.80200 50.94500 30.62500
H  37.59600 50.50800 30.55800
H  37.76400 48.91200 29.91800
H  37.54700 49.51600 32.46800
H  37.17000 47.90700 31.78500
H  33.05900 55.06500 25.04600
H  34.68700 55.69100 25.08300
H  34.16000 54.71400 26.40100
H  34.94200 56.18200 22.43000
H  33.41200 55.51700 23.08800
H  33.66800 55.75900 21.32400
H  37.64700 49.83100 20.12900
H  37.49400 47.09300 20.92400
H  34.85500 49.18000 20.42300
H  35.55000 47.76500 19.69700
H  35.88700 49.29300 18.90200
H  39.51200 48.68900 20.08500
H  39.53400 47.03200 20.78900
H  41.23100 49.17900 21.62400
H  40.85500 47.67200 22.44300
H  39.83200 49.13200 22.75400
H  39.11900 44.45700 24.46700
H  37.59700 43.59800 25.00300
H  38.86800 43.98100 26.18900
H  37.26000 46.87600 29.82900
H  34.08600 44.12800 31.56200
H  33.65600 45.89600 31.73200
H  34.78300 44.95500 32.78900

