158

Mg 53.53400 24.66900 44.89500
C  50.88100 26.72500 43.85000
C  51.62900 21.94900 43.90300
C  56.32500 22.82500 45.00100
C  55.26400 27.60200 45.90700
N  51.60600 24.34400 43.89500
C  50.79200 25.37700 43.43800
C  49.64800 24.82700 42.61500
C  49.60000 23.32400 43.16800
C  51.02000 23.16700 43.83700
C  48.49700 23.04000 44.17800
C  50.00200 24.90000 41.14100
C  48.75100 25.07400 40.24300
H  49.14100 25.84900 38.92400
N  53.94100 22.67200 44.26700
C  52.99600 21.66900 44.10000
C  53.66100 20.43100 44.01200
C  55.02500 20.62100 44.31100
C  55.19400 22.13600 44.48600
C  52.92300 19.13800 43.66000
C  56.05300 19.51700 44.48200
O  55.73900 18.35600 44.21600
C  57.46700 19.83900 44.83400
N  55.52500 25.15500 45.47400
C  56.50100 24.20000 45.40300
C  57.86900 24.86700 45.80800
C  57.64400 26.37600 45.74400
C  56.06300 26.39900 45.72800
C  58.43800 24.35500 47.10500
C  58.27500 27.18500 44.49100
C  58.86200 28.56600 44.83600
N  53.00800 26.72100 45.13500
C  53.81300 27.75100 45.67300
C  53.08100 28.98400 45.58100
C  51.88700 28.61900 44.87200
C  52.00400 27.26000 44.51900
C  53.47300 30.31300 46.08700
C  50.62000 29.15000 44.32500
O  50.14300 30.23000 44.37000
C  50.00300 27.86500 43.50800
C  49.80400 28.26200 42.03600
O  50.71200 28.30300 41.25500
O  48.48900 28.64700 41.85400
C  48.23100 29.15100 40.49500
H  50.95300 21.09200 43.87100
H  57.26800 22.28700 45.12100
H  55.75600 28.56900 46.03000
H  48.64300 25.18400 42.84100
H  49.52100 22.59400 42.36400
H  47.95600 23.97300 44.33900
H  48.81100 22.73300 45.17600
H  47.83600 22.26100 43.79700
H  50.46900 23.95300 40.87100
H  50.74200 25.67600 40.94200
H  48.00600 25.62900 40.81400
H  48.23000 24.15200 39.98600
H  53.05200 18.89900 42.60400
H  51.84200 19.21800 43.77500
H  53.26400 18.21000 44.11900
H  58.17600 19.01300 44.77700
H  57.42900 20.13800 45.88100
H  57.98400 20.60100 44.24900
H  58.62600 24.63700 45.05800
H  58.02700 26.94100 46.59400
H  58.84200 25.23600 47.60400
H  59.13900 23.55500 46.86700
H  57.68000 23.81300 47.67100
H  57.48100 27.35600 43.76400
H  59.07200 26.61800 44.01200
H  59.02500 28.79700 45.88800
H  58.16000 29.35400 44.56000
H  59.80900 28.55000 44.29500
H  54.00700 30.84900 45.30200
H  54.10700 30.30300 46.97300
H  52.55100 30.82200 46.36800
H  49.02600 27.62200 43.92600
H  48.91900 29.05000 39.65600
H  48.01600 30.20900 40.64000
H  47.28800 28.71200 40.16600
Mg 17.22700 52.41700 26.60700
C  19.14500 50.42800 28.88500
C  15.12900 53.25100 29.15700
C  15.39600 53.68700 24.39800
C  19.33700 50.90200 24.00100
N  17.08900 51.74300 28.73000
C  18.10000 51.19000 29.48300
C  17.83700 51.41200 31.00400
C  16.41000 51.95500 31.03900
C  16.18500 52.37600 29.54900
C  15.38900 50.84700 31.46700
C  18.89400 52.39000 31.62900
C  19.30200 52.00600 33.05600
H  18.20500 51.43200 33.97600
N  15.51200 53.46600 26.77900
C  14.77500 53.71700 27.89900
C  13.76300 54.65800 27.52400
C  13.83900 54.93500 26.14800
C  14.92000 54.01500 25.71500
C  12.80000 55.20300 28.54900
C  13.09400 55.89300 25.32700
O  13.21300 56.00900 24.07200
C  12.29300 56.96900 26.13400
N  17.33200 52.20400 24.54000
C  16.43800 52.93400 23.86800
C  16.79000 52.99300 22.36800
C  18.00600 52.06500 22.23100
C  18.27600 51.67700 23.67200
C  15.53200 52.84600 21.44600
C  19.24400 52.66900 21.47800
C  20.21200 53.62200 22.16200
N  18.96200 51.04200 26.42800
C  19.66900 50.51200 25.32900
C  20.67000 49.54900 25.77700
C  20.52000 49.59600 27.12800
C  19.46800 50.46500 27.49700
C  21.64600 48.81800 24.88100
C  21.08700 49.04300 28.32400
O  21.96700 48.19300 28.47000
C  20.30500 49.68100 29.50900
C  19.89300 48.62000 30.47100
O  19.03700 47.77300 30.33900
O  20.49200 48.92100 31.68500
C  20.27300 48.09800 32.93200
H  14.45500 53.45500 29.99200
H  14.68300 54.19500 23.74600
H  19.90100 50.44700 23.18400
H  17.78300 50.45700 31.52700
H  16.28400 52.78200 31.73800
H  14.93300 50.40800 30.57900
H  14.55300 51.26400 32.02900
H  15.91000 50.10800 32.07500
H  18.54500 53.42300 31.64200
H  19.77700 52.37500 30.99000
H  19.75400 52.81700 33.62800
H  20.03500 51.20000 33.02600
H  11.76200 54.93400 28.35200
H  12.81400 56.29300 28.56100
H  13.01700 54.89700 29.57200
H  13.10700 57.37100 26.73700
H  11.40100 56.51500 26.56400
H  11.93900 57.76900 25.48400
H  17.13400 53.97400 22.03900
H  17.66600 51.22200 21.62900
H  14.75500 52.35700 22.03400
H  15.75600 52.11000 20.67400
H  15.16600 53.79800 21.06100
H  18.87500 53.09500 20.54400
H  19.83300 51.82800 21.11300
H  21.10500 52.99800 22.16400
H  19.75400 53.90100 23.11100
H  20.23500 54.42400 21.42500
H  22.55000 49.36900 24.62400
H  21.11100 48.57000 23.96500
H  21.93500 47.89100 25.37700
H  20.93500 50.43200 29.98400
H  20.92900 48.30500 33.77700
H  20.31900 47.03000 32.71700
H  19.23700 48.29100 33.21000

