158

Mg 42.32100 41.18700 25.89700
C  41.66900 43.74100 28.38600
C  42.99900 38.92900 28.43500
C  42.97400 39.05700 23.53800
C  41.89500 43.75900 23.58100
N  42.49000 41.43000 28.14500
C  41.96700 42.42600 28.95400
C  41.80800 41.98500 30.43400
C  42.25300 40.51400 30.37700
C  42.54400 40.20600 28.88400
C  43.32000 40.06300 31.34400
C  40.38300 42.32100 31.15000
C  39.98300 41.62500 32.44700
H  39.45600 42.43700 33.62000
N  43.00500 39.28000 25.99700
C  43.19000 38.52900 27.11700
C  43.67700 37.24300 26.75400
C  43.60600 37.16800 25.33800
C  43.24100 38.54600 24.87400
C  44.10100 36.22600 27.74800
C  43.79800 36.02500 24.35300
O  43.48900 36.18300 23.19200
C  44.19200 34.66800 24.79800
N  42.61700 41.46600 23.83800
C  42.69900 40.38100 23.10300
C  42.54200 40.75400 21.64600
C  42.03400 42.24300 21.71800
C  42.28700 42.52100 23.13400
C  43.88200 40.57800 20.85400
C  40.50900 42.39000 21.38700
C  39.55300 41.67400 22.37100
N  41.93300 43.32900 25.86300
C  41.90700 44.23300 24.88700
C  41.73100 45.52900 25.33800
C  41.54700 45.41200 26.74000
C  41.68700 44.04600 26.99600
C  41.55500 46.70300 24.52800
C  41.22200 46.14800 27.96500
O  41.04800 47.31500 28.20400
C  41.21100 45.03300 29.09600
C  42.07600 45.42900 30.19100
O  43.28000 45.68600 30.04100
O  41.40100 45.55600 31.35800
C  42.31500 45.74200 32.48300
H  42.94200 38.13900 29.18600
H  42.98900 38.31500 22.73700
H  41.63100 44.44300 22.77200
H  42.53900 42.53500 31.02700
H  41.44600 39.82400 30.62200
H  44.28800 39.92400 30.86200
H  43.04900 39.08300 31.73500
H  43.30300 40.71500 32.21700
H  39.72400 42.23900 30.28500
H  40.51600 43.36100 31.44900
H  40.61400 40.81700 32.81500
H  39.10900 41.02600 32.18900
H  43.30000 35.57000 28.08900
H  44.39200 36.61700 28.72200
H  44.90800 35.58000 27.40400
H  43.48500 34.26400 25.52300
H  45.22400 34.69700 25.14800
H  44.35400 33.98500 23.96400
H  41.78300 40.22600 21.07000
H  42.64200 42.94800 21.15100
H  44.54700 39.89700 21.38500
H  44.41900 41.52200 20.76300
H  43.76300 40.45500 19.77800
H  40.30100 41.95700 20.40800
H  40.26600 43.44500 21.51000
H  40.05000 41.58300 23.33700
H  39.25200 40.70800 21.96500
H  38.71300 42.35100 22.53000
H  42.18500 47.53500 24.84500
H  40.54500 47.08400 24.68000
H  41.64800 46.65100 23.44300
H  40.21700 44.88900 29.52000
H  42.89000 46.66700 32.49800
H  42.92900 44.84600 32.57500
H  41.75900 45.78400 33.41900
Mg 31.26200 58.72600 39.81200
C  28.17600 57.00500 38.93100
C  32.93200 56.03400 38.61300
C  33.96000 60.64900 39.82000
C  29.26700 61.43800 40.64200
N  30.59200 56.80600 38.89300
C  29.35200 56.26100 38.62700
C  29.52700 54.91100 38.08700
C  30.99700 54.55600 38.26800
C  31.54500 55.86800 38.58100
C  31.36000 53.56100 39.42500
C  29.15600 54.81300 36.60500
C  28.09000 53.72400 36.19700
H  27.25000 54.18600 34.95900
N  33.23200 58.38000 39.37400
C  33.74700 57.19000 38.87100
C  35.13500 57.31200 38.66100
C  35.48300 58.63500 39.01500
C  34.22200 59.31500 39.41900
C  35.99600 56.23300 38.05100
C  36.90200 59.17600 38.83900
O  37.85900 58.47500 38.55100
C  37.21100 60.64700 38.91400
N  31.53400 60.79600 40.08500
C  32.78100 61.33200 40.23300
C  32.72400 62.72200 40.84600
C  31.17700 62.96600 41.00700
C  30.57600 61.62800 40.49700
C  33.68600 62.89800 42.07400
C  30.65200 64.28800 40.16400
C  29.87800 65.31100 41.04000
N  29.14800 59.18300 39.92900
C  28.49200 60.25800 40.31400
C  27.07900 60.08700 40.26400
C  26.95200 58.84600 39.76000
C  28.20300 58.28400 39.54400
C  26.06800 61.10800 40.61300
C  25.89800 57.85400 39.42700
O  24.68900 57.87800 39.43900
C  26.69200 56.59800 38.80400
C  26.30200 55.37300 39.60500
O  26.95800 54.96300 40.52800
O  25.20600 54.68300 38.99900
C  25.04900 53.38400 39.63700
H  33.52900 55.16200 38.34000
H  34.85100 61.27900 39.83000
H  28.62700 62.27800 40.91900
H  29.03500 54.12700 38.66300
H  31.45500 54.20800 37.34200
H  32.04500 54.06400 40.10700
H  31.80700 52.63000 39.07600
H  30.45400 53.29000 39.96800
H  30.03400 54.61400 35.99100
H  28.79400 55.78400 36.26800
H  27.42600 53.65100 37.05900
H  28.60600 52.79200 35.97000
H  36.18100 56.43400 36.99600
H  35.59400 55.23000 38.19900
H  36.86500 56.22700 38.70900
H  36.42400 61.24700 38.45600
H  38.09100 60.97900 38.36200
H  37.23500 60.72200 40.00100
H  33.14000 63.44600 40.14500
H  31.08900 63.03000 42.09100
H  33.25300 63.60900 42.77800
H  34.70400 63.20600 41.83700
H  33.71300 61.92500 42.56500
H  30.00800 63.85700 39.39900
H  31.48000 64.76600 39.63900
H  30.38400 66.25700 40.84300
H  29.88300 65.04400 42.09700
H  28.85000 65.39000 40.68800
H  26.15300 61.89100 39.85900
H  26.08300 61.43400 41.65300
H  25.10600 60.63500 40.41800
H  26.45800 56.43900 37.75200
H  25.86100 52.72000 39.34000
H  24.02000 53.06800 39.46300
H  25.20500 53.60400 40.69300

