158

Mg 1.54800 -0.88400 44.44100
C  4.72200 0.46400 43.75400
C  0.11900 1.85200 43.09200
C  -1.36600 -2.67900 44.24600
C  3.16700 -3.90000 45.31800
N  2.37000 0.89800 43.37600
C  3.69500 1.27300 43.27500
C  3.89700 2.58500 42.50800
C  2.39900 3.18200 42.71200
C  1.54700 1.91900 43.10000
C  2.25800 4.26300 43.76600
C  4.28300 2.38600 40.96500
C  5.22200 3.52600 40.48600
H  4.81100 4.33800 39.19800
N  -0.31800 -0.46100 43.81900
C  -0.71400 0.75400 43.28200
C  -2.10900 0.77600 43.01700
C  -2.58700 -0.50300 43.36500
C  -1.40700 -1.30200 43.87000
C  -2.84000 1.97900 42.42700
C  -4.07700 -0.84600 43.41400
O  -4.93700 0.01000 43.23100
C  -4.53000 -2.20700 43.72300
N  0.96600 -3.09000 44.84900
C  -0.27100 -3.43800 44.78700
C  -0.46300 -4.83200 45.28500
C  0.96200 -5.23300 45.70100
C  1.79000 -4.04500 45.24600
C  -1.52300 -4.92200 46.46400
C  1.46700 -6.61800 45.00000
C  2.38800 -7.46800 45.85600
N  3.51000 -1.55900 44.70200
C  3.99200 -2.82700 44.96200
C  5.48000 -2.82000 44.94500
C  5.78800 -1.49200 44.55900
C  4.54800 -0.79100 44.35300
C  6.38100 -4.01800 45.43800
C  6.86100 -0.59900 44.24600
O  8.05300 -0.79600 44.34100
C  6.20800 0.74100 43.60300
C  6.70400 1.93600 44.29200
O  6.26500 2.44500 45.32000
O  7.72000 2.50500 43.62000
C  8.16700 3.83200 44.08500
H  -0.51300 2.63200 42.66100
H  -2.31400 -3.22100 44.25800
H  3.67000 -4.77900 45.72700
H  4.56600 3.28700 43.00600
H  1.97400 3.54700 41.77700
H  3.05300 5.00300 43.67200
H  2.08400 3.80000 44.73800
H  1.29300 4.73300 43.57700
H  3.42300 2.57200 40.32200
H  4.74300 1.40800 40.82500
H  6.23000 3.11700 40.41800
H  5.45000 4.16700 41.33800
H  -2.76800 1.99500 41.34000
H  -2.50300 2.92600 42.84700
H  -3.86900 2.08600 42.77200
H  -5.59200 -2.21100 43.47800
H  -4.29300 -2.52800 44.73700
H  -3.95100 -2.74800 42.97400
H  -0.72100 -5.31300 44.34200
H  1.00900 -5.44400 46.76900
H  -2.25500 -5.61500 46.05200
H  -1.92200 -3.92600 46.65600
H  -1.02700 -5.24300 47.38000
H  2.01000 -6.27500 44.11900
H  0.60500 -7.22000 44.71500
H  3.44100 -7.47100 45.57700
H  2.15000 -8.53200 45.84600
H  2.35700 -7.27300 46.92800
H  6.89200 -4.50800 44.61000
H  5.78100 -4.70500 46.03600
H  7.14100 -3.65100 46.12800
H  6.57000 0.90800 42.58900
H  9.15700 4.07500 43.69900
H  8.39100 3.65500 45.13700
H  7.42700 4.58200 43.80600
Mg 6.22700 53.65500 41.05200
C  5.48600 50.13600 40.83300
C  9.31200 52.86100 39.77100
C  6.67000 56.91300 40.60700
C  2.84200 54.26600 41.71100
N  7.22000 51.67600 40.18100
C  6.78600 50.39900 40.25900
C  7.94800 49.50500 39.90400
C  9.25400 50.37700 39.90800
C  8.56500 51.72700 39.77800
C  10.21600 50.20700 41.14200
C  7.69500 48.75900 38.47200
C  6.68000 49.25400 37.46600
H  7.08300 49.76900 36.07800
N  7.86000 54.75900 40.46900
C  9.05800 54.20500 40.07300
C  9.90000 55.35600 39.88900
C  9.20100 56.61000 40.14300
C  7.84200 56.18700 40.38300
C  11.40600 55.13400 39.56600
C  9.89600 57.95400 40.25100
O  11.13100 58.09900 40.09900
C  9.11900 59.16900 40.55500
N  4.95700 55.37600 41.06700
C  5.40000 56.57100 41.03600
C  4.39300 57.70500 41.37800
C  3.14300 56.78600 41.60500
C  3.69300 55.35100 41.52600
C  4.96700 58.69100 42.51200
C  1.85400 57.18300 40.77000
C  1.67000 56.50400 39.37200
N  4.51900 52.48900 41.32400
C  3.22200 52.88900 41.59300
C  2.44800 51.67700 41.91400
C  3.33800 50.60400 41.66000
C  4.52400 51.13300 41.20000
C  0.97800 51.58200 42.41300
C  3.44300 49.13000 41.76800
O  2.66300 48.32500 42.24100
C  4.82400 48.74600 41.14700
C  4.59300 47.97000 39.92200
O  3.93700 48.28700 38.95100
O  5.28100 46.83400 40.09100
C  5.06900 45.72200 39.17600
H  10.29000 52.71500 39.30600
H  6.75300 57.97200 40.35400
H  1.79800 54.43900 41.98300
H  8.10200 48.68400 40.60400
H  9.78600 50.27300 38.96200
H  10.26300 50.97300 41.91600
H  11.22800 50.07200 40.76200
H  9.99000 49.31600 41.72800
H  7.41100 47.73100 38.69700
H  8.65300 48.77900 37.95200
H  6.14000 50.03800 37.99700
H  6.02400 48.41300 37.24100
H  11.76400 55.48300 38.59800
H  11.75400 54.11900 39.76100
H  12.00200 55.71900 40.26600
H  9.84300 59.98300 40.60400
H  8.57300 59.12700 41.49700
H  8.52600 59.35200 39.65900
H  4.19700 58.35700 40.52700
H  2.89700 56.80000 42.66600
H  4.21500 58.80300 43.29300
H  5.12400 59.66900 42.05500
H  5.87700 58.30200 42.96800
H  1.73800 58.25800 40.63200
H  1.10200 57.01100 41.54000
H  2.55700 55.97600 39.02100
H  1.37900 57.17900 38.56700
H  0.80500 55.84600 39.44200
H  0.79200 52.40600 43.10100
H  0.74900 50.61400 42.86000
H  0.37500 51.81100 41.53500
H  5.34200 48.12200 41.87600
H  5.58100 46.02100 38.26100
H  4.00200 45.54000 39.04400
H  5.66700 44.89500 39.55700

