158

Mg 29.60800 57.54500 41.01900
C  26.65400 55.71100 39.91500
C  31.45100 55.16800 39.58400
C  32.00400 59.65200 41.38300
C  27.20100 60.12100 41.97900
N  29.03400 55.76400 39.70900
C  27.78100 55.19800 39.41700
C  28.00400 53.87200 38.67100
C  29.52700 53.57700 38.89900
C  30.03400 54.90800 39.41600
C  29.83700 52.37100 39.91500
C  27.59600 53.68400 37.13100
C  27.13800 54.95600 36.38900
H  27.50300 55.08700 34.86200
N  31.49600 57.45200 40.52300
C  32.12100 56.33900 40.00700
C  33.48800 56.72800 39.76100
C  33.72500 58.04100 40.35800
C  32.38900 58.44200 40.86100
C  34.44000 55.84900 39.01400
C  35.03300 58.77100 40.43600
O  36.01500 58.17700 40.03200
C  35.22500 60.19800 40.99200
N  29.54700 59.54500 41.61900
C  30.73400 60.22300 41.73400
C  30.55400 61.72100 41.86000
C  29.15600 61.77600 42.33100
C  28.57500 60.40800 42.03700
C  31.69000 62.39900 42.75900
C  28.32500 63.03100 41.81800
C  28.37400 64.12000 42.89700
N  27.42100 57.83700 41.16700
C  26.60800 58.92200 41.61600
C  25.15300 58.62800 41.50000
C  25.21200 57.36400 40.86800
C  26.58500 56.94800 40.69500
C  23.97900 59.37300 41.81600
C  24.28400 56.32400 40.37400
O  23.07600 56.14600 40.51800
C  25.20300 55.23800 39.75500
C  24.78400 53.95100 40.43400
O  24.79500 53.73000 41.64800
O  24.38200 53.18000 39.41900
C  24.14300 51.75700 39.58300
H  32.12900 54.37900 39.25200
H  32.72600 60.45400 41.21700
H  26.54000 60.94400 42.26100
H  27.54500 53.05100 39.22200
H  30.11200 53.39400 37.99800
H  28.94600 51.75700 40.04900
H  30.26100 52.86700 40.78800
H  30.65700 51.80800 39.47000
H  26.63700 53.16700 37.16800
H  28.34000 53.12300 36.56600
H  27.66300 55.77400 36.88200
H  26.06200 54.99600 36.55700
H  35.13000 55.62100 39.82600
H  34.95300 56.42300 38.24200
H  34.15600 54.87300 38.62000
H  34.88000 60.82800 40.17200
H  36.28000 60.39900 41.18200
H  34.73800 60.37900 41.95000
H  30.54300 62.22800 40.89500
H  29.06400 61.62300 43.40700
H  32.07900 61.68600 43.48500
H  31.30100 63.24700 43.32200
H  32.43300 62.91000 42.14500
H  27.26000 62.85600 41.66700
H  28.70100 63.49700 40.90700
H  27.37400 64.07600 43.32900
H  28.78000 65.07000 42.55100
H  29.09000 63.91700 43.69400
H  23.95100 60.34100 41.31500
H  24.10300 59.55700 42.88300
H  23.05500 58.86100 41.54600
H  24.93700 55.13300 38.70300
H  24.42200 51.17000 38.70800
H  23.05400 51.72600 39.56800
H  24.58800 51.37800 40.50400
Mg -10.97100 37.85200 41.42700
C  -8.65400 35.19600 41.27900
C  -8.50500 39.85500 39.96300
C  -13.19600 40.16500 41.12600
C  -13.39900 35.40500 42.40400
N  -8.80100 37.57000 40.60100
C  -8.13200 36.37500 40.71200
C  -7.00100 36.47900 39.70400
C  -6.73800 38.01200 39.67600
C  -8.07500 38.54400 40.15700
C  -5.43000 38.39000 40.47100
C  -7.13000 35.76900 38.40600
C  -6.05700 34.80100 37.86800
H  -5.33800 35.32500 36.56900
N  -10.84100 39.79900 40.80800
C  -9.76200 40.48300 40.22100
C  -10.15600 41.88900 40.04800
C  -11.56200 41.94800 40.28300
C  -11.92900 40.57700 40.77600
C  -9.20400 43.02200 39.65000
C  -12.51500 43.16000 40.12100
O  -11.97200 44.12800 39.69100
C  -14.04100 43.20000 40.18000
N  -13.07800 37.77300 41.81300
C  -13.74900 38.92200 41.60000
C  -15.28000 38.60600 41.62900
C  -15.29000 37.09600 41.97000
C  -13.85900 36.71600 42.08100
C  -16.10200 39.58400 42.54500
C  -16.02100 36.06700 41.13200
C  -17.08100 35.29200 41.90100
N  -11.07700 35.73600 41.82300
C  -12.06800 34.94200 42.35000
C  -11.61400 33.64800 42.56800
C  -10.25900 33.66700 42.10600
C  -9.96500 35.01700 41.73600
C  -12.42200 32.48700 43.12700
C  -9.11400 32.89100 41.93700
O  -8.86000 31.75100 42.21800
C  -8.09500 33.79000 41.20600
C  -6.75700 33.65600 41.83900
O  -5.88000 32.95200 41.36000
O  -6.82100 34.13500 43.15000
C  -5.62200 34.00000 44.00100
H  -7.69000 40.45300 39.54900
H  -13.99700 40.88900 40.95800
H  -14.16000 34.69000 42.72300
H  -6.19900 35.97600 40.24400
H  -6.63100 38.39600 38.66100
H  -4.65600 37.62300 40.47000
H  -5.69900 38.58300 41.51000
H  -5.07800 39.28200 39.95400
H  -7.30900 36.53300 37.65000
H  -8.05600 35.19500 38.41800
H  -6.55100 33.85700 37.63600
H  -5.30100 34.67400 38.64200
H  -8.19600 42.65900 39.45100
H  -9.32900 43.90800 40.27300
H  -9.43700 43.47500 38.68700
H  -14.21700 44.17600 39.72600
H  -14.47100 43.14200 41.18000
H  -14.47700 42.43800 39.53400
H  -15.62000 38.75600 40.60400
H  -15.70000 36.97500 42.97300
H  -16.44200 40.39100 41.89600
H  -15.44800 39.89300 43.36000
H  -16.95900 38.96700 42.81800
H  -15.51500 35.28300 40.56900
H  -16.60100 36.58600 40.36900
H  -18.02200 35.39600 41.36100
H  -17.18400 35.60400 42.94000
H  -16.84600 34.22800 41.89200
H  -13.43400 32.55200 42.72700
H  -12.27800 32.43800 44.20600
H  -11.99300 31.55600 42.75600
H  -8.03600 33.45800 40.16900
H  -5.26800 35.03000 44.03800
H  -4.78800 33.38700 43.65800
H  -5.93100 33.71100 45.00600

