158

Mg 9.17100 4.86800 27.73000
C  10.62900 3.28000 30.49100
C  7.11100 6.62000 29.88600
C  7.74600 6.13200 25.03500
C  10.89300 2.63400 25.68800
N  8.80600 4.85500 29.95100
C  9.58000 4.21000 30.85100
C  9.06900 4.50900 32.27900
C  7.86900 5.52000 32.03800
C  7.91500 5.70500 30.54000
C  6.50300 5.22200 32.48200
C  10.24100 5.04400 33.12000
C  10.02200 6.02800 34.28600
H  10.87600 5.76300 35.52000
N  7.62200 6.07300 27.47300
C  6.89800 6.70600 28.43500
C  5.94300 7.62000 27.84200
C  6.18600 7.56800 26.44500
C  7.26200 6.57100 26.29500
C  4.96600 8.45800 28.52800
C  5.56300 8.27000 25.28700
O  6.03400 8.24700 24.20100
C  4.29600 9.01900 25.46500
N  9.27100 4.46300 25.60000
C  8.54000 5.05500 24.72100
C  9.03500 4.75600 23.26800
C  10.00800 3.58700 23.44600
C  10.07000 3.49200 25.01300
C  7.79200 4.50200 22.34200
C  11.36300 3.74400 22.72600
C  11.95800 2.53900 22.11200
N  10.52600 3.24900 27.95100
C  11.10400 2.42900 27.07200
C  11.93000 1.41600 27.76200
C  11.74400 1.71600 29.13600
C  10.96700 2.86100 29.16700
C  12.68200 0.27400 27.08800
C  12.09700 1.39400 30.48100
O  12.92400 0.54400 30.81000
C  11.47400 2.42000 31.44100
C  10.67200 1.54200 32.29800
O  9.64500 0.96800 32.03400
O  11.19200 1.43700 33.56600
C  10.33200 1.01900 34.65700
H  6.50400 7.26100 30.53000
H  7.58800 6.80100 24.18600
H  11.30700 1.90500 24.98700
H  8.83200 3.52500 32.68200
H  8.06800 6.51700 32.43000
H  6.07100 4.66700 31.64900
H  5.98900 6.18200 32.54000
H  6.55100 4.66300 33.41600
H  10.92900 5.60200 32.48500
H  10.64000 4.11800 33.53400
H  8.97000 5.84500 34.50600
H  10.21700 7.03500 33.91800
H  3.95400 8.22100 28.20000
H  5.34500 9.46300 28.33700
H  4.87900 8.22500 29.59000
H  3.93000 9.42300 24.52200
H  4.46700 9.87800 26.11400
H  3.59300 8.30400 25.89300
H  9.53500 5.65900 22.91700
H  9.55200 2.64600 23.13700
H  6.82600 4.41700 22.84000
H  7.94800 3.46800 22.03600
H  7.72000 5.28200 21.58400
H  12.02000 4.05000 23.54100
H  11.25300 4.52200 21.97100
H  11.72300 2.63600 21.05200
H  11.42300 1.64000 22.41700
H  13.03300 2.43700 22.25900
H  11.98400 -0.55800 26.99700
H  13.50400 -0.15900 27.65900
H  12.93100 0.51700 26.05500
H  12.18200 3.02600 32.00600
H  10.14900 1.95100 35.19400
H  10.85700 0.33700 35.32600
H  9.40100 0.58800 34.29100
Mg 4.96700 54.84500 40.38900
C  4.47700 51.47200 41.05100
C  7.69200 54.21000 38.55500
C  4.76100 57.99600 39.24100
C  1.67600 55.34800 41.75200
N  5.85400 53.00800 39.70700
C  5.60800 51.73900 40.25100
C  6.58600 50.73100 39.70500
C  7.84100 51.69700 39.36600
C  7.09600 53.03700 39.19000
C  8.93100 51.70000 40.46900
C  6.13700 49.86400 38.49000
C  4.83000 50.20300 37.74100
H  4.94500 49.76500 36.25800
N  6.11700 56.04400 39.08000
C  7.21200 55.56100 38.45600
C  7.82100 56.68800 37.81300
C  7.03700 57.78000 38.00100
C  5.92100 57.34200 38.80100
C  9.16800 56.52700 37.07700
C  7.35400 59.15200 37.40700
O  8.21000 59.35500 36.50000
C  6.69700 60.35900 37.94800
N  3.32500 56.35100 40.36500
C  3.61300 57.56100 39.87500
C  2.49100 58.57500 40.21100
C  1.37600 57.73600 40.74800
C  2.14700 56.40700 40.94600
C  2.90400 59.75600 41.09900
C  0.12600 57.62200 39.74900
C  -1.27600 58.04300 40.40600
N  3.46600 53.73900 41.44400
C  2.26900 54.06500 41.99300
C  1.78000 52.95900 42.81000
C  2.73600 51.94600 42.52100
C  3.64100 52.42700 41.64200
C  0.47000 52.93900 43.74600
C  3.02100 50.52900 42.81900
O  2.59100 49.75400 43.56600
C  4.14900 50.19500 41.76800
C  3.58100 49.13100 40.89200
O  2.62100 49.34100 40.13200
O  4.32200 47.95400 41.03700
C  3.87400 46.72700 40.34400
H  8.70900 54.01800 38.20600
H  4.61000 59.01600 38.88300
H  0.71100 55.51700 42.23300
H  6.72900 50.10200 40.58400
H  8.25600 51.26400 38.45500
H  8.76700 50.86500 41.15000
H  8.93400 52.64800 41.00500
H  9.90300 51.64100 39.97900
H  5.92000 48.91400 38.97800
H  6.94000 49.63600 37.79000
H  4.68000 51.28000 37.80600
H  3.99900 49.61200 38.12800
H  9.80300 57.38700 36.86300
H  9.17300 55.94700 36.15500
H  9.74100 55.94100 37.79600
H  7.29700 61.24100 37.72100
H  6.46100 60.27500 39.00900
H  5.80600 60.40100 37.32200
H  2.20200 59.04200 39.27000
H  0.99500 58.13000 41.69000
H  2.30500 59.92300 41.99400
H  2.61000 60.69100 40.62100
H  3.98000 59.67200 41.25400
H  0.03700 56.61400 39.34200
H  0.20800 58.31100 38.90900
H  -1.15500 58.66700 41.29200
H  -1.74700 57.16500 40.84800
H  -1.90600 58.57500 39.69400
H  0.68800 52.69400 44.78500
H  -0.32100 52.30400 43.34800
H  -0.01800 53.91400 43.75900
H  5.00600 49.69600 42.22200
H  3.87500 45.86800 41.01500
H  4.55500 46.41200 39.55300
H  2.89500 46.77100 39.86600

