158

Mg -2.29200 17.03700 27.33700
C  -2.79900 15.21400 30.32200
C  -2.71100 20.03000 29.22800
C  -2.32700 18.99700 24.54600
C  -2.28800 14.18800 25.51200
N  -2.87900 17.53500 29.49300
C  -2.88300 16.63000 30.55700
C  -2.97900 17.41900 31.98600
C  -2.91900 18.94700 31.54000
C  -2.92400 18.85600 29.99500
C  -4.07700 19.85000 32.15500
C  -1.91300 17.02500 32.93400
C  -1.50100 18.02300 33.99500
H  -1.00000 17.44800 35.28800
N  -2.36600 19.29600 26.90100
C  -2.53700 20.25800 27.85600
C  -2.41900 21.57900 27.26200
C  -2.30400 21.33100 25.85400
C  -2.38100 19.81200 25.67800
C  -2.51100 22.88700 28.06200
C  -2.09300 22.23400 24.70300
O  -2.09700 21.85200 23.50000
C  -1.93100 23.68000 24.97500
N  -2.65600 16.72000 25.26600
C  -2.40400 17.60800 24.30600
C  -2.37200 16.92700 22.93100
C  -2.12800 15.46800 23.32100
C  -2.32800 15.45500 24.81400
C  -3.59800 17.22800 22.09000
C  -0.78700 14.82100 22.85100
C  0.45900 15.59700 23.29500
N  -2.44600 15.05400 27.77800
C  -2.42100 13.96800 26.94300
C  -2.64000 12.72200 27.63700
C  -2.75400 13.14200 28.97600
C  -2.67800 14.54400 29.02300
C  -2.83700 11.30300 27.11500
C  -2.95200 12.71900 30.33400
O  -3.08900 11.60100 30.80700
C  -2.81300 14.04400 31.31900
C  -1.69500 13.95600 32.21600
O  -0.59600 14.23100 31.83000
O  -1.90700 13.48900 33.47400
C  -0.68900 13.29800 34.28800
H  -2.80100 20.92200 29.85100
H  -2.07500 19.44600 23.58300
H  -2.18100 13.24800 24.96700
H  -3.97300 17.21200 32.38500
H  -1.95500 19.41300 31.74400
H  -3.56900 20.76600 32.45600
H  -4.66300 19.50300 33.00600
H  -4.74000 20.00900 31.30500
H  -0.98600 16.91200 32.37200
H  -2.17800 16.06200 33.36900
H  -2.27100 18.77800 34.15900
H  -0.67100 18.61900 33.61500
H  -3.18500 23.61400 27.60700
H  -1.50400 23.30300 28.03300
H  -2.75400 22.70600 29.10900
H  -1.03600 23.88600 25.56300
H  -2.80900 23.94300 25.56500
H  -1.99300 24.25100 24.04900
H  -1.53100 17.30700 22.35100
H  -2.87200 14.81800 22.86000
H  -4.40200 16.64000 22.53200
H  -3.38100 17.22700 21.02200
H  -4.06100 18.18800 22.31700
H  -0.75800 14.82100 21.76200
H  -0.72000 13.79500 23.21300
H  0.37500 16.48700 23.91900
H  1.05100 15.92000 22.43900
H  1.13900 14.93900 23.83600
H  -2.01400 10.67400 27.45400
H  -2.77900 11.35000 26.02700
H  -3.78800 10.86300 27.41300
H  -3.68600 14.13100 31.96600
H  -0.36500 12.30700 33.97100
H  -1.06000 13.38400 35.30900
H  0.16100 13.95900 34.11800
Mg 2.40000 -1.76600 45.61300
C  5.71400 -0.86800 44.93700
C  1.37400 0.84900 43.70300
C  -0.70400 -2.91500 45.98700
C  3.72200 -4.56700 47.20500
N  3.42000 -0.33700 44.13800
C  4.75300 -0.05900 44.22500
C  5.05500 1.24000 43.40800
C  3.65000 1.86100 43.33900
C  2.75500 0.71300 43.69600
C  3.47300 3.10600 44.17600
C  5.67400 0.82100 42.08100
C  6.58100 1.88000 41.50400
H  6.00800 2.60800 40.15200
N  0.59200 -1.10000 44.95700
C  0.41400 0.02900 44.27000
C  -1.01200 0.26900 44.12400
C  -1.71600 -0.90000 44.66600
C  -0.60200 -1.68700 45.28600
C  -1.65000 1.37900 43.41500
C  -3.18200 -1.26100 44.63800
O  -3.91900 -0.39300 44.20200
C  -3.83200 -2.41700 45.25900
N  1.67000 -3.61100 46.27700
C  0.34400 -3.80400 46.37300
C  0.11400 -5.14400 47.09400
C  1.43700 -5.41100 47.84000
C  2.36400 -4.50800 47.04300
C  -1.21000 -5.38200 47.98200
C  1.81300 -6.90900 47.83400
C  2.35600 -7.52900 49.07800
N  4.36300 -2.58800 45.96200
C  4.66900 -3.74200 46.64600
C  6.10300 -3.91300 46.62900
C  6.58500 -2.67800 46.08100
C  5.44800 -1.99600 45.62700
C  6.86500 -5.05300 47.28800
C  7.78400 -1.89000 45.83900
O  8.97600 -2.08700 46.05400
C  7.22100 -0.66400 45.01300
C  7.60800 0.63000 45.65100
O  7.38100 0.92300 46.78600
O  8.32700 1.38500 44.78800
C  8.90500 2.64700 45.19700
H  1.10900 1.86000 43.38600
H  -1.71900 -3.22200 46.24600
H  4.14400 -5.42700 47.73000
H  5.72500 1.92300 43.93000
H  3.46400 2.15100 42.30500
H  3.29200 4.00600 43.58700
H  4.26000 3.30400 44.90400
H  2.56600 3.04900 44.77700
H  4.85900 0.58100 41.39800
H  6.12800 -0.13800 42.33100
H  7.51200 1.37600 41.24600
H  6.85300 2.63600 42.24000
H  -2.68600 1.55400 43.70600
H  -1.57200 1.26400 42.33400
H  -1.07900 2.27500 43.66000
H  -3.35300 -3.24400 44.73500
H  -4.89400 -2.31000 45.03700
H  -3.75200 -2.55200 46.33800
H  -0.08400 -5.76500 46.22000
H  1.34400 -5.01500 48.85200
H  -0.89600 -5.59700 49.00400
H  -1.72400 -6.22700 47.52500
H  -1.87100 -4.51800 48.05200
H  2.56300 -6.89500 47.04300
H  0.90900 -7.40600 47.48300
H  3.43600 -7.53900 48.93100
H  2.10200 -8.58000 49.21500
H  2.09600 -6.96300 49.97200
H  7.07500 -5.84900 46.57300
H  6.35500 -5.60200 48.08000
H  7.74900 -4.60200 47.73800
H  7.65600 -0.73000 44.01600
H  9.84900 2.76300 44.66500
H  9.15100 2.72300 46.25700
H  8.14600 3.39100 44.95800

