158

Mg 8.62600 3.54200 27.53600
C  9.93000 2.02600 30.45600
C  6.81600 5.42300 29.49000
C  7.24200 4.59700 24.65600
C  10.04300 0.70500 25.72100
N  8.30000 3.56500 29.82300
C  9.07000 3.06500 30.75100
C  8.75400 3.70100 32.10400
C  7.50900 4.62700 31.76700
C  7.49400 4.57100 30.29600
C  6.15000 4.29700 32.46700
C  10.08900 4.20300 32.80600
C  10.53500 3.51300 34.13100
H  10.97600 4.39000 35.27500
N  7.34700 4.91600 27.15600
C  6.68600 5.59400 28.12900
C  5.92800 6.55500 27.47200
C  5.92300 6.33000 26.06700
C  6.84100 5.24400 25.89700
C  5.20700 7.68300 28.29600
C  5.27000 7.15000 24.92700
O  5.42100 6.87300 23.73700
C  4.35800 8.28200 25.22600
N  8.62400 2.78500 25.47600
C  8.00500 3.46100 24.49700
C  8.24200 2.76400 23.08900
C  9.07800 1.48800 23.44600
C  9.34700 1.69500 24.95300
C  6.82400 2.44100 22.51900
C  10.36500 1.28600 22.60000
C  10.55500 -0.14200 21.93700
N  9.75000 1.78200 27.92500
C  10.27100 0.71700 27.11300
C  11.08300 -0.14700 27.94300
C  10.98600 0.34100 29.18100
C  10.15000 1.46500 29.16500
C  11.89900 -1.25600 27.37700
C  11.48600 0.15500 30.53200
O  12.36800 -0.61300 30.92600
C  10.71100 1.09800 31.37000
C  9.78300 0.28800 32.21400
O  8.59800 0.05300 32.02800
O  10.48300 -0.15400 33.35900
C  9.56900 -0.48100 34.48200
H  6.18100 6.10700 30.05600
H  6.59000 4.97200 23.86500
H  10.50000 -0.08400 25.12000
H  8.42200 2.89000 32.75200
H  7.80600 5.67300 31.84800
H  6.01000 5.09800 33.19300
H  6.12800 3.29400 32.89100
H  5.25800 4.29100 31.84000
H  9.91400 5.27000 32.93700
H  10.92100 4.06800 32.11500
H  11.38600 2.88600 33.86600
H  9.77900 2.79800 34.45600
H  5.16200 8.64600 27.78700
H  5.89200 7.88800 29.11800
H  4.22400 7.28400 28.54800
H  4.29500 8.77400 24.25500
H  4.90400 9.02500 25.80800
H  3.35500 8.05800 25.58900
H  8.79400 3.48500 22.48600
H  8.49700 0.58000 23.28200
H  5.99100 2.57900 23.20800
H  6.87600 1.44800 22.07100
H  6.57600 3.13200 21.71300
H  11.25400 1.48200 23.19900
H  10.30900 1.85400 21.67100
H  9.69700 -0.77500 22.16200
H  11.34700 -0.62000 22.51300
H  10.84700 -0.12900 20.88700
H  11.29000 -1.89300 26.73700
H  12.20700 -1.91100 28.19200
H  12.75200 -0.86600 26.82100
H  11.38400 1.51100 32.12200
H  9.40800 0.47300 34.98500
H  9.88000 -1.30000 35.13200
H  8.60200 -0.87800 34.17400
Mg 46.93500 16.70400 27.85900
C  45.05500 15.99700 30.72900
C  49.08100 18.62100 29.97500
C  48.57400 17.88200 25.18100
C  44.43900 15.49500 26.00700
N  47.25000 17.07800 30.12100
C  46.27200 16.70600 30.99200
C  46.61600 17.20300 32.31300
C  47.74000 18.27700 32.12200
C  47.98600 18.13500 30.67900
C  47.45600 19.76500 32.61800
C  46.95800 15.97500 33.26600
C  46.38300 15.99200 34.73500
H  45.89200 17.34600 35.26700
N  48.72100 17.83600 27.60200
C  49.42800 18.49600 28.60500
C  50.61200 19.07000 27.97600
C  50.38600 19.08700 26.58100
C  49.22000 18.25800 26.39400
C  51.70600 19.61600 28.83800
C  51.23400 19.72300 25.45500
O  51.15600 19.51600 24.23100
C  52.35700 20.49800 25.89900
N  46.47600 16.70600 25.86300
C  47.36900 17.27500 24.95100
C  46.73100 17.06500 23.56700
C  45.38100 16.28600 23.76700
C  45.42700 16.15700 25.29100
C  46.62600 18.40800 22.72000
C  45.50800 14.90900 23.02900
C  46.24500 13.76000 23.72700
N  45.16600 15.87300 28.21200
C  44.23500 15.32100 27.37500
C  43.13000 14.69100 28.06000
C  43.37500 14.89700 29.37200
C  44.60800 15.62600 29.44600
C  41.90500 14.12400 27.39000
C  42.94700 14.69900 30.67000
O  41.97600 14.04600 31.04600
C  43.90900 15.49200 31.64100
C  43.08700 16.58300 32.36900
O  42.75400 17.69900 31.98600
O  42.83800 16.20100 33.73000
C  41.86300 17.06000 34.43400
H  49.61600 19.38800 30.53900
H  49.05200 18.20800 24.25400
H  43.64200 15.18300 25.32900
H  45.70600 17.62000 32.74400
H  48.62300 17.94100 32.66600
H  48.22500 20.04100 33.34000
H  46.50800 19.86200 33.14600
H  47.46200 20.49900 31.81200
H  48.04700 15.93500 33.28100
H  46.67500 15.09000 32.69600
H  47.06600 15.48400 35.41500
H  45.53700 15.30700 34.68300
H  51.72500 19.25000 29.86500
H  51.61500 20.70200 28.87500
H  52.66500 19.37100 28.38300
H  53.22300 20.01200 26.34800
H  51.97800 21.28100 26.55500
H  52.73300 21.03600 25.02900
H  47.42000 16.52300 22.92000
H  44.65100 16.95800 23.31700
H  46.45900 19.16800 23.48300
H  45.82900 18.38000 21.97700
H  47.51800 18.73600 22.18600
H  45.97000 15.06800 22.05500
H  44.48000 14.60500 22.83300
H  46.72200 14.10800 24.64300
H  47.02200 13.35800 23.07800
H  45.60200 12.93700 24.03900
H  41.92800 13.04100 27.26900
H  42.04400 14.49700 26.37500
H  40.92800 14.46900 27.73000
H  44.26600 14.76300 32.36900
H  41.36500 16.31100 35.05000
H  41.12000 17.55900 33.81100
H  42.29900 17.77400 35.13300

