158

Mg 17.68800 -2.35000 28.90500
C  16.05500 -0.64000 31.44000
C  19.64100 -3.84500 31.21600
C  19.37700 -3.61600 26.21100
C  16.04000 -0.12700 26.49800
N  17.75400 -2.32000 31.09100
C  16.98600 -1.54100 31.98600
C  17.34200 -1.85700 33.44000
C  18.50900 -2.86400 33.38300
C  18.75400 -2.98400 31.80200
C  19.72900 -2.46900 34.16200
C  16.04100 -2.36600 34.21500
C  15.68200 -1.52900 35.44900
H  16.82500 -0.77800 36.23900
N  19.02100 -3.75300 28.71200
C  19.78400 -4.24200 29.80500
C  20.71400 -5.23500 29.23900
C  20.54600 -5.22500 27.84100
C  19.63500 -4.10200 27.58400
C  21.77000 -5.88100 30.11000
C  21.17200 -6.20200 26.84300
O  20.91800 -6.10200 25.65500
C  22.00300 -7.38500 27.33400
N  17.81500 -1.90400 26.66600
C  18.57800 -2.62600 25.83300
C  18.30000 -2.19200 24.43200
C  17.14300 -1.11300 24.50700
C  16.97600 -1.03300 26.01700
C  19.54300 -1.84900 23.67600
C  15.83600 -1.33100 23.69800
C  15.47800 -0.10300 22.74500
N  16.34200 -0.72500 28.94600
C  15.74500 0.04800 27.89600
C  14.85700 0.93600 28.48500
C  14.91100 0.72600 29.91900
C  15.87200 -0.28600 30.09400
C  13.97700 1.83000 27.73400
C  14.42700 1.24700 31.14900
O  13.63900 2.13700 31.39500
C  15.30500 0.43800 32.19500
C  16.21300 1.41300 32.81100
O  17.20100 1.80600 32.27300
O  15.68100 1.86400 34.03400
C  16.27300 3.01100 34.70200
H  20.31900 -4.33000 31.92100
H  19.86100 -4.02800 25.32300
H  15.41500 0.48200 25.84200
H  17.63200 -0.86500 33.78600
H  18.22600 -3.84600 33.76200
H  19.42200 -1.63100 34.78800
H  20.67900 -2.34900 33.64200
H  19.97600 -3.26800 34.86200
H  16.25900 -3.35800 34.61000
H  15.14200 -2.35100 33.59900
H  15.36900 -2.27200 36.18300
H  14.84100 -0.89000 35.18100
H  22.36100 -5.18300 30.70300
H  22.62400 -6.31600 29.59000
H  21.36900 -6.68000 30.73400
H  21.33400 -7.77900 28.09900
H  22.99700 -7.11700 27.69100
H  22.12700 -8.08300 26.50600
H  17.90300 -3.09200 23.96200
H  17.53500 -0.10900 24.33900
H  19.41300 -0.94700 23.07800
H  19.84000 -2.61500 22.95900
H  20.46000 -1.66100 24.23500
H  15.04600 -1.45300 24.44000
H  15.94100 -2.20400 23.05500
H  16.25100 0.64800 22.58400
H  14.58200 0.36300 23.15300
H  15.36200 -0.46100 21.72100
H  13.07800 2.04300 28.31200
H  13.60600 1.32400 26.84300
H  14.32200 2.83800 27.50100
H  14.63700 -0.03000 32.91800
H  15.45900 3.71400 34.52300
H  17.16900 3.34700 34.17900
H  16.46000 2.95700 35.77500
Mg 35.60800 49.40600 24.01000
C  35.46000 47.62900 27.16000
C  34.31800 52.21700 25.76100
C  35.33600 50.79700 21.19200
C  36.57400 46.35800 22.50500
N  34.88300 49.85900 26.21400
C  35.16200 49.00600 27.27500
C  34.81900 49.81700 28.57300
C  34.40400 51.21500 28.12600
C  34.53100 51.13800 26.61800
C  33.09400 51.78600 28.57700
C  36.12600 49.84800 29.51900
C  35.82000 49.69700 30.99300
H  34.49200 50.15400 31.50400
N  35.09600 51.33200 23.52400
C  34.49800 52.31800 24.35600
C  34.21500 53.44000 23.50500
C  34.61700 53.18900 22.13100
C  35.07000 51.76600 22.21500
C  33.85400 54.74700 24.10300
C  34.61500 53.96400 20.94500
O  35.13000 53.54900 19.94000
C  34.04200 55.28200 20.99900
N  35.50300 48.54000 22.02400
C  35.62700 49.48500 21.08100
C  36.02000 48.86600 19.73000
C  36.71900 47.55200 20.27200
C  36.24400 47.45400 21.70900
C  34.81700 48.58000 18.64800
C  38.29900 47.61400 20.21500
C  39.02100 46.27200 19.85500
N  35.77700 47.32100 24.63100
C  36.26900 46.27100 23.86900
C  36.29300 45.10300 24.74400
C  35.93000 45.59200 26.01900
C  35.66600 46.95200 25.90900
C  36.74700 43.72400 24.32500
C  35.95900 45.23300 27.45800
O  36.19600 44.16400 28.01900
C  35.45200 46.55300 28.25600
C  34.14200 46.27600 28.76500
O  33.22000 45.82600 28.13700
O  34.21900 46.42600 30.12500
C  33.07300 46.08000 30.93600
H  33.94000 53.07900 26.31400
H  35.29200 51.18500 20.17200
H  36.94300 45.42400 22.07700
H  33.95800 49.35700 29.05600
H  35.04300 51.92800 28.64700
H  33.37700 52.74800 29.00400
H  32.46700 51.16800 29.22000
H  32.34900 52.01600 27.81600
H  36.74100 50.73400 29.36600
H  36.77800 49.02400 29.23000
H  36.54600 50.30000 31.53800
H  35.83800 48.64000 31.25700
H  34.56600 55.51000 23.78800
H  33.73000 54.75300 25.18600
H  32.82400 54.84000 23.75900
H  33.05000 55.08700 21.40700
H  34.09600 55.74700 20.01500
H  34.74100 55.96200 21.48700
H  36.70400 49.59200 19.29000
H  36.29500 46.78200 19.62800
H  33.82600 48.65600 19.09400
H  34.86100 47.58200 18.21200
H  34.93400 49.18400 17.74800
H  38.61000 47.98800 21.19100
H  38.65900 48.33500 19.48000
H  38.42700 45.35900 19.85900
H  39.80300 46.00600 20.56700
H  39.58000 46.44400 18.93600
H  37.76200 43.88200 23.95800
H  36.26300 43.13300 23.54900
H  36.78800 43.10200 25.21900
H  36.12000 46.63100 29.11400
H  32.58300 46.98000 31.30800
H  33.31700 45.32100 31.67900
H  32.30600 45.54900 30.37300

