158

Mg 42.54100 41.51100 25.95500
C  41.79900 43.92700 28.44500
C  43.70600 39.50100 28.34600
C  43.42900 39.46300 23.45700
C  41.62500 43.87000 23.58800
N  42.84300 41.81500 28.08600
C  42.24500 42.70400 28.98600
C  42.35000 42.26100 30.46900
C  43.19700 40.97900 30.37500
C  43.23300 40.74100 28.83600
C  44.60800 41.12800 31.04900
C  40.98700 42.15200 31.17100
C  40.80500 42.82200 32.55000
H  39.92600 42.10000 33.64500
N  43.50300 39.61700 25.90200
C  43.87400 38.95400 26.99200
C  44.43500 37.66700 26.55500
C  44.41400 37.62300 25.13000
C  43.76700 38.92000 24.74000
C  45.06200 36.64600 27.49400
C  44.93100 36.60100 24.11600
O  44.67300 36.73000 22.93000
C  45.64500 35.43400 24.53000
N  42.70000 41.71700 23.78800
C  42.87500 40.66400 23.00100
C  42.55900 40.99000 21.54700
C  41.60400 42.17500 21.78900
C  42.01800 42.61500 23.12000
C  43.82700 41.41400 20.75400
C  40.12800 41.73200 21.79000
C  39.70600 40.21600 21.73200
N  41.84900 43.45600 25.99100
C  41.59300 44.29400 24.89800
C  41.26900 45.62900 25.37200
C  41.26600 45.50500 26.81000
C  41.65400 44.18400 27.09400
C  41.06500 46.84700 24.57500
C  41.04000 46.19700 28.01800
O  40.61600 47.31400 28.16200
C  41.23800 45.14800 29.19200
C  42.15000 45.68600 30.26700
O  43.35600 45.89500 30.21200
O  41.49200 45.85800 31.42900
C  42.32800 46.10700 32.61000
H  44.15500 38.77600 29.02700
H  43.68500 38.82600 22.60800
H  41.20700 44.50100 22.80100
H  42.93000 43.01600 31.00000
H  42.66700 40.12300 30.79300
H  44.47300 42.03200 31.64200
H  45.18600 41.42200 30.17300
H  44.96200 40.20100 31.50100
H  40.96900 41.08000 31.36300
H  40.16600 42.35200 30.48200
H  40.26900 43.72900 32.27100
H  41.73200 43.15600 33.01600
H  46.10600 36.43800 27.26000
H  44.51000 35.70600 27.46200
H  44.94000 36.95200 28.53300
H  46.10900 34.90500 23.69800
H  44.97100 34.70000 24.97300
H  46.46400 35.80500 25.14500
H  42.08700 40.14800 21.04100
H  41.75600 42.94500 21.03200
H  44.65900 41.21500 21.43000
H  43.81200 42.44800 20.41000
H  43.90300 40.84200 19.82900
H  39.62100 42.35000 21.05000
H  39.64900 42.10500 22.69600
H  39.51800 39.93200 20.69700
H  38.80500 40.11500 22.33700
H  40.42900 39.51100 22.14200
H  41.46900 46.77200 23.56600
H  41.51800 47.66700 25.13100
H  39.99300 47.02200 24.67200
H  40.27100 44.83700 29.58700
H  41.73200 45.93600 33.50600
H  42.58500 47.16700 32.60300
H  43.21700 45.47800 32.56200
Mg -5.11800 25.59400 26.58800
C  -3.65500 26.82600 29.64000
C  -7.26100 23.64300 28.48800
C  -6.18300 24.21100 23.70300
C  -2.98300 27.50300 24.81900
N  -5.27200 25.18000 28.74400
C  -4.62900 25.84400 29.77400
C  -5.24100 25.38900 31.11900
C  -6.22000 24.22500 30.71900
C  -6.29200 24.32400 29.22000
C  -5.70400 22.86800 31.22900
C  -5.98100 26.58600 31.91800
C  -7.04100 26.31500 33.03000
H  -6.70400 25.24500 34.10000
N  -6.51500 24.26200 26.15200
C  -7.31600 23.58100 27.08800
C  -8.25300 22.76700 26.38300
C  -7.96000 22.87700 25.00800
C  -6.81600 23.79200 24.90500
C  -9.32100 22.06300 27.15200
C  -8.60500 22.22700 23.81700
O  -8.30400 22.50500 22.63700
C  -9.55200 21.06700 24.13500
N  -4.62400 25.77300 24.55100
C  -5.18000 25.11700 23.53100
C  -4.46700 25.39100 22.27000
C  -3.63300 26.68300 22.52400
C  -3.79300 26.76200 24.04900
C  -3.64400 24.16800 21.72400
C  -4.09100 27.96100 21.77300
C  -3.10200 28.41500 20.72800
N  -3.56600 26.87300 27.03500
C  -2.84900 27.65400 26.17500
C  -1.89300 28.50500 26.97200
C  -2.24400 28.26000 28.34000
C  -3.25500 27.28200 28.29400
C  -0.83400 29.38600 26.41000
C  -1.97300 28.64200 29.72900
O  -1.24900 29.53900 30.20500
C  -2.93600 27.70400 30.65900
C  -2.13200 27.01200 31.70500
O  -1.45300 26.00100 31.63100
O  -2.27600 27.71400 32.88100
C  -2.21000 26.93700 34.13200
H  -7.87400 22.91400 29.02100
H  -6.47800 23.90900 22.69600
H  -2.18500 27.98300 24.24800
H  -4.48400 25.09900 31.84700
H  -7.22200 24.32100 31.13900
H  -4.98100 22.99100 32.03600
H  -5.21100 22.42300 30.36400
H  -6.54900 22.27500 31.57800
H  -6.40500 27.09500 31.05200
H  -5.26000 27.28000 32.34900
H  -7.86400 25.97900 32.39900
H  -7.32300 27.27400 33.46600
H  -9.01000 21.07400 27.49000
H  -10.20000 21.76000 26.58300
H  -9.68900 22.65800 27.98800
H  -9.87100 20.63600 23.18600
H  -10.48200 21.36400 24.61900
H  -9.05200 20.30400 24.73200
H  -5.28900 25.68100 21.61500
H  -2.56700 26.51500 22.36700
H  -3.38300 23.45600 22.50700
H  -2.77900 24.56100 21.19000
H  -4.27700 23.68000 20.98300
H  -4.25400 28.81200 22.43500
H  -5.04200 27.81900 21.26000
H  -3.42400 28.09100 19.73800
H  -2.07700 28.09100 20.90200
H  -3.09100 29.50500 20.68800
H  -0.43700 28.98800 25.47600
H  -0.03600 29.58600 27.12500
H  -1.30600 30.35600 26.25700
H  -3.73700 28.28500 31.11600
H  -1.29600 27.22200 34.65400
H  -2.32800 25.86700 33.96200
H  -3.08500 27.20800 34.72300

