158

Mg 46.10400 5.15500 48.97700
C  44.08000 7.92200 47.98500
C  43.43800 3.12700 48.06400
C  48.14700 2.64100 49.05700
C  48.82600 7.45700 49.13800
N  44.07700 5.52900 48.03400
C  43.45800 6.70400 47.75000
C  42.03400 6.57000 47.20900
C  41.78800 5.07700 47.43900
C  43.15500 4.51000 47.93900
C  40.62200 4.72700 48.43000
C  42.00600 7.06000 45.67700
C  40.80200 8.03000 45.41400
H  39.87500 7.63100 44.21400
N  45.79900 3.12200 48.71000
C  44.62900 2.51400 48.40100
C  44.87200 1.06000 48.52400
C  46.26000 0.81300 48.72900
C  46.81900 2.19100 48.80200
C  43.85500 -0.01400 48.45500
C  47.02800 -0.50000 48.84000
O  46.47700 -1.59300 48.87500
C  48.48600 -0.72400 48.88900
N  48.17200 5.08200 48.70700
C  48.78500 3.88400 49.06100
C  50.28900 4.07900 49.35400
C  50.40300 5.64300 49.20300
C  48.99100 6.12800 48.99900
C  50.68800 3.58900 50.79000
C  51.30800 6.05900 47.94600
C  52.69000 6.66900 48.16100
N  46.38600 7.29300 48.87000
C  47.51500 8.02000 49.00800
C  47.18300 9.38300 49.03400
C  45.82700 9.42700 48.62700
C  45.37900 8.13100 48.51700
C  48.12200 10.46400 49.22000
C  44.66900 10.30500 48.32700
O  44.56600 11.48400 48.42500
C  43.49000 9.35600 47.77600
C  42.44800 9.67300 48.76500
O  42.39800 9.27600 49.90100
O  41.34800 10.32200 48.17100
C  40.09700 10.20100 48.95800
H  42.59800 2.53700 47.69100
H  48.78400 1.80900 49.36700
H  49.74000 8.04600 49.23800
H  41.39000 7.25200 47.76400
H  41.52400 4.53600 46.53000
H  41.03300 4.38100 49.37800
H  39.91800 4.03200 47.97400
H  40.07500 5.64500 48.64500
H  41.82000 6.18200 45.05800
H  42.90900 7.63000 45.45600
H  41.20800 9.03800 45.32600
H  40.14900 8.14200 46.27900
H  42.89900 0.39900 48.13300
H  43.68500 -0.44900 49.44000
H  43.94400 -0.72900 47.63600
H  48.95900 -0.12600 48.11000
H  48.83300 -1.75400 48.80200
H  48.70100 -0.35200 49.89100
H  50.89500 3.48700 48.66800
H  50.83700 6.04600 50.11800
H  49.93800 3.78000 51.55600
H  51.60600 4.06400 51.13700
H  50.98000 2.55000 50.63600
H  50.69400 6.77700 47.40200
H  51.36300 5.18900 47.29300
H  53.31800 6.28000 47.35900
H  53.15000 6.48600 49.13200
H  52.57700 7.74200 48.00700
H  49.04500 10.32800 48.65700
H  48.17600 10.64600 50.29400
H  47.60300 11.27700 48.71200
H  43.24600 9.67700 46.76300
H  39.22000 10.62700 48.47000
H  40.23900 10.59400 49.96500
H  39.83200 9.14400 48.97100
Mg 16.98900 51.59700 25.60500
C  18.57400 50.15200 28.45900
C  14.21800 52.08600 27.45100
C  15.58400 52.50400 22.86800
C  19.83400 50.54100 23.72500
N  16.57700 51.30500 27.73900
C  17.37100 50.75900 28.71700
C  16.73000 51.18500 30.11000
C  15.23200 51.40100 29.71000
C  15.26000 51.65000 28.20400
C  14.36400 50.10100 30.01200
C  17.28100 52.47000 30.81600
C  16.86900 52.89100 32.24100
H  15.81400 52.03500 33.01100
N  15.19300 52.28100 25.23000
C  14.14900 52.46500 26.12200
C  13.07400 53.13500 25.45700
C  13.48200 53.35700 24.14600
C  14.75200 52.73100 24.04200
C  11.61300 53.30000 25.97500
C  12.69500 54.05700 22.95400
O  13.10600 54.27900 21.82000
C  11.39500 54.62000 23.24300
N  17.72300 51.53500 23.56200
C  16.86000 51.95200 22.66900
C  17.41600 51.82400 21.24700
C  18.79900 51.22900 21.47300
C  18.85600 51.19600 23.01700
C  16.63500 50.89100 20.29000
C  20.04600 51.96500 20.86600
C  20.31600 53.34400 21.50500
N  18.91200 50.68400 25.95500
C  19.90500 50.26900 25.11100
C  20.93100 49.55700 25.87000
C  20.41100 49.46300 27.21400
C  19.22300 50.13700 27.21500
C  22.06300 48.87600 25.21800
C  20.70300 48.88400 28.46700
O  21.62400 48.20600 28.83200
C  19.61300 49.49000 29.42500
C  19.05500 48.51500 30.40400
O  18.38300 47.51300 30.10900
O  19.08900 49.06800 31.70800
C  18.55700 48.10900 32.66000
H  13.29900 52.17000 28.03500
H  15.10300 52.85700 21.95400
H  20.61100 50.13100 23.07800
H  16.84100 50.32900 30.77700
H  14.82700 52.34400 30.07900
H  13.76900 50.43800 30.86100
H  14.94700 49.23300 30.32100
H  13.79300 49.81800 29.12800
H  16.98400 53.32400 30.20800
H  18.37000 52.42300 30.79100
H  16.54100 53.92700 32.16400
H  17.75500 52.82700 32.87200
H  11.08800 54.25100 25.88700
H  11.76500 53.17800 27.04700
H  10.97800 52.53200 25.53300
H  11.46500 55.58500 23.74600
H  10.75600 53.85500 23.68300
H  10.96600 54.71200 22.24500
H  17.40400 52.85800 20.90400
H  18.87000 50.22600 21.05200
H  17.25800 50.33800 19.58800
H  15.86700 51.44000 19.74500
H  16.12300 50.11100 20.85300
H  19.85900 52.18300 19.81500
H  20.90800 51.30400 20.78700
H  20.30700 54.23700 20.88000
H  21.32100 53.27600 21.92200
H  19.59100 53.49800 22.30400
H  22.86800 49.61100 25.23600
H  21.93000 48.54800 24.18700
H  22.20200 47.99900 25.84900
H  20.11800 50.22300 30.05400
H  17.57100 47.82100 32.29700
H  18.42600 48.61600 33.61600
H  19.23400 47.25700 32.70800

