158

Mg 24.31400 -5.54800 46.54300
C  26.37500 -3.08600 45.17200
C  21.60100 -4.09000 44.89900
C  22.47700 -8.43000 47.20900
C  26.85800 -6.80700 48.36500
N  24.03000 -3.72100 45.24500
C  25.06700 -2.93200 44.74800
C  24.52600 -1.99800 43.67300
C  22.95100 -1.94100 44.02900
C  22.80700 -3.33500 44.81100
C  22.57300 -0.61700 44.82200
C  24.98700 -2.38100 42.17800
C  25.71500 -1.36400 41.27800
H  25.26300 -1.41000 39.80600
N  22.38300 -6.24400 46.01400
C  21.42100 -5.41000 45.44200
C  20.16300 -6.17700 45.47500
C  20.36900 -7.41800 46.10000
C  21.80900 -7.41400 46.50500
C  18.86700 -5.57000 44.91600
C  19.40000 -8.47700 46.29700
O  18.22400 -8.26700 45.90900
C  19.65400 -9.79600 46.90500
N  24.57800 -7.36800 47.62100
C  23.74700 -8.44100 47.67800
C  24.34200 -9.61800 48.59000
C  25.69600 -8.92500 49.05800
C  25.71000 -7.61600 48.33600
C  23.58100 -10.24600 49.76800
C  27.03100 -9.77000 48.89400
C  27.95500 -9.87800 50.12100
N  26.20200 -5.15500 46.70900
C  27.09800 -5.65400 47.61800
C  28.35100 -4.84600 47.58000
C  28.10400 -3.93700 46.47700
C  26.80500 -4.10000 46.10100
C  29.54000 -4.94800 48.39600
C  28.72900 -2.86000 45.71400
O  29.84900 -2.43100 45.87100
C  27.60400 -2.34600 44.71500
C  27.59800 -0.85600 44.91400
O  27.58500 -0.36100 45.97900
O  27.52200 -0.14800 43.75700
C  27.68100 1.26700 43.98400
H  20.80800 -3.46600 44.48200
H  21.98100 -9.33500 47.56400
H  27.64200 -7.16800 49.03300
H  24.96600 -1.00700 43.78700
H  22.39700 -1.89000 43.09200
H  22.09600 0.06200 44.11500
H  23.42000 -0.20800 45.37300
H  21.92900 -1.00500 45.61100
H  24.06600 -2.64400 41.65800
H  25.50500 -3.34000 42.15700
H  26.75600 -1.68400 41.23400
H  25.73400 -0.40200 41.79100
H  18.37400 -4.97400 45.68400
H  18.11400 -6.30600 44.63400
H  19.05800 -4.98700 44.01600
H  18.75300 -10.40400 46.82600
H  19.95800 -9.69700 47.94700
H  20.33100 -10.42300 46.32600
H  24.64500 -10.46000 47.96700
H  25.70500 -8.70100 50.12500
H  22.66300 -9.75200 50.08600
H  24.22700 -10.35400 50.63900
H  23.24200 -11.25300 49.52400
H  27.62200 -9.30800 48.10300
H  26.67600 -10.75500 48.59300
H  28.91700 -9.44600 49.84700
H  27.98200 -10.91500 50.45700
H  27.69600 -9.22800 50.95700
H  29.73300 -3.95500 48.80000
H  30.33800 -5.26200 47.72300
H  29.38900 -5.71700 49.15400
H  27.82500 -2.52300 43.66200
H  27.63800 1.67300 42.97300
H  28.65000 1.53500 44.40400
H  26.92500 1.77200 44.58600
Mg 17.40300 53.08100 26.42300
C  19.65700 51.72000 28.63300
C  15.08800 53.46600 28.93500
C  15.15600 54.43000 24.23800
C  19.44500 52.19400 23.78200
N  17.31700 52.60200 28.47900
C  18.43800 52.11900 29.19900
C  18.14900 52.21200 30.66800
C  16.57600 52.28900 30.72700
C  16.24500 52.76900 29.29200
C  15.81100 50.96500 31.08400
C  18.90600 53.42400 31.31400
C  19.21600 53.28400 32.86700
H  18.17300 52.55200 33.68300
N  15.53000 53.95800 26.56500
C  14.75000 54.08500 27.74300
C  13.50600 54.79700 27.42800
C  13.56600 55.07600 26.00600
C  14.77800 54.49700 25.56000
C  12.42600 55.03500 28.47800
C  12.53100 55.83900 25.16100
O  12.71300 56.19800 23.98100
C  11.15900 56.21900 25.73400
N  17.28300 53.22000 24.28300
C  16.27300 53.88800 23.61600
C  16.60200 53.96600 22.09800
C  17.99500 53.29700 22.02100
C  18.31300 52.92400 23.45100
C  15.53800 53.31400 21.11500
C  19.04200 54.19000 21.27900
C  19.94400 55.02300 22.11700
N  19.11200 51.96400 26.15300
C  19.88800 51.73800 25.05400
C  21.11200 51.05500 25.46300
C  21.07800 51.08300 26.88700
C  19.83100 51.67000 27.23900
C  22.11100 50.40100 24.55600
C  21.79000 50.71900 28.13500
O  22.89700 50.24700 28.25000
C  20.82700 51.17900 29.31700
C  20.45600 50.09000 30.20200
O  19.52900 49.29300 29.98700
O  21.03800 50.33400 31.37700
C  20.66000 49.42700 32.45900
H  14.36400 53.45600 29.75300
H  14.47600 54.75200 23.44600
H  20.22700 51.97200 23.05300
H  18.46800 51.26900 31.11300
H  16.16900 53.04900 31.39400
H  15.16300 51.22200 31.92200
H  16.50600 50.20900 31.45000
H  15.27600 50.60600 30.20500
H  18.33600 54.35200 31.29900
H  19.87000 53.62100 30.84300
H  19.24700 54.30400 33.25100
H  20.14800 52.73500 33.00200
H  11.53400 55.55500 28.12700
H  12.76700 55.62700 29.32700
H  12.13000 54.02700 28.76700
H  11.39000 57.10600 26.32300
H  10.77400 55.33200 26.23700
H  10.33300 56.48900 25.07700
H  16.74100 54.99300 21.76000
H  17.93300 52.32000 21.54300
H  15.09900 52.42300 21.56400
H  15.96800 53.15300 20.12600
H  14.77400 54.07000 20.93400
H  18.54800 54.89900 20.61500
H  19.66700 53.64800 20.56900
H  20.67200 54.28100 22.44300
H  19.39600 55.37400 22.99100
H  20.46300 55.83900 21.61400
H  22.04100 50.72500 23.51800
H  22.06500 49.31400 24.61900
H  23.07100 50.75700 24.92900
H  21.35700 51.91600 29.92100
H  20.66200 48.40000 32.09200
H  19.74800 49.76100 32.95200
H  21.47300 49.58800 33.16700

