158

Mg 44.38500 42.51500 26.06500
C  43.03800 44.54400 28.63800
C  45.92400 40.71600 28.46900
C  45.59700 40.62100 23.53100
C  43.03300 44.83900 23.68000
N  44.35400 42.62900 28.31900
C  43.72500 43.47300 29.11600
C  43.85300 43.02600 30.59000
C  45.04900 42.05700 30.52800
C  45.13500 41.77400 28.98700
C  46.36400 42.43000 31.17500
C  42.60900 42.55200 31.47900
C  42.69600 41.86900 32.87000
H  41.83800 42.44600 33.96900
N  45.51700 40.87200 25.98300
C  46.09500 40.31100 27.09600
C  46.93200 39.16100 26.72500
C  46.73100 39.02900 25.31900
C  45.95300 40.21500 24.87400
C  47.85300 38.40300 27.71100
C  47.29100 37.99700 24.42500
O  47.05200 38.02800 23.20200
C  48.20600 36.90000 24.92800
N  44.22200 42.65800 23.89500
C  44.82200 41.77300 23.06100
C  44.74500 42.15700 21.57000
C  43.68700 43.26800 21.64000
C  43.59500 43.65900 23.19000
C  46.10700 42.30700 20.86500
C  42.22500 43.00600 20.98300
C  41.35800 42.07400 21.90500
N  43.28500 44.33200 26.07500
C  42.89700 45.17400 25.07200
C  42.17600 46.28500 25.64400
C  42.09900 45.94900 26.98100
C  42.87100 44.83500 27.23400
C  41.46200 47.50500 24.99700
C  41.54500 46.39800 28.28700
O  40.82100 47.41700 28.51000
C  42.11800 45.51300 29.42900
C  42.81200 46.32400 30.43300
O  43.87200 46.95500 30.28500
O  42.21400 46.22800 31.66800
C  42.83800 46.85000 32.88500
H  46.50000 40.14600 29.20100
H  45.92100 40.02400 22.67500
H  42.46900 45.44000 22.96500
H  44.23100 43.91800 31.08900
H  44.85200 41.06800 30.94300
H  46.56500 41.73400 31.98900
H  46.26500 43.42800 31.60200
H  47.18500 42.46200 30.45800
H  42.16300 41.79500 30.83400
H  41.97200 43.42100 31.64400
H  43.73800 41.92400 33.18600
H  42.45700 40.82200 32.68300
H  48.61200 39.04700 28.15500
H  48.43700 37.70400 27.11400
H  47.34800 37.81900 28.48000
H  48.38800 36.15900 24.15000
H  47.65200 36.41200 25.73000
H  49.18700 37.26600 25.23200
H  44.30200 41.23200 21.20100
H  44.02200 44.18500 21.15500
H  46.98500 42.56900 21.45600
H  46.06300 43.02700 20.04800
H  46.39300 41.32500 20.49000
H  42.40800 42.53100 20.01900
H  41.72600 43.97200 20.90000
H  40.99200 42.67600 22.73700
H  41.92900 41.22800 22.28800
H  40.49400 41.58500 21.45500
H  41.49300 48.23200 25.80800
H  40.45100 47.20100 24.72700
H  42.08500 47.80900 24.15500
H  41.23900 45.05200 29.87900
H  43.62500 47.55900 32.63100
H  43.12400 45.98700 33.48700
H  42.04400 47.37300 33.41800
Mg 17.55500 50.82900 26.63200
C  19.48200 49.27800 29.09100
C  15.21900 51.71800 28.93000
C  15.42500 51.45500 24.09300
C  19.72100 49.30700 24.14500
N  17.31000 50.39400 28.73700
C  18.35800 49.98500 29.57300
C  17.98100 50.18300 31.00000
C  16.45600 50.68800 30.88800
C  16.28900 50.99900 29.41800
C  15.43600 49.64900 31.47200
C  18.94900 51.24500 31.53700
C  18.74500 51.73400 32.95900
H  17.83700 50.89800 33.91200
N  15.74000 51.79000 26.50500
C  14.92500 52.03700 27.56800
C  13.76600 52.68400 27.13600
C  13.80900 52.64800 25.71900
C  15.05000 51.91900 25.37900
C  12.85800 53.36800 28.16700
C  12.88700 53.34100 24.76200
O  13.14400 53.54100 23.57600
C  11.60200 53.95900 25.24900
N  17.50200 50.27600 24.48200
C  16.46700 50.66300 23.70400
C  16.79800 50.46300 22.18000
C  18.25800 50.05300 22.26000
C  18.56200 49.88300 23.70100
C  15.78900 49.46200 21.45300
C  19.25100 51.04700 21.55100
C  20.24900 50.40300 20.51400
N  19.25800 49.54400 26.55200
C  20.02400 49.03300 25.53100
C  21.07700 48.18300 26.11700
C  20.93600 48.29000 27.48800
C  19.87800 49.16400 27.74200
C  22.18000 47.57000 25.20700
C  21.46200 47.77800 28.79100
O  22.41200 47.07600 29.02200
C  20.61200 48.52800 29.87800
C  20.10600 47.62200 30.95800
O  19.33400 46.69700 30.79400
O  20.73700 48.02400 32.16200
C  20.21300 47.30000 33.32400
H  14.61900 52.13400 29.74200
H  14.69500 51.54700 23.28500
H  20.42100 48.99300 23.36800
H  18.03200 49.23400 31.53400
H  16.34800 51.56500 31.52700
H  15.89300 48.83200 32.03100
H  14.97600 49.10200 30.64900
H  14.70400 50.07200 32.16000
H  18.81200 52.15000 30.94600
H  20.01400 51.05100 31.41500
H  18.34700 52.74300 32.85300
H  19.74000 51.82400 33.39500
H  13.31600 54.33500 28.37600
H  12.76800 52.83700 29.11400
H  11.83000 53.35300 27.80500
H  10.89200 53.29100 25.73700
H  11.19000 54.41000 24.34700
H  11.85800 54.77300 25.92800
H  16.73200 51.43400 21.68900
H  18.25300 49.07300 21.78200
H  14.98700 49.27900 22.16700
H  16.36100 48.56100 21.23000
H  15.43000 49.84300 20.49700
H  19.95700 51.55400 22.21000
H  18.73700 51.83300 20.99700
H  20.16400 50.76800 19.49100
H  19.95700 49.35600 20.43400
H  21.29300 50.35300 20.82300
H  23.00000 47.19600 25.81900
H  22.55300 48.34900 24.54200
H  21.70400 46.78700 24.61600
H  21.22500 49.27900 30.37600
H  20.01800 46.23600 33.19200
H  19.43000 47.84600 33.85200
H  21.13100 47.27700 33.91000

