158

Mg 23.47600 -6.92500 46.95900
C  25.87000 -4.64800 45.70700
C  21.11200 -5.33400 44.98200
C  21.37600 -9.20900 47.88100
C  26.08300 -8.26500 49.03100
N  23.53000 -5.21700 45.46000
C  24.66600 -4.51100 45.07100
C  24.27300 -3.42700 44.08600
C  22.68200 -3.37900 44.15000
C  22.37300 -4.75800 44.91500
C  21.98900 -2.10400 44.69800
C  24.91100 -3.72400 42.69700
C  26.03500 -2.79900 42.24600
H  25.64000 -1.82000 41.23000
N  21.46400 -7.28800 46.55400
C  20.72500 -6.50000 45.67100
C  19.39500 -6.99300 45.63300
C  19.40000 -8.15100 46.46500
C  20.79900 -8.26000 47.07000
C  18.26800 -6.34100 44.78800
C  18.17100 -9.10800 46.72500
O  17.10900 -9.08000 46.11100
C  18.36100 -10.21600 47.74400
N  23.77700 -8.67100 48.19700
C  22.63400 -9.42500 48.50300
C  23.02900 -10.60300 49.43100
C  24.52100 -10.15600 49.95000
C  24.83700 -8.99800 49.02400
C  21.99600 -10.97400 50.53300
C  25.62900 -11.22300 49.84200
C  26.63500 -11.27700 50.99900
N  25.62600 -6.58000 47.38100
C  26.51400 -7.16000 48.27500
C  27.82000 -6.55900 48.16800
C  27.61600 -5.57400 47.15200
C  26.26500 -5.61800 46.70000
C  29.04600 -7.00700 48.82000
C  28.32600 -4.58400 46.32600
O  29.49200 -4.20800 46.43400
C  27.18600 -3.81500 45.52400
C  26.97500 -2.53400 46.23200
O  26.08100 -2.27900 47.03100
O  27.92800 -1.62800 45.77100
C  27.80800 -0.21100 46.05900
H  20.33000 -4.71700 44.53700
H  20.77700 -10.05100 48.23700
H  26.91200 -8.52700 49.69300
H  24.66500 -2.47500 44.44300
H  22.19900 -3.51200 43.18200
H  22.69100 -1.41000 45.16000
H  21.40700 -2.40700 45.56800
H  21.36600 -1.59400 43.96300
H  24.15700 -3.73800 41.91000
H  25.23600 -4.76400 42.65500
H  26.81900 -3.35800 41.73500
H  26.37500 -2.33600 43.17200
H  17.38400 -6.88800 45.11600
H  18.45000 -6.51900 43.72800
H  18.12300 -5.28200 45.00500
H  17.42300 -10.68500 48.04000
H  18.72200 -9.71500 48.64300
H  18.96100 -11.04400 47.36600
H  23.13400 -11.43500 48.73500
H  24.46500 -9.76200 50.96400
H  22.48900 -11.05100 51.50200
H  21.48700 -11.91800 50.33500
H  21.34000 -10.11700 50.68500
H  26.23700 -11.19900 48.93700
H  25.10300 -12.17600 49.79000
H  26.44200 -10.57700 51.81200
H  27.66400 -11.04400 50.72400
H  26.65600 -12.23500 51.51800
H  29.48200 -7.89300 48.35600
H  28.99500 -7.04300 49.90800
H  29.90200 -6.34800 48.67700
H  27.60500 -3.56700 44.54800
H  27.92100 -0.10000 47.13800
H  26.88100 0.26700 45.74200
H  28.68700 0.27900 45.64100
Mg -11.49200 38.00900 41.98000
C  -9.49900 35.29500 40.89600
C  -9.29300 40.10600 40.37900
C  -13.64700 40.43500 42.48600
C  -14.02800 35.60300 42.87000
N  -9.59400 37.71000 40.83900
C  -8.90300 36.52100 40.56700
C  -7.58800 36.75400 39.78600
C  -7.45300 38.31800 39.86200
C  -8.91300 38.73800 40.36200
C  -6.38800 38.85200 40.83000
C  -7.66100 36.22100 38.34100
C  -6.51500 35.32600 37.84500
H  -5.79100 35.79100 36.57900
N  -11.36600 40.04600 41.52400
C  -10.40400 40.72400 40.86500
C  -10.70900 42.16300 40.80400
C  -11.97700 42.31400 41.50900
C  -12.38400 40.92700 41.88800
C  -9.87300 43.23600 40.08300
C  -12.67200 43.59000 41.77500
O  -12.17200 44.60200 41.31800
C  -13.99100 43.69700 42.42800
N  -13.63700 37.93800 42.34000
C  -14.20900 39.14200 42.62500
C  -15.63700 38.98700 43.19600
C  -15.81000 37.43300 43.31500
C  -14.46600 36.90900 42.74100
C  -15.85100 39.75200 44.56600
C  -17.04700 36.83200 42.59400
C  -18.29100 36.82600 43.57200
N  -11.70000 35.90800 42.04400
C  -12.71200 35.06300 42.49700
C  -12.17400 33.72900 42.53900
C  -10.99600 33.80600 41.80600
C  -10.74700 35.14600 41.55100
C  -12.85800 32.55600 43.15000
C  -9.93500 32.94000 41.26400
O  -9.84800 31.70500 41.49800
C  -8.86400 33.86800 40.68100
C  -7.64700 33.58100 41.41200
O  -7.53200 33.41000 42.59800
O  -6.61900 33.56300 40.56900
C  -5.30100 33.73900 41.11900
H  -8.59200 40.68900 39.77800
H  -14.18800 41.26900 42.93800
H  -14.83200 34.95600 43.22800
H  -6.80300 36.26100 40.36000
H  -7.25000 38.81600 38.91300
H  -5.58600 38.11400 40.82300
H  -6.77700 39.10300 41.81700
H  -6.02400 39.73100 40.30000
H  -7.76500 37.12000 37.73200
H  -8.59700 35.70300 38.13400
H  -6.86500 34.31300 37.64500
H  -5.70600 35.15300 38.55400
H  -8.94300 42.81100 39.70700
H  -9.50800 44.01700 40.75000
H  -10.46100 43.67600 39.27700
H  -14.72600 43.07600 41.91600
H  -14.44600 44.68600 42.46700
H  -13.87900 43.38700 43.46700
H  -16.30600 39.43900 42.46300
H  -15.88800 37.14600 44.36400
H  -16.32200 39.24500 45.40800
H  -16.53500 40.55700 44.29600
H  -14.88600 40.14400 44.88800
H  -16.81500 35.80000 42.33000
H  -17.21200 37.50800 41.75500
H  -18.06900 35.93600 44.16000
H  -19.21900 36.56300 43.06400
H  -18.26200 37.73100 44.17800
H  -12.71900 31.68000 42.51700
H  -13.93000 32.74900 43.12600
H  -12.57100 32.36900 44.18500
H  -8.69800 33.70100 39.61600
H  -5.19300 32.89700 41.80400
H  -5.29200 34.58500 41.80600
H  -4.54900 33.78800 40.33200

