158

Mg 48.09600 25.66100 27.70200
C  48.89600 27.73400 30.26900
C  47.20000 23.23900 29.88600
C  47.70200 23.53400 25.03900
C  49.63000 27.99000 25.48600
N  48.23000 25.46100 29.87600
C  48.26200 26.55900 30.70800
C  47.83700 26.16900 32.12800
C  47.48000 24.65600 32.02700
C  47.56900 24.45800 30.49100
C  48.28700 23.57900 32.81500
C  46.64800 27.14500 32.66100
C  45.96100 26.58100 33.85500
H  46.05500 27.50100 35.03300
N  47.48400 23.63200 27.47300
C  47.14500 22.80400 28.51400
C  46.70100 21.48600 27.95900
C  46.84700 21.57200 26.52500
C  47.38400 22.94500 26.29200
C  46.22300 20.48200 28.88300
C  46.64200 20.46600 25.53400
O  46.78400 20.76300 24.29900
C  46.21600 19.08000 25.92900
N  48.59100 25.77600 25.51100
C  48.19400 24.79300 24.61400
C  48.49800 25.17200 23.18200
C  49.24400 26.56500 23.33100
C  49.11600 26.83800 24.84800
C  49.37400 24.11000 22.38500
C  48.76400 27.73000 22.35300
C  49.84000 28.37800 21.39100
N  49.02500 27.47000 27.81400
C  49.57200 28.35000 26.88000
C  50.25000 29.49800 27.53200
C  49.94300 29.28600 28.84200
C  49.24000 28.06500 28.95600
C  50.84300 30.70700 26.81700
C  49.97200 29.89400 30.16000
O  50.45800 30.96200 30.54000
C  49.23400 28.94500 31.07000
C  50.11800 28.64100 32.22800
O  51.11300 27.99700 32.22600
O  49.61600 29.14400 33.43000
C  50.22200 28.79300 34.66600
H  46.89500 22.58200 30.70300
H  47.49700 22.90500 24.17000
H  50.17600 28.64400 24.80200
H  48.67900 26.15900 32.82000
H  46.43800 24.45100 32.27600
H  48.77800 22.89900 32.11800
H  47.52100 23.09300 33.41900
H  49.11600 23.91300 33.43800
H  45.99200 27.28800 31.80300
H  47.09800 28.09200 32.95900
H  46.37200 25.58400 34.01400
H  44.91300 26.49700 33.56800
H  46.93300 19.79200 29.34000
H  45.49100 19.85300 28.37600
H  45.63300 20.83600 29.72800
H  46.69100 18.86600 26.88600
H  46.59100 18.35400 25.20800
H  45.12800 19.14100 25.89700
H  47.55800 25.42400 22.69100
H  50.32300 26.55300 23.17300
H  48.61100 23.44000 21.98900
H  50.04700 23.43100 22.90800
H  49.95800 24.70800 21.68500
H  48.32400 28.53000 22.94700
H  47.95900 27.31200 21.74700
H  49.52600 28.38700 20.34700
H  50.64700 27.64600 21.36300
H  50.13500 29.33000 21.83200
H  50.20500 31.50900 27.18900
H  50.71900 30.60800 25.73800
H  51.84700 30.93600 27.17600
H  48.35900 29.47500 31.44700
H  51.29200 28.71500 34.47100
H  49.81900 27.84100 35.01100
H  49.99500 29.59600 35.36600
Mg 1.55900 41.22600 24.89400
C  2.23400 41.84900 28.37800
C  -1.47000 40.06500 25.73800
C  1.18400 40.07700 21.70700
C  4.76000 42.31700 24.21100
N  0.55900 40.87400 26.82000
C  1.01500 41.23400 28.06600
C  -0.07500 41.08100 29.07800
C  -1.25000 40.41100 28.22100
C  -0.73900 40.39000 26.80400
C  -1.57200 38.97000 28.63300
C  -0.58100 42.38700 29.76900
C  -0.56600 42.49700 31.31300
H  -0.89700 41.30400 32.17700
N  -0.03400 40.41100 23.78000
C  -1.14100 39.87800 24.36000
C  -2.01100 39.31400 23.34200
C  -1.25700 39.28400 22.13300
C  0.01200 39.92500 22.46300
C  -3.47500 39.07900 23.54900
C  -1.70700 38.88000 20.73700
O  -0.93800 38.83500 19.80200
C  -3.16900 38.44400 20.51700
N  2.78500 41.20700 23.26900
C  2.43600 40.63800 22.04700
C  3.60900 40.68300 21.01000
C  4.58500 41.71200 21.69500
C  4.01100 41.72800 23.17800
C  4.19000 39.23200 20.72000
C  4.68200 43.16000 20.98900
C  4.17800 44.43600 21.80300
N  3.28800 41.88100 25.99900
C  4.44900 42.40000 25.59400
C  5.28500 42.88000 26.68600
C  4.42600 42.68800 27.80400
C  3.23300 42.07400 27.38000
C  6.65400 43.43800 26.68600
C  4.30600 42.87000 29.28600
O  5.09000 43.36400 30.09200
C  2.87900 42.29200 29.69600
C  3.25200 41.14700 30.53900
O  3.85500 40.13800 30.08700
O  2.82100 41.30700 31.82200
C  3.06800 40.25300 32.72800
H  -2.46700 39.74800 26.04900
H  1.19400 39.62400 20.71300
H  5.75300 42.68400 23.94500
H  0.29100 40.35200 29.80100
H  -2.13100 41.04600 28.30900
H  -1.00800 38.67200 29.51600
H  -1.45100 38.25100 27.82200
H  -2.65500 38.93600 28.75500
H  -1.59300 42.67100 29.47800
H  0.14600 43.09300 29.36900
H  -1.10600 43.36400 31.69500
H  0.46900 42.79200 31.48700
H  -4.02500 39.89200 23.07600
H  -3.73900 39.06900 24.60600
H  -3.75700 38.10700 23.14200
H  -3.23000 37.40000 20.82600
H  -3.41800 38.57500 19.46400
H  -3.85800 38.99000 21.16100
H  3.18500 41.04300 20.07200
H  5.55400 41.21400 21.66000
H  3.90100 38.46100 21.43500
H  5.20800 39.30800 20.33800
H  3.73500 38.85000 19.80600
H  4.04300 43.12500 20.10700
H  5.66300 43.42900 20.59500
H  3.40900 44.94400 21.22000
H  5.05600 45.07000 21.92400
H  3.86400 44.20500 22.82100
H  6.72200 44.52600 26.72400
H  7.23600 43.13800 25.81400
H  7.33000 43.07500 27.46000
H  2.27400 42.98500 30.28000
H  2.29600 39.50500 32.54200
H  2.87500 40.70500 33.70100
H  4.02300 39.75100 32.57400

