158

Mg 25.76500 0.21800 29.57100
C  27.50300 0.09300 32.60000
C  22.86200 0.60500 31.38300
C  24.06400 0.37200 26.61600
C  28.54500 -0.85700 27.79100
N  25.26400 0.26800 31.76500
C  26.14700 0.27300 32.83100
C  25.46300 0.42600 34.15800
C  23.95100 0.47000 33.64900
C  23.99600 0.39800 32.19900
C  22.86300 -0.49300 34.32000
C  25.99700 1.70500 34.98100
C  25.11300 2.20200 36.11700
H  25.54500 1.80700 37.53000
N  23.76600 0.44800 29.12000
C  22.71900 0.63900 29.98600
C  21.48200 0.84000 29.27100
C  21.82900 0.74500 27.86500
C  23.26800 0.52800 27.83900
C  20.17300 1.08100 30.03800
C  20.95500 0.82700 26.61600
O  21.45100 0.86500 25.48100
C  19.46000 0.81300 26.74700
N  26.27100 -0.09200 27.41300
C  25.35700 0.04600 26.45700
C  25.92100 -0.33800 25.01900
C  27.41600 -0.73600 25.41200
C  27.46600 -0.54200 26.94300
C  25.16000 -1.45500 24.28800
C  28.48500 0.19100 24.68800
C  28.24800 0.36000 23.17100
N  27.61500 -0.26700 29.96900
C  28.66300 -0.67300 29.18600
C  29.83800 -0.67000 29.93900
C  29.45200 -0.41400 31.26500
C  28.09300 -0.17500 31.30400
C  31.19500 -0.99100 29.41400
C  29.89800 -0.33500 32.58500
O  31.03100 -0.49900 33.04300
C  28.68200 -0.08500 33.44200
C  28.52800 -1.19300 34.37300
O  28.09200 -2.29400 34.13400
O  29.01700 -0.85500 35.59200
C  28.76200 -1.79900 36.73000
H  21.95200 0.71800 31.97500
H  23.64100 0.45200 25.61200
H  29.47600 -1.12100 27.28500
H  25.69500 -0.46300 34.74400
H  23.52500 1.45700 33.83000
H  23.23200 -0.97100 35.22800
H  22.64300 -1.29000 33.61000
H  22.03000 0.17800 34.52900
H  26.04000 2.55800 34.30500
H  26.97400 1.43100 35.37900
H  24.08900 1.84100 36.02400
H  25.08300 3.28000 35.96000
H  19.75600 2.00000 29.62400
H  20.23300 1.26200 31.11100
H  19.48900 0.25700 29.83500
H  19.15600 0.01300 27.42300
H  18.89100 0.90800 25.82300
H  19.06500 1.60300 27.38500
H  25.80100 0.50800 24.34300
H  27.66300 -1.77300 25.18300
H  25.59100 -2.45400 24.35200
H  25.05600 -1.22800 23.22700
H  24.11600 -1.50200 24.59600
H  29.40500 -0.36100 24.87900
H  28.64100 1.09900 25.26900
H  28.97500 -0.03700 22.46200
H  28.01000 1.39800 22.94000
H  27.30100 -0.13500 22.95500
H  31.87100 -1.12100 30.25900
H  31.59000 -0.16700 28.81900
H  31.12300 -2.01500 29.04800
H  29.01600 0.83900 33.91600
H  29.67000 -2.21500 37.16600
H  28.01800 -2.55600 36.48300
H  28.31200 -1.29100 37.58400
Mg 40.60700 8.92900 29.26100
C  42.35900 10.03300 31.94100
C  38.26500 7.49100 31.42000
C  38.95900 7.59900 26.54100
C  43.01200 10.19700 27.06900
N  40.33300 8.91900 31.43700
C  41.17500 9.46600 32.34100
C  40.56400 9.46600 33.72300
C  39.21700 8.67400 33.57800
C  39.22700 8.28600 32.07800
C  39.10900 7.42400 34.48800
C  40.54100 10.86700 34.43600
C  39.35100 11.11700 35.50300
H  39.74800 11.77800 36.78600
N  38.83600 7.78600 29.04300
C  38.09500 7.17600 30.05300
C  37.06200 6.35100 29.46400
C  37.11600 6.51000 28.05700
C  38.29800 7.34200 27.78000
C  36.10100 5.46300 30.15100
C  36.26200 5.86700 26.99400
O  36.42400 6.12600 25.82100
C  35.18100 4.83800 27.40200
N  40.85200 9.01700 27.03800
C  40.12100 8.35800 26.16700
C  40.48500 8.74800 24.74600
C  41.80500 9.58100 24.90400
C  41.96100 9.58800 26.42600
C  40.51200 7.59800 23.66300
C  41.80900 10.98000 24.18300
C  41.11000 12.16600 24.89300
N  42.39900 9.71300 29.46700
C  43.29100 10.23400 28.46800
C  44.39600 10.87600 29.12900
C  44.07100 10.84200 30.52500
C  42.86500 10.11800 30.65200
C  45.57100 11.57900 28.54300
C  44.50400 11.27800 31.79300
O  45.42700 11.97900 32.13200
C  43.36100 10.83500 32.78500
C  44.03600 9.98300 33.76900
O  44.84800 9.11900 33.57100
O  43.76400 10.48700 34.99700
C  44.37800 9.77100 36.13700
H  37.57600 7.04900 32.14300
H  38.48600 7.15500 25.66300
H  43.73100 10.61700 26.36200
H  41.24500 8.85800 34.31800
H  38.38300 9.34400 33.78700
H  38.73200 6.55900 33.94200
H  38.40900 7.78300 35.24200
H  40.08600 7.20400 34.91900
H  40.41000 11.63300 33.67200
H  41.43600 11.09100 35.01600
H  38.84300 10.18100 35.73800
H  38.73500 11.85900 34.99500
H  36.28900 5.63500 31.21100
H  36.30100 4.45100 29.79700
H  35.07000 5.75600 29.95600
H  34.40500 5.36300 27.95800
H  35.59200 3.98000 27.93400
H  34.71800 4.48700 26.48000
H  39.75800 9.49000 24.41600
H  42.65400 8.96900 24.59900
H  40.50000 6.65200 24.20500
H  41.43200 7.66900 23.08300
H  39.69900 7.69800 22.94400
H  41.28100 10.73300 23.26200
H  42.84600 11.22200 23.94900
H  40.23000 12.47900 24.33000
H  41.82400 12.98100 25.00900
H  40.73900 11.92900 25.89000
H  46.42000 10.89700 28.58600
H  45.76500 12.49500 29.10100
H  45.38900 11.82500 27.49700
H  43.00300 11.80000 33.14500
H  43.58100 10.06000 36.82200
H  45.37100 10.13600 36.40100
H  44.26400 8.69400 36.00900

