158

Mg -2.04900 16.98500 26.35600
C  -2.35400 14.69700 29.04500
C  -2.41400 19.55700 28.56600
C  -1.99800 18.94700 23.80200
C  -2.11400 14.14800 24.20300
N  -2.31800 17.03600 28.52600
C  -2.42700 16.03700 29.39500
C  -2.62700 16.53200 30.84500
C  -2.52800 18.10200 30.68700
C  -2.38000 18.28300 29.15200
C  -3.71100 18.91800 31.32200
C  -1.59600 16.15500 31.94300
C  -1.38600 17.05300 33.17800
H  -2.02600 16.57900 34.42100
N  -2.23500 18.99700 26.19800
C  -2.37800 19.93000 27.22500
C  -2.29300 21.26200 26.61800
C  -2.20500 21.06400 25.20400
C  -2.09200 19.59300 25.01100
C  -2.56300 22.53600 27.39300
C  -2.08100 22.04000 24.03300
O  -2.09500 21.69900 22.85100
C  -1.96500 23.50000 24.29900
N  -2.10900 16.60400 24.28800
C  -2.08300 17.63200 23.36000
C  -2.09800 17.10300 21.87800
C  -2.11500 15.56900 22.09000
C  -2.02700 15.43600 23.60700
C  -3.24700 17.66400 21.06700
C  -1.05200 14.74400 21.31600
C  -0.84700 15.15900 19.86500
N  -2.24000 14.84800 26.51900
C  -2.20500 13.85000 25.57700
C  -2.28500 12.58300 26.23300
C  -2.34900 12.82900 27.62100
C  -2.27500 14.26400 27.69700
C  -2.18700 11.26100 25.55900
C  -2.52900 12.26900 28.87900
O  -2.71900 11.10100 29.23700
C  -2.51800 13.42900 29.89600
C  -1.45900 13.05000 30.77800
O  -0.29200 13.51000 30.87200
O  -1.97500 12.12700 31.67700
C  -1.08500 11.72700 32.83600
H  -2.26300 20.33900 29.31300
H  -1.95800 19.55700 22.89600
H  -1.89100 13.26200 23.60500
H  -3.58500 16.19700 31.24100
H  -1.51600 18.45600 30.87900
H  -4.52300 19.04300 30.60400
H  -3.35600 19.88600 31.67600
H  -4.11900 18.40900 32.19500
H  -0.57900 15.98800 31.58600
H  -2.00100 15.20400 32.29100
H  -1.72000 18.07800 33.01800
H  -0.30800 17.12700 33.31700
H  -3.46800 23.06300 27.09200
H  -1.60200 23.04800 27.35800
H  -2.62900 22.34300 28.46300
H  -1.43300 23.64500 25.24000
H  -2.99600 23.81000 24.46500
H  -1.37400 23.99700 23.52900
H  -1.08600 17.37400 21.57800
H  -3.10600 15.22500 21.79500
H  -2.95300 18.31800 20.24600
H  -3.85400 18.39000 21.60800
H  -3.86200 16.91300 20.57000
H  -1.35900 13.70100 21.39500
H  -0.08600 14.78100 21.81800
H  0.21800 15.08800 19.64300
H  -1.14400 16.17000 19.58700
H  -1.40300 14.45400 19.24700
H  -3.16500 10.99400 25.15600
H  -2.02100 10.42600 26.23900
H  -1.53500 11.36600 24.69100
H  -3.53200 13.29000 30.27000
H  -0.70000 10.78800 32.43900
H  -1.58200 11.56200 33.79200
H  -0.29600 12.44500 33.05800
Mg 25.19500 -7.38300 47.49800
C  27.08200 -4.74900 46.24500
C  22.76600 -6.73200 45.20500
C  23.44700 -10.08300 48.57300
C  27.85800 -8.30000 49.47800
N  25.10000 -5.98800 45.69200
C  25.91500 -4.95300 45.40800
C  25.47900 -4.18100 44.19600
C  23.94600 -4.65600 44.10100
C  23.90700 -5.87900 45.07200
C  22.93800 -3.56200 44.53500
C  26.31300 -4.34400 42.90100
C  26.81700 -3.16300 41.97900
H  26.07500 -3.06900 40.63000
N  23.34500 -8.38000 46.81500
C  22.48200 -7.86100 45.95100
C  21.29000 -8.64400 45.88500
C  21.49100 -9.73000 46.77700
C  22.81900 -9.36400 47.51200
C  20.14400 -8.28300 44.93900
C  20.59800 -10.91700 46.92500
O  19.68600 -11.01600 46.14100
C  20.84300 -12.00300 47.89300
N  25.65000 -9.11600 48.62200
C  24.74300 -9.96700 49.08200
C  25.30800 -10.96900 50.12500
C  26.73600 -10.48200 50.13800
C  26.78600 -9.21600 49.36600
C  24.62000 -10.90700 51.53700
C  27.87800 -11.59100 49.77900
C  29.11200 -11.65100 50.75400
N  27.12500 -6.76300 47.82400
C  28.11800 -7.17900 48.72600
C  29.30900 -6.31700 48.60100
C  28.89000 -5.38300 47.64900
C  27.58500 -5.63400 47.28200
C  30.65300 -6.58800 49.18300
C  29.35900 -4.13700 47.00900
O  30.49800 -3.61200 47.04600
C  28.23100 -3.71200 46.03800
C  27.92400 -2.29000 46.43400
O  28.08400 -1.35400 45.68900
O  27.52000 -2.09100 47.75200
C  26.95500 -0.74600 48.00700
H  21.94700 -6.41900 44.55500
H  22.81400 -10.79300 49.10900
H  28.70400 -8.52500 50.13000
H  25.54600 -3.13000 44.48000
H  23.69400 -5.00600 43.10000
H  22.10300 -4.05800 45.03000
H  22.41100 -3.20600 43.65000
H  23.32300 -2.72500 45.11700
H  25.77500 -5.10300 42.33300
H  27.17300 -4.97600 43.12500
H  27.89400 -3.21900 41.82200
H  26.68100 -2.21400 42.49800
H  20.15000 -9.08600 44.20200
H  20.22200 -7.27700 44.52600
H  19.22600 -8.39500 45.51500
H  21.88400 -12.31200 47.98000
H  20.26300 -12.89900 47.67400
H  20.52000 -11.66800 48.87900
H  25.20500 -11.99100 49.75900
H  27.02000 -10.23100 51.16000
H  23.96000 -10.04100 51.57000
H  25.36600 -10.76000 52.31900
H  24.02300 -11.78500 51.78500
H  28.19900 -11.44800 48.74700
H  27.38600 -12.55900 49.88600
H  30.03400 -11.55200 50.18100
H  29.03400 -12.63700 51.21100
H  29.00600 -10.89800 51.53600
H  30.61900 -7.04100 50.17300
H  31.16800 -5.63200 49.28200
H  31.16000 -7.25600 48.48600
H  28.59000 -3.67600 45.01000
H  27.79100 -0.09700 48.26800
H  26.28100 -0.82400 48.85900
H  26.50000 -0.32900 47.10800

