158

Mg 50.95500 46.55100 41.35600
C  47.86000 47.71300 40.31600
C  50.15800 43.45700 40.25800
C  54.13800 45.70800 41.71600
C  51.85700 49.95400 41.81300
N  49.21300 45.65300 40.35300
C  48.03800 46.32700 40.06100
C  47.06600 45.31800 39.38800
C  47.71300 43.93900 39.50700
C  49.11900 44.34600 40.00600
C  47.02400 42.97400 40.49700
C  46.80000 45.71100 37.94000
C  45.39800 45.46900 37.32300
H  45.49000 44.43000 36.27000
N  51.99400 44.85500 41.01800
C  51.49000 43.63300 40.65100
C  52.44800 42.57600 40.82200
C  53.62500 43.24900 41.28900
C  53.26300 44.66600 41.35500
C  52.33100 41.11300 40.40300
C  54.93300 42.51600 41.56000
O  55.01900 41.27600 41.39400
C  56.24600 43.20300 41.87400
N  52.73100 47.67900 41.58600
C  53.87600 47.07600 41.73900
C  55.03800 48.01300 42.00100
C  54.32000 49.38300 42.02200
C  52.87300 49.03200 41.86700
C  55.82500 47.77300 43.29700
C  54.71700 50.69900 41.25700
C  55.05700 51.97600 42.05200
N  50.05900 48.51200 41.25400
C  50.51000 49.78900 41.52300
C  49.49600 50.76600 41.36800
C  48.46300 50.01100 40.82000
C  48.85700 48.67200 40.81500
C  49.57200 52.26600 41.65100
C  47.15000 50.09000 40.27700
O  46.51800 51.08300 40.05300
C  46.73200 48.64800 39.83400
C  45.48000 48.26500 40.60300
O  45.42100 48.24800 41.82800
O  44.40100 48.04000 39.73400
C  43.12300 48.10500 40.47700
H  49.93900 42.40300 40.07600
H  55.17800 45.39400 41.83100
H  52.10900 51.00300 41.98400
H  46.12100 45.40300 39.92300
H  47.82900 43.49000 38.52100
H  47.00200 41.95400 40.11500
H  45.97200 43.18000 40.69800
H  47.52400 42.93000 41.46500
H  47.51300 45.18600 37.30400
H  47.06000 46.75200 37.74900
H  45.12400 46.41800 36.86100
H  44.56100 45.28900 37.99700
H  53.10200 40.81300 39.69400
H  51.38400 40.93900 39.89200
H  52.29100 40.52700 41.32100
H  56.15400 43.76700 42.80100
H  56.56400 43.95800 41.15500
H  57.10400 42.53300 41.92900
H  55.74500 48.00400 41.17200
H  54.19200 49.55500 43.09000
H  55.53600 46.79300 43.67800
H  55.54900 48.51700 44.04400
H  56.89300 47.62900 43.13100
H  54.06300 51.00200 40.43900
H  55.66200 50.39700 40.80600
H  54.63200 51.83600 43.04600
H  54.44700 52.78400 41.64900
H  56.12400 52.16400 41.93200
H  50.58400 52.47200 42.00100
H  48.81100 52.55400 42.37600
H  49.45900 52.75900 40.68600
H  46.56000 48.56500 38.76100
H  42.79900 47.09800 40.74100
H  42.48900 48.81000 39.93800
H  43.12700 48.50000 41.49300
Mg 26.89700 49.71400 26.34600
C  24.69300 51.06100 28.96500
C  28.77600 48.38900 28.61000
C  28.81300 48.71900 23.76400
C  24.97200 51.62000 24.17000
N  26.68400 49.70600 28.51400
C  25.73900 50.24900 29.40600
C  26.09400 49.88600 30.93300
C  27.46700 49.16600 30.69800
C  27.65900 49.03100 29.20900
C  28.67900 49.87300 31.49100
C  25.03600 48.87700 31.46700
C  24.37800 49.35300 32.82400
H  24.74300 48.61500 34.18000
N  28.51600 48.55600 26.15900
C  29.20800 48.12400 27.24200
C  30.35000 47.35100 26.83100
C  30.52200 47.63200 25.44600
C  29.31200 48.36400 25.03300
C  31.31500 46.62300 27.81000
C  31.65700 47.29200 24.57800
O  31.59800 47.62400 23.39200
C  32.84800 46.52400 25.11900
N  26.87500 50.03700 24.23500
C  27.71700 49.53500 23.31400
C  27.37700 49.83000 21.84400
C  26.10700 50.61600 22.11300
C  25.95900 50.77500 23.59500
C  28.47900 50.69200 21.24900
C  24.78900 50.12200 21.46000
C  24.50400 48.67800 21.69700
N  25.09600 50.97600 26.49200
C  24.54500 51.68200 25.50100
C  23.43200 52.44200 26.01500
C  23.49200 52.24400 27.36400
C  24.52500 51.39500 27.62500
C  22.30600 53.23400 25.26800
C  22.81600 52.51200 28.67600
O  21.87800 53.22300 28.93800
C  23.67300 51.84600 29.77200
C  24.22500 52.80500 30.71200
O  25.09800 53.66200 30.55900
O  23.38300 52.74300 31.84900
C  23.71600 53.70100 32.94200
H  29.34600 47.97900 29.44600
H  29.47600 48.56600 22.91000
H  24.41100 52.26000 23.48600
H  26.16800 50.78200 31.54900
H  27.52400 48.17000 31.13800
H  28.26600 50.67000 32.10800
H  29.40400 50.37800 30.85300
H  29.18700 49.21000 32.19200
H  25.48400 47.93700 31.78800
H  24.29400 48.67300 30.69400
H  23.30600 49.48000 32.67100
H  24.81200 50.35300 32.85300
H  32.34600 46.96400 27.72000
H  31.33000 45.57600 27.50700
H  30.88400 46.73500 28.80500
H  33.47600 47.25800 25.62400
H  33.34700 46.14300 24.22800
H  32.55100 45.65000 25.69800
H  27.20700 49.03100 21.12300
H  26.31500 51.66100 21.88400
H  29.24700 50.95000 21.97800
H  28.13300 51.64400 20.84700
H  29.01300 50.20100 20.43600
H  24.79700 50.31700 20.38800
H  23.90200 50.73900 21.60100
H  23.47200 48.58600 22.03500
H  25.20600 48.25800 22.41700
H  24.57700 48.16000 20.74100
H  21.40300 53.23000 25.87900
H  22.04000 52.67700 24.36900
H  22.65400 54.22800 24.98700
H  23.24100 51.08000 30.41700
H  22.83900 53.77200 33.58500
H  23.92000 54.71800 32.60900
H  24.57000 53.43600 33.56600

