158

Mg -2.30200 17.74000 27.74000
C  -2.40400 15.73700 30.56100
C  -2.93100 20.48600 29.73700
C  -2.25400 19.49300 24.98100
C  -2.48300 14.74000 25.77500
N  -2.67200 18.04000 29.94200
C  -2.48700 17.09700 30.95900
C  -2.68500 17.76700 32.36200
C  -3.05000 19.23300 32.02000
C  -2.86700 19.28800 30.48600
C  -4.33900 19.87200 32.54900
C  -1.73000 17.39100 33.47600
C  -1.55500 18.36300 34.68600
H  -1.18700 17.74600 36.06000
N  -2.32500 19.69400 27.39000
C  -2.58100 20.67300 28.33900
C  -2.51600 21.91900 27.67800
C  -2.30500 21.73500 26.28400
C  -2.31700 20.25100 26.16700
C  -2.83100 23.25700 28.37900
C  -2.10800 22.69200 25.14400
O  -1.88000 22.26300 23.97100
C  -2.06400 24.12500 25.40500
N  -2.30200 17.17100 25.66000
C  -2.26100 18.09700 24.70500
C  -2.39800 17.49900 23.30700
C  -2.22100 15.99600 23.67100
C  -2.44500 15.94600 25.13600
C  -3.70600 17.75200 22.56500
C  -0.88800 15.38900 23.10900
C  0.39400 15.92600 23.85900
N  -2.40900 15.65000 28.01000
C  -2.47300 14.58300 27.15700
C  -2.55400 13.36700 27.83300
C  -2.50000 13.73100 29.17600
C  -2.41700 15.18000 29.26100
C  -2.83100 12.03700 27.30100
C  -2.45300 13.27000 30.58900
O  -2.43900 12.13900 31.02900
C  -2.33500 14.57700 31.51100
C  -1.04000 14.51900 32.30000
O  -0.02700 15.07900 31.94000
O  -1.23500 14.00800 33.54300
C  -0.06900 14.00300 34.38800
H  -3.20800 21.36700 30.32000
H  -2.04400 20.06200 24.07300
H  -2.51100 13.83100 25.17000
H  -3.65800 17.33600 32.60000
H  -2.23700 19.85100 32.40100
H  -5.11700 20.07100 31.81200
H  -4.03300 20.86200 32.88800
H  -4.67800 19.11300 33.25400
H  -0.80600 17.54900 32.92000
H  -1.85600 16.35100 33.78000
H  -2.44600 18.99100 34.68900
H  -0.73700 19.04700 34.46100
H  -1.87400 23.60500 28.76900
H  -3.46600 23.11600 29.25400
H  -3.31400 23.95200 27.69200
H  -3.07100 24.51300 25.56500
H  -1.64000 24.60500 24.52400
H  -1.38400 24.36500 26.22200
H  -1.58600 17.83600 22.66200
H  -3.03700 15.36300 23.32200
H  -3.49800 18.57500 21.88100
H  -4.53100 18.11500 23.17900
H  -4.05900 16.89900 21.98500
H  -0.73800 15.73400 22.08600
H  -0.94500 14.30200 23.16000
H  1.07400 15.07400 23.86700
H  0.22600 16.21500 24.89600
H  0.78900 16.71200 23.21500
H  -3.59400 12.10100 26.52500
H  -3.27200 11.44500 28.10200
H  -1.96000 11.62600 26.78900
H  -3.20100 14.63600 32.16900
H  0.44500 14.95600 34.51100
H  0.68800 13.32900 33.98800
H  -0.48900 13.46300 35.23600
Mg 17.30200 -0.56500 28.57300
C  15.96700 0.64500 31.57800
C  19.45500 -2.49800 30.53900
C  18.40600 -1.94400 25.79900
C  15.17000 1.46800 26.74400
N  17.72800 -0.88300 30.83600
C  17.04600 -0.24900 31.84900
C  17.52000 -0.69700 33.25000
C  18.82900 -1.50700 32.89600
C  18.66300 -1.71100 31.34700
C  20.14200 -0.82500 33.36500
C  16.33800 -1.51600 33.91200
C  15.87600 -0.95100 35.37300
H  16.98400 -0.56300 36.33000
N  18.72200 -1.99500 28.24300
C  19.49000 -2.69700 29.13000
C  20.21600 -3.77000 28.43900
C  19.84700 -3.67100 27.05700
C  18.94400 -2.49200 26.97900
C  21.19200 -4.73600 29.14400
C  20.22500 -4.51700 25.79600
O  19.75400 -4.34300 24.68900
C  21.29700 -5.55800 26.03800
N  16.99900 -0.21000 26.54500
C  17.57000 -0.85700 25.59400
C  17.16400 -0.35700 24.18200
C  16.08300 0.78200 24.55900
C  16.01900 0.65600 26.03700
C  18.27400 0.10500 23.22900
C  14.61300 0.76000 23.88200
C  14.39100 0.61900 22.35700
N  15.82000 0.78300 29.01600
C  15.08500 1.56100 28.10400
C  14.18800 2.41600 28.88900
C  14.50300 2.13600 30.21900
C  15.49800 1.10600 30.27800
C  13.21800 3.40800 28.36300
C  14.31500 2.48000 31.63500
O  13.50200 3.27600 32.09600
C  15.24600 1.58700 32.54400
C  16.15800 2.55300 33.14900
O  17.10500 3.11700 32.59400
O  15.76200 2.82300 34.42300
C  16.59300 3.79800 35.13300
H  20.10600 -3.12400 31.15200
H  18.69700 -2.45500 24.87900
H  14.67200 2.31100 26.26000
H  17.65900 0.21800 33.82600
H  18.75200 -2.52800 33.27100
H  20.64900 -0.58600 32.43000
H  20.84100 -1.43300 33.93900
H  19.98100 0.12200 33.88100
H  16.78700 -2.47900 34.15600
H  15.57400 -1.62600 33.14200
H  15.35800 -1.75700 35.89300
H  15.16300 -0.13800 35.23800
H  22.25200 -4.73200 28.89300
H  20.81000 -5.74700 28.99700
H  21.07100 -4.63000 30.22200
H  22.22900 -5.00000 26.12500
H  21.34200 -6.15100 25.12400
H  21.02000 -6.22600 26.85400
H  16.71300 -1.23900 23.72600
H  16.44100 1.78400 24.32000
H  18.06100 1.13800 22.95200
H  18.35200 -0.52900 22.34600
H  19.24100 0.19500 23.72500
H  14.10100 1.67800 24.17200
H  14.08300 -0.05900 24.36700
H  15.30500 0.19900 21.93700
H  14.32500 1.63000 21.95500
H  13.46800 0.05400 22.22600
H  12.92700 3.10600 27.35600
H  13.72200 4.37000 28.27300
H  12.41000 3.47900 29.09000
H  14.69600 1.06100 33.32400
H  16.34800 4.83000 34.88500
H  17.62900 3.50600 34.96000
H  16.48600 3.62200 36.20400

