158

Mg -0.10700 7.99300 25.72000
C  1.21000 9.40700 28.63700
C  -0.66600 5.11300 27.28700
C  -0.84500 6.66700 22.68300
C  0.45600 11.08600 24.11000
N  0.36000 7.32800 27.69900
C  0.74500 8.09800 28.82100
C  0.43200 7.36100 30.12500
C  0.07600 5.92800 29.64000
C  -0.12600 6.09500 28.10000
C  1.15700 4.85900 29.98600
C  -0.68900 8.06100 31.01700
C  -0.43500 8.23600 32.52200
H  -0.00700 6.95800 33.29500
N  -0.80900 6.15400 25.06700
C  -1.00500 5.08200 25.87500
C  -1.36500 3.95600 25.00000
C  -1.35400 4.35400 23.65100
C  -1.00900 5.80400 23.74700
C  -1.63200 2.64700 25.59400
C  -1.73400 3.64300 22.41700
O  -1.86100 4.11700 21.30500
C  -2.17500 2.17700 22.58800
N  -0.10700 8.79800 23.67400
C  -0.57300 8.08600 22.64800
C  -0.43500 8.94900 21.37900
C  -0.53000 10.41400 21.92300
C  0.00400 10.09800 23.33700
C  0.88700 8.60100 20.66800
C  -1.93400 11.06400 21.83300
C  -2.37900 11.75200 20.51000
N  0.83700 9.76500 26.12200
C  0.91000 10.97100 25.39000
C  1.28800 12.03000 26.22400
C  1.47200 11.49800 27.47900
C  1.17400 10.11700 27.39800
C  1.33800 13.56500 25.94500
C  1.82900 11.75500 28.93600
O  2.14400 12.82500 29.45900
C  1.47400 10.43100 29.71600
C  2.54900 10.05700 30.63500
O  3.50300 9.30800 30.34300
O  2.42900 10.83800 31.69100
C  3.40400 10.43700 32.69300
H  -0.96900 4.26800 27.90800
H  -1.18200 6.18500 21.76300
H  0.61600 12.07900 23.68700
H  1.37400 7.25600 30.66400
H  -0.87500 5.58300 30.04300
H  1.44800 4.43400 29.02500
H  0.63300 4.07100 30.52600
H  1.97700 5.22800 30.60200
H  -1.64000 7.53100 30.95600
H  -0.90200 9.07700 30.68600
H  -1.44900 8.35700 32.90100
H  0.12100 9.14200 32.76200
H  -1.56000 2.65000 26.68200
H  -0.98600 1.90000 25.13200
H  -2.64600 2.31600 25.37100
H  -2.71300 1.73700 21.74900
H  -2.89200 2.08000 23.40300
H  -1.24400 1.63000 22.73900
H  -1.21800 8.79000 20.63800
H  0.19900 11.03900 21.40600
H  0.72200 8.15700 19.68600
H  1.45900 7.89100 21.26600
H  1.55000 9.46600 20.65200
H  -1.94700 11.88000 22.55500
H  -2.57400 10.22300 22.09900
H  -1.62700 11.57800 19.74000
H  -2.55000 12.80500 20.73400
H  -3.32300 11.34300 20.14900
H  0.45300 13.94200 25.43200
H  2.24200 13.96900 25.48700
H  1.27800 14.04200 26.92300
H  0.51600 10.53600 30.22500
H  3.57100 11.26100 33.38700
H  4.33800 10.07200 32.26600
H  3.01300 9.58000 33.24200
Mg 9.94500 48.98400 26.55200
C  7.95300 48.63100 29.46900
C  12.57300 50.03900 28.43300
C  11.68300 49.04800 23.71100
C  7.04700 48.18600 24.72800
N  10.08500 49.61800 28.69900
C  9.22800 49.25500 29.70400
C  9.86300 49.54900 31.09600
C  11.35400 50.09800 30.67700
C  11.36100 49.92300 29.19800
C  11.59500 51.52400 31.09700
C  9.83800 48.26200 31.99000
C  8.91600 48.40600 33.26500
H  9.48500 49.28800 34.42400
N  11.84200 49.64000 26.11300
C  12.85200 49.91000 27.03900
C  14.10100 50.04500 26.37300
C  13.94600 49.74500 24.96500
C  12.41600 49.45500 24.89800
C  15.35700 50.39600 27.12500
C  14.92200 49.58200 23.82800
O  14.46500 49.41400 22.67400
C  16.41300 49.36200 24.19700
N  9.39800 48.86600 24.51700
C  10.30100 48.80900 23.51400
C  9.77300 48.41200 22.09400
C  8.38000 47.84900 22.54300
C  8.23100 48.33300 24.02900
C  9.91000 49.71200 21.19500
C  8.18300 46.30500 22.37600
C  9.19800 45.29500 22.73300
N  7.83800 48.56400 26.92900
C  6.76900 48.31900 26.07900
C  5.55500 47.94300 26.91000
C  5.96300 48.07000 28.21300
C  7.38300 48.44400 28.18900
C  4.20300 47.58500 26.36700
C  5.61300 47.98200 29.61200
O  4.56000 47.72300 30.22700
C  6.94900 48.28200 30.44900
C  7.17400 46.90800 31.03800
O  7.80100 45.98600 30.53800
O  6.34700 46.72500 32.15000
C  6.36200 45.38800 32.80200
H  13.46400 50.21800 29.03800
H  12.21500 48.83800 22.78100
H  6.15500 47.93800 24.14900
H  9.32100 50.40500 31.49600
H  12.01200 49.41100 31.20900
H  12.45800 51.48900 31.76200
H  10.77100 51.82500 31.74400
H  11.67000 52.11700 30.18600
H  10.84000 48.15100 32.40500
H  9.56300 47.38500 31.40400
H  8.93400 47.40700 33.70100
H  7.93100 48.85700 33.14200
H  15.03600 51.00600 27.97000
H  15.95400 51.08800 26.53100
H  15.88500 49.50700 27.47000
H  16.53900 48.79500 25.11900
H  17.01600 50.26100 24.31800
H  16.82100 48.86900 23.31400
H  10.50300 47.65500 21.81000
H  7.49900 48.23800 22.03200
H  8.98800 50.04100 20.71600
H  10.76900 49.56400 20.53900
H  10.27000 50.52200 21.83000
H  7.93100 46.15100 21.32700
H  7.26100 46.04800 22.89800
H  8.74600 44.52100 23.35300
H  9.99100 45.73200 23.34000
H  9.50500 44.76500 21.83200
H  4.46600 46.90500 25.55700
H  3.72400 48.51100 26.05000
H  3.55200 47.14100 27.12100
H  6.81100 49.03500 31.22500
H  6.68000 45.50500 33.83800
H  7.01900 44.68800 32.28600
H  5.39900 44.88400 32.87800

