158

Mg 45.99400 24.61300 28.82900
C  46.94100 27.00500 31.35200
C  45.24200 22.45600 31.53300
C  45.81300 22.12100 26.65900
C  47.55400 26.71700 26.57700
N  46.09300 24.77500 31.15200
C  46.37800 25.85200 31.91000
C  46.09600 25.64300 33.39400
C  45.66900 24.13400 33.37800
C  45.57200 23.80100 31.89100
C  46.65000 23.20900 34.15200
C  44.92800 26.59400 33.89400
C  45.25000 27.46700 35.18200
H  44.18000 27.40500 36.31600
N  45.47400 22.54300 29.04100
C  45.10500 21.90600 30.19400
C  44.83400 20.51600 29.80400
C  45.07800 20.38300 28.39200
C  45.42500 21.76700 27.92500
C  44.50600 19.48600 30.94500
C  45.06600 19.15400 27.55800
O  45.42600 19.11000 26.33300
C  44.51900 17.87200 28.28300
N  46.67400 24.37200 26.93600
C  46.35500 23.31100 26.15700
C  46.76700 23.51200 24.71500
C  47.14400 25.06200 24.62900
C  47.13000 25.44900 26.14200
C  47.85500 22.48700 24.33100
C  46.05100 25.89600 23.84500
C  44.76300 26.27600 24.62900
N  46.91300 26.57700 28.77900
C  47.51500 27.26300 27.79100
C  47.97100 28.57400 28.31000
C  47.75200 28.55200 29.71700
C  47.15100 27.25900 29.97800
C  48.53400 29.64800 27.40000
C  47.77300 29.29800 30.93400
O  47.97100 30.51900 31.07600
C  47.31400 28.32900 32.13100
C  48.47200 28.10600 33.01200
O  49.64200 27.84700 32.70800
O  48.18300 28.49600 34.32400
C  49.27500 28.50600 35.27100
H  44.95400 21.87200 32.41000
H  45.68400 21.31800 25.92900
H  47.87700 27.31900 25.72500
H  47.03600 25.82700 33.91600
H  44.71700 24.03600 33.89900
H  46.00800 22.59700 34.78600
H  47.27000 23.71300 34.89300
H  47.22100 22.56300 33.48600
H  43.99700 26.04900 34.05100
H  44.78000 27.32400 33.09800
H  45.34700 28.51200 34.88800
H  46.20100 27.23600 35.66100
H  45.02900 18.54900 30.75000
H  43.44000 19.30000 30.80900
H  44.73100 19.86500 31.94100
H  45.40400 17.37600 28.68200
H  44.07700 17.14700 27.60000
H  43.72700 18.07600 29.00300
H  45.95400 23.28700 24.02300
H  48.08900 25.30400 24.14300
H  48.28000 21.95100 25.18000
H  48.68700 22.97500 23.82200
H  47.44800 21.73700 23.65300
H  45.67600 25.29100 23.01900
H  46.44600 26.86900 23.55500
H  44.64800 25.62200 25.49300
H  43.88300 26.01200 24.04200
H  44.77400 27.33000 24.90600
H  47.76300 30.41200 27.30300
H  48.74600 29.20800 26.42600
H  49.52000 29.90600 27.78700
H  46.42500 28.67900 32.65700
H  49.87000 27.60600 35.11000
H  48.98500 28.59200 36.31800
H  49.91300 29.37900 35.13300
Mg 41.19400 41.36200 27.76600
C  40.44200 43.92500 30.01200
C  41.99000 39.28700 30.41000
C  42.02300 38.90900 25.60400
C  40.91700 43.60700 25.11500
N  41.04400 41.63800 29.88600
C  40.63700 42.73400 30.63200
C  40.63700 42.51100 32.11800
C  41.21500 41.00800 32.24800
C  41.41700 40.62800 30.76800
C  42.36800 40.76200 33.21200
C  39.23000 42.76400 32.78200
C  38.75600 41.99000 34.07600
H  38.27800 42.80500 35.27200
N  41.75200 39.31000 27.97500
C  42.19000 38.69200 29.13400
C  42.77000 37.41800 28.87600
C  42.58800 37.27100 27.49200
C  42.14000 38.54100 26.93800
C  43.36200 36.54600 29.86200
C  42.77600 35.97000 26.71700
O  42.70200 35.85500 25.50700
C  43.00700 34.60700 27.51800
N  41.68500 41.38500 25.69700
C  41.82600 40.18200 25.04000
C  41.78400 40.33300 23.51300
C  41.25900 41.78800 23.40000
C  41.32800 42.33400 24.79800
C  43.08600 40.00800 22.81200
C  39.85800 41.92300 22.81500
C  38.63700 41.61800 23.79400
N  40.93600 43.49600 27.51400
C  40.71800 44.21300 26.37800
C  40.34700 45.57800 26.84800
C  40.31900 45.52100 28.26400
C  40.58500 44.19400 28.60600
C  40.20500 46.70800 25.95000
C  40.01100 46.26100 29.44300
O  39.60900 47.42800 29.61400
C  40.10900 45.21300 30.64800
C  41.22100 45.73500 31.38100
O  42.34200 45.88600 30.97600
O  40.78500 46.16400 32.63000
C  41.95300 46.40500 33.47100
H  42.18600 38.64900 31.27400
H  42.40700 38.13900 24.93200
H  40.89700 44.27000 24.24800
H  41.42700 43.16700 32.48500
H  40.49600 40.31500 32.68500
H  42.30800 41.17700 34.21800
H  43.20100 41.14000 32.62000
H  42.43300 39.67700 33.29100
H  38.41000 42.76000 32.06400
H  39.30800 43.81600 33.05800
H  39.55200 41.37000 34.48800
H  37.94000 41.40500 33.65100
H  44.19600 36.13200 29.29500
H  42.68200 35.72500 30.08700
H  43.72600 37.02800 30.76900
H  42.96300 33.71900 26.88800
H  42.26400 34.55300 28.31400
H  44.02500 34.65300 27.90700
H  41.00600 39.72500 23.05000
H  41.84700 42.42500 22.73800
H  43.72900 39.59200 23.58700
H  43.50800 40.91400 22.37800
H  42.95300 39.39000 21.92300
H  39.76400 41.12900 22.07400
H  39.69500 42.83400 22.23900
H  38.91000 41.80000 24.83300
H  38.37600 40.56000 23.81100
H  37.80400 42.27100 23.53000
H  40.53700 47.59600 26.48800
H  39.22600 47.00100 25.57100
H  40.82100 46.40800 25.10200
H  39.24000 45.26000 31.30400
H  42.45500 47.32100 33.15900
H  42.66200 45.58300 33.36600
H  41.61500 46.51200 34.50100

