158

Mg 24.84600 1.79200 30.20900
C  27.14100 1.43100 32.81000
C  22.43400 2.38500 32.38100
C  22.65800 1.67500 27.62000
C  27.34700 0.65300 28.01000
N  24.80500 1.90500 32.35200
C  25.86700 1.91500 33.25300
C  25.46900 2.38600 34.59100
C  23.90300 2.43000 34.52700
C  23.65300 2.19900 32.98000
C  23.25100 1.41900 35.48400
C  26.05900 3.71600 35.03200
C  27.30700 3.69200 35.92700
H  27.16100 4.28800 37.34000
N  22.81100 2.04300 30.07300
C  22.01700 2.32000 31.09800
C  20.64500 2.48200 30.64600
C  20.64700 2.09700 29.28200
C  22.11600 1.98900 28.87900
C  19.48500 2.82600 31.50300
C  19.45400 1.96800 28.31400
O  19.55800 1.70100 27.09600
C  18.06400 2.07700 28.78000
N  25.02300 1.26700 28.10000
C  23.93300 1.32500 27.26500
C  24.28600 0.85700 25.83900
C  25.76600 0.41600 26.01500
C  26.06500 0.77700 27.47800
C  23.33500 -0.18600 25.17500
C  26.68700 1.15900 25.02900
C  27.29300 2.48700 25.43900
N  26.90100 1.22300 30.30600
C  27.81200 0.70700 29.33600
C  29.13300 0.40000 29.91500
C  28.91700 0.73000 31.30500
C  27.52100 1.11300 31.51700
C  30.36400 -0.19800 29.27700
C  29.54500 0.87700 32.61900
O  30.72800 0.70900 32.94500
C  28.49900 1.11900 33.60700
C  28.46000 0.12800 34.73600
O  27.62800 -0.75400 34.83500
O  29.42300 0.39200 35.68300
C  29.27600 -0.34200 36.96800
H  21.66600 2.66600 33.10500
H  22.00000 1.82400 26.76200
H  28.17300 0.37100 27.35400
H  25.81800 1.55500 35.20500
H  23.54900 3.41100 34.84700
H  22.39300 0.96900 34.98400
H  22.88400 1.87300 36.40400
H  23.95900 0.64900 35.79000
H  25.31500 4.28100 35.59200
H  26.24700 4.29000 34.12500
H  28.12200 4.25200 35.46800
H  27.80500 2.72400 35.98900
H  19.71000 3.04100 32.54700
H  18.81300 1.97300 31.59800
H  19.01000 3.70400 31.06600
H  17.89700 1.23800 29.45600
H  17.37500 1.98300 27.94000
H  17.97000 3.04400 29.27400
H  24.26600 1.67300 25.11700
H  25.98500 -0.64200 25.87500
H  23.81700 -1.16200 25.22900
H  22.97300 -0.05800 24.15500
H  22.40600 -0.36000 25.71900
H  26.15000 1.18400 24.08100
H  27.53900 0.49500 24.88600
H  28.37500 2.39700 25.53500
H  26.83700 2.89000 26.34300
H  27.12900 3.25500 24.68200
H  31.05800 0.53000 28.85500
H  30.12700 -0.86300 28.44700
H  30.89100 -0.68100 30.09900
H  28.84400 2.07000 34.01300
H  30.16100 -0.17400 37.58200
H  28.93300 -1.37700 36.96500
H  28.50900 0.17100 37.54800
Mg 47.46600 26.07000 28.17800
C  48.59000 27.93800 30.89900
C  46.51800 23.63400 30.42100
C  46.74500 24.10100 25.57100
C  48.81700 28.55200 26.08000
N  47.43300 25.92600 30.40000
C  47.88300 26.84300 31.28200
C  47.67400 26.34800 32.74800
C  47.27800 24.90600 32.57500
C  47.11600 24.76800 31.02500
C  48.33500 23.88400 33.11500
C  46.58800 27.15000 33.50800
C  47.03800 27.70400 34.88900
H  46.05500 27.76200 36.08700
N  46.70700 24.15600 28.00800
C  46.35100 23.32700 29.01100
C  45.90900 22.08800 28.46500
C  45.84300 22.30300 27.06800
C  46.43800 23.57200 26.79600
C  45.62000 20.84600 29.31000
C  45.37500 21.38100 25.98000
O  45.57200 21.52300 24.78400
C  44.49100 20.26100 26.34300
N  47.92500 26.18300 26.17200
C  47.39700 25.28400 25.26500
C  47.52500 25.83200 23.83200
C  47.98400 27.33500 24.06100
C  48.21700 27.39200 25.58400
C  48.41200 24.89500 22.96400
C  47.04300 28.55100 23.55600
C  47.57000 29.68800 22.66100
N  48.50200 27.86600 28.39600
C  49.03800 28.70100 27.45600
C  49.77000 29.75600 28.05900
C  49.57300 29.49600 29.43000
C  48.84200 28.31700 29.59700
C  50.54600 30.87100 27.37500
C  49.85600 30.06800 30.73700
O  50.33900 31.17900 31.05200
C  49.18800 29.18400 31.79200
C  50.31500 28.77800 32.73900
O  51.17600 27.98600 32.49400
O  50.15000 29.41700 33.92800
C  51.29400 29.29500 34.87200
H  46.20400 22.93100 31.19500
H  46.32600 23.75700 24.62300
H  49.24400 29.32700 25.44000
H  48.59800 26.34200 33.32700
H  46.39400 24.63600 33.15300
H  47.84500 23.27200 33.87200
H  49.26600 24.37200 33.40500
H  48.57800 23.20600 32.29700
H  45.61900 26.66300 33.61500
H  46.28800 27.95500 32.83700
H  47.45100 28.70900 34.80600
H  47.82400 27.02200 35.21200
H  46.31000 20.09600 28.92600
H  44.59700 20.56200 29.06300
H  45.65600 20.88900 30.39900
H  44.22500 19.64000 25.48700
H  43.61600 20.63900 26.87200
H  45.10000 19.68400 27.04000
H  46.51300 25.94000 23.44000
H  49.00200 27.41600 23.68200
H  48.70700 24.11400 23.66500
H  49.32600 25.41400 22.67600
H  47.90700 24.56700 22.05600
H  46.60700 28.91400 24.48600
H  46.14900 28.18200 23.05300
H  48.57300 29.56300 22.25400
H  47.52500 30.52800 23.35400
H  46.95200 29.78600 21.76800
H  50.55500 31.77200 27.98800
H  50.01900 31.17500 26.47000
H  51.52300 30.46200 27.12000
H  48.30600 29.53000 32.33200
H  51.19900 28.36100 35.42700
H  51.30300 30.07800 35.63000
H  52.25600 29.17500 34.37500

