158

Mg 6.92600 55.56100 40.31500
C  4.34400 53.18700 39.88600
C  9.22200 52.99500 39.82900
C  9.29300 57.77400 40.14000
C  4.50100 57.99100 41.07300
N  6.75300 53.34300 39.50700
C  5.60600 52.60200 39.53700
C  5.94400 51.21800 38.99300
C  7.48900 51.14000 39.30800
C  7.85500 52.56600 39.61100
C  7.98600 50.33300 40.49900
C  5.49400 51.02900 37.49500
C  4.56100 49.83300 37.19300
H  4.77500 48.95900 35.92400
N  8.98400 55.43000 39.86600
C  9.75100 54.23700 39.81600
C  11.08400 54.58500 39.65800
C  11.16900 55.97500 39.58000
C  9.79900 56.44500 39.82700
C  12.28800 53.59600 39.46300
C  12.40200 56.77400 39.33900
O  13.44000 56.15300 39.13700
C  12.44400 58.27600 39.38800
N  6.82900 57.63200 40.44800
C  8.03800 58.27100 40.50200
C  7.88400 59.60500 41.08500
C  6.28900 59.87400 41.02400
C  5.76100 58.40500 40.82300
C  8.40900 59.71000 42.54700
C  5.95100 60.79400 39.81800
C  5.33500 62.16700 40.19900
N  4.88000 55.68600 40.46600
C  4.02800 56.70200 40.81800
C  2.69600 56.23100 40.96700
C  2.79600 54.82300 40.72800
C  4.08600 54.56300 40.23600
C  1.47600 56.98700 41.42800
C  2.06900 53.62100 40.73500
O  0.91100 53.33800 41.03900
C  2.99800 52.50200 40.12000
C  2.39500 52.08400 38.90100
O  2.66000 52.58300 37.83600
O  1.52600 51.04500 39.25500
C  0.74000 50.54600 38.21200
H  9.92100 52.17800 39.63900
H  10.09900 58.49200 40.30300
H  3.84300 58.76000 41.48200
H  5.47700 50.46900 39.63200
H  7.98300 51.00300 38.34600
H  9.01500 50.04300 40.28700
H  7.44400 49.38800 40.53000
H  7.90600 50.86900 41.44500
H  6.36300 51.06800 36.83800
H  5.02700 51.94300 37.12900
H  3.62000 50.27900 36.87200
H  4.42900 49.15300 38.03500
H  12.77200 53.66000 38.48800
H  12.23000 52.52500 39.65800
H  13.08300 54.03200 40.06800
H  11.98600 58.74100 38.51500
H  13.52100 58.44500 39.38800
H  12.18600 58.64700 40.38000
H  8.58800 60.19600 40.50000
H  5.98900 60.23100 42.00900
H  7.63400 60.05300 43.23300
H  9.36000 60.24000 42.59800
H  8.70000 58.73700 42.94300
H  5.31800 60.28600 39.09100
H  6.83500 61.01700 39.22100
H  4.74200 62.12700 41.11300
H  4.51000 62.21200 39.48900
H  5.98400 63.03600 40.30900
H  0.71400 56.21500 41.53700
H  1.06400 57.65000 40.66700
H  1.62500 57.51800 42.36800
H  3.07100 51.66800 40.81800
H  0.20300 49.66800 38.57000
H  1.28000 50.21800 37.32400
H  0.01600 51.26800 37.83400
Mg 17.38200 52.99800 27.40100
C  19.23600 51.52000 29.90300
C  14.95300 53.88200 29.60900
C  15.49500 54.06400 24.72600
C  19.87000 51.90200 25.08000
N  17.16900 52.73000 29.41200
C  18.08900 52.20000 30.29800
C  17.60700 52.35400 31.75600
C  16.11500 52.77400 31.59200
C  16.07100 53.21800 30.14900
C  15.13700 51.56400 31.75500
C  18.46800 53.49900 32.34600
C  18.83700 53.32700 33.85100
H  17.94400 52.53800 34.81800
N  15.48100 53.91400 27.15400
C  14.69000 54.22200 28.22500
C  13.52600 54.94800 27.74700
C  13.63800 55.07400 26.27400
C  14.94300 54.32500 25.96900
C  12.42300 55.25000 28.69100
C  12.87600 55.87200 25.27100
O  13.16400 56.08700 24.12000
C  11.63200 56.43600 25.84100
N  17.64100 52.92600 25.19300
C  16.66700 53.41900 24.35000
C  17.18200 53.22300 22.90800
C  18.62700 52.68500 23.04200
C  18.74400 52.52400 24.56000
C  16.23700 52.43400 22.02700
C  19.76800 53.59900 22.51200
C  19.73800 55.13700 23.04600
N  19.05500 51.76800 27.43100
C  20.01500 51.53200 26.46800
C  21.06800 50.69600 26.99000
C  20.83000 50.68400 28.39100
C  19.56800 51.28600 28.55100
C  22.29100 50.16200 26.20600
C  21.25300 50.13800 29.70200
O  22.15200 49.41700 30.04300
C  20.29200 50.77200 30.76000
C  19.79900 49.59900 31.57900
O  19.29100 48.58600 31.09500
O  19.94700 49.86600 32.91300
C  19.92500 48.70100 33.81500
H  14.24000 54.05600 30.41800
H  14.96800 54.37600 23.82200
H  20.64500 51.70800 24.33500
H  17.74100 51.39700 32.26100
H  15.81600 53.61600 32.21700
H  14.66300 51.34600 30.79800
H  14.35600 51.72200 32.49800
H  15.68700 50.66400 32.02800
H  18.02200 54.49400 32.34700
H  19.36300 53.41000 31.73000
H  18.89400 54.27500 34.38500
H  19.87900 53.00800 33.88600
H  12.50000 54.76100 29.66200
H  11.44800 55.01200 28.26600
H  12.39500 56.33100 28.82600
H  10.89300 55.66600 26.06400
H  11.09600 57.00300 25.08100
H  11.91100 57.12500 26.63800
H  17.15700 54.15900 22.35100
H  18.68400 51.66200 22.66900
H  16.69100 51.54600 21.58700
H  15.71600 53.12700 21.36600
H  15.38800 51.98400 22.54100
H  19.58300 53.64100 21.43800
H  20.76500 53.16400 22.58200
H  18.82500 55.36100 23.59800
H  19.93900 55.77300 22.18400
H  20.57300 55.23900 23.73900
H  22.59400 50.83500 25.40400
H  22.09900 49.12600 25.92600
H  23.10200 50.06000 26.92800
H  20.76400 51.44400 31.47700
H  20.10300 49.02300 34.84100
H  20.64500 47.90300 33.63400
H  18.93600 48.24400 33.77300

