158

Mg 45.12600 3.48500 47.76300
C  43.03000 6.03100 46.79300
C  42.67300 1.22300 47.11800
C  47.35400 1.03400 48.03700
C  47.73800 5.79800 47.03100
N  43.07600 3.61900 46.86300
C  42.42300 4.78700 46.65900
C  40.92200 4.45900 46.25400
C  40.79900 2.93900 46.71600
C  42.28100 2.55800 46.85700
C  39.95700 2.71400 47.96700
C  40.70400 4.71400 44.78800
C  39.59200 5.75600 44.62500
H  38.56900 5.55200 43.42400
N  45.02600 1.45400 47.68700
C  43.91500 0.70500 47.43600
C  44.15100 -0.75600 47.64100
C  45.50400 -0.88300 48.02200
C  46.03900 0.53000 47.90000
C  43.14200 -1.85000 47.38200
C  46.23800 -2.12300 48.40500
O  45.61300 -3.20500 48.51000
C  47.67800 -2.12700 48.77700
N  47.23600 3.49400 47.66400
C  47.89800 2.31200 47.92100
C  49.46700 2.57100 47.86600
C  49.55500 4.06500 47.41400
C  48.12100 4.47800 47.29800
C  50.11000 2.19000 49.23800
C  50.36400 4.14700 46.06700
C  51.87800 4.43000 46.25300
N  45.42800 5.59900 47.30300
C  46.51700 6.42900 47.12300
C  46.10700 7.83800 46.96800
C  44.69800 7.72300 46.90300
C  44.34600 6.29600 47.03700
C  47.06700 8.99700 46.67400
C  43.54500 8.45400 46.51800
O  43.25600 9.59400 46.18200
C  42.38000 7.41000 46.63500
C  41.38600 7.90000 47.70700
O  41.49400 7.63900 48.85900
O  40.26200 8.37000 47.08900
C  39.13000 8.81600 47.86400
H  41.75900 0.66200 46.91000
H  48.06500 0.23300 48.25000
H  48.58300 6.48500 46.96100
H  40.28000 5.03300 46.92200
H  40.31600 2.32300 45.95700
H  39.59400 3.63100 48.43000
H  40.60400 2.08600 48.58100
H  39.02600 2.22500 47.68100
H  40.39600 3.78400 44.31100
H  41.55100 5.14200 44.25200
H  40.06300 6.73800 44.56400
H  38.89900 5.90000 45.45400
H  42.17100 -1.51400 47.01800
H  42.98200 -2.58300 48.17300
H  43.59400 -2.46800 46.60600
H  48.37600 -1.82200 47.99800
H  47.87300 -3.16900 49.02900
H  47.93000 -1.61700 49.70800
H  49.71600 1.83500 47.10100
H  49.88600 4.63600 48.28100
H  49.49300 1.96300 50.10700
H  50.84900 2.96500 49.44300
H  50.74200 1.30200 49.25300
H  49.88900 4.89700 45.43500
H  50.32000 3.26900 45.42300
H  52.11800 4.75700 47.26500
H  52.03600 5.28100 45.59000
H  52.49900 3.60800 45.89400
H  48.12800 8.76900 46.77200
H  46.80800 9.78600 47.38000
H  46.79000 9.20600 45.64000
H  41.87600 7.37300 45.66900
H  39.52200 9.29900 48.75900
H  38.55600 7.89800 47.98800
H  38.77300 9.41500 47.02600
Mg 52.80000 24.05400 43.82800
C  49.85500 25.80800 43.64200
C  51.08100 21.07400 43.16300
C  55.75600 22.56900 43.27600
C  54.43300 27.15700 44.42000
N  50.78100 23.58700 43.27200
C  49.78000 24.45500 43.35700
C  48.45400 23.70200 43.15900
C  48.80400 22.19100 43.35900
C  50.32400 22.21600 43.24000
C  48.26100 21.54700 44.64800
C  47.78300 23.94800 41.70300
C  48.66300 23.78400 40.50000
H  47.93300 23.41400 39.28400
N  53.37900 22.09400 43.30200
C  52.51500 20.95700 43.24700
C  53.33900 19.73600 43.22400
C  54.71400 20.17900 43.17600
C  54.63900 21.67000 43.24000
C  52.78900 18.37500 43.11400
C  55.87700 19.13100 43.14700
O  55.65300 17.92400 43.08000
C  57.27600 19.61200 43.22000
N  54.80400 24.84000 43.73400
C  55.83200 23.98700 43.56600
C  57.15600 24.73400 43.70500
C  56.75400 26.07700 44.33000
C  55.23800 26.05400 44.13600
C  58.27500 23.88100 44.52100
C  57.45900 27.25700 43.56200
C  58.03700 28.30400 44.51200
N  52.28900 26.14100 44.07100
C  53.05800 27.25800 44.34900
C  52.17200 28.32400 44.63300
C  50.88200 27.77200 44.31000
C  51.03900 26.52400 43.92700
C  52.53100 29.73500 45.14300
C  49.44600 28.08400 44.26700
O  48.76600 29.11400 44.50500
C  48.77100 26.87100 43.73200
C  48.12700 27.21100 42.43900
O  48.79700 27.24600 41.41500
O  46.79500 27.42100 42.55900
C  46.04300 27.98700 41.40300
H  50.59500 20.10100 43.06200
H  56.74400 22.10500 43.23700
H  55.03800 28.00000 44.76200
H  47.79700 23.99500 43.97800
H  48.44300 21.61600 42.50600
H  48.04800 20.50100 44.42500
H  47.27700 21.91700 44.93500
H  48.95300 21.52000 45.49000
H  47.29200 24.91800 41.63500
H  46.92400 23.28700 41.58500
H  49.34200 22.96200 40.72700
H  49.21700 24.71600 40.38900
H  53.26300 17.88100 43.96300
H  53.06200 17.81600 42.21900
H  51.72500 18.36600 43.35100
H  57.52300 20.18100 42.32400
H  57.87100 18.69900 43.20100
H  57.50900 20.24500 44.07600
H  57.60900 24.92900 42.73300
H  57.09500 26.10600 45.36500
H  59.09300 23.45500 43.93900
H  57.78600 23.01100 44.95700
H  58.71000 24.48700 45.31600
H  56.76000 27.82900 42.95000
H  58.38500 26.88400 43.12600
H  58.69800 27.79900 45.21700
H  57.24400 28.85900 45.01200
H  58.64200 28.94600 43.87100
H  52.29800 30.54000 44.44500
H  53.62100 29.73100 45.17700
H  52.06600 29.88600 46.11800
H  48.02800 26.43700 44.40100
H  46.72500 28.11500 40.56300
H  45.60100 28.94900 41.66000
H  45.26600 27.38800 40.92800

