158

Mg 53.78700 23.90600 44.75700
C  51.50500 26.39400 43.78600
C  51.79000 21.59100 43.28500
C  56.34100 21.74400 45.34300
C  55.91200 26.52000 45.61300
N  51.93000 24.00400 43.65300
C  51.21800 25.12400 43.28100
C  49.92200 24.81500 42.46400
C  49.89700 23.25300 42.69300
C  51.27000 22.87700 43.16700
C  48.66600 22.70700 43.50400
C  50.00800 25.18300 40.91500
C  51.45200 25.67500 40.43200
H  51.55500 26.18300 38.96800
N  54.07800 21.95400 44.34700
C  53.08700 21.13100 43.87700
C  53.53200 19.71200 44.02400
C  54.83500 19.69400 44.56500
C  55.13900 21.14700 44.78200
C  52.64200 18.51200 43.62100
C  55.62600 18.42100 44.93600
O  55.29300 17.26000 44.68400
C  56.89100 18.52200 45.78100
N  55.87500 24.15900 45.19500
C  56.67700 23.07800 45.51300
C  58.16500 23.46800 45.77100
C  57.97100 25.05200 45.80800
C  56.51800 25.26200 45.49100
C  58.96200 22.74100 46.91300
C  58.96500 25.88200 44.91500
C  60.43800 26.16800 45.35700
N  53.63700 26.00900 44.95800
C  54.56600 26.95300 45.31200
C  53.95500 28.27700 45.45400
C  52.69400 28.06200 44.90000
C  52.55700 26.72100 44.55000
C  54.48300 29.55600 45.98400
C  51.46500 28.73600 44.47300
O  51.10900 29.89200 44.68300
C  50.56700 27.63600 43.85000
C  50.04100 28.12500 42.52500
O  50.74100 28.58400 41.64900
O  48.70400 27.92500 42.44100
C  48.00800 28.53700 41.28400
H  51.27000 20.76800 42.78900
H  57.17300 21.09900 45.63300
H  56.54800 27.29500 46.04500
H  48.95900 25.22300 42.77100
H  49.82400 22.65500 41.78500
H  48.12500 21.90000 43.00900
H  47.98300 23.49800 43.81200
H  48.99800 22.22800 44.42500
H  49.25000 25.92300 40.65900
H  49.73900 24.31000 40.31900
H  52.15500 24.85000 40.54800
H  51.81800 26.47200 41.08000
H  51.57300 18.72200 43.59200
H  52.62900 17.66100 44.30200
H  52.86300 18.12000 42.62800
H  56.62500 19.06600 46.68700
H  57.68500 19.02500 45.22900
H  57.20900 17.54300 46.13900
H  58.79400 23.34700 44.88900
H  58.06100 25.24900 46.87600
H  58.50500 21.77400 47.12800
H  59.04900 23.43700 47.74800
H  59.95400 22.51900 46.51900
H  58.53000 26.86900 44.75800
H  59.08300 25.32500 43.98500
H  60.48100 27.17500 45.77200
H  61.21100 25.99100 44.60900
H  60.58500 25.46900 46.18000
H  53.62800 30.18400 45.73200
H  55.42200 29.80400 45.48900
H  54.55700 29.40000 47.06000
H  49.76200 27.38300 44.54000
H  48.52600 29.43600 40.95100
H  46.99800 28.78700 41.61000
H  47.96300 27.84500 40.44300
Mg 7.42000 53.59500 41.78500
C  6.75300 50.02000 41.61900
C  10.67600 52.84100 40.92600
C  7.92200 56.85700 41.15700
C  4.04500 54.09000 42.23500
N  8.48600 51.68900 41.31200
C  8.08500 50.35000 41.36100
C  9.24700 49.45600 41.18900
C  10.54400 50.32900 41.23200
C  9.84500 51.71000 41.18000
C  11.45100 50.14600 42.44300
C  9.23200 48.41800 39.91500
C  9.37700 48.94200 38.47400
H  8.31300 48.56000 37.44700
N  8.99000 54.69600 40.96500
C  10.22500 54.24300 40.74500
C  11.10300 55.32800 40.39000
C  10.41100 56.50300 40.46300
C  9.02700 56.06300 40.92500
C  12.51300 55.15000 39.89900
C  10.99900 57.82000 40.15000
O  12.07800 58.00200 39.59700
C  10.11600 59.04200 40.24800
N  6.12700 55.19200 41.54300
C  6.62800 56.44800 41.53100
C  5.51700 57.47900 41.75600
C  4.27700 56.60500 41.91600
C  4.81700 55.21000 41.92200
C  5.78400 58.38800 42.99500
C  3.24200 56.83900 40.84000
C  1.77300 56.61900 41.30200
N  5.69800 52.33000 42.07200
C  4.38300 52.68800 42.21700
C  3.56200 51.45100 42.34000
C  4.47600 50.38900 42.15600
C  5.74300 50.99800 41.90300
C  2.10100 51.38500 42.59500
C  4.61900 48.93200 42.08400
O  3.78700 48.09000 42.23800
C  6.07200 48.63300 41.66500
C  5.89500 48.15700 40.32900
O  5.74100 48.81800 39.33100
O  5.85700 46.80000 40.45400
C  5.44500 46.02400 39.34700
H  11.75600 52.68300 40.96000
H  7.99300 57.94600 41.12700
H  3.02900 54.36400 42.52500
H  9.25100 48.81000 42.06700
H  11.11500 50.01700 40.35800
H  11.16000 49.29700 43.06100
H  11.41100 51.02300 43.09000
H  12.45000 50.01000 42.02900
H  8.71900 47.45600 39.90200
H  10.21100 47.97600 40.10300
H  10.32800 48.72000 37.98900
H  9.25900 50.02100 38.56900
H  12.68100 55.60600 38.92400
H  12.89500 54.13000 39.84200
H  13.26700 55.62600 40.52600
H  9.11500 58.97400 39.82000
H  10.49600 59.87500 39.65700
H  10.07400 59.44500 41.25900
H  5.55600 58.05500 40.83100
H  3.90400 56.73500 42.93200
H  6.55800 57.93400 43.61400
H  4.88800 58.56600 43.58900
H  6.18000 59.33600 42.63000
H  3.37000 56.06900 40.07900
H  3.11600 57.86200 40.48600
H  1.76700 56.57100 42.39100
H  1.33600 55.74000 40.82800
H  1.22000 57.44800 40.86000
H  1.83700 52.42700 42.77500
H  1.87900 50.81600 43.49700
H  1.52700 50.84200 41.84300
H  6.48800 47.88000 42.33400
H  6.33900 45.56900 38.92200
H  4.99500 46.62300 38.55500
H  4.73800 45.28800 39.73000

