158

Mg 25.66700 0.20300 29.02900
C  27.75500 -0.34400 31.83400
C  23.11100 0.67900 31.16800
C  23.64100 0.33900 26.32000
C  28.43100 -0.62500 27.01000
N  25.49800 0.04000 31.26200
C  26.48500 0.01200 32.24100
C  25.97700 0.22800 33.71700
C  24.42300 0.29100 33.35900
C  24.30500 0.38300 31.78900
C  23.52900 -0.86100 33.88200
C  26.66600 1.36100 34.56800
C  27.15400 1.12000 36.01300
H  26.42600 1.95100 37.13300
N  23.66100 0.44500 28.85100
C  22.75400 0.68900 29.83100
C  21.48000 0.97800 29.29700
C  21.59100 0.75700 27.86800
C  23.01500 0.50400 27.63000
C  20.27000 1.32900 30.13800
C  20.54100 0.76600 26.79100
O  20.70300 0.33100 25.67900
C  19.16600 1.31900 27.06600
N  26.02300 0.11800 27.00600
C  25.06000 0.21700 26.05000
C  25.63100 0.02000 24.61600
C  27.10100 -0.27800 24.81500
C  27.19000 -0.30000 26.39000
C  24.86300 -1.00400 23.70400
C  28.13400 0.72900 24.16000
C  29.35800 0.03500 23.54400
N  27.65900 -0.42600 29.26600
C  28.66200 -0.74100 28.39100
C  29.82100 -1.07400 29.05600
C  29.53700 -0.91500 30.45600
C  28.17200 -0.49800 30.50400
C  31.19300 -1.38000 28.47600
C  30.13900 -1.03500 31.73400
O  31.28900 -1.37000 32.08000
C  28.98400 -0.54200 32.71300
C  28.85300 -1.49600 33.74700
O  28.17600 -2.49900 33.67200
O  29.50400 -1.06100 34.86000
C  29.40300 -1.93200 35.99700
H  22.28400 0.81500 31.86900
H  22.98100 0.47700 25.46100
H  29.21800 -1.00000 26.35300
H  26.14500 -0.71400 34.23700
H  24.07900 1.22400 33.80600
H  23.13900 -0.38200 34.78100
H  24.15600 -1.70800 34.15900
H  22.74800 -1.20500 33.20300
H  25.82500 2.04900 34.65200
H  27.43900 1.79000 33.93000
H  28.19900 1.43000 36.02300
H  27.04000 0.04700 36.16700
H  19.37800 0.81800 29.77800
H  20.18800 2.39900 29.94300
H  20.45200 1.10900 31.19000
H  18.65200 1.36500 26.10600
H  19.35300 2.28900 27.52700
H  18.63500 0.66300 27.75600
H  25.57900 0.97800 24.09800
H  27.25900 -1.31700 24.52700
H  25.39600 -1.87800 23.33000
H  24.30400 -0.47700 22.93000
H  24.18900 -1.50000 24.40300
H  28.41600 1.46500 24.91300
H  27.72600 1.28300 23.31400
H  29.54400 0.52100 22.58700
H  29.14400 -1.02100 23.38000
H  30.11800 0.14700 24.31700
H  32.05800 -1.08100 29.06800
H  31.26600 -0.77000 27.57600
H  31.22300 -2.40400 28.10100
H  29.32600 0.39700 33.14900
H  28.69700 -1.55800 36.73800
H  30.40200 -2.09000 36.40300
H  28.96900 -2.92300 35.86400
Mg 30.29600 58.96800 40.59400
C  27.31600 57.53700 39.29800
C  32.03700 56.38400 39.38100
C  33.06600 60.92500 40.91000
C  28.28900 61.94000 41.06300
N  29.73900 57.16400 39.57000
C  28.53900 56.80600 39.07900
C  28.62800 55.49300 38.27900
C  30.06200 55.03700 38.54600
C  30.68200 56.23900 39.24700
C  30.32400 53.72700 39.32900
C  28.15300 55.67200 36.77500
C  27.01800 54.75400 36.23300
H  26.13600 55.43300 35.30400
N  32.31900 58.54200 40.35900
C  32.86600 57.41700 39.92700
C  34.24500 57.43300 40.17600
C  34.62400 58.80800 40.63000
C  33.32200 59.53600 40.63300
C  35.10300 56.26200 40.07500
C  35.94300 59.27800 41.15000
O  36.94600 58.59700 41.14800
C  36.10700 60.67500 41.68300
N  30.64400 61.18400 40.73800
C  31.90600 61.65500 40.92500
C  31.89900 63.17000 41.13900
C  30.36200 63.51500 41.27100
C  29.70500 62.12900 41.07200
C  32.80000 63.86300 42.23100
C  29.92900 64.52000 40.20600
C  29.50100 65.94000 40.74600
N  28.17000 59.60900 40.45000
C  27.58000 60.78100 40.70000
C  26.11800 60.63700 40.48700
C  25.98400 59.31500 40.01700
C  27.26300 58.77700 39.97800
C  25.11400 61.73400 40.63900
C  25.05500 58.40900 39.42100
O  23.87100 58.59700 39.09900
C  25.86800 57.16100 38.95200
C  25.39500 56.02700 39.77200
O  25.55800 55.81500 40.93500
O  24.80600 55.13200 38.84900
C  24.15200 53.97400 39.39800
H  32.58200 55.48100 39.09800
H  33.82800 61.63900 41.23000
H  27.74700 62.88700 41.10500
H  27.99000 54.84500 38.88100
H  30.61400 54.81600 37.63300
H  30.92000 53.94200 40.21600
H  30.90300 53.02200 38.73200
H  29.31500 53.36300 39.52400
H  29.04700 55.32100 36.25900
H  27.88900 56.70500 36.54700
H  26.50500 54.28200 37.07100
H  27.54100 53.92800 35.75100
H  35.08700 55.87700 39.05500
H  34.87900 55.44400 40.75900
H  36.13000 56.56600 40.27700
H  37.02700 60.66400 42.26800
H  35.34600 60.62600 42.46200
H  36.07700 61.49000 40.96100
H  32.22200 63.55500 40.17200
H  30.20700 63.89400 42.28200
H  32.15500 64.33200 42.97500
H  33.36400 64.68700 41.79500
H  33.52000 63.15500 42.64100
H  29.00400 64.16100 39.75400
H  30.62700 64.60900 39.37400
H  29.58500 65.92000 41.83300
H  28.48900 66.18200 40.42200
H  30.10300 66.71500 40.27100
H  24.62800 62.06300 39.72000
H  25.51200 62.61300 41.14600
H  24.30800 61.30500 41.23400
H  25.68000 56.95000 37.89900
H  23.60000 54.31100 40.27500
H  25.00900 53.36400 39.68400
H  23.63500 53.56100 38.53300

