158

Mg 17.76300 52.65200 26.02900
C  19.82100 50.93200 28.37700
C  15.54300 53.26600 28.48300
C  15.68700 53.85100 23.68400
C  19.84700 51.32300 23.47700
N  17.65600 52.05700 28.09200
C  18.60800 51.45800 28.90700
C  18.15700 51.50500 30.39000
C  16.64300 51.76400 30.30100
C  16.63500 52.45500 28.88100
C  15.70000 50.45500 30.54300
C  18.97600 52.60000 31.15000
C  19.23500 52.62900 32.63800
H  18.36400 51.62400 33.42400
N  15.81300 53.38500 26.05400
C  15.14900 53.77100 27.20000
C  13.94100 54.49500 26.83100
C  13.95400 54.66500 25.41600
C  15.21700 54.03700 25.00900
C  12.99000 54.98800 27.89400
C  12.95600 55.34100 24.54000
O  13.15700 55.46500 23.30200
C  11.66400 55.89500 25.10800
N  17.78200 52.53800 23.95700
C  16.83700 53.16200 23.19300
C  17.12800 53.03400 21.68600
C  18.47800 52.25700 21.64700
C  18.72200 52.02300 23.12600
C  15.98200 52.52100 20.83500
C  19.64000 52.80500 20.72600
C  20.67600 53.72900 21.41900
N  19.48800 51.44200 25.94800
C  20.19900 50.96600 24.82800
C  21.38900 50.33100 25.25000
C  21.25900 50.24700 26.64200
C  20.13200 50.94900 27.02800
C  22.44100 49.63700 24.34500
C  21.93800 49.70100 27.82500
O  22.93000 49.09500 27.97100
C  20.98200 50.18200 29.03000
C  20.44200 48.99200 29.75600
O  19.61700 48.25600 29.25600
O  20.87000 48.90200 31.07600
C  20.05400 47.87300 31.80700
H  14.77000 53.39100 29.24400
H  15.09900 54.27800 22.86900
H  20.60300 51.04900 22.73800
H  18.44600 50.58300 30.89400
H  16.31800 52.37900 31.14000
H  15.07100 50.61800 31.41800
H  16.24100 49.51300 30.63500
H  15.01200 50.31600 29.70900
H  18.52700 53.57100 30.94100
H  19.95200 52.59200 30.66400
H  18.97800 53.62500 33.00000
H  20.31200 52.56100 32.78600
H  12.07100 54.41900 28.03400
H  12.80500 56.04800 27.72100
H  13.44000 54.99500 28.88700
H  11.79000 56.57500 25.95000
H  11.01400 55.08300 25.43600
H  10.97800 56.42300 24.44600
H  17.22300 54.07100 21.36500
H  18.19100 51.25100 21.33700
H  16.30100 51.67500 20.22700
H  15.72400 53.31800 20.13700
H  15.06100 52.36900 21.39800
H  19.08100 53.43000 20.03000
H  20.13700 52.05900 20.10600
H  20.97100 54.41700 20.62700
H  21.57200 53.14200 21.62100
H  20.18500 54.19200 22.27500
H  23.06800 50.32000 23.77200
H  21.94400 48.95200 23.65800
H  23.10600 49.13700 25.04900
H  21.55400 50.75500 29.76000
H  20.27700 48.02800 32.86300
H  20.50900 46.89100 31.68400
H  18.99300 47.77300 31.58000
Mg 2.22200 41.77100 24.65900
C  3.94000 41.75400 27.64900
C  -0.43800 40.19700 26.16800
C  0.70600 41.58300 21.56400
C  5.07900 42.88100 23.07800
N  1.89500 41.04300 26.63600
C  2.62700 41.32100 27.77700
C  1.83100 41.11800 29.06100
C  0.45300 40.55300 28.55200
C  0.63200 40.59500 26.96000
C  -0.06100 39.20200 29.11500
C  1.63500 42.37300 30.03400
C  1.60100 41.97700 31.57300
H  0.17000 42.05700 32.14200
N  0.38500 41.09300 23.97100
C  -0.56300 40.43300 24.73900
C  -1.66700 40.01900 23.86700
C  -1.51200 40.54700 22.60600
C  -0.09500 41.02500 22.65100
C  -2.81800 39.18700 24.39200
C  -2.44100 40.45100 21.30000
O  -2.06100 40.72800 20.15200
C  -3.80000 40.01200 21.40600
N  2.80900 42.21700 22.59400
C  1.98600 42.10200 21.52200
C  2.61900 42.71600 20.24700
C  3.91200 43.37200 20.87800
C  3.98900 42.80700 22.20800
C  2.87400 41.78500 19.06500
C  3.94400 44.95400 20.83100
C  5.13700 45.54100 20.02900
N  4.20600 42.18100 25.17700
C  5.21000 42.54000 24.45100
C  6.46100 42.61700 25.27300
C  5.94500 42.26100 26.55100
C  4.58600 42.01300 26.42800
C  7.80100 43.21600 25.03000
C  6.32800 42.13900 28.00200
O  7.38200 42.29200 28.53100
C  4.99300 41.87800 28.76200
C  5.14800 40.72800 29.72900
O  5.28300 39.58100 29.41000
O  5.44100 41.18700 30.95700
C  6.08800 40.31400 31.92000
H  -1.38000 39.86800 26.61200
H  0.22100 41.58800 20.58600
H  5.95300 43.33700 22.60800
H  2.31600 40.33000 29.63700
H  -0.24100 41.35700 28.79500
H  0.49900 38.86700 29.98800
H  0.00400 38.61000 28.20200
H  -1.04700 39.38000 29.54200
H  0.69100 42.85900 29.78600
H  2.52900 42.98700 29.93300
H  2.07900 42.71300 32.21800
H  1.95900 40.98300 31.84200
H  -3.17400 38.60400 23.54200
H  -3.60100 39.89400 24.66600
H  -2.54400 38.50500 25.19700
H  -4.27000 40.74900 20.75500
H  -4.28500 40.20800 22.36200
H  -3.94200 38.99300 21.04500
H  1.79900 43.37700 19.96600
H  4.75700 43.06500 20.26300
H  3.60900 42.16400 18.35500
H  1.93800 41.52900 18.56900
H  3.22600 40.86800 19.53800
H  4.00000 45.41700 21.81600
H  3.06800 45.41100 20.37100
H  5.83700 45.84700 20.80600
H  4.80000 46.38300 19.42500
H  5.70400 44.82300 19.43600
H  7.90200 43.97700 24.25600
H  8.54400 42.49700 24.68600
H  8.24000 43.73200 25.88400
H  4.71400 42.77300 29.32000
H  5.42700 39.48400 32.17100
H  6.43000 40.92000 32.76000
H  7.00100 39.91100 31.48200

