158

Mg 8.47700 4.33700 28.12400
C  10.02900 2.72200 30.96200
C  6.82200 6.18300 30.36700
C  6.90800 5.77200 25.53900
C  9.82700 1.85900 26.10800
N  8.49900 4.34100 30.38500
C  9.21500 3.72000 31.35600
C  9.06300 4.28300 32.76200
C  7.82900 5.23200 32.47500
C  7.68500 5.29100 30.94400
C  6.50200 4.85600 33.23600
C  10.38800 4.87400 33.35600
C  10.48800 5.94300 34.42900
H  11.11100 5.46400 35.72500
N  7.04900 5.81600 27.96800
C  6.50000 6.45600 29.04600
C  5.53600 7.43800 28.54500
C  5.57600 7.34700 27.09900
C  6.61600 6.30200 26.84200
C  4.58100 8.28300 29.35900
C  4.74800 8.07300 26.04600
O  5.08200 8.00800 24.93800
C  3.59100 8.97400 26.36100
N  8.41300 3.89100 26.10800
C  7.72900 4.63300 25.17100
C  7.97000 4.10500 23.80100
C  9.05900 2.97400 23.97800
C  9.04400 2.88600 25.48800
C  6.62400 3.68800 23.10100
C  10.43500 3.33500 23.38600
C  11.53300 4.13000 24.14100
N  9.70400 2.64500 28.40600
C  10.16300 1.75000 27.49100
C  10.92400 0.70600 28.12100
C  10.91600 1.12400 29.47000
C  10.16200 2.27500 29.61000
C  11.58400 -0.40500 27.44500
C  11.59900 0.78400 30.71900
O  12.37700 -0.14300 30.91500
C  10.91600 1.79100 31.79000
C  10.05400 0.93300 32.75500
O  9.15500 0.20500 32.42100
O  10.58400 1.03900 33.98200
C  9.84400 0.30200 35.07700
H  6.17600 6.74900 31.04200
H  6.50700 6.33600 24.69400
H  10.23100 1.10500 25.42900
H  8.72400 3.46000 33.39000
H  8.11100 6.19600 32.89700
H  5.70000 4.69000 32.51700
H  6.27400 5.65600 33.94000
H  6.47500 3.89900 33.75600
H  11.04400 5.11200 32.51900
H  10.67400 3.95600 33.86900
H  9.54100 6.35500 34.77800
H  11.05200 6.78900 34.03500
H  4.85500 9.32700 29.20800
H  4.58500 8.01300 30.41500
H  3.52700 8.22800 29.08600
H  3.10600 9.16500 25.40400
H  3.84100 9.79200 27.03600
H  2.82500 8.36400 26.84100
H  8.26500 4.82200 23.03400
H  8.70700 2.01100 23.60800
H  6.40000 4.32800 22.24700
H  5.77600 3.82100 23.77200
H  6.54500 2.64000 22.81300
H  10.14200 4.06000 22.62700
H  11.00500 2.61800 22.79400
H  11.05100 4.38300 25.08500
H  11.79100 5.09700 23.71000
H  12.41700 3.50100 24.24500
H  12.08200 0.05100 26.58900
H  10.94800 -1.24200 27.15800
H  12.38500 -0.68800 28.12800
H  11.64300 2.30800 32.41600
H  8.96900 -0.23600 34.71500
H  9.33600 0.95400 35.78800
H  10.55400 -0.31900 35.62400
Mg -5.70900 25.13900 26.34500
C  -4.39300 26.63000 29.28300
C  -7.52600 22.99300 28.17400
C  -7.07400 23.90500 23.56500
C  -3.71000 27.32500 24.53200
N  -5.90800 24.93700 28.49400
C  -5.34200 25.61400 29.53000
C  -5.95100 25.10300 30.93300
C  -6.51800 23.73400 30.49700
C  -6.64900 23.86600 28.96100
C  -5.53100 22.59700 30.92000
C  -7.06200 26.04600 31.49300
C  -7.56000 25.78400 32.89800
H  -6.68200 24.81700 33.83000
N  -7.20400 23.69800 25.86600
C  -7.78900 22.87600 26.79700
C  -8.75500 22.00100 26.12300
C  -8.56500 22.21000 24.72400
C  -7.57300 23.28400 24.62400
C  -9.74800 21.10600 26.87000
C  -9.26800 21.50700 23.57500
O  -8.93000 21.73900 22.41000
C  -10.42600 20.45300 23.79300
N  -5.42300 25.56700 24.37500
C  -6.13500 24.91600 23.33900
C  -5.62400 25.44200 21.95900
C  -4.72200 26.64200 22.33500
C  -4.63800 26.53800 23.84500
C  -4.93900 24.28900 21.09400
C  -5.24500 27.91300 21.78100
C  -5.16000 28.13700 20.20700
N  -4.18200 26.63700 26.77800
C  -3.43300 27.40100 25.89900
C  -2.37500 28.13200 26.68200
C  -2.79000 27.88100 28.03300
C  -3.89400 26.98700 28.04700
C  -1.40400 29.17000 26.17700
C  -2.61700 28.30400 29.43600
O  -1.88900 29.15400 29.89800
C  -3.64300 27.47100 30.26900
C  -2.88300 26.68700 31.29300
O  -2.46600 25.54700 31.20500
O  -2.87100 27.42400 32.52600
C  -2.06200 26.80200 33.53200
H  -8.06400 22.41700 28.93000
H  -7.50800 23.57500 22.61900
H  -3.00500 27.84700 23.88000
H  -5.15900 24.92900 31.66100
H  -7.42700 23.58400 31.07900
H  -4.47100 22.85100 30.90400
H  -5.68600 21.77800 30.21800
H  -5.75500 22.40500 31.96900
H  -7.83800 26.04400 30.72800
H  -6.66700 27.05800 31.41000
H  -8.55700 25.34400 32.88800
H  -7.57800 26.71600 33.46200
H  -9.56800 20.03400 26.78700
H  -10.80000 21.11100 26.58200
H  -9.71100 21.50700 27.88200
H  -10.75600 19.94700 22.88600
H  -11.31000 20.96700 24.17000
H  -10.11900 19.69600 24.51500
H  -6.52500 25.80000 21.46100
H  -3.72000 26.44000 21.95400
H  -5.39600 24.13500 20.11700
H  -5.24100 23.36600 21.58800
H  -3.86300 24.34900 20.93100
H  -4.60600 28.73700 22.09800
H  -6.25800 28.12200 22.12400
H  -4.90600 27.20500 19.70200
H  -4.52300 28.99500 19.99400
H  -6.15600 28.47200 19.91500
H  -1.97700 29.95700 25.68900
H  -0.57400 28.80000 25.57500
H  -0.78700 29.67800 26.91800
H  -4.42200 28.05800 30.75700
H  -2.50300 25.84300 33.80500
H  -2.04900 27.47600 34.38900
H  -1.03400 26.69000 33.19000

