158

Mg 48.49400 44.44600 41.93800
C  45.11000 43.62800 41.61200
C  49.26800 41.24500 41.90300
C  51.64500 45.42400 41.43000
C  47.56000 47.94300 41.53300
N  47.33100 42.68600 41.55400
C  45.99500 42.55300 41.64900
C  45.54000 41.05200 41.78900
C  46.91500 40.33300 41.97700
C  47.92100 41.48800 41.84600
C  47.11300 39.52900 43.37400
C  44.58100 40.47700 40.65300
C  44.74800 41.04300 39.26000
H  44.95800 40.05300 38.09300
N  50.20800 43.44100 41.71800
C  50.37300 42.10500 41.80000
C  51.79300 41.77600 41.81500
C  52.54600 42.99500 41.79500
C  51.44500 44.00200 41.67500
C  52.23200 40.32600 41.84800
C  54.10200 43.23300 41.87100
O  54.91100 42.28900 41.85700
C  54.75800 44.61400 41.77700
N  49.43800 46.42400 41.47500
C  50.77800 46.53700 41.49000
C  51.26700 48.02600 41.31600
C  49.85400 48.78300 41.25700
C  48.88400 47.65400 41.45100
C  52.13400 48.36800 42.58900
C  49.59400 49.77300 40.02500
C  49.06600 51.22800 40.40000
N  46.69600 45.63400 41.74900
C  46.47300 46.97800 41.63500
C  44.98500 47.17200 41.55800
C  44.39200 45.88500 41.52800
C  45.45800 44.99500 41.67200
C  44.26600 48.51200 41.57300
C  43.14600 45.11700 41.40600
O  41.97200 45.50200 41.25800
C  43.57800 43.61100 41.60800
C  42.91000 43.11700 42.89400
O  42.20200 42.09500 42.93300
O  43.24400 43.91300 43.90500
C  42.81000 43.47600 45.20500
H  49.44500 40.17900 42.05600
H  52.67600 45.77700 41.49800
H  47.23900 48.98700 41.50300
H  44.96200 40.97000 42.71000
H  47.00400 39.76100 41.05400
H  46.47000 38.65000 43.41600
H  46.73400 40.18400 44.15800
H  48.18000 39.33500 43.49000
H  43.55900 40.48900 41.03000
H  44.85700 39.42300 40.63200
H  45.56800 41.75700 39.18100
H  43.81700 41.59700 39.14400
H  51.87800 39.76500 40.98300
H  51.58700 39.84100 42.58000
H  53.28800 40.12400 42.02800
H  54.49800 44.98700 40.78600
H  55.81100 44.34100 41.83900
H  54.37700 45.22600 42.59400
H  51.79400 48.13200 40.36800
H  49.85300 49.46500 42.10700
H  51.66400 49.16200 43.16900
H  53.13000 48.60600 42.21700
H  52.27300 47.52400 43.26600
H  48.83600 49.30400 39.39800
H  50.51800 49.73800 39.44700
H  49.32500 51.39200 41.44600
H  47.99300 51.34500 40.25200
H  49.66200 52.01600 39.93900
H  43.40200 48.61700 40.91600
H  45.04700 49.19500 41.23800
H  43.94500 48.79700 42.57500
H  43.15800 42.93300 40.86500
H  42.85200 44.29700 45.92000
H  43.45300 42.70800 45.63400
H  41.82000 43.01900 45.19300
Mg -11.18600 17.30900 42.20200
C  -7.92400 18.30600 42.24800
C  -12.14300 20.64500 41.94500
C  -14.51500 16.36500 41.93300
C  -10.27900 13.95700 41.99300
N  -10.16000 19.21900 42.17300
C  -8.83000 19.37000 42.13900
C  -8.39400 20.86700 42.02800
C  -9.71900 21.61700 42.28600
C  -10.76900 20.43800 42.12100
C  -9.72200 22.43800 43.56800
C  -7.77900 21.15000 40.64700
C  -6.38100 21.84800 40.78300
H  -5.35700 21.14800 39.87800
N  -13.01300 18.36400 41.83300
C  -13.20000 19.72600 41.76400
C  -14.55600 20.06100 41.50100
C  -15.28200 18.80400 41.56900
C  -14.25000 17.75000 41.73600
C  -15.15000 21.48000 41.23300
C  -16.78300 18.73400 41.46900
O  -17.46400 19.76000 41.59100
C  -17.46200 17.45900 41.36200
N  -12.27100 15.52200 41.78600
C  -13.59100 15.33700 42.02100
C  -14.03700 13.93300 42.13800
C  -12.72900 13.15900 42.05300
C  -11.67500 14.28700 41.95500
C  -14.86200 13.64400 43.35400
C  -12.70000 12.23000 40.68600
C  -12.62200 10.68900 40.94100
N  -9.43600 16.28800 42.15700
C  -9.15400 14.92300 42.07000
C  -7.76200 14.73400 42.11800
C  -7.19100 16.06100 42.14500
C  -8.28200 16.93500 42.25600
C  -7.03700 13.47300 42.16500
C  -5.97500 16.77800 42.13800
O  -4.83200 16.28600 42.01800
C  -6.36400 18.30300 42.35400
C  -5.83600 18.82800 43.64400
O  -6.11800 18.41000 44.77800
O  -4.91900 19.76600 43.32500
C  -4.12000 20.36100 44.44000
H  -12.55800 21.63000 41.72400
H  -15.57700 16.11400 41.98000
H  -9.99100 12.90800 41.89600
H  -7.79400 21.24400 42.85700
H  -10.04600 22.28200 41.48700
H  -9.07600 23.28800 43.35200
H  -9.43000 21.84000 44.43200
H  -10.76600 22.73600 43.66400
H  -8.43100 21.80700 40.07100
H  -7.69100 20.29600 39.97500
H  -6.05200 21.84400 41.82200
H  -6.45200 22.91100 40.55200
H  -16.11500 21.51300 40.72800
H  -14.32700 21.93900 40.68500
H  -15.25600 21.93600 42.21700
H  -18.39100 17.64500 40.82400
H  -17.49300 17.00400 42.35200
H  -16.87500 16.79100 40.73100
H  -14.75600 13.76000 41.33700
H  -12.62100 12.57000 42.96400
H  -14.77500 14.50400 44.01800
H  -14.59900 12.77700 43.96000
H  -15.89000 13.50500 43.01900
H  -11.87500 12.53800 40.04400
H  -13.59200 12.30600 40.06500
H  -12.55100 10.58400 42.02300
H  -11.76800 10.31200 40.37800
H  -13.43800 10.11500 40.50300
H  -5.99000 13.60200 42.43900
H  -7.10200 12.96200 41.20400
H  -7.55300 12.84200 42.88800
H  -5.83800 18.72400 41.49700
H  -3.50700 21.12900 43.96900
H  -3.43600 19.65000 44.90500
H  -4.77400 20.78300 45.20300

