158

Mg 48.66500 35.56100 28.45200
C  46.92000 33.65700 30.68600
C  48.87900 38.16000 30.87500
C  49.86500 37.66900 26.10100
C  47.86000 33.29600 25.91600
N  47.96000 35.87100 30.43700
C  47.40100 34.87300 31.16700
C  47.64300 35.19500 32.64600
C  47.65000 36.78600 32.63000
C  48.21200 37.00500 31.21200
C  46.26600 37.52000 32.71600
C  48.94700 34.58100 33.20500
C  49.31900 34.69400 34.70300
H  48.32100 35.32300 35.74200
N  49.40800 37.50300 28.46800
C  49.43200 38.33900 29.55800
C  50.17200 39.63500 29.16400
C  50.56900 39.43500 27.78800
C  49.97000 38.11100 27.42300
C  50.53100 40.76700 30.08000
C  51.22600 40.44600 26.80600
O  51.53400 40.24900 25.60300
C  51.45500 41.90200 27.24400
N  48.80200 35.51600 26.32500
C  49.37900 36.48900 25.59400
C  49.34600 36.12800 24.14600
C  48.93400 34.62300 24.10500
C  48.51000 34.45900 25.54100
C  48.42700 37.09300 23.35000
C  50.20800 33.75300 23.76500
C  50.71000 33.79800 22.30800
N  47.66100 33.81800 28.25400
C  47.52500 32.93500 27.24600
C  46.90600 31.69300 27.70700
C  46.62200 31.88500 29.10600
C  47.07000 33.23500 29.32100
C  46.51300 30.50200 26.83100
C  46.03900 31.34200 30.32500
O  45.38400 30.29600 30.56900
C  46.09800 32.54400 31.27300
C  46.46200 32.12700 32.61000
O  47.21500 31.23900 32.86900
O  45.70200 32.81400 33.49200
C  45.71200 32.34000 34.92700
H  49.13700 38.91100 31.62400
H  50.21000 38.32400 25.29800
H  47.72100 32.55100 25.13000
H  46.77000 34.85300 33.20200
H  48.24600 37.21600 33.43500
H  46.14600 38.15400 31.83800
H  46.17100 38.04500 33.66600
H  45.41700 36.85800 32.88800
H  49.75900 34.99800 32.60800
H  49.08600 33.53400 32.93700
H  50.27400 35.17600 34.91100
H  49.43400 33.70600 35.14800
H  50.13200 41.76600 29.90300
H  51.60400 40.82800 30.26000
H  50.14700 40.68500 31.09700
H  52.02600 42.44500 26.49000
H  52.13300 41.86200 28.09700
H  50.53700 42.39800 27.56000
H  50.38500 36.17100 23.81900
H  48.17300 34.26400 23.41100
H  47.76300 37.66000 24.00300
H  47.80400 36.52700 22.65800
H  49.09800 37.73400 22.78000
H  49.92700 32.73000 24.01300
H  50.94900 34.10100 24.48400
H  50.45600 34.67000 21.70500
H  50.29500 32.97000 21.73400
H  51.77800 33.59000 22.23600
H  45.82700 30.75700 26.02300
H  46.23200 29.66500 27.46900
H  47.49400 30.25900 26.42200
H  45.04700 32.83100 31.31400
H  45.51300 33.18000 35.59300
H  46.68200 31.90600 35.17000
H  44.92400 31.63900 35.20100
Mg 17.26400 50.72700 26.20700
C  18.91400 48.95800 28.73000
C  14.71100 51.33800 28.66600
C  15.36200 51.84500 23.80000
C  19.27000 49.03900 23.86100
N  16.83000 50.13100 28.49000
C  17.73100 49.52700 29.31400
C  17.26800 49.76700 30.76000
C  15.76100 50.16600 30.59500
C  15.76400 50.59900 29.12400
C  14.71300 49.05000 30.75600
C  18.11100 50.82400 31.53100
C  18.51700 50.46700 32.97500
H  17.55800 50.87200 34.14900
N  15.37500 51.60800 26.23700
C  14.49000 51.89500 27.35900
C  13.37200 52.65200 26.87300
C  13.56900 52.84700 25.48400
C  14.79000 52.06000 25.14400
C  12.26100 53.17400 27.79900
C  12.80900 53.70500 24.48900
O  13.16700 53.75500 23.32100
C  11.61400 54.55900 24.99900
N  17.26000 50.39800 24.06200
C  16.45700 51.12700 23.33100
C  16.78500 51.00600 21.82200
C  18.01800 50.08700 21.82000
C  18.20200 49.80400 23.30800
C  15.60600 50.48200 20.94500
C  19.34100 50.68000 21.29000
C  20.18100 49.63500 20.53000
N  18.80900 49.50400 26.27900
C  19.54100 48.90700 25.20800
C  20.67400 48.20800 25.74400
C  20.58200 48.32600 27.17800
C  19.30500 48.93900 27.41300
C  21.73700 47.48100 24.89800
C  21.15300 47.95800 28.46600
O  22.27000 47.42100 28.68700
C  20.18600 48.52600 29.54700
C  19.88000 47.46300 30.52300
O  18.97200 46.63400 30.46600
O  20.72600 47.55900 31.61200
C  20.27300 46.77000 32.83100
H  13.94200 51.53900 29.41500
H  14.81700 52.32100 22.98200
H  19.97100 48.56600 23.17000
H  17.36100 48.80100 31.25500
H  15.47000 51.02600 31.19700
H  14.77400 48.27500 29.99300
H  13.73700 49.51300 30.60600
H  14.69700 48.57800 31.73900
H  17.48100 51.67500 31.78800
H  18.91700 51.33200 31.00100
H  19.55000 50.76900 33.14900
H  18.67800 49.38900 32.95300
H  12.16000 54.24800 27.64500
H  12.41800 52.83000 28.82100
H  11.38000 52.68100 27.38700
H  10.99400 53.86800 25.57000
H  11.17500 55.08100 24.14900
H  12.03200 55.30800 25.67100
H  17.03500 52.00300 21.46000
H  17.68500 49.18700 21.30200
H  14.90200 49.90900 21.54900
H  16.03300 49.85900 20.15800
H  15.00500 51.31100 20.57200
H  19.99600 50.95500 22.11700
H  19.19000 51.50400 20.59200
H  20.90400 49.29300 21.27100
H  20.68300 50.07400 19.66800
H  19.59800 48.74800 20.28400
H  22.24400 48.00200 24.08600
H  21.36200 46.50900 24.58000
H  22.47300 47.10100 25.60700
H  20.66500 49.32200 30.11600
H  20.43300 45.75000 32.48100
H  19.21100 46.74000 33.07600
H  20.84400 46.98200 33.73500

