158

Mg 26.38100 51.02500 27.58500
C  24.31300 51.99400 30.15200
C  28.80200 50.19800 29.98600
C  28.46100 50.32900 25.04400
C  24.11600 52.42500 25.37600
N  26.58300 51.15700 29.90200
C  25.52400 51.43100 30.70600
C  25.89100 51.03400 32.13000
C  27.40400 50.54400 31.98900
C  27.64600 50.61100 30.55200
C  28.38700 51.28200 32.99700
C  24.99700 50.03500 32.80500
C  24.28000 50.49300 34.09300
H  25.15700 50.94700 35.26900
N  28.27400 50.30100 27.54600
C  29.12300 49.98200 28.59000
C  30.33200 49.38400 28.12600
C  30.33800 49.50900 26.68000
C  28.98700 50.09100 26.34800
C  31.44100 48.78900 28.89100
C  31.40100 49.07300 25.61700
O  31.16100 49.08200 24.41800
C  32.74300 48.55300 26.01800
N  26.31300 51.33400 25.53500
C  27.22700 50.86600 24.67900
C  26.87800 51.06200 23.20500
C  25.45700 51.63900 23.33400
C  25.24100 51.87800 24.84500
C  27.83100 51.95600 22.33000
C  24.27000 50.75500 22.79800
C  23.07900 51.59700 22.25100
N  24.52900 52.03300 27.68900
C  23.67900 52.49100 26.71900
C  22.47900 52.98600 27.23300
C  22.69900 52.82300 28.60300
C  23.97700 52.30300 28.83000
C  21.31600 53.45700 26.53900
C  22.06000 53.06800 29.91200
O  21.02500 53.63600 30.18800
C  23.12400 52.40200 30.95900
C  23.49800 53.43900 31.97600
O  24.55300 54.05200 31.96800
O  22.44800 53.73900 32.79400
C  22.84200 54.58700 33.86700
H  29.54100 49.82600 30.69900
H  29.09100 50.05500 24.19500
H  23.30100 52.74400 24.72200
H  25.87700 52.00800 32.61900
H  27.44500 49.48000 32.22400
H  29.23000 51.73500 32.47500
H  28.77600 50.60800 33.76000
H  27.87100 52.16300 33.37900
H  25.54600 49.12600 33.05100
H  24.20600 49.85700 32.07700
H  23.66600 49.67400 34.46600
H  23.65200 51.31900 33.75900
H  31.05800 48.78700 29.91200
H  32.41200 49.28400 28.91100
H  31.56500 47.77100 28.52400
H  33.30400 48.36100 25.10400
H  32.57400 47.61500 26.54700
H  33.18300 49.28200 26.69900
H  26.75300 50.07600 22.75900
H  25.33300 52.60700 22.84900
H  28.75400 51.98600 22.90800
H  27.41500 52.94300 22.12700
H  28.08500 51.43800 21.40500
H  23.84600 50.21700 23.64700
H  24.66000 50.04200 22.07200
H  22.15000 51.16900 22.62900
H  23.05200 51.51200 21.16400
H  23.09100 52.66400 22.47200
H  20.52800 52.98700 27.12700
H  21.32100 53.09300 25.51100
H  21.29200 54.54300 26.62900
H  22.54800 51.61600 31.44800
H  23.10200 55.59200 33.53400
H  23.56400 54.02400 34.45700
H  21.95700 54.68400 34.49700
Mg -9.71400 39.55000 41.29200
C  -8.88000 36.20500 40.16000
C  -6.84200 40.58900 39.84900
C  -10.98400 42.76200 41.31300
C  -12.92900 38.30400 41.88300
N  -8.05600 38.44900 40.18600
C  -7.92300 37.18200 39.84400
C  -6.61200 36.95600 39.11800
C  -5.86500 38.20700 39.36900
C  -6.97700 39.17100 39.79000
C  -4.70600 37.99300 40.36400
C  -6.92800 36.66700 37.60000
C  -6.22600 35.49200 36.89500
H  -5.37100 35.85600 35.69200
N  -8.94300 41.39800 40.83200
C  -7.67400 41.66500 40.30500
C  -7.44800 43.05400 40.16500
C  -8.64700 43.64900 40.49500
C  -9.61900 42.61000 40.90900
C  -6.09600 43.61900 39.75700
C  -8.90700 45.13500 40.40000
O  -7.99400 45.90900 40.17200
C  -10.21000 45.87300 40.75200
N  -11.72000 40.41900 41.49200
C  -11.92900 41.74500 41.52400
C  -13.41300 42.07400 41.78200
C  -14.05900 40.67000 41.97400
C  -12.87400 39.72600 41.77600
C  -13.65900 43.06900 42.93600
C  -15.30100 40.22100 41.10200
C  -16.53100 39.73200 41.82400
N  -10.65300 37.64900 41.36500
C  -11.95000 37.33900 41.64600
C  -12.11700 35.89300 41.56000
C  -10.92200 35.42000 40.94700
C  -10.11400 36.52800 40.79600
C  -13.22000 35.06100 42.00100
C  -10.22800 34.24200 40.48900
O  -10.50000 33.08600 40.63200
C  -8.89900 34.69800 39.86900
C  -7.72200 33.84500 40.43900
O  -7.36100 33.78500 41.62500
O  -6.97900 33.43200 39.44100
C  -5.63900 32.91900 39.63700
H  -5.86400 40.93300 39.50600
H  -11.39200 43.77400 41.34800
H  -13.90000 37.87900 42.14500
H  -6.25700 36.03400 39.58000
H  -5.48500 38.62600 38.43700
H  -5.13500 37.49400 41.23300
H  -4.26600 38.95600 40.62300
H  -3.98200 37.27500 39.97900
H  -6.70200 37.62600 37.13500
H  -8.00500 36.57200 37.46100
H  -6.99600 34.80500 36.54600
H  -5.48400 35.10900 37.59600
H  -6.19400 44.40600 39.01000
H  -5.48400 42.95600 39.14600
H  -5.45700 43.97600 40.56500
H  -10.33000 45.78700 41.83200
H  -11.10000 45.51400 40.23500
H  -10.19200 46.89600 40.37600
H  -13.83100 42.36100 40.81700
H  -14.39700 40.56300 43.00400
H  -14.21400 43.95500 42.62600
H  -12.71200 43.34000 43.40300
H  -14.20000 42.52400 43.70900
H  -14.87000 39.41400 40.50900
H  -15.52800 40.91100 40.28900
H  -16.62900 38.64700 41.84500
H  -17.34600 40.08900 41.19400
H  -16.78400 40.07800 42.82600
H  -13.61000 35.36500 42.97300
H  -12.86900 34.03000 41.96300
H  -14.01900 35.24700 41.28300
H  -8.84100 34.44000 38.81100
H  -5.11400 32.86700 38.68300
H  -5.65700 31.91900 40.07100
H  -5.12100 33.56800 40.34200

