158

Mg 46.42400 16.89200 28.10700
C  44.26700 16.67100 31.08600
C  48.56400 18.76400 29.97800
C  48.37300 16.96900 25.38200
C  43.95200 15.30000 26.29600
N  46.25700 17.83100 30.26400
C  45.44700 17.46800 31.31000
C  46.02200 17.94400 32.69100
C  47.33000 18.71400 32.17300
C  47.38300 18.46300 30.68100
C  47.28600 20.27600 32.50900
C  46.38400 16.69500 33.52700
C  47.49000 16.88800 34.65500
H  47.59800 18.33500 35.24900
N  48.15900 17.79400 27.74900
C  48.98300 18.49100 28.64400
C  50.22600 18.78600 28.05800
C  50.07200 18.50700 26.65800
C  48.81500 17.70400 26.54900
C  51.41900 19.34200 28.77600
C  51.03800 18.82200 25.43600
O  50.75500 18.66000 24.24700
C  52.41000 19.43200 25.75500
N  46.11600 16.32800 26.04500
C  47.14600 16.31100 25.19700
C  46.78000 15.71000 23.81100
C  45.35100 15.07100 24.11600
C  45.13000 15.60300 25.58900
C  46.69900 16.78800 22.63500
C  45.27700 13.53600 24.06100
C  44.26800 12.90000 22.96000
N  44.51400 16.16900 28.50300
C  43.65100 15.52300 27.67600
C  42.47600 15.03100 28.40800
C  42.75400 15.48800 29.79400
C  43.93200 16.21900 29.77600
C  41.38300 14.16900 27.87100
C  42.16900 15.55000 31.09400
O  41.06900 15.14800 31.46700
C  43.17400 16.21200 31.98900
C  42.48500 17.22400 32.75700
O  42.05200 18.29400 32.36200
O  42.48900 16.77200 34.03100
C  42.10100 17.64600 35.11600
H  49.29700 19.22400 30.64400
H  48.93900 17.22900 24.48500
H  43.21000 14.70200 25.76400
H  45.31800 18.60600 33.19500
H  48.31800 18.44600 32.54800
H  48.10500 20.58200 33.16000
H  46.41300 20.63900 33.05200
H  47.35900 20.85700 31.59000
H  46.63800 15.91000 32.81500
H  45.49000 16.32200 34.02800
H  48.46400 16.52600 34.32800
H  47.16700 16.33500 35.53700
H  52.20400 18.72000 28.34600
H  51.47900 19.17700 29.85200
H  51.46700 20.41800 28.61000
H  52.82600 19.75000 24.79900
H  52.94900 18.62600 26.25300
H  52.29400 20.30100 26.40200
H  47.45000 14.92700 23.45700
H  44.55900 15.49900 23.50200
H  47.66400 16.83700 22.13200
H  46.48700 17.77600 23.04400
H  45.91300 16.66500 21.89000
H  45.06000 13.09800 25.03500
H  46.27000 13.15100 23.82900
H  43.70100 13.75600 22.59600
H  43.67300 12.16500 23.50200
H  44.85800 12.44300 22.16600
H  41.50800 13.92500 26.81600
H  40.47900 14.77700 27.91400
H  41.25800 13.42000 28.65200
H  43.39400 15.34600 32.61400
H  41.15100 18.07100 34.79200
H  42.81900 18.45700 35.24100
H  42.10400 17.13900 36.08100
Mg -11.89900 17.33100 39.63400
C  -8.57000 15.89200 39.60700
C  -10.42100 20.44400 39.13700
C  -14.85500 18.56400 38.74900
C  -13.04300 14.06800 39.45900
N  -9.69600 18.04100 39.41100
C  -8.54400 17.33900 39.49700
C  -7.35100 18.26200 39.49200
C  -8.00600 19.65700 39.67600
C  -9.52700 19.39100 39.46800
C  -7.76300 20.38700 41.03700
C  -6.60700 18.08700 38.08900
C  -5.17400 17.57200 38.18400
H  -4.92000 16.28900 37.50500
N  -12.68800 19.23200 39.19000
C  -11.85800 20.39300 39.00400
C  -12.68000 21.55100 38.80600
C  -14.01600 21.03100 38.53000
C  -13.90800 19.57800 38.78700
C  -12.14700 22.94600 38.87000
C  -15.28200 21.73900 38.07100
O  -15.25000 22.98900 37.98700
C  -16.58600 21.07200 37.86100
N  -13.70900 16.41100 39.10300
C  -14.80100 17.16400 38.92800
C  -16.06400 16.33500 39.20000
C  -15.47900 14.83700 39.10700
C  -13.99600 15.08400 39.24900
C  -16.72000 16.64100 40.56700
C  -15.70300 14.03400 37.79400
C  -17.12000 13.46700 37.63300
N  -11.07000 15.38600 39.59500
C  -11.67100 14.15300 39.61400
C  -10.77400 13.12300 39.90900
C  -9.52200 13.71700 39.89200
C  -9.78600 15.12600 39.66300
C  -11.16600 11.63100 40.10300
C  -8.10000 13.50400 39.95000
O  -7.37500 12.52000 40.20300
C  -7.47300 14.87200 39.73100
C  -6.68000 15.20100 40.91100
O  -7.15400 15.82200 41.87100
O  -5.38600 14.81400 40.75000
C  -4.45000 15.16900 41.83600
H  -9.90500 21.40500 39.06800
H  -15.88800 18.91900 38.76000
H  -13.45800 13.06300 39.55800
H  -6.66600 17.99200 40.29600
H  -7.62400 20.27500 38.86300
H  -7.74500 19.60200 41.79200
H  -8.54100 21.11700 41.26100
H  -6.81400 20.92300 41.01500
H  -6.45400 19.05200 37.60600
H  -7.27000 17.52500 37.43200
H  -4.98400 17.43300 39.24800
H  -4.49000 18.38300 37.93400
H  -11.93100 23.25500 37.84700
H  -11.31700 22.93600 39.57700
H  -12.97800 23.50500 39.30100
H  -16.38800 20.29600 37.12200
H  -17.36000 21.70400 37.42600
H  -16.96600 20.67500 38.80200
H  -16.75700 16.55800 38.38800
H  -15.93200 14.27100 39.92100
H  -15.91300 16.70500 41.29800
H  -17.39600 15.80400 40.74200
H  -17.18100 17.62200 40.68300
H  -14.81900 13.43200 37.58500
H  -15.71700 14.72700 36.95200
H  -17.60000 13.35300 38.60500
H  -16.82900 12.48800 37.25300
H  -17.75000 14.05400 36.96400
H  -10.61600 11.12600 39.30800
H  -12.23100 11.57500 39.87700
H  -11.02700 11.16000 41.07600
H  -6.77200 15.03700 38.91200
H  -3.44300 14.92000 41.49900
H  -4.73600 14.72800 42.79100
H  -4.43200 16.25700 41.89600

