158

Mg 40.72500 9.02400 29.71000
C  42.72900 10.10300 32.33000
C  38.77200 7.35400 31.91100
C  39.25000 7.67200 27.20000
C  43.27300 10.29200 27.49900
N  40.78900 8.76900 31.89100
C  41.60700 9.43800 32.74200
C  41.04200 9.35900 34.11900
C  40.07600 8.15000 34.05200
C  39.84600 8.07300 32.52200
C  40.68300 6.80400 34.60900
C  40.23600 10.71400 34.61600
C  40.12500 10.76100 36.18100
H  41.23900 11.46800 36.96900
N  39.02100 7.76700 29.55200
C  38.31100 7.26100 30.59900
C  37.13600 6.61900 30.06400
C  37.25000 6.73100 28.64300
C  38.53200 7.42300 28.42400
C  36.05200 6.00800 30.92000
C  36.27000 6.29900 27.57000
O  36.42300 6.50700 26.38800
C  34.96800 5.67300 27.99500
N  41.28800 8.77500 27.69800
C  40.41900 8.25100 26.81800
C  40.75900 8.52200 25.33800
C  41.98800 9.46100 25.50500
C  42.24900 9.50500 26.99300
C  40.87100 7.27200 24.50400
C  41.71500 10.83100 24.90700
C  40.87100 11.73300 25.82100
N  42.55900 10.01900 29.82900
C  43.47900 10.40100 28.89500
C  44.59800 11.04400 29.58100
C  44.29100 11.01500 30.94000
C  43.09600 10.33300 31.02400
C  45.80700 11.79800 29.02500
C  44.77100 11.41500 32.22200
O  45.73300 12.04300 32.52900
C  43.73500 10.83400 33.20900
C  44.41800 10.05000 34.21600
O  44.55500 8.81700 34.20700
O  44.91800 10.89100 35.19300
C  45.59900 10.27800 36.26500
H  38.14900 6.83900 32.64600
H  38.82400 7.11200 26.36600
H  43.91600 10.76000 26.75000
H  41.87900 9.22900 34.80500
H  39.19000 8.30100 34.67000
H  41.74900 6.70600 34.39900
H  40.31600 5.91800 34.09200
H  40.51700 6.51600 35.64700
H  39.20800 10.72200 34.25300
H  40.76200 11.55100 34.15800
H  40.18300 9.72000 36.50200
H  39.17700 11.20300 36.48800
H  35.90900 4.95700 30.66800
H  35.05300 6.43900 30.85800
H  36.29200 5.90500 31.97900
H  35.03100 4.68300 28.44600
H  34.25300 5.59800 27.17500
H  34.57700 6.38000 28.72600
H  39.91300 9.02600 24.87000
H  42.92300 9.02100 25.15700
H  40.16800 7.17500 23.67700
H  40.77700 6.40700 25.16100
H  41.85400 7.43700 24.06500
H  41.14600 10.75200 23.98100
H  42.65000 11.34700 24.68600
H  40.66100 11.31100 26.80300
H  39.83700 11.86600 25.50100
H  41.37900 12.67900 26.00800
H  45.62000 12.06600 27.98500
H  46.71000 11.19800 29.13500
H  45.91300 12.67900 29.65900
H  43.27600 11.69600 33.69300
H  46.37400 9.65200 35.82200
H  44.87500 9.90400 36.98900
H  46.14400 10.99500 36.87700
Mg -1.62100 34.25500 27.00600
C  -3.38900 32.44000 29.51600
C  -0.57700 36.42400 29.33100
C  -0.25800 35.85000 24.50600
C  -3.11500 32.01600 24.69900
N  -1.97900 34.37900 29.16200
C  -2.64200 33.47000 29.99900
C  -2.31100 33.84700 31.49500
C  -1.51400 35.16500 31.37000
C  -1.39400 35.42200 29.87000
C  -2.10100 36.42700 32.12800
C  -1.61000 32.67200 32.34000
C  -2.48800 32.02600 33.36100
H  -1.83100 32.00100 34.73100
N  -0.46100 35.85600 26.90400
C  -0.19500 36.63800 27.95700
C  0.60600 37.69700 27.51900
C  0.78400 37.56700 26.12400
C  -0.05600 36.39600 25.78500
C  1.22800 38.68000 28.51400
C  1.63000 38.32100 25.19700
O  1.82500 37.87100 24.06700
C  2.38400 39.50000 25.71400
N  -1.66600 33.88200 24.86900
C  -0.96600 34.72200 24.10500
C  -1.25500 34.38800 22.62400
C  -2.12700 33.11800 22.73600
C  -2.27000 32.92200 24.18900
C  -1.87200 35.52100 21.71900
C  -1.65500 31.88600 21.89100
C  -2.69500 31.27700 20.97100
N  -3.06100 32.72600 27.03200
C  -3.53500 31.86800 26.04500
C  -4.35500 30.83200 26.55200
C  -4.35900 31.01700 27.92500
C  -3.60000 32.20200 28.19000
C  -4.86400 29.63900 25.83700
C  -4.77300 30.39600 29.14500
O  -5.37200 29.32100 29.31900
C  -4.09400 31.28300 30.27100
C  -5.23300 31.76500 31.18200
O  -6.13300 32.53600 30.81100
O  -5.15300 31.11300 32.31700
C  -6.29000 31.26700 33.30900
H  -0.16400 37.08100 30.09900
H  0.09000 36.42900 23.64800
H  -3.42300 31.34400 23.89500
H  -3.30500 34.02400 31.90800
H  -0.47800 34.97500 31.64700
H  -2.33800 37.12500 31.32600
H  -1.33200 36.85900 32.76800
H  -3.08900 36.20600 32.53300
H  -0.74800 33.10500 32.84800
H  -1.26400 31.84400 31.72000
H  -2.61200 31.03000 32.93700
H  -3.48900 32.45400 33.41500
H  0.34600 39.11400 28.98500
H  1.78900 39.50800 28.08300
H  1.88300 38.19000 29.23500
H  2.89700 40.01000 24.89900
H  3.14700 39.09000 26.37600
H  1.87200 40.31000 26.23300
H  -0.28800 34.14600 22.18300
H  -3.11900 33.39200 22.37600
H  -2.29100 36.20500 22.45700
H  -2.70900 35.22400 21.08800
H  -1.05500 35.95500 21.14400
H  -1.25400 31.15200 22.58900
H  -0.91900 32.14500 21.13000
H  -2.52800 31.37200 19.89800
H  -3.66000 31.66300 21.29900
H  -2.83100 30.22900 21.23500
H  -4.15600 28.81200 25.78900
H  -5.12500 29.95600 24.82800
H  -5.80000 29.39700 26.34100
H  -3.36400 30.73700 30.86800
H  -5.86100 31.77900 34.17000
H  -6.61100 30.23400 33.44400
H  -7.24700 31.72200 33.05100

