158

Mg 17.13300 -1.70200 27.58500
C  15.86000 0.20100 30.17700
C  19.36500 -3.19500 29.71700
C  18.21300 -3.52300 24.91500
C  15.10800 0.09000 25.41200
N  17.54000 -1.49400 29.72000
C  16.93900 -0.63200 30.59700
C  17.44100 -0.92300 31.97600
C  18.62200 -1.89900 31.76200
C  18.60100 -2.19500 30.30200
C  20.02800 -1.36300 32.07600
C  16.27200 -1.52200 32.90100
C  16.11500 -0.97500 34.37500
H  17.40300 -0.23100 34.88400
N  18.54200 -3.21400 27.36700
C  19.31300 -3.74900 28.41700
C  20.01500 -4.91900 27.87400
C  19.83000 -4.85700 26.45400
C  18.82300 -3.83000 26.17800
C  20.92700 -5.68800 28.79100
C  20.43300 -5.75000 25.39700
O  20.16000 -5.76200 24.17400
C  21.55200 -6.70900 25.76100
N  16.79700 -1.69200 25.41800
C  17.29800 -2.55400 24.52700
C  16.94400 -2.16400 23.08900
C  15.81500 -1.09000 23.29300
C  15.87800 -0.85300 24.79500
C  18.17200 -1.66700 22.28200
C  14.43600 -1.56700 22.75300
C  13.70300 -2.53300 23.70900
N  15.64000 -0.28100 27.74200
C  14.85400 0.32500 26.74200
C  13.99100 1.33600 27.38100
C  14.35500 1.28400 28.73000
C  15.34100 0.34500 28.89000
C  13.07300 2.28400 26.71000
C  14.03900 1.85900 30.03300
O  13.26000 2.70800 30.43700
C  14.92000 1.10300 31.08400
C  15.58800 2.00700 32.06500
O  16.73600 2.39900 32.07400
O  14.61300 2.55500 32.82300
C  15.00900 3.45600 33.93200
H  20.09900 -3.75100 30.30300
H  18.54200 -4.07600 24.03300
H  14.45600 0.53700 24.65900
H  17.86300 -0.02600 32.43000
H  18.46400 -2.85100 32.26900
H  19.95600 -0.32700 32.40900
H  20.60000 -1.39500 31.14900
H  20.41000 -2.04300 32.83800
H  16.33700 -2.60900 32.87600
H  15.34800 -1.34900 32.34900
H  15.85200 -1.74800 35.09700
H  15.28400 -0.27400 34.28900
H  21.93000 -5.27100 28.69400
H  20.91700 -6.75800 28.58500
H  20.70700 -5.52800 29.84700
H  21.03500 -7.64900 25.95100
H  22.18800 -6.50700 26.62300
H  22.21300 -6.71900 24.89400
H  16.51300 -3.05700 22.63500
H  16.05600 -0.18600 22.73500
H  18.08000 -0.66700 21.85700
H  18.41500 -2.46600 21.58100
H  19.05800 -1.59300 22.91200
H  14.53600 -2.12800 21.82400
H  13.78000 -0.72900 22.51600
H  13.21700 -1.92500 24.47200
H  14.40300 -3.22500 24.17800
H  12.90900 -2.93300 23.08000
H  12.44100 2.77100 27.45300
H  12.45600 1.70600 26.02100
H  13.74200 2.97700 26.20100
H  14.25200 0.43600 31.62900
H  14.25300 3.34200 34.70800
H  15.04600 4.49700 33.61100
H  15.98700 3.28200 34.37800
Mg 30.51800 58.45100 40.10800
C  27.59500 56.65200 39.18800
C  32.46200 55.85300 38.92100
C  33.12500 60.59600 40.08200
C  28.35200 61.04300 41.07800
N  29.99900 56.47500 39.25400
C  28.82300 56.00400 38.92900
C  28.95200 54.55300 38.40800
C  30.36700 54.21500 38.97200
C  31.03500 55.61800 39.02600
C  30.43600 53.61500 40.40100
C  28.93400 54.61200 36.83100
C  27.64800 54.13100 36.22400
H  26.88000 55.04200 35.30900
N  32.53200 58.27900 39.68900
C  33.08800 57.11400 39.11000
C  34.53500 57.36900 39.03500
C  34.72600 58.75100 39.30800
C  33.47800 59.32300 39.76700
C  35.48800 56.37600 38.52700
C  36.08900 59.41000 39.17700
O  37.00700 58.77300 38.66600
C  36.41700 60.77600 39.65800
N  30.65700 60.49400 40.40600
C  31.90300 61.16900 40.35100
C  31.74600 62.60600 41.00500
C  30.28900 62.62500 41.54800
C  29.71900 61.35800 40.98000
C  32.77000 63.08300 42.03700
C  29.49900 63.97600 41.30200
C  28.43300 64.30700 42.43500
N  28.35900 58.77400 40.16700
C  27.65400 59.90300 40.53500
C  26.23600 59.65000 40.44800
C  26.11100 58.32700 39.88100
C  27.47600 57.88900 39.70400
C  25.22200 60.56500 41.05800
C  25.23600 57.28900 39.35600
O  24.03900 57.08900 39.17700
C  26.17300 56.12400 38.92600
C  25.70800 54.93900 39.74300
O  26.15600 54.62100 40.86600
O  24.88200 54.15200 38.89900
C  24.38600 52.96800 39.55500
H  32.89800 54.88000 38.68200
H  33.96500 61.29400 40.05600
H  27.79100 61.92800 41.38400
H  28.24800 53.84700 38.84800
H  30.95100 53.51700 38.37200
H  30.89400 52.62700 40.35400
H  29.47200 53.31800 40.81400
H  30.91700 54.32000 41.07900
H  29.70800 53.91000 36.52300
H  29.25400 55.55800 36.39500
H  27.02300 53.76800 37.04100
H  27.94300 53.33600 35.53900
H  35.56600 56.29000 37.44300
H  35.13100 55.37900 38.78500
H  36.49300 56.40500 38.94700
H  35.99200 60.89000 40.65600
H  35.97900 61.50300 38.97400
H  37.48700 60.97700 39.61000
H  31.77600 63.24800 40.12500
H  30.37900 62.43700 42.61700
H  32.28900 63.27100 42.99700
H  33.37600 63.93300 41.72600
H  33.39700 62.21500 42.23900
H  28.99500 63.90300 40.33900
H  30.27000 64.72700 41.13100
H  27.57700 64.85100 42.03500
H  28.91900 64.92600 43.18800
H  28.10500 63.43500 43.00000
H  24.51500 59.92400 41.58400
H  24.62700 61.08000 40.30300
H  25.74200 61.28500 41.69000
H  25.96000 56.00800 37.86300
H  25.13200 52.17600 39.48700
H  23.59800 52.65700 38.87000
H  23.92200 53.08400 40.53500

