158

Mg 44.44700 4.52900 48.09500
C  42.41000 7.23800 47.38000
C  41.94500 2.33800 47.18900
C  46.70800 1.82400 47.82500
C  47.16600 6.74000 47.60500
N  42.42600 4.83400 47.30400
C  41.72200 5.97200 47.19800
C  40.32900 5.74800 46.75500
C  40.11700 4.18200 47.06500
C  41.62100 3.74400 47.13700
C  39.34100 3.88300 48.31800
C  40.10200 6.09200 45.24900
C  39.06400 7.12100 44.91200
H  39.50600 8.18900 43.94200
N  44.30700 2.32900 47.87200
C  43.13200 1.65600 47.46500
C  43.41300 0.33000 47.31600
C  44.81900 0.10500 47.36300
C  45.34600 1.42600 47.78700
C  42.29100 -0.58300 46.74600
C  45.54300 -1.16600 47.03200
O  44.91800 -2.24600 46.79500
C  46.96400 -1.25300 46.87400
N  46.66700 4.30300 47.75700
C  47.33600 3.08800 47.78400
C  48.83300 3.31500 47.58600
C  49.06500 4.89200 47.61700
C  47.56500 5.39600 47.60700
C  49.72300 2.55100 48.60400
C  49.96800 5.39300 46.49300
C  51.41400 5.69200 46.85100
N  44.80600 6.57200 47.75800
C  45.95700 7.29400 47.73700
C  45.61400 8.72900 47.62800
C  44.23800 8.81600 47.54300
C  43.76800 7.44900 47.62500
C  46.67700 9.85400 47.57300
C  43.03900 9.62300 47.36600
O  42.84600 10.80400 47.19700
C  41.82900 8.61300 47.37200
C  40.81100 8.86500 48.43400
O  40.90700 8.40800 49.56400
O  39.74600 9.71600 47.97000
C  38.58500 9.86300 48.92800
H  41.07200 1.70300 47.02500
H  47.47800 1.05200 47.77000
H  47.96300 7.46000 47.41100
H  39.57100 6.28100 47.32800
H  39.66000 3.71300 46.19400
H  40.05200 3.43300 49.01100
H  38.49900 3.24300 48.05500
H  39.08800 4.75500 48.92300
H  39.96800 5.20800 44.62500
H  40.98800 6.63100 44.91500
H  38.58500 7.53900 45.79700
H  38.27200 6.65900 44.32100
H  42.40700 -0.34000 45.69000
H  41.41600 -0.16700 47.24500
H  42.43100 -1.61800 47.05900
H  47.26400 -2.23200 46.50000
H  47.44200 -1.17800 47.85100
H  47.35200 -0.48600 46.20400
H  49.06200 2.96600 46.58000
H  49.50700 5.20300 48.56400
H  49.26500 1.65100 49.01500
H  50.14600 3.19600 49.37400
H  50.47700 2.09600 47.96200
H  49.56100 6.31800 46.08400
H  50.06700 4.59300 45.75900
H  52.00200 5.21600 46.06600
H  51.67600 5.39900 47.86800
H  51.56300 6.77200 46.88400
H  46.86200 10.04900 46.51700
H  47.58900 9.69000 48.14700
H  46.29500 10.69200 48.15600
H  41.20000 8.83100 46.50900
H  38.01300 8.93600 48.89300
H  38.01100 10.71400 48.56100
H  38.91700 10.02000 49.95500
Mg 53.65700 24.19900 44.59800
C  51.17900 26.48500 43.87300
C  51.62300 21.61900 43.68200
C  56.41800 22.25700 44.14800
C  55.80000 26.96100 45.08100
N  51.71600 24.07100 43.71000
C  50.81900 25.12700 43.62100
C  49.41000 24.71800 43.15800
C  49.59300 23.19800 43.57100
C  51.08200 22.96900 43.67900
C  48.86100 22.74100 44.86700
C  49.20600 25.08000 41.70000
C  48.23600 24.21200 40.90600
H  48.00700 24.62800 39.44000
N  53.97800 22.21600 43.99600
C  52.98600 21.32400 43.69600
C  53.57600 19.99200 43.60400
C  54.93600 20.17300 43.75700
C  55.12900 21.61000 43.89700
C  52.75100 18.73200 43.39700
C  56.04300 19.05000 43.76800
O  55.74800 17.87400 43.58600
C  57.55800 19.21000 43.98800
N  55.82600 24.60800 44.58500
C  56.70100 23.55900 44.55300
C  58.20500 24.06700 44.87000
C  57.97900 25.58300 45.08900
C  56.44000 25.75300 44.85800
C  58.70800 23.45300 46.17900
C  58.96400 26.44400 44.22900
C  58.82900 26.32100 42.70900
N  53.58300 26.34500 44.69400
C  54.46800 27.29100 44.98900
C  53.80400 28.57700 45.05900
C  52.45500 28.31000 44.64300
C  52.40100 26.95200 44.34900
C  54.46300 29.80400 45.64300
C  51.10300 28.93000 44.58500
O  50.64800 30.04100 44.82500
C  50.27100 27.80000 43.87800
C  50.14500 28.37600 42.46700
O  51.07200 28.62800 41.73300
O  48.82600 28.69500 42.17200
C  48.51900 29.02900 40.74200
H  50.93600 20.77000 43.66000
H  57.28200 21.60200 44.27300
H  56.45800 27.80900 45.28000
H  48.65600 25.28100 43.70800
H  49.28000 22.49600 42.79800
H  48.00900 22.11100 44.61300
H  48.43100 23.62300 45.34100
H  49.56000 22.26500 45.55600
H  50.15800 25.11200 41.17000
H  48.69600 26.04400 41.69900
H  47.29200 24.06000 41.43000
H  48.74400 23.25200 40.81400
H  51.88800 18.94100 42.76400
H  52.42500 18.43900 44.39500
H  53.20200 17.82700 42.99100
H  58.08100 18.25400 43.99400
H  57.69000 19.60900 44.99400
H  58.01600 19.92200 43.30200
H  58.89700 23.99200 44.03100
H  58.12500 25.95000 46.10600
H  57.99700 22.73100 46.58300
H  58.79900 24.21100 46.95600
H  59.72100 23.12600 45.94700
H  59.99300 26.15500 44.44400
H  58.85700 27.46600 44.59400
H  58.49000 27.25000 42.25000
H  58.13600 25.58000 42.31200
H  59.87200 26.21500 42.41100
H  55.53400 29.70700 45.82300
H  53.87500 30.14400 46.49600
H  54.30200 30.64500 44.96900
H  49.25400 27.73400 44.26500
H  49.36400 29.11600 40.05900
H  47.97100 29.95500 40.56700
H  47.86400 28.22500 40.40600

