158

Mg 8.94900 48.36400 25.65500
C  6.57800 48.91500 28.23600
C  11.35600 49.13800 27.78200
C  11.01600 48.21500 23.04100
C  6.23600 48.31700 23.42600
N  8.94400 48.97100 27.74600
C  7.88400 48.99600 28.66800
C  8.45500 49.00800 30.13000
C  9.89400 49.50500 29.86000
C  10.12700 49.21100 28.41400
C  10.17500 50.95200 30.36300
C  8.41900 47.62800 30.79800
C  9.21300 47.41100 32.09800
H  8.56700 46.81600 33.35100
N  10.91800 48.54200 25.46100
C  11.73600 48.84200 26.44900
C  13.13600 48.76700 25.94000
C  13.11600 48.59700 24.55900
C  11.61600 48.51600 24.30400
C  14.41900 49.02000 26.84000
C  14.20900 48.56900 23.50300
O  13.95800 48.45800 22.27900
C  15.66000 48.53400 23.88300
N  8.74400 48.28000 23.62200
C  9.70600 48.21100 22.68500
C  9.26900 47.81800 21.31800
C  7.71900 48.03000 21.40900
C  7.54900 48.18400 22.93400
C  9.95600 48.50700 20.15500
C  6.86800 46.78500 20.87600
C  5.43900 47.12400 20.44200
N  6.81700 48.33400 25.75600
C  5.90000 48.33100 24.78100
C  4.58500 48.51900 25.32900
C  4.82300 48.64000 26.71200
C  6.19900 48.66800 26.89400
C  3.41400 48.69800 24.35600
C  4.09700 48.81400 27.90700
O  2.90100 48.90800 28.17600
C  5.30800 49.05800 28.96600
C  5.03700 48.09300 30.18400
O  4.87500 46.88200 30.15600
O  4.98500 48.86000 31.32600
C  4.80300 48.15800 32.61000
H  12.17000 49.28500 28.49600
H  11.71100 47.98100 22.23200
H  5.47100 48.35600 22.64700
H  7.96900 49.81800 30.67300
H  10.69700 48.92800 30.31800
H  9.34500 51.32900 30.96200
H  10.41200 51.56300 29.49300
H  10.93200 50.91800 31.14700
H  8.64300 46.93200 29.98900
H  7.36100 47.55600 31.05100
H  9.57700 48.37800 32.44400
H  10.11600 46.85600 31.84400
H  14.82800 50.00700 26.62700
H  15.10200 48.21900 26.55500
H  14.21000 48.98100 27.90900
H  16.16500 48.82300 22.96100
H  15.93800 47.58100 24.33100
H  15.88000 49.34500 24.57800
H  9.63700 46.79800 21.20700
H  7.41800 48.98100 20.96800
H  9.31000 48.61200 19.28300
H  10.83500 47.94300 19.84300
H  10.26300 49.51900 20.41900
H  6.87000 46.01900 21.65100
H  7.45200 46.32800 20.07700
H  4.74100 46.54300 21.04400
H  5.25300 46.87200 19.39800
H  5.20600 48.18900 20.44200
H  3.64100 49.38900 23.54400
H  2.44000 48.84000 24.82300
H  3.25700 47.78700 23.77800
H  5.23200 50.09600 29.28900
H  4.73500 48.83600 33.46000
H  5.62700 47.46800 32.79500
H  3.89200 47.56000 32.60700
Mg -10.63600 16.21800 40.89500
C  -7.22700 16.45100 40.58300
C  -10.82600 19.56300 40.21200
C  -13.96600 15.81300 40.59600
C  -10.31500 12.66300 41.13400
N  -9.14200 17.79900 40.40100
C  -7.79600 17.67000 40.29200
C  -7.15200 19.08700 40.01600
C  -8.30800 20.04600 40.49200
C  -9.54300 19.09100 40.35000
C  -8.17100 20.66300 41.92600
C  -6.70300 19.16200 38.53300
C  -5.24500 18.85700 38.28700
H  -4.75200 17.74800 37.26100
N  -12.16700 17.48100 40.44300
C  -12.04500 18.78200 40.19700
C  -13.33800 19.38400 40.01300
C  -14.35700 18.30100 40.02600
C  -13.48200 17.11800 40.31300
C  -13.57700 20.85800 39.66200
C  -15.93000 18.43700 39.72000
O  -16.53900 19.49500 39.74800
C  -16.79600 17.20400 39.49700
N  -11.91900 14.50900 40.69100
C  -13.26600 14.66700 40.77300
C  -13.98300 13.34900 40.97300
C  -12.83900 12.29000 40.78800
C  -11.57800 13.18500 40.92800
C  -14.87800 13.30900 42.31300
C  -12.73300 11.33400 39.57000
C  -12.31700 11.81300 38.17200
N  -9.04800 14.72400 40.93700
C  -9.05100 13.36100 41.08000
C  -7.67600 12.90500 41.25000
C  -6.90200 14.08300 41.02000
C  -7.80600 15.12600 40.81400
C  -7.24700 11.54600 41.38100
C  -5.56100 14.67300 40.99400
O  -4.46600 14.15200 41.09700
C  -5.72300 16.24000 40.60100
C  -4.91100 17.06400 41.60300
O  -3.71300 17.13100 41.55100
O  -5.60600 17.68400 42.58700
C  -4.75200 18.54800 43.46000
H  -10.84300 20.63600 40.01100
H  -15.04900 15.69300 40.67400
H  -10.17200 11.59400 41.30100
H  -6.19900 19.30100 40.50200
H  -8.44800 20.96500 39.92200
H  -8.75100 20.26500 42.75900
H  -8.52900 21.68000 41.76900
H  -7.12100 20.77300 42.19600
H  -6.92300 20.19000 38.24500
H  -7.42800 18.65400 37.89700
H  -4.74100 18.56600 39.20900
H  -4.77500 19.81300 38.06000
H  -12.81600 21.13500 38.93300
H  -13.60500 21.47100 40.56200
H  -14.55100 20.89200 39.17300
H  -16.29900 16.45800 38.87600
H  -17.68900 17.51000 38.95200
H  -17.13300 16.92300 40.49500
H  -14.69000 13.29000 40.14500
H  -12.96700 11.77400 41.74000
H  -14.43400 13.93100 43.09000
H  -14.89700 12.28600 42.69000
H  -15.89200 13.63800 42.08400
H  -13.66500 10.86500 39.25300
H  -12.09600 10.47000 39.75900
H  -11.75700 12.74600 38.23800
H  -13.23000 11.84400 37.57700
H  -11.66800 11.11600 37.64100
H  -7.36200 10.96000 40.46900
H  -7.76000 10.99400 42.16900
H  -6.18200 11.54400 41.61400
H  -5.28200 16.29200 39.60600
H  -5.28600 18.90600 44.34000
H  -4.40900 19.36500 42.82500
H  -3.87600 18.03400 43.85700

