158

Mg 1.41700 8.07500 26.31500
C  1.95200 10.20500 29.00700
C  1.72100 5.45700 28.55300
C  0.83800 6.02600 23.82000
C  1.56300 10.80600 24.09000
N  1.83300 7.89000 28.59100
C  1.78700 8.95000 29.50300
C  1.84900 8.45900 30.98300
C  2.02900 6.86100 30.76900
C  1.80400 6.72300 29.23500
C  3.29900 6.14900 31.38000
C  0.64500 8.95900 31.79900
C  1.15200 9.64500 33.09500
H  2.10100 8.87300 34.02300
N  1.39600 6.05600 26.15800
C  1.55400 5.14900 27.18300
C  1.42600 3.78200 26.66500
C  1.13600 3.96700 25.27000
C  1.10700 5.41800 25.01700
C  1.36400 2.54500 27.61600
C  0.70000 2.84400 24.29700
O  0.28200 3.06300 23.13900
C  0.72300 1.31100 24.67900
N  1.33100 8.38400 24.18600
C  0.95100 7.38200 23.41700
C  0.74200 7.84000 21.98300
C  0.79800 9.38400 22.14800
C  1.33000 9.54200 23.51000
C  1.72600 7.17600 20.97300
C  -0.61500 10.02800 21.91000
C  -1.28300 9.98400 20.53500
N  1.64200 10.08500 26.45700
C  1.73000 11.06600 25.46200
C  2.05100 12.30500 26.14900
C  2.08000 12.00900 27.52200
C  1.88000 10.61500 27.64500
C  2.05600 13.71600 25.51500
C  2.35000 12.59200 28.83800
O  2.59500 13.74900 29.17300
C  2.17600 11.43300 29.78800
C  3.36000 11.43100 30.66500
O  4.43800 10.92800 30.31200
O  3.15000 12.06400 31.82000
C  4.24700 12.05500 32.80100
H  1.78300 4.62700 29.26000
H  0.72600 5.36900 22.95500
H  1.59600 11.62300 23.36600
H  2.73100 8.95800 31.38300
H  1.23000 6.37200 31.32700
H  3.96700 6.92400 31.75600
H  3.82600 5.49500 30.68600
H  2.94700 5.46300 32.15000
H  0.00000 8.17300 32.19300
H  0.05200 9.74400 31.33100
H  0.25500 9.85900 33.67700
H  1.51400 10.65600 32.91100
H  1.76400 1.67200 27.10000
H  0.31800 2.31900 27.82500
H  1.85400 2.71400 28.57500
H  0.08700 1.12700 25.54500
H  1.79300 1.11900 24.75900
H  0.26100 0.88500 23.78900
H  -0.21600 7.43300 21.65900
H  1.46700 9.86700 21.43700
H  1.16700 6.58300 20.25000
H  2.36000 6.49600 21.54200
H  2.32500 7.99400 20.57400
H  -0.57100 11.07500 22.21000
H  -1.26700 9.52600 22.62500
H  -0.64400 9.44200 19.83900
H  -1.44400 10.95800 20.07200
H  -2.20100 9.40700 20.64500
H  2.12000 14.48900 26.28100
H  1.11300 13.66900 24.97100
H  2.92100 13.91800 24.88200
H  1.24400 11.56300 30.33800
H  5.11800 12.59600 32.43200
H  4.52500 11.05500 33.13300
H  3.88000 12.67300 33.62100
Mg 35.20300 48.87500 24.93200
C  35.29100 47.35300 28.06500
C  33.84000 51.64100 26.45300
C  35.09600 50.32100 21.84100
C  36.21300 45.92300 23.48400
N  34.70900 49.43600 27.06500
C  34.81300 48.67600 28.13600
C  34.38000 49.37600 29.38600
C  34.01100 50.80600 28.87000
C  34.19600 50.61900 27.36200
C  32.65500 51.28600 29.28600
C  35.48700 49.47300 30.50500
C  34.97900 48.86900 31.90800
H  34.71200 49.90200 33.01600
N  34.52100 50.77100 24.25300
C  33.96900 51.72800 25.06700
C  33.75700 52.84500 24.18600
C  34.11900 52.56100 22.83400
C  34.57800 51.18600 22.92600
C  33.08300 54.12000 24.70700
C  33.87600 53.33200 21.53400
O  34.14900 52.90600 20.41400
C  33.22800 54.67800 21.59700
N  35.60000 48.15500 22.92700
C  35.53400 48.98800 21.82800
C  36.00900 48.22600 20.50300
C  36.57600 46.95500 21.12000
C  36.05600 46.96500 22.61600
C  35.05200 47.93600 19.47600
C  38.13600 46.78000 21.05300
C  38.61700 45.33500 20.86700
N  35.55700 47.00900 25.60200
C  35.89900 45.86500 24.82900
C  36.27500 44.84800 25.83100
C  35.98200 45.39500 27.07300
C  35.52000 46.71700 26.87700
C  36.80400 43.43300 25.65300
C  36.03500 45.05600 28.44700
O  36.40300 44.07500 29.08900
C  35.51300 46.29500 29.12300
C  34.22900 45.90400 29.84200
O  33.22400 45.53500 29.22400
O  34.31700 45.82600 31.19400
C  33.16700 45.34300 32.00200
H  33.65800 52.58300 26.97400
H  35.17000 50.68000 20.81200
H  36.78600 45.05500 23.15000
H  33.43200 49.03000 29.79900
H  34.68700 51.62800 29.10300
H  31.87800 51.08400 28.54900
H  32.63500 52.36100 29.46700
H  32.31800 50.76800 30.18400
H  35.68100 50.53800 30.63400
H  36.44400 49.03700 30.22100
H  35.68900 48.09400 32.19700
H  34.08800 48.26000 31.75300
H  32.26700 54.47000 24.07500
H  33.78800 54.95100 24.74600
H  32.66300 54.06800 25.71100
H  33.90400 55.28800 22.19700
H  32.18800 54.48500 21.85900
H  33.22600 54.96300 20.54500
H  36.86400 48.73800 20.06200
H  35.99800 46.12700 20.71100
H  35.25100 48.69900 18.72300
H  34.01300 48.00900 19.79700
H  35.27700 47.02200 18.92700
H  38.58200 47.10600 21.99300
H  38.55200 47.40400 20.26100
H  37.88700 44.64400 20.44400
H  38.83600 44.92900 21.85400
H  39.49500 45.25800 20.22600
H  37.55300 43.23200 26.41800
H  37.12700 43.33300 24.61700
H  35.93000 42.84400 25.93000
H  36.28700 46.52100 29.85700
H  33.27100 44.31100 32.33500
H  32.20600 45.45000 31.50000
H  33.18400 45.92800 32.92200

