158

Mg 1.91200 8.08600 26.36200
C  2.18000 10.16400 29.28800
C  2.37800 5.36300 28.63800
C  2.36900 5.98100 23.74500
C  2.10300 10.73000 24.29700
N  2.17600 7.85100 28.78900
C  2.12800 8.81100 29.69600
C  2.11000 8.21600 31.11300
C  2.46200 6.66100 30.84600
C  2.36400 6.58000 29.33800
C  3.80300 6.04800 31.53800
C  0.85900 8.41600 31.86000
C  0.67500 7.53400 33.12700
H  1.87500 7.30400 34.08700
N  2.17700 5.95500 26.24400
C  2.45300 5.06700 27.23700
C  2.77800 3.71000 26.72500
C  2.60900 3.80300 25.31400
C  2.34000 5.24700 25.02900
C  3.07800 2.56700 27.69400
C  2.71500 2.71000 24.27300
O  2.43600 2.94800 23.10100
C  3.19300 1.28600 24.64900
N  2.00300 8.27600 24.35600
C  2.09000 7.32200 23.38500
C  1.82600 7.87700 21.91000
C  1.59400 9.39800 22.20200
C  1.89200 9.44700 23.68200
C  3.00900 7.52000 21.00100
C  0.13900 9.92100 21.88000
C  0.17300 10.87800 20.67500
N  2.06500 10.01200 26.66200
C  2.14000 11.02100 25.71600
C  2.20700 12.36600 26.41100
C  2.28100 12.09500 27.75500
C  2.08400 10.62500 27.87700
C  2.08600 13.68400 25.83400
C  2.35500 12.67400 29.06800
O  2.51300 13.87600 29.41100
C  2.24400 11.43600 30.10400
C  3.40200 11.45900 31.09500
O  4.60700 11.23200 30.85400
O  2.99300 11.97000 32.24600
C  3.91700 11.92500 33.39800
H  2.62300 4.65600 29.43400
H  2.49900 5.32700 22.87900
H  2.15400 11.60300 23.64300
H  2.85800 8.63400 31.78700
H  1.57500 6.10000 31.14000
H  4.06900 6.71000 32.36200
H  4.59100 5.87400 30.80500
H  3.57100 5.07100 31.96100
H  0.01500 8.10800 31.24300
H  0.72200 9.45300 32.16800
H  0.24900 6.55300 32.91600
H  -0.01800 8.12600 33.72500
H  2.11400 2.07600 27.83100
H  3.54600 2.90100 28.62000
H  3.69500 1.83400 27.17400
H  2.77700 0.94000 25.59500
H  4.26900 1.45900 24.66600
H  3.00500 0.56500 23.85300
H  0.88300 7.40800 21.62900
H  2.40800 9.91400 21.69200
H  3.77200 7.07100 21.63600
H  3.41800 8.38300 20.47600
H  2.80100 6.69300 20.32100
H  -0.23100 10.45500 22.75500
H  -0.46100 9.02200 21.74200
H  1.19100 11.05700 20.32800
H  -0.23900 11.84400 20.96500
H  -0.33200 10.44200 19.81200
H  1.49400 13.41100 24.96000
H  3.03800 14.14700 25.57500
H  1.37500 14.31700 26.36400
H  1.32300 11.40600 30.68600
H  4.51000 11.01100 33.43000
H  3.30500 11.82200 34.29300
H  4.54300 12.81000 33.50600
Mg 17.68600 -1.94800 28.44000
C  16.74700 0.31300 31.08400
C  19.47900 -3.76000 30.58300
C  18.29700 -4.01400 25.90400
C  16.35200 0.39600 26.33100
N  18.24400 -1.54800 30.52700
C  17.72900 -0.64800 31.41300
C  18.20400 -1.04500 32.80500
C  19.14500 -2.24300 32.61900
C  18.85300 -2.61700 31.14700
C  20.67100 -1.88100 32.98000
C  17.04700 -1.31400 33.80400
C  17.09000 -0.72600 35.21300
H  18.35500 -0.65800 35.94800
N  18.66100 -3.76300 28.34600
C  19.38800 -4.30700 29.31500
C  19.99200 -5.55600 28.83600
C  19.72500 -5.66700 27.44500
C  18.81300 -4.49000 27.15900
C  20.56600 -6.54400 29.78900
C  20.17700 -6.75200 26.36000
O  19.79400 -6.73800 25.19200
C  21.05400 -7.88700 26.82400
N  17.44700 -1.78600 26.37900
C  17.71600 -2.79200 25.54500
C  17.50000 -2.38300 24.03900
C  16.77200 -0.97800 24.19400
C  16.92300 -0.70400 25.70400
C  18.61500 -2.48700 23.03800
C  15.31100 -0.85800 23.61600
C  15.24900 -0.19300 22.25800
N  16.73200 0.02300 28.57100
C  16.15800 0.73800 27.61100
C  15.43700 1.84500 28.13100
C  15.67500 1.78500 29.51100
C  16.48000 0.60100 29.76300
C  14.64000 2.81700 27.26200
C  15.45900 2.40900 30.79100
O  14.80600 3.38500 31.16900
C  16.11400 1.42000 31.82500
C  17.10700 2.16600 32.66400
O  18.32100 2.33800 32.41600
O  16.42700 2.79400 33.64400
C  17.33100 3.77000 34.39700
H  19.94600 -4.39500 31.33900
H  18.53600 -4.59100 25.00800
H  15.97900 1.10900 25.59300
H  18.75400 -0.13000 33.02600
H  18.77600 -3.01000 33.30100
H  20.95200 -2.02500 34.02400
H  20.90100 -0.82900 32.80700
H  21.32900 -2.50000 32.37000
H  17.11500 -2.37100 34.06300
H  16.09300 -1.13800 33.30800
H  16.43300 -1.20900 35.93600
H  16.53800 0.21400 35.19000
H  21.48000 -6.07400 30.15300
H  20.95600 -7.51100 29.47100
H  20.00300 -6.67300 30.71300
H  21.38200 -8.53400 26.01000
H  20.41900 -8.42900 27.52400
H  21.89300 -7.41000 27.32900
H  16.76300 -3.10200 23.68200
H  17.32900 -0.27100 23.57900
H  19.54700 -2.74500 23.54100
H  18.85900 -1.51300 22.61400
H  18.36400 -3.24000 22.29200
H  14.74100 -0.32100 24.37300
H  14.80000 -1.81800 23.54400
H  16.21900 -0.00400 21.79800
H  14.79400 0.79400 22.34300
H  14.72900 -0.90100 21.61300
H  15.24300 3.58800 26.78400
H  14.06400 3.33000 28.03200
H  13.95400 2.39700 26.52600
H  15.23500 1.14700 32.40900
H  16.97100 4.78200 34.21600
H  18.40300 3.74000 34.20400
H  17.16200 3.68100 35.47000

