158

Mg 47.64000 26.43800 28.15800
C  48.87700 28.50700 30.82100
C  46.42000 24.27300 30.52300
C  47.08900 24.21100 25.74000
C  49.41700 28.52100 25.93600
N  47.72300 26.41600 30.46000
C  48.15700 27.36500 31.35200
C  47.70600 27.08500 32.80700
C  47.08400 25.65600 32.64400
C  47.02900 25.42400 31.10100
C  47.84600 24.54500 33.52500
C  46.64400 28.11700 33.25500
C  45.68200 27.64400 34.44300
H  45.50700 28.52100 35.64200
N  46.89000 24.46000 28.11900
C  46.45900 23.77700 29.23500
C  46.09800 22.44600 28.82200
C  46.30500 22.36200 27.39100
C  46.78200 23.68800 27.00500
C  45.61800 21.41100 29.84000
C  46.22300 21.13700 26.44400
O  46.55400 21.26400 25.26500
C  45.78700 19.79900 26.91800
N  48.07400 26.44300 26.11800
C  47.58600 25.46500 25.34500
C  47.83700 25.88400 23.83800
C  48.65700 27.24300 23.90500
C  48.71200 27.48000 25.37800
C  48.56300 24.91800 22.82500
C  47.99000 28.36500 23.14900
C  48.91600 29.44500 22.54800
N  48.85100 28.21200 28.30300
C  49.51500 28.87400 27.29300
C  50.30600 29.90500 27.84000
C  50.02400 29.89200 29.23000
C  49.16700 28.76200 29.48300
C  51.26500 30.81300 27.08900
C  50.29400 30.55900 30.42000
O  51.06900 31.50600 30.66700
C  49.40000 29.77300 31.48400
C  50.33300 29.35200 32.57900
O  51.23600 28.58500 32.42000
O  50.06500 30.06800 33.69000
C  51.13600 29.93200 34.73100
H  45.98200 23.64800 31.30500
H  46.91100 23.51500 24.91800
H  50.18900 28.95700 25.30000
H  48.61700 27.08400 33.40500
H  46.06300 25.72100 33.02100
H  48.58400 25.08600 34.11600
H  48.36500 23.82400 32.89400
H  47.12200 24.06000 34.18000
H  46.12900 28.41800 32.34300
H  47.20200 29.01700 33.51400
H  46.04000 26.72700 34.91000
H  44.65500 27.55500 34.08600
H  44.54000 21.29300 29.73700
H  45.81000 21.59600 30.89700
H  46.02500 20.42900 29.59600
H  46.60900 19.47000 27.55400
H  45.68900 19.23200 25.99200
H  44.87100 19.79400 27.50900
H  46.82000 26.16400 23.56100
H  49.68600 27.14400 23.55900
H  47.81600 24.56900 22.11200
H  48.95600 24.14300 23.48200
H  49.28500 25.44700 22.20300
H  47.36500 28.87700 23.88100
H  47.31500 27.95800 22.39600
H  48.70900 30.47400 22.84100
H  48.84800 29.38500 21.46200
H  49.96000 29.23000 22.77700
H  51.56500 31.51400 27.86900
H  50.83700 31.25000 26.18700
H  52.14400 30.21000 26.86200
H  48.61400 30.48000 31.75000
H  52.11800 29.89200 34.26000
H  51.00100 29.06800 35.38200
H  51.07500 30.75700 35.44100
Mg -10.59200 38.15500 41.30300
C  -8.63100 35.42600 40.36800
C  -8.25800 40.23900 39.55700
C  -12.78600 40.81100 41.56000
C  -13.01000 36.03400 42.58400
N  -8.76800 37.87100 39.85800
C  -8.12800 36.62700 39.77200
C  -6.71300 36.74800 39.18400
C  -6.53900 38.27000 39.08300
C  -7.93200 38.88600 39.51300
C  -5.35300 38.88900 39.78600
C  -6.61600 36.05200 37.77000
C  -5.53200 35.00400 37.55500
H  -4.37000 35.40200 36.61600
N  -10.46900 40.16200 40.78400
C  -9.41000 40.87200 40.11400
C  -9.67000 42.27900 40.11600
C  -10.96700 42.49400 40.61400
C  -11.47200 41.10200 41.01200
C  -8.66800 43.22600 39.48700
C  -11.73200 43.85000 40.78200
O  -11.16300 44.83500 40.32600
C  -13.05100 44.02400 41.39500
N  -12.75900 38.35400 41.69200
C  -13.39100 39.55300 41.87000
C  -14.74300 39.41400 42.47900
C  -14.79800 37.84100 42.80200
C  -13.42400 37.34500 42.29800
C  -15.07300 40.33900 43.66400
C  -15.89200 37.03200 42.05600
C  -16.69100 35.91100 42.76500
N  -10.79800 36.11200 41.45200
C  -11.80200 35.38800 42.04200
C  -11.42300 33.99600 42.16300
C  -10.17600 33.95900 41.47600
C  -9.84700 35.29700 41.05700
C  -12.14900 32.93700 42.89000
C  -9.12100 33.06300 41.08400
O  -8.91900 31.83600 41.32400
C  -8.04800 33.94900 40.36500
C  -6.74800 33.73700 41.07400
O  -5.90700 32.93100 40.86000
O  -6.62100 34.77100 41.95400
C  -5.39400 34.73200 42.77800
H  -7.45500 40.90000 39.22400
H  -13.25400 41.73600 41.90300
H  -13.73600 35.35800 43.04000
H  -5.97300 36.30900 39.85200
H  -6.44200 38.58500 38.04400
H  -4.56900 39.05200 39.04700
H  -4.99300 38.27300 40.61000
H  -5.58400 39.86200 40.22200
H  -6.33100 36.85600 37.09200
H  -7.63600 35.72800 37.56100
H  -6.09000 34.15600 37.15700
H  -5.07200 34.69300 38.49300
H  -7.74500 43.28100 40.06500
H  -8.97300 44.26800 39.39500
H  -8.58400 42.84600 38.46800
H  -13.02600 43.56200 42.38200
H  -13.86500 43.71800 40.73800
H  -13.15300 45.09100 41.58900
H  -15.35300 39.62700 41.60100
H  -15.01700 37.77000 43.86800
H  -16.04600 40.81600 43.54600
H  -14.14300 40.88200 43.83300
H  -15.10900 39.77100 44.59300
H  -15.55700 36.52600 41.15000
H  -16.62500 37.65900 41.54900
H  -16.34700 34.94000 42.40800
H  -17.77100 35.90200 42.61500
H  -16.57500 36.08400 43.83500
H  -11.50100 32.06600 42.79800
H  -13.11700 32.62400 42.49800
H  -12.26400 33.30900 43.90800
H  -7.96500 33.58900 39.34000
H  -5.46200 33.97000 43.55500
H  -5.41300 35.63300 43.39100
H  -4.51400 34.45800 42.19700

