158

Mg 47.96700 25.06400 28.59700
C  48.52300 27.66600 31.02700
C  47.64400 22.84100 31.15200
C  47.73700 22.60800 26.24000
C  49.05200 27.27300 26.16300
N  48.03200 25.28400 30.87600
C  48.20200 26.47300 31.67300
C  47.94400 26.13600 33.19400
C  47.70400 24.56600 33.13100
C  47.81600 24.17300 31.58800
C  48.72700 23.72600 33.98900
C  46.74300 26.98300 33.74700
C  46.22200 26.54500 35.12300
H  45.64600 27.51200 36.07500
N  47.67700 23.01200 28.64800
C  47.52000 22.28300 29.82700
C  47.32900 20.85100 29.45400
C  47.40200 20.79700 28.00300
C  47.60100 22.14100 27.57200
C  47.09800 19.71100 30.40500
C  47.17300 19.62900 27.05900
O  46.99500 19.80500 25.85500
C  47.02800 18.26400 27.61900
N  48.53200 24.94100 26.52900
C  48.14000 23.86200 25.76800
C  48.16200 24.15400 24.27100
C  48.47500 25.74000 24.28500
C  48.72200 26.01300 25.70000
C  49.06400 23.29300 23.38900
C  47.26500 26.65000 23.68300
C  47.66700 27.84300 22.77000
N  48.71900 27.00800 28.55500
C  49.13300 27.77700 27.47900
C  49.42900 29.12400 27.94300
C  49.27100 29.13200 29.36400
C  48.82800 27.82400 29.66300
C  49.87000 30.19300 26.95200
C  49.40900 29.97900 30.55900
O  49.94800 31.04900 30.74700
C  48.72800 29.06600 31.65400
C  49.72300 29.08000 32.72200
O  50.91800 28.69900 32.67600
O  49.20100 29.82100 33.76900
C  49.92600 29.71700 34.98500
H  47.58900 22.09300 31.94600
H  47.61900 21.98100 25.35400
H  49.35500 27.93000 25.34500
H  48.86400 26.32300 33.74700
H  46.67800 24.51800 33.49700
H  48.25900 22.92300 34.55800
H  49.25700 24.38400 34.67700
H  49.40200 23.30600 33.24300
H  45.96600 27.00200 32.98300
H  47.13700 27.99800 33.77800
H  46.91000 25.90100 35.67100
H  45.37500 25.89300 34.91000
H  46.05400 19.42600 30.54100
H  47.50700 20.18600 31.29600
H  47.75800 18.87200 30.18500
H  48.06500 17.95900 27.75700
H  46.55100 17.72100 26.80200
H  46.38500 18.03100 28.46700
H  47.20600 24.02500 23.76200
H  49.37200 26.01000 23.72700
H  49.03800 22.25200 23.71100
H  50.12700 23.53400 23.42200
H  48.72200 23.44000 22.36500
H  46.80300 27.12300 24.55000
H  46.44500 26.08600 23.23700
H  47.48300 28.85600 23.12600
H  46.84300 27.77200 22.05900
H  48.60300 27.79200 22.21400
H  49.35600 29.93800 26.02600
H  50.95000 30.11900 26.82800
H  49.63700 31.20900 27.26800
H  47.72400 29.32800 31.98900
H  50.18600 28.66000 35.04300
H  49.25100 29.90100 35.82200
H  50.85700 30.28400 34.99000
Mg 42.41300 41.62700 25.65300
C  41.41100 43.87600 28.15900
C  43.62700 39.56700 28.14200
C  43.60200 39.48000 23.27100
C  41.85400 44.10100 23.28700
N  42.36600 41.63600 27.91000
C  42.00400 42.69800 28.66300
C  42.16300 42.39500 30.15200
C  42.91300 41.05100 30.15800
C  43.02400 40.73400 28.64700
C  44.28100 40.87900 30.93300
C  40.79000 42.46800 31.02700
C  40.79100 42.95100 32.45500
H  40.07000 42.06600 33.56100
N  43.43000 39.78200 25.71100
C  43.82500 39.08000 26.84500
C  44.41800 37.81000 26.47800
C  44.36600 37.69600 25.04100
C  43.74400 38.96700 24.62100
C  44.94400 36.75400 27.43300
C  44.83300 36.57000 24.18000
O  44.75900 36.61200 22.96000
C  45.60800 35.49000 24.75700
N  42.76300 41.82500 23.59200
C  43.21300 40.76600 22.82800
C  43.06900 41.05400 21.32300
C  42.55300 42.65000 21.29800
C  42.43500 42.90400 22.79900
C  44.32400 40.79800 20.59300
C  41.08900 42.83600 20.71000
C  40.92700 44.11300 19.87100
N  41.57200 43.53800 25.64600
C  41.48000 44.43300 24.60200
C  40.85600 45.59900 25.10100
C  40.84800 45.44200 26.51200
C  41.39000 44.15500 26.77900
C  40.44800 46.79900 24.30400
C  40.47700 46.08500 27.68300
O  39.93300 47.20100 27.94300
C  40.85900 45.09200 28.83800
C  41.84400 45.72900 29.91200
O  43.01200 45.95300 29.69300
O  41.20700 45.98500 31.13200
C  41.99300 46.43200 32.32000
H  44.03800 38.95700 28.94900
H  43.93400 38.83600 22.45400
H  41.64700 44.87500 22.54500
H  42.82600 43.16700 30.54400
H  42.23000 40.32200 30.59400
H  44.32000 41.69700 31.65200
H  45.16100 40.90000 30.28900
H  44.20400 39.95700 31.50900
H  40.41800 41.44400 31.05400
H  39.98200 42.88000 30.42400
H  40.31400 43.93100 32.47900
H  41.80400 43.18300 32.78400
H  44.75900 37.10700 28.44700
H  46.01800 36.63400 27.29100
H  44.38800 35.82000 27.35000
H  46.54400 35.85100 25.18300
H  45.99900 34.84600 23.96900
H  44.96500 35.02600 25.50400
H  42.28400 40.43900 20.88200
H  43.31200 43.29100 20.84900
H  45.12400 41.16700 21.23400
H  44.36500 41.37000 19.66600
H  44.26300 39.72500 20.40900
H  40.38500 42.85900 21.54100
H  40.82500 41.95200 20.13000
H  41.60100 44.94200 20.08700
H  39.87000 44.33700 20.01400
H  41.15800 43.96800 18.81600
H  40.07700 47.56000 24.99000
H  39.63200 46.50500 23.64400
H  41.29800 47.27400 23.81400
H  39.88100 44.98800 29.31000
H  42.39000 45.57000 32.85600
H  41.38200 47.06400 32.96500
H  42.89800 47.00400 32.11600

