158

Mg 47.60200 15.20500 28.10000
C  45.53200 15.07800 30.94900
C  49.52300 17.45100 29.94900
C  49.54200 15.51400 25.45300
C  45.12100 13.60700 26.40700
N  47.48900 16.19000 30.20500
C  46.57900 15.94500 31.18000
C  46.89700 16.61900 32.51400
C  48.13500 17.51700 32.07900
C  48.44100 17.05300 30.66400
C  47.89600 19.02600 32.10000
C  47.06900 15.72700 33.86100
C  47.34300 16.56700 35.10000
H  48.61300 16.19900 36.01700
N  49.42400 16.16700 27.80700
C  50.03600 17.07700 28.63300
C  51.30000 17.52800 28.03500
C  51.35800 16.90900 26.79200
C  50.08900 16.14000 26.62700
C  52.25300 18.61800 28.60500
C  52.45400 17.06700 25.76000
O  52.41700 16.51700 24.64800
C  53.59800 18.00800 26.13000
N  47.26000 14.79800 26.15300
C  48.29800 14.82800 25.23000
C  47.81800 14.23100 23.91100
C  46.35000 13.68400 24.22100
C  46.24900 14.07500 25.72600
C  47.84200 15.21800 22.69400
C  46.18400 12.15000 23.85600
C  46.81300 11.13700 24.81200
N  45.59700 14.43500 28.55700
C  44.71400 13.79100 27.71400
C  43.55700 13.39200 28.49700
C  43.83100 14.02500 29.71600
C  45.14800 14.45500 29.75000
C  42.25300 12.70500 28.07800
C  43.28400 14.18300 31.04700
O  42.14200 13.85600 31.41900
C  44.40100 14.81700 31.93600
C  43.83700 16.05500 32.42300
O  43.66200 17.07400 31.78500
O  43.47200 15.90300 33.74800
C  42.98000 17.07000 34.45100
H  50.20800 18.10600 30.49200
H  50.03400 15.54500 24.47800
H  44.43100 13.03300 25.78500
H  46.14500 17.37000 32.75200
H  49.07100 17.34100 32.60900
H  48.38500 19.44400 32.98100
H  46.82600 19.23000 32.14000
H  48.27700 19.54400 31.22000
H  47.92300 15.11000 33.58300
H  46.18500 15.10300 33.99500
H  46.52700 16.60500 35.82200
H  47.53400 17.59200 34.78400
H  52.30900 19.58300 28.10100
H  53.23000 18.17300 28.79100
H  51.89900 18.88800 29.60000
H  53.20200 19.02200 26.20000
H  54.20900 17.95900 25.22900
H  54.32700 17.67300 26.86600
H  48.50500 13.41000 23.70800
H  45.64000 14.22800 23.59900
H  48.15600 16.18300 23.09100
H  46.86600 15.32200 22.22100
H  48.67400 14.99500 22.02600
H  46.51500 12.04100 22.82300
H  45.12900 11.87700 23.89000
H  47.11200 10.27200 24.22000
H  46.03200 10.77800 25.48200
H  47.69800 11.51800 25.32100
H  42.00100 12.92000 27.03900
H  41.37800 13.06100 28.62000
H  42.31600 11.63000 28.24100
H  44.63100 14.01100 32.63300
H  41.93800 16.84300 34.67500
H  43.02900 17.95400 33.81500
H  43.50500 17.19900 35.39700
Mg 8.68700 47.73000 26.91100
C  6.69200 47.48900 29.79800
C  11.48000 47.89700 28.92900
C  10.70100 48.31900 24.30200
C  5.93800 47.66500 24.97400
N  8.98100 47.76000 29.05600
C  8.06300 47.50600 30.08800
C  8.75600 47.57100 31.47000
C  10.27600 47.81600 31.11100
C  10.25600 47.83800 29.59200
C  10.95900 49.09400 31.71400
C  8.50200 46.32600 32.37000
C  9.53600 45.98700 33.46300
H  9.03100 45.44600 34.79600
N  10.80800 47.83400 26.69600
C  11.78000 47.86700 27.63000
C  13.07900 48.01000 27.05600
C  12.92100 48.19200 25.65400
C  11.43400 48.15100 25.49600
C  14.30400 47.98000 27.92100
C  13.97300 48.44600 24.54200
O  13.66500 48.52900 23.38700
C  15.38300 48.40600 24.79000
N  8.34400 48.21100 24.89800
C  9.31100 48.43500 23.99700
C  8.76300 48.45500 22.55000
C  7.25000 48.06500 22.76000
C  7.14600 47.96100 24.31700
C  8.88400 49.90200 21.84000
C  6.90600 46.65700 22.15700
C  5.90300 46.63100 20.99700
N  6.63700 47.75700 27.30000
C  5.66200 47.63900 26.38900
C  4.32400 47.50800 27.10100
C  4.67100 47.54700 28.45600
C  6.12600 47.57900 28.51400
C  3.00500 47.27900 26.51300
C  4.17700 47.40900 29.79300
O  3.04900 47.36900 30.20200
C  5.49000 47.42300 30.71600
C  5.34100 46.01500 31.31800
O  5.92900 45.01000 31.01600
O  4.65300 46.14500 32.48100
C  4.60300 44.96700 33.36800
H  12.36400 47.90400 29.57000
H  11.36100 48.41500 23.43700
H  5.03100 47.73600 24.37100
H  8.31000 48.49100 31.84600
H  10.83000 46.89900 31.30600
H  11.94400 48.76800 32.04900
H  10.36400 49.70700 32.39200
H  11.14000 49.72800 30.84600
H  8.29300 45.50900 31.68000
H  7.58000 46.50000 32.92400
H  10.19000 46.84200 33.63100
H  10.25100 45.39200 32.89400
H  14.14400 47.42200 28.84400
H  14.51900 49.01800 28.17800
H  15.10200 47.50800 27.34900
H  16.00900 48.69400 23.94600
H  15.81200 47.44200 25.06400
H  15.61600 49.01800 25.66200
H  9.37000 47.77900 21.94900
H  6.61800 48.84600 22.33800
H  9.52600 50.62900 22.33700
H  7.97100 50.47900 21.69300
H  9.34200 49.61900 20.89200
H  6.60600 45.97600 22.95400
H  7.84400 46.15900 21.91200
H  6.58400 46.68500 20.14700
H  5.20400 47.46400 21.06600
H  5.36700 45.68300 20.96100
H  2.29600 48.05000 26.81800
H  2.57000 46.36000 26.90600
H  2.93400 47.17700 25.43000
H  5.42300 48.17700 31.50100
H  4.83300 45.37100 34.35300
H  5.24800 44.13500 33.08700
H  3.62800 44.48200 33.40800

