158

Mg 30.53300 58.82100 38.88300
C  27.92300 56.72100 37.60700
C  32.63300 56.26900 38.01400
C  33.01000 61.02000 39.10800
C  28.13100 61.42000 38.96400
N  30.28200 56.74500 37.70700
C  29.15600 56.13500 37.40400
C  29.41100 54.74900 36.81700
C  31.02700 54.60400 37.04900
C  31.32100 55.89300 37.77200
C  31.42500 53.35000 37.83100
C  29.00300 54.54600 35.36200
C  29.31700 55.66800 34.32200
H  28.31600 56.18300 33.26500
N  32.60900 58.59000 38.74500
C  33.24400 57.42500 38.36000
C  34.67900 57.64000 38.51100
C  34.79800 59.07900 38.88800
C  33.43000 59.65000 38.87600
C  35.76000 56.62200 38.27700
C  36.00800 59.79800 39.29500
O  37.03900 59.23500 39.12900
C  36.06400 61.12800 39.80100
N  30.52300 60.92400 39.12500
C  31.69300 61.54100 39.22800
C  31.48800 63.03600 39.56900
C  29.92000 63.20600 39.23400
C  29.45900 61.77500 39.17000
C  31.89700 63.47600 41.03200
C  29.68800 64.07700 37.92600
C  29.82600 65.62900 37.81500
N  28.42300 59.04700 38.54100
C  27.63200 60.13700 38.68300
C  26.25400 59.81300 38.39400
C  26.30900 58.48000 37.97000
C  27.67300 58.08400 38.01100
C  25.04400 60.75600 38.40000
C  25.58600 57.34500 37.48000
O  24.39400 57.17000 37.30700
C  26.55400 56.16100 37.31500
C  26.07400 54.91400 38.07700
O  26.24300 54.69400 39.28000
O  25.25000 54.14400 37.24100
C  24.49100 53.07700 37.96100
H  33.35800 55.48300 37.79600
H  33.73600 61.83200 39.18700
H  27.43500 62.26100 38.99500
H  28.79300 54.05100 37.38200
H  31.64500 54.55700 36.15200
H  31.70400 53.63700 38.84500
H  32.18700 52.72900 37.36100
H  30.65400 52.58000 37.87000
H  27.92700 54.37400 35.32200
H  29.56400 53.66800 35.04100
H  30.23200 55.36600 33.81300
H  29.61200 56.59900 34.80700
H  36.41600 56.63500 39.14700
H  36.20800 56.66400 37.28500
H  35.29100 55.63900 38.32500
H  37.08600 61.25700 40.15700
H  35.42000 61.24600 40.67200
H  35.80200 61.79500 38.97900
H  32.07600 63.69800 38.93300
H  29.42300 63.68100 40.08000
H  32.76800 64.12400 40.94100
H  32.25500 62.59300 41.56100
H  31.20500 63.95100 41.72700
H  28.60900 63.97500 37.81100
H  30.20000 63.63900 37.06900
H  30.26300 66.02400 38.73200
H  28.87500 66.09500 37.55800
H  30.53200 65.86300 37.01800
H  24.16900 60.10600 38.41900
H  24.91900 61.42100 37.54500
H  25.10500 61.38100 39.29100
H  26.61400 56.02700 36.23400
H  24.03000 53.32200 38.91700
H  25.13500 52.21900 38.15300
H  23.69000 52.83600 37.26200
Mg -4.71900 26.44500 25.94100
C  -2.94800 27.43500 28.84800
C  -6.00900 23.87400 27.90000
C  -6.09800 25.21000 23.18700
C  -2.76300 28.64600 24.11200
N  -4.44000 25.75900 28.08900
C  -3.76200 26.36300 29.08700
C  -4.27800 25.87700 30.42300
C  -5.04900 24.53700 30.09300
C  -5.17100 24.71800 28.59900
C  -4.23100 23.26200 30.59400
C  -5.16900 26.92100 31.19100
C  -4.76100 27.07300 32.66000
H  -4.23400 25.88200 33.54000
N  -5.86800 24.76500 25.54400
C  -6.32100 23.87900 26.54100
C  -7.33300 22.97300 25.91800
C  -7.46500 23.41000 24.61200
C  -6.37400 24.44800 24.34800
C  -8.01500 21.90300 26.66100
C  -8.31600 22.81300 23.51700
O  -8.14500 23.16400 22.35600
C  -9.34800 21.77000 23.79800
N  -4.45700 26.84400 23.93600
C  -5.22300 26.26200 23.03200
C  -4.94600 26.89600 21.63500
C  -3.88000 27.94900 21.89300
C  -3.67400 27.84400 23.39200
C  -4.38400 25.94300 20.53700
C  -4.28900 29.40300 21.51000
C  -4.19300 29.65600 19.98300
N  -3.20300 27.76800 26.33400
C  -2.53100 28.63300 25.54400
C  -1.54800 29.35300 26.26000
C  -1.81500 28.99100 27.60000
C  -2.69100 27.92200 27.55600
C  -0.55700 30.33900 25.71300
C  -1.43400 29.23700 28.90100
O  -0.62900 30.07200 29.30900
C  -2.12500 28.24700 29.78400
C  -1.26700 27.53300 30.75900
O  -0.52500 26.53800 30.52900
O  -1.48600 28.10500 31.94900
C  -0.61600 27.43400 32.98500
H  -6.50700 23.09600 28.48300
H  -6.63200 24.94000 22.27300
H  -2.15800 29.34200 23.52700
H  -3.42500 25.60300 31.04400
H  -6.08600 24.44600 30.41800
H  -4.14800 22.49700 29.82200
H  -4.96200 22.79000 31.25100
H  -3.29000 23.55900 31.05700
H  -6.19900 26.57100 31.26600
H  -5.12500 27.91000 30.73600
H  -5.63500 27.43300 33.20300
H  -3.98000 27.83400 32.67000
H  -9.09800 22.01800 26.69100
H  -7.69900 21.75300 27.69300
H  -7.78000 21.01500 26.07400
H  -8.82000 20.82500 23.67400
H  -10.04800 21.89900 22.97300
H  -10.03700 21.81400 24.64200
H  -5.86000 27.32500 21.22600
H  -2.93400 27.69000 21.41800
H  -5.16200 25.29700 20.12900
H  -3.69300 25.23000 20.98500
H  -3.90600 26.30600 19.62700
H  -3.69200 30.21100 21.93300
H  -5.33700 29.59400 21.73900
H  -3.73100 30.64100 19.91600
H  -5.20800 29.75900 19.59900
H  -3.69000 28.90400 19.37400
H  -0.97800 30.95500 24.91900
H  0.34400 29.86300 25.32500
H  -0.26400 30.97000 26.55200
H  -2.87000 28.77600 30.37900
H  0.43800 27.39500 32.71200
H  -1.05000 26.47300 33.26100
H  -0.71600 28.11200 33.83400

