158

Mg -11.22000 38.30400 41.60600
C  -8.70700 36.06500 40.99400
C  -9.57500 40.65700 39.72700
C  -14.07900 40.22900 41.38400
C  -13.19400 35.73300 42.98300
N  -9.42100 38.27100 40.44700
C  -8.48100 37.27200 40.40400
C  -7.23300 37.71400 39.63100
C  -7.62500 39.06600 39.00000
C  -8.93800 39.37800 39.82400
C  -6.47100 40.14200 38.89400
C  -6.66200 36.73800 38.65000
C  -5.13800 36.31200 38.75500
H  -4.29100 36.89100 37.62100
N  -11.67700 40.27600 40.99000
C  -10.79100 41.01700 40.19100
C  -11.40900 42.28000 40.02500
C  -12.73400 42.17800 40.53700
C  -12.90300 40.83600 40.99900
C  -10.72700 43.44400 39.23600
C  -13.76500 43.26400 40.50800
O  -13.54000 44.34600 39.95100
C  -15.14600 43.16700 41.19100
N  -13.45100 37.88000 41.86200
C  -14.32600 38.93300 41.91500
C  -15.65700 38.57500 42.60800
C  -15.36000 37.11300 43.04100
C  -13.88600 36.92000 42.67600
C  -16.06900 39.58600 43.75000
C  -16.42300 36.04400 42.55700
C  -16.19500 35.51100 41.16200
N  -11.11400 36.21900 41.94800
C  -11.91700 35.40200 42.64100
C  -11.13700 34.26100 43.04000
C  -9.91200 34.39200 42.30500
C  -9.98200 35.62700 41.62000
C  -11.50300 33.21600 44.10200
C  -8.59200 33.79700 42.13600
O  -8.14900 32.78600 42.61200
C  -7.81000 34.79200 41.12800
C  -6.38600 34.88000 41.64700
O  -5.58400 33.95300 41.68900
O  -6.25500 36.14000 42.22100
C  -4.90700 36.40600 42.74300
H  -8.98200 41.42400 39.22400
H  -15.01200 40.78100 41.51300
H  -13.87100 35.01500 43.44900
H  -6.42900 37.95900 40.32500
H  -8.01400 38.92100 37.99200
H  -6.65300 41.01300 39.52200
H  -6.37900 40.38600 37.83600
H  -5.51500 39.73400 39.22300
H  -6.62000 37.27900 37.70500
H  -7.31800 35.88000 38.50200
H  -4.95800 35.23700 38.77000
H  -4.73500 36.61800 39.72000
H  -11.30500 43.83300 38.39800
H  -9.76300 43.18500 38.79900
H  -10.60500 44.25500 39.95300
H  -15.15400 42.80900 42.22100
H  -15.75900 42.61000 40.48200
H  -15.63300 44.14100 41.23400
H  -16.49800 38.65300 41.91900
H  -15.36600 36.99900 44.12500
H  -16.84400 40.32300 43.53900
H  -15.16000 40.12700 44.01500
H  -16.44800 39.04600 44.61700
H  -17.46000 36.37400 42.62900
H  -16.19800 35.17300 43.17300
H  -17.10500 35.30100 40.59800
H  -15.59300 34.60400 41.21100
H  -15.56500 36.20400 40.60500
H  -10.66700 32.51900 44.16600
H  -12.42600 32.78600 43.71500
H  -11.58300 33.75200 45.04800
H  -7.62500 34.40300 40.12700
H  -4.18100 36.18700 41.96100
H  -4.83300 35.75200 43.61200
H  -4.72300 37.42500 43.08600
Mg -5.14500 26.30600 26.37600
C  -3.54800 27.45700 29.22900
C  -6.77200 24.04000 28.38700
C  -6.28000 24.81900 23.57900
C  -3.28700 28.40400 24.51100
N  -5.13900 25.86900 28.56900
C  -4.48700 26.50800 29.52800
C  -4.98800 26.07500 30.95100
C  -5.76000 24.78700 30.62700
C  -5.92000 24.87700 29.10800
C  -4.98400 23.52100 31.08200
C  -5.92400 27.19300 31.52100
C  -5.81600 27.26700 33.08400
H  -5.33700 26.18600 34.07000
N  -6.47400 24.77200 26.05900
C  -7.07700 23.94900 27.00400
C  -7.99400 23.03700 26.31300
C  -7.75000 23.16100 24.91800
C  -6.80300 24.34100 24.79800
C  -8.95100 22.14100 27.10800
C  -8.33100 22.44000 23.68300
O  -8.13600 22.73600 22.52300
C  -9.21700 21.28100 23.85000
N  -4.92700 26.65500 24.35700
C  -5.38700 25.89700 23.37400
C  -4.82300 26.30000 21.98200
C  -4.02100 27.59800 22.27100
C  -4.09900 27.55500 23.84700
C  -4.00400 25.27300 21.22600
C  -4.72000 28.91600 21.61400
C  -4.27900 29.06900 20.11200
N  -3.76200 27.73800 26.76000
C  -3.11400 28.49800 25.87900
C  -2.17000 29.27300 26.59300
C  -2.35400 28.93700 27.91800
C  -3.27700 27.97400 27.94800
C  -1.22900 30.24400 25.97900
C  -2.00000 29.29900 29.29700
O  -1.26000 30.18400 29.67500
C  -2.71500 28.31500 30.17200
C  -1.72900 27.53900 30.89900
O  -1.48800 26.39500 30.61000
O  -1.26000 28.17700 32.03400
C  -0.57500 27.29800 33.05900
H  -7.26600 23.35800 29.08200
H  -6.60800 24.43900 22.60900
H  -2.66100 28.98600 23.83100
H  -4.10100 25.94900 31.57200
H  -6.76200 24.80400 31.05500
H  -4.16200 23.76800 31.75300
H  -4.53600 22.99900 30.23600
H  -5.63800 22.87100 31.66300
H  -6.98900 27.04900 31.33600
H  -5.60100 28.15700 31.12800
H  -6.79500 27.64200 33.38400
H  -5.15700 28.13400 33.13500
H  -9.89600 22.00300 26.58200
H  -9.09600 22.41800 28.15200
H  -8.47200 21.16300 27.15000
H  -9.40700 20.67600 22.96300
H  -10.17600 21.65300 24.21000
H  -8.84600 20.68900 24.68700
H  -5.68800 26.62300 21.40300
H  -3.03100 27.45300 21.84000
H  -4.00500 25.56000 20.17400
H  -4.42800 24.27800 21.35700
H  -2.96800 25.25600 21.56200
H  -4.45700 29.85100 22.10900
H  -5.77500 28.64600 21.67400
H  -5.16300 28.96800 19.48200
H  -3.62000 28.23600 19.86700
H  -3.76900 30.03000 20.06300
H  -0.89900 30.95400 26.73800
H  -1.70000 30.71800 25.11800
H  -0.34800 29.68600 25.66000
H  -3.34700 28.83000 30.89600
H  -1.30700 27.18200 33.85800
H  0.28900 27.91300 33.30800
H  -0.25100 26.30700 32.73900

