158

Mg 46.87800 16.64700 28.31700
C  44.86700 16.25000 31.14600
C  49.20600 18.24500 30.25900
C  48.64300 17.26300 25.60900
C  44.40700 14.96900 26.42700
N  46.93900 17.22300 30.40400
C  46.08500 16.92900 31.40500
C  46.67600 17.29900 32.79400
C  47.89500 18.16000 32.39800
C  48.06500 17.84900 30.89800
C  47.71300 19.71600 32.69600
C  46.97500 16.05800 33.62600
C  46.27200 16.00400 35.06200
H  46.63900 17.19600 35.98600
N  48.70000 17.59000 27.94000
C  49.57800 17.98200 28.92000
C  50.71300 18.52700 28.30600
C  50.52000 18.38600 26.88800
C  49.20700 17.77500 26.71200
C  51.97300 19.15300 29.06100
C  51.35000 18.91000 25.71900
O  50.91500 18.91200 24.57900
C  52.72400 19.53600 25.95300
N  46.47400 16.49300 26.31200
C  47.40100 16.67600 25.34500
C  46.98900 16.18700 23.96300
C  45.70900 15.47500 24.29900
C  45.49300 15.65500 25.80000
C  46.85200 17.27100 22.85200
C  45.66800 14.05800 23.77500
C  46.52100 12.97100 24.63700
N  45.00800 15.79000 28.66400
C  44.13900 15.09800 27.83800
C  42.97700 14.58200 28.60500
C  43.27100 14.95500 29.90700
C  44.46100 15.77200 29.88300
C  41.81100 13.76200 28.15900
C  42.74300 14.98500 31.27600
O  41.71600 14.54200 31.76000
C  43.92000 15.73400 32.12100
C  43.22300 16.80800 32.88600
O  43.13000 17.99900 32.54200
O  42.93100 16.32200 34.11100
C  42.07200 17.10700 35.04700
H  50.01000 18.56600 30.92500
H  49.27300 17.12400 24.72800
H  43.70900 14.42500 25.78800
H  45.84800 17.83100 33.26300
H  48.76200 17.81800 32.96300
H  46.93300 19.98700 33.40700
H  47.33100 20.16100 31.77700
H  48.69000 20.14200 32.92400
H  48.05600 15.96900 33.73500
H  46.73100 15.19600 33.00500
H  46.76900 15.11700 35.45400
H  45.18500 15.92000 35.02900
H  52.88300 18.66200 28.71700
H  52.07300 18.94900 30.12700
H  52.07500 20.21000 28.81500
H  52.62900 20.40900 26.59900
H  53.11800 19.75300 24.96000
H  53.41300 18.76000 26.28500
H  47.69900 15.45800 23.57200
H  44.85000 15.84100 23.73700
H  45.93700 17.06000 22.29800
H  47.62900 17.20800 22.09000
H  46.76400 18.23400 23.35500
H  46.20900 14.03300 22.82800
H  44.63400 13.74600 23.63200
H  47.42200 13.38600 25.08700
H  46.84400 12.20500 23.93300
H  45.83800 12.60900 25.40600
H  41.90600 13.71900 27.07400
H  40.84200 14.26200 28.13800
H  41.82400 12.75100 28.56600
H  44.31400 14.97600 32.79700
H  42.60200 17.39200 35.95500
H  41.26800 16.47400 35.42400
H  41.69100 18.00400 34.55900
Mg 42.32100 41.18700 25.89700
C  41.66900 43.74100 28.38600
C  42.99900 38.92900 28.43500
C  42.97400 39.05700 23.53800
C  41.89500 43.75900 23.58100
N  42.49000 41.43000 28.14500
C  41.96700 42.42600 28.95400
C  41.80800 41.98500 30.43400
C  42.25300 40.51400 30.37700
C  42.54400 40.20600 28.88400
C  43.32000 40.06300 31.34400
C  40.38300 42.32100 31.15000
C  39.98300 41.62500 32.44700
H  39.45600 42.43700 33.62000
N  43.00500 39.28000 25.99700
C  43.19000 38.52900 27.11700
C  43.67700 37.24300 26.75400
C  43.60600 37.16800 25.33800
C  43.24100 38.54600 24.87400
C  44.10100 36.22600 27.74800
C  43.79800 36.02500 24.35300
O  43.48900 36.18300 23.19200
C  44.19200 34.66800 24.79800
N  42.61700 41.46600 23.83800
C  42.69900 40.38100 23.10300
C  42.54200 40.75400 21.64600
C  42.03400 42.24300 21.71800
C  42.28700 42.52100 23.13400
C  43.88200 40.57800 20.85400
C  40.50900 42.39000 21.38700
C  39.55300 41.67400 22.37100
N  41.93300 43.32900 25.86300
C  41.90700 44.23300 24.88700
C  41.73100 45.52900 25.33800
C  41.54700 45.41200 26.74000
C  41.68700 44.04600 26.99600
C  41.55500 46.70300 24.52800
C  41.22200 46.14800 27.96500
O  41.04800 47.31500 28.20400
C  41.21100 45.03300 29.09600
C  42.07600 45.42900 30.19100
O  43.28000 45.68600 30.04100
O  41.40100 45.55600 31.35800
C  42.31500 45.74200 32.48300
H  42.94200 38.13900 29.18600
H  42.98900 38.31500 22.73700
H  41.63100 44.44300 22.77200
H  42.53900 42.53500 31.02700
H  41.44600 39.82400 30.62200
H  44.28800 39.92400 30.86200
H  43.04900 39.08300 31.73500
H  43.30300 40.71500 32.21700
H  39.72400 42.23900 30.28500
H  40.51600 43.36100 31.44900
H  40.61400 40.81700 32.81500
H  39.10900 41.02600 32.18900
H  43.30000 35.57000 28.08900
H  44.39200 36.61700 28.72200
H  44.90800 35.58000 27.40400
H  43.48500 34.26400 25.52300
H  45.22400 34.69700 25.14800
H  44.35400 33.98500 23.96400
H  41.78300 40.22600 21.07000
H  42.64200 42.94800 21.15100
H  44.54700 39.89700 21.38500
H  44.41900 41.52200 20.76300
H  43.76300 40.45500 19.77800
H  40.30100 41.95700 20.40800
H  40.26600 43.44500 21.51000
H  40.05000 41.58300 23.33700
H  39.25200 40.70800 21.96500
H  38.71300 42.35100 22.53000
H  42.18500 47.53500 24.84500
H  40.54500 47.08400 24.68000
H  41.64800 46.65100 23.44300
H  40.21700 44.88900 29.52000
H  42.89000 46.66700 32.49800
H  42.92900 44.84600 32.57500
H  41.75900 45.78400 33.41900

