158

Mg -12.98800 16.12200 41.29700
C  -9.79000 14.77100 40.74900
C  -11.82900 19.17400 40.19600
C  -16.13200 17.32000 41.48400
C  -14.19800 12.89400 41.81500
N  -11.03000 16.85600 40.48700
C  -9.86100 16.11000 40.44000
C  -8.70200 16.96700 39.97200
C  -9.24600 18.48300 39.96200
C  -10.79700 18.21100 40.21800
C  -8.72400 19.39400 41.10800
C  -8.19600 16.53400 38.62000
C  -6.63200 16.28500 38.55400
H  -6.06300 16.03400 37.11600
N  -13.87300 17.89900 40.86900
C  -13.21100 19.03000 40.40800
C  -14.20600 20.11200 40.24500
C  -15.44100 19.64000 40.80000
C  -15.18100 18.23000 41.10100
C  -13.95200 21.35300 39.35900
C  -16.66000 20.52600 40.94500
O  -16.62000 21.73300 40.67800
C  -18.07100 20.10000 41.38000
N  -14.92700 15.16400 41.33700
C  -16.01700 15.88100 41.56600
C  -17.26400 15.01800 41.78700
C  -16.66700 13.57700 41.68500
C  -15.18300 13.86400 41.61700
C  -17.91500 15.31600 43.14500
C  -17.14000 12.79800 40.43200
C  -17.24200 11.24000 40.59300
N  -12.21200 14.20400 41.32500
C  -12.83600 12.99100 41.53900
C  -11.78600 11.93700 41.47200
C  -10.57500 12.63500 41.14700
C  -10.93600 13.98600 41.04100
C  -12.01700 10.41000 41.61500
C  -9.17800 12.37400 41.05500
O  -8.48700 11.36200 40.98000
C  -8.60400 13.84700 40.80600
C  -7.76700 14.23900 41.97500
O  -8.14200 14.98400 42.89700
O  -6.61900 13.45900 42.06600
C  -5.67300 13.75300 43.10000
H  -11.35600 20.14200 40.01500
H  -17.13200 17.73500 41.62500
H  -14.65800 11.90500 41.87300
H  -7.87000 16.91500 40.67400
H  -9.10300 19.08700 39.06500
H  -8.29100 20.27000 40.62500
H  -7.97100 18.88000 41.70400
H  -9.56800 19.76200 41.69200
H  -8.55400 17.32800 37.96600
H  -8.70100 15.69100 38.14800
H  -6.50300 15.39800 39.17300
H  -6.09200 17.06500 39.09100
H  -12.91500 21.40800 39.02600
H  -14.17900 22.32700 39.79200
H  -14.62700 21.24300 38.51000
H  -18.36600 19.16100 40.91200
H  -18.71800 20.91100 41.04600
H  -17.93900 19.99700 42.45700
H  -17.98600 15.21600 40.99500
H  -16.86300 13.08000 42.63600
H  -17.57200 16.27100 43.54300
H  -17.68400 14.52300 43.85500
H  -18.97600 15.37300 42.89900
H  -16.37700 12.96300 39.67200
H  -18.04900 13.23900 40.02200
H  -16.95900 10.92900 41.59800
H  -16.64800 10.78400 39.80100
H  -18.29700 11.00800 40.44800
H  -11.28000 9.98800 42.29700
H  -12.08300 9.86200 40.67500
H  -13.03700 10.25100 41.96600
H  -7.92400 13.86500 39.95400
H  -5.05700 12.87100 43.27500
H  -6.21900 14.17200 43.94500
H  -5.03500 14.61300 42.89600
Mg -4.74700 25.84100 25.77000
C  -3.97600 27.05100 29.02600
C  -6.93600 23.67500 27.28000
C  -5.07400 24.50700 22.74900
C  -2.59300 28.23100 24.46200
N  -5.38400 25.38600 27.94000
C  -4.96200 26.02500 29.07100
C  -5.63000 25.42200 30.30100
C  -6.39900 24.20700 29.72500
C  -6.21600 24.38600 28.24400
C  -6.06800 22.77700 30.28100
C  -6.51900 26.42200 31.02700
C  -6.68200 26.23800 32.55000
H  -5.83000 25.18000 33.28200
N  -5.84700 24.20900 25.08300
C  -6.77000 23.42900 25.84100
C  -7.29900 22.41500 24.97000
C  -6.79400 22.66800 23.65200
C  -5.82300 23.80900 23.73800
C  -8.21800 21.39300 25.53100
C  -7.05800 21.84700 22.39400
O  -6.46400 21.96300 21.30400
C  -8.07700 20.58800 22.41400
N  -3.98700 26.35300 23.87700
C  -4.24500 25.56300 22.76900
C  -3.55500 26.16200 21.51700
C  -2.87300 27.46800 22.05700
C  -3.20100 27.43700 23.57900
C  -2.63700 25.23000 20.64800
C  -3.32900 28.82700 21.37200
C  -2.42500 29.33100 20.27200
N  -3.56200 27.33700 26.52600
C  -2.72600 28.23900 25.85400
C  -2.02100 29.06400 26.81100
C  -2.42700 28.58800 28.07300
C  -3.41500 27.57600 27.83800
C  -1.07900 30.14300 26.49200
C  -2.36100 28.78200 29.47500
O  -1.82600 29.64800 30.08600
C  -3.24600 27.69000 30.17500
C  -2.43000 26.75500 31.03400
O  -1.72100 25.81700 30.66000
O  -2.39700 27.25400 32.33700
C  -1.32900 26.85600 33.22100
H  -7.69600 23.04700 27.74900
H  -5.16000 24.11800 21.73200
H  -1.85200 28.92500 24.06100
H  -4.78600 25.14400 30.93200
H  -7.46400 24.36100 29.89300
H  -5.36800 22.92400 31.10300
H  -5.63600 22.16900 29.48600
H  -6.95300 22.30500 30.70800
H  -7.55000 26.24200 30.72200
H  -6.39000 27.48000 30.79900
H  -7.70400 26.00800 32.85000
H  -6.45200 27.22900 32.94200
H  -8.86200 20.83800 24.84900
H  -8.84600 21.89600 26.26700
H  -7.72600 20.66500 26.17700
H  -7.66600 19.77400 23.01100
H  -8.26600 20.23300 21.40100
H  -9.00800 21.01900 22.78200
H  -4.31400 26.48800 20.80500
H  -1.78900 27.49500 21.94900
H  -2.54200 24.19800 20.98500
H  -1.60600 25.57300 20.73600
H  -3.01700 25.32200 19.63000
H  -3.43800 29.62900 22.10300
H  -4.27800 28.61700 20.87800
H  -1.78300 28.47200 20.08000
H  -1.77200 30.14800 20.57900
H  -3.07200 29.63100 19.44700
H  -1.58800 31.09300 26.32900
H  -0.59000 29.95800 25.53600
H  -0.27400 30.19500 27.22500
H  -4.03500 28.08400 30.81500
H  -0.40200 26.53500 32.74600
H  -1.76800 26.11800 33.89300
H  -1.04500 27.62200 33.94300

