158

Mg -2.12300 16.97400 26.25700
C  -2.32200 14.72600 28.95700
C  -2.14200 19.51500 28.47300
C  -2.65000 19.02300 23.59200
C  -2.56500 14.20000 24.01800
N  -2.61900 17.06300 28.52900
C  -2.55800 16.04200 29.41900
C  -2.83000 16.58100 30.83000
C  -2.73400 18.11600 30.50200
C  -2.41100 18.27400 29.05300
C  -4.02100 18.89100 30.93500
C  -2.00700 16.01300 32.02100
C  -1.80600 17.02400 33.19500
H  -1.45800 16.48800 34.59700
N  -2.32400 18.97800 26.07600
C  -2.22500 19.91900 27.11100
C  -2.15300 21.25100 26.47400
C  -2.25600 21.09100 25.07400
C  -2.45600 19.63000 24.85300
C  -1.93900 22.42100 27.26500
C  -2.07200 22.11500 24.01500
O  -2.26100 21.84100 22.80000
C  -1.44900 23.36600 24.33300
N  -2.71900 16.65400 24.11000
C  -2.82600 17.70200 23.24000
C  -3.34000 17.18300 21.85500
C  -2.88200 15.66700 21.91600
C  -2.69400 15.47200 23.42200
C  -4.82800 17.38500 21.79400
C  -1.67600 15.18400 20.99700
C  -0.35200 15.20500 21.77000
N  -2.28300 14.86300 26.40500
C  -2.52400 13.92200 25.40000
C  -2.49100 12.56600 26.03400
C  -2.36900 12.91200 27.46700
C  -2.34300 14.28500 27.64100
C  -2.54400 11.25500 25.33400
C  -2.31300 12.33800 28.79000
O  -2.37300 11.16300 29.16700
C  -2.26500 13.51000 29.80000
C  -1.00900 13.41300 30.58900
O  0.10400 13.80500 30.26900
O  -1.19300 12.66600 31.73000
C  -0.12000 12.62100 32.71200
H  -2.12000 20.34400 29.18500
H  -3.00500 19.69500 22.80800
H  -2.67100 13.36400 23.32400
H  -3.87100 16.37000 31.07200
H  -1.85600 18.48100 31.03500
H  -4.71300 18.21200 31.43300
H  -4.56500 19.42200 30.15400
H  -3.80600 19.70300 31.63000
H  -0.97200 15.82700 31.73300
H  -2.41200 15.07900 32.41000
H  -2.64600 17.69500 33.37300
H  -0.96300 17.66600 32.93900
H  -2.48300 23.28100 26.87500
H  -0.86100 22.53600 27.14900
H  -2.04000 22.33200 28.34700
H  -0.53100 23.19300 24.89500
H  -2.11900 24.05500 24.84800
H  -1.33400 23.78200 23.33200
H  -2.85800 17.74200 21.05200
H  -3.74200 15.07000 21.61500
H  -5.25800 17.34600 22.79500
H  -5.38300 16.66300 21.19500
H  -5.03100 18.34200 21.31400
H  -1.61300 15.86800 20.15100
H  -2.00700 14.16500 20.79700
H  0.44400 14.91600 21.08400
H  -0.37000 14.44600 22.55200
H  -0.15500 16.22300 22.10400
H  -3.57300 10.90200 25.40800
H  -1.94700 10.48700 25.82600
H  -2.23900 11.37900 24.29500
H  -3.08400 13.52600 30.51900
H  0.77700 13.21400 32.53800
H  0.26600 11.60200 32.72500
H  -0.44400 13.02800 33.67000
Mg 47.30600 24.77700 28.43100
C  48.27400 26.99400 30.98300
C  46.71400 22.41100 30.78200
C  47.15700 22.47500 25.91800
C  48.40900 27.21700 26.08800
N  47.73300 24.66300 30.62700
C  47.93800 25.70200 31.47700
C  47.72300 25.31100 32.91600
C  47.50200 23.75300 32.80500
C  47.24600 23.59300 31.31300
C  48.66400 22.91000 33.31600
C  46.58200 26.07200 33.70600
C  46.66900 26.00700 35.21900
H  45.40800 26.25200 36.08100
N  46.77300 22.82600 28.33500
C  46.62500 21.97000 29.45700
C  46.44700 20.60100 29.05600
C  46.54200 20.65700 27.63400
C  46.90800 22.03800 27.21800
C  46.03800 19.49900 30.03600
C  46.45300 19.49100 26.68900
O  46.60000 19.70800 25.44900
C  46.15400 18.07200 27.14900
N  47.76200 24.85400 26.29300
C  47.39500 23.79700 25.47500
C  47.53700 24.16300 23.97500
C  47.79000 25.64700 24.02900
C  47.98800 25.98700 25.53900
C  48.54000 23.24500 23.14400
C  46.65700 26.54500 23.38100
C  45.55300 27.00400 24.33500
N  48.31900 26.69700 28.50300
C  48.59500 27.63100 27.45600
C  49.02600 28.84100 27.99100
C  48.90500 28.65100 29.37700
C  48.46000 27.32000 29.60600
C  49.58000 29.99300 27.28700
C  49.13800 29.31900 30.67200
O  49.71800 30.33200 31.02400
C  48.60500 28.23700 31.74000
C  49.73600 27.95800 32.70900
O  50.81300 27.48000 32.54400
O  49.21000 28.35400 33.92900
C  50.10600 28.68000 34.99600
H  46.46000 21.70900 31.57900
H  46.99800 21.81500 25.06300
H  48.50300 27.96200 25.29500
H  48.71900 25.56300 33.27900
H  46.54800 23.56400 33.29800
H  49.37500 23.45800 33.93600
H  49.22700 22.51600 32.47100
H  48.23400 22.16300 33.98300
H  45.64200 25.64500 33.35500
H  46.40400 27.11400 33.44100
H  47.44000 26.68100 35.59200
H  47.00700 24.99900 35.46200
H  45.23900 19.00000 29.48900
H  45.65100 19.88300 30.98000
H  46.81300 18.73300 30.05900
H  46.23200 17.39400 26.29900
H  45.14700 18.03000 27.56200
H  46.88000 17.71200 27.87800
H  46.61600 23.92800 23.44200
H  48.67700 25.93500 23.46600
H  49.15300 22.79400 23.92400
H  49.17700 23.81900 22.47100
H  47.97800 22.47100 22.62100
H  46.10500 26.03900 22.58900
H  47.17800 27.40400 22.95800
H  45.76000 28.02200 24.66600
H  45.57700 26.22900 25.10200
H  44.64200 26.89900 23.74500
H  49.38300 29.91100 26.21800
H  50.63000 30.05400 27.57000
H  49.22200 30.95400 27.65600
H  47.70600 28.61500 32.22600
H  51.12200 28.87800 34.65700
H  50.20300 27.76500 35.58100
H  49.75900 29.53800 35.57200

