158

Mg 9.33700 3.82000 27.23500
C  10.29200 2.19200 30.31500
C  7.63000 6.07400 29.19600
C  7.88000 4.99000 24.47400
C  10.55200 1.05600 25.43800
N  9.02600 4.03600 29.57000
C  9.56800 3.28100 30.60800
C  9.07600 3.85100 31.94700
C  8.01900 4.90400 31.47800
C  8.23300 5.02900 30.02300
C  6.51900 4.51800 31.82100
C  10.31100 4.41100 32.71700
C  10.71500 3.70200 34.02700
H  11.09700 4.48500 35.34100
N  8.06100 5.43000 26.81600
C  7.59000 6.30100 27.76100
C  6.85600 7.33200 27.07600
C  6.76500 6.99700 25.67700
C  7.59100 5.75700 25.61400
C  6.19700 8.49200 27.76000
C  5.99700 7.62000 24.51600
O  5.91800 7.08100 23.41500
C  5.50000 9.07600 24.66200
N  9.15400 3.05900 25.35100
C  8.52000 3.75000 24.33000
C  8.56500 3.02800 22.98500
C  9.84700 2.01300 23.24800
C  9.85300 2.04600 24.77800
C  7.22100 2.37100 22.59000
C  11.22300 2.46300 22.58800
C  11.22900 2.32800 21.01200
N  10.30600 1.99000 27.76400
C  10.79100 1.07200 26.90700
C  11.36600 -0.05700 27.69300
C  11.21200 0.36500 29.02800
C  10.59800 1.65300 29.05400
C  11.85200 -1.40900 27.26100
C  11.38400 -0.04400 30.45100
O  11.83200 -1.09800 30.88600
C  10.91200 1.14600 31.32900
C  10.09800 0.51400 32.39100
O  8.88400 0.17100 32.26900
O  10.88800 0.33000 33.54600
C  10.18000 -0.30300 34.63200
H  7.08200 6.82700 29.76600
H  7.37800 5.28200 23.54900
H  10.73700 0.17000 24.82800
H  8.68600 3.03500 32.55700
H  8.17700 5.89400 31.90300
H  5.99100 4.32000 30.88700
H  6.12000 5.37300 32.36600
H  6.32700 3.57700 32.33700
H  10.28300 5.46000 33.01100
H  11.15600 4.32300 32.03500
H  11.64500 3.23300 33.70400
H  10.03200 2.92800 34.37700
H  6.18400 8.50600 28.85000
H  5.15900 8.40300 27.43700
H  6.54300 9.46900 27.42300
H  4.48900 9.07200 25.06900
H  5.38700 9.61200 23.72000
H  6.11700 9.59800 25.39400
H  8.82800 3.70500 22.17200
H  9.45800 1.04500 22.93400
H  7.40500 1.31100 22.42000
H  6.92400 2.88700 21.67700
H  6.50000 2.46500 23.40200
H  12.00900 1.77800 22.90500
H  11.41900 3.48700 22.90500
H  11.36000 3.31500 20.56800
H  10.30300 1.76900 20.87300
H  12.08600 1.73400 20.69600
H  12.93100 -1.49200 27.39100
H  11.69700 -1.52700 26.18800
H  11.28700 -2.17900 27.78500
H  11.73000 1.48800 31.96200
H  9.55400 -1.06300 34.16400
H  9.52500 0.36700 35.18900
H  10.88400 -0.84800 35.26000
Mg 6.33100 54.20700 40.86300
C  5.77200 50.59600 41.07100
C  9.59100 53.33400 39.95100
C  6.64400 57.25500 39.77500
C  3.06300 54.57600 41.77800
N  7.40500 52.24800 40.35500
C  7.00000 50.96800 40.40400
C  8.07800 49.95600 40.10300
C  9.41900 50.81400 40.37100
C  8.81200 52.25500 40.27000
C  10.23300 50.53100 41.66600
C  8.03300 49.25000 38.66000
C  7.17600 49.97500 37.60900
H  6.57800 49.19200 36.45900
N  7.96400 55.23900 40.01700
C  9.23300 54.72600 39.80300
C  10.01100 55.81500 39.46700
C  9.21400 56.92500 39.33400
C  7.85400 56.49500 39.64600
C  11.50300 55.73300 39.11400
C  9.76400 58.23900 38.88100
O  10.94000 58.52800 38.62400
C  8.83000 59.33600 38.75400
N  4.93900 55.68900 40.50100
C  5.33100 56.91300 40.19200
C  4.12600 57.90500 40.37500
C  2.93000 56.95200 40.78900
C  3.64600 55.64800 41.07200
C  4.32500 59.07400 41.35100
C  1.85100 56.79900 39.69400
C  0.54800 57.45900 39.87100
N  4.72700 53.00300 41.56600
C  3.51000 53.28500 41.99400
C  2.93300 52.08800 42.60000
C  3.69800 51.00600 42.15900
C  4.81400 51.61600 41.50400
C  1.62600 52.14700 43.34000
C  3.79200 49.57100 42.06400
O  3.05300 48.67400 42.47100
C  5.24000 49.22500 41.42000
C  4.92400 48.18700 40.44000
O  4.45000 48.46300 39.32100
O  5.30200 46.87600 40.77400
C  5.03400 45.78600 39.92000
H  10.64100 53.19800 39.68000
H  6.63600 58.30400 39.47300
H  2.07500 54.85300 42.15000
H  7.98600 49.14600 40.82600
H  10.15400 50.67700 39.57800
H  10.38100 51.52100 42.09700
H  11.15800 50.10500 41.27600
H  9.74300 49.94100 42.44000
H  7.75500 48.21000 38.83400
H  9.03600 49.05700 38.28000
H  7.77800 50.79900 37.22500
H  6.34800 50.54200 38.03400
H  11.44400 55.84100 38.03100
H  11.98700 54.76000 39.19300
H  12.02900 56.49800 39.68500
H  8.54200 59.65200 39.75600
H  8.00400 58.93300 38.16600
H  9.24300 60.16300 38.17500
H  3.87600 58.29600 39.38800
H  2.37100 57.22500 41.68400
H  5.38200 59.27900 41.52300
H  3.68900 58.86000 42.21000
H  3.94000 59.95100 40.83100
H  1.76000 55.75000 39.41200
H  2.26400 57.32200 38.83200
H  -0.24800 56.96600 39.31300
H  0.56400 58.41400 39.34700
H  0.24400 57.61600 40.90600
H  0.99800 51.25600 43.36700
H  1.04500 53.00300 43.00000
H  1.89900 52.42300 44.35900
H  5.88500 48.81800 42.19900
H  4.16600 45.22400 40.26600
H  5.85200 45.06700 39.97800
H  4.94100 46.07400 38.87300

