158

Mg 25.86400 0.04400 29.16300
C  27.49800 -0.23100 32.20000
C  22.92300 0.47600 30.95100
C  24.15100 -0.15800 26.25400
C  28.67500 -1.07700 27.56800
N  25.35800 0.30300 31.35800
C  26.19500 0.15400 32.39700
C  25.46800 0.37100 33.77000
C  23.99100 0.63500 33.31000
C  24.10100 0.46600 31.77300
C  22.85000 -0.22100 33.97200
C  26.04100 1.53100 34.60500
C  26.34000 1.25000 36.13800
H  26.00400 2.27900 37.14300
N  23.75500 0.24200 28.64200
C  22.73400 0.27700 29.52200
C  21.50600 0.27200 28.78600
C  21.79500 0.18000 27.40800
C  23.30400 -0.01500 27.39700
C  20.07400 0.27800 29.50200
C  20.95100 0.29000 26.19600
O  21.32200 -0.05600 25.06200
C  19.52800 0.83700 26.41900
N  26.31600 -0.54500 27.15400
C  25.48700 -0.39500 26.09700
C  26.19800 -0.62000 24.74000
C  27.65000 -0.99100 25.18800
C  27.58000 -0.86100 26.73800
C  25.56200 -1.61100 23.71000
C  28.78500 -0.06300 24.54400
C  28.88100 1.42000 25.06500
N  27.75300 -0.34300 29.66600
C  28.83400 -0.86600 28.93500
C  29.91400 -1.21600 29.88100
C  29.41900 -0.96500 31.13500
C  28.11800 -0.46900 30.96100
C  31.26300 -1.74400 29.53200
C  29.78500 -0.91300 32.59300
O  30.85400 -1.07100 33.16500
C  28.50800 -0.54000 33.27700
C  28.17400 -1.66900 34.16900
O  27.55600 -2.61100 33.84400
O  28.79700 -1.54000 35.40900
C  28.61400 -2.69000 36.39200
H  21.97000 0.69700 31.43800
H  23.66300 -0.05800 25.28300
H  29.54800 -1.28700 26.94600
H  25.41000 -0.55000 34.34900
H  23.75800 1.62800 33.69300
H  22.58300 -1.01800 33.27800
H  22.04000 0.47300 34.20000
H  23.19800 -0.67000 34.90200
H  25.38900 2.40400 34.61500
H  26.95300 1.98200 34.21200
H  27.40500 1.11000 36.32600
H  25.78700 0.38400 36.50200
H  19.58800 1.22900 29.28400
H  19.99600 0.13100 30.57900
H  19.67400 -0.55500 28.92400
H  18.94800 1.14900 25.55000
H  19.46800 1.73600 27.03300
H  18.92300 0.08800 26.93000
H  26.18900 0.35300 24.24900
H  27.92700 -1.98700 24.84400
H  26.27500 -2.41200 23.51500
H  25.31000 -1.17900 22.74200
H  24.72400 -2.12900 24.17700
H  28.59700 0.01800 23.47400
H  29.68400 -0.62200 24.80300
H  28.89400 1.98500 24.13300
H  29.85500 1.40100 25.55500
H  28.14500 1.69800 25.81900
H  31.40100 -2.14800 28.52900
H  31.40200 -2.60700 30.18400
H  32.08400 -1.12900 29.90100
H  28.90200 0.30300 33.84500
H  29.39000 -2.67700 37.15700
H  28.63800 -3.65800 35.89300
H  27.65100 -2.56800 36.88700
Mg 41.14800 7.93200 29.81100
C  42.87900 9.39600 32.56400
C  38.82800 6.78200 32.03600
C  39.47500 6.75500 27.23600
C  43.90400 8.74700 27.77900
N  40.77200 8.29300 32.04800
C  41.60000 8.89400 32.91700
C  41.07100 8.68700 34.36700
C  39.66900 7.94400 34.13300
C  39.71500 7.62800 32.63000
C  39.35600 6.71700 35.02100
C  40.89000 10.10000 35.00000
C  39.85600 10.16700 36.16100
H  40.10200 11.00300 37.39800
N  39.36000 6.97200 29.59200
C  38.62400 6.52700 30.66100
C  37.44900 5.77400 30.18900
C  37.54700 5.76100 28.72300
C  38.85200 6.52800 28.46100
C  36.43700 5.22400 31.14600
C  36.66400 5.12100 27.67300
O  36.92200 5.16700 26.47500
C  35.33700 4.35800 28.14700
N  41.69600 7.57800 27.75700
C  40.73200 7.30800 26.92300
C  41.36300 7.16200 25.47500
C  42.67000 8.03400 25.58600
C  42.81700 8.06400 27.10800
C  41.63400 5.71300 25.22100
C  42.64100 9.43400 24.91100
C  41.36000 10.25200 25.20300
N  42.93800 8.81000 30.06100
C  43.94200 9.07000 29.15500
C  44.99800 9.86300 29.82100
C  44.68800 9.97700 31.13600
C  43.43700 9.32300 31.23400
C  46.22800 10.33500 29.09800
C  45.03300 10.42400 32.50100
O  45.99800 11.10500 32.88500
C  43.83400 10.07900 33.47500
C  44.41600 9.30700 34.62800
O  44.80500 8.14600 34.59400
O  44.32900 9.97900 35.79500
C  44.55400 9.34700 37.05400
H  38.13500 6.37900 32.77700
H  38.85700 6.45000 26.38900
H  44.74100 9.07600 27.16000
H  41.72200 8.06000 34.97700
H  38.81600 8.59300 34.33000
H  39.46200 5.72400 34.58500
H  38.30100 6.90000 35.22800
H  39.83500 6.68400 35.99900
H  40.76100 10.86800 34.23700
H  41.87800 10.21300 35.44600
H  39.80700 9.13800 36.51600
H  38.86800 10.51700 35.86200
H  35.63200 4.60600 30.74900
H  35.87000 6.07700 31.51800
H  36.88900 4.63800 31.94500
H  34.82400 3.98800 27.26000
H  34.68600 5.10600 28.60000
H  35.47700 3.49000 28.79100
H  40.70400 7.55500 24.70100
H  43.35400 7.41500 25.00500
H  41.14300 5.02800 25.91300
H  42.65900 5.37200 25.37100
H  41.47700 5.45400 24.17400
H  42.57400 9.23400 23.84200
H  43.57700 9.96200 25.09200
H  40.84700 9.72800 26.00800
H  40.69700 10.37200 24.34600
H  41.75700 11.21300 25.53100
H  45.84000 10.75100 28.16800
H  46.90600 9.50100 28.91700
H  46.70900 11.16500 29.61700
H  43.46100 11.04000 33.83000
H  43.97300 9.97800 37.72700
H  45.59300 9.52500 37.33300
H  44.37800 8.27200 37.10900

