158

Mg 41.64400 7.44600 29.03800
C  42.96700 9.19800 31.63300
C  39.24100 6.25100 31.18300
C  40.53000 5.43600 26.58100
C  44.25700 8.33600 26.92700
N  41.36200 7.41800 31.31400
C  41.93900 8.41700 32.10600
C  41.25700 8.51600 33.54400
C  39.93200 7.63100 33.26900
C  40.13900 7.04100 31.85800
C  39.61900 6.57000 34.38500
C  40.70700 9.95700 34.03100
C  40.12000 9.89800 35.44600
H  40.46900 11.12700 36.29400
N  40.04500 6.10600 28.84100
C  39.16000 5.79700 29.86600
C  38.04500 5.22200 29.24900
C  38.34800 5.14300 27.86200
C  39.68900 5.52000 27.72300
C  36.79200 4.83800 30.05900
C  37.28000 4.77300 26.80400
O  37.62200 4.49500 25.64100
C  35.71800 4.77900 27.05300
N  42.34700 6.84700 27.09500
C  41.76100 5.93700 26.31200
C  42.33500 5.93700 24.93200
C  43.49400 6.92400 24.95800
C  43.39000 7.37900 26.43300
C  42.67400 4.52200 24.40200
C  43.46600 8.15900 23.95900
C  44.22500 7.81600 22.67600
N  43.28800 8.45300 29.18900
C  44.28600 8.75100 28.30400
C  45.31000 9.61400 28.95400
C  44.77200 9.86500 30.18900
C  43.57700 9.07600 30.32400
C  46.51300 10.12600 28.26500
C  44.97600 10.64000 31.39600
O  45.85500 11.38800 31.77100
C  43.77000 10.22100 32.32400
C  44.38800 9.77000 33.62200
O  44.92700 8.74400 33.80700
O  44.15000 10.70700 34.63400
C  44.63300 10.40100 35.97100
H  38.41000 5.93700 31.81900
H  40.13300 4.79600 25.79000
H  45.12500 8.66300 26.35100
H  41.85600 8.15300 34.37800
H  39.01100 8.21300 33.29200
H  38.74000 6.84000 34.97100
H  40.46300 6.65100 35.07000
H  39.56100 5.56200 33.97400
H  40.04200 10.42900 33.30700
H  41.55900 10.63700 34.02700
H  40.50500 9.04600 36.00700
H  39.04000 9.80100 35.33800
H  36.97100 4.70000 31.12600
H  36.39600 3.89800 29.67400
H  35.95000 5.51800 29.93000
H  35.19000 4.93100 26.11200
H  35.42800 5.59900 27.70900
H  35.69500 3.74900 27.41100
H  41.49700 6.37300 24.38700
H  44.49000 6.48200 24.92200
H  42.66100 3.74100 25.16300
H  43.63900 4.44300 23.90100
H  41.95100 4.30200 23.61700
H  43.87300 9.04200 24.45200
H  42.41400 8.37200 23.76900
H  44.66000 6.82200 22.58000
H  45.18900 8.31800 22.75600
H  43.72300 8.15300 21.76900
H  46.47800 10.21300 27.17900
H  47.35000 9.45200 28.44800
H  46.90000 11.06500 28.66200
H  43.24200 11.16300 32.47200
H  45.71800 10.29400 35.98700
H  44.13700 9.50900 36.35400
H  44.39200 11.29500 36.54600
Mg 29.59500 59.10800 38.43400
C  26.72300 56.99200 37.80000
C  31.57600 56.37100 37.43500
C  32.39000 61.12100 38.37500
C  27.56500 61.78000 38.72000
N  29.14200 56.98800 37.77100
C  27.94000 56.35200 37.59800
C  28.10600 54.82900 37.27400
C  29.67800 54.68900 37.42900
C  30.16700 56.16900 37.47800
C  30.28200 53.90300 38.57400
C  27.73900 54.51200 35.76100
C  26.33500 53.88400 35.53800
H  25.39100 54.59200 34.52000
N  31.77500 58.73000 37.99600
C  32.31100 57.56500 37.69400
C  33.77100 57.63600 37.78000
C  34.03500 58.99200 38.13700
C  32.76200 59.72400 38.21300
C  34.67900 56.48900 37.34000
C  35.42200 59.58300 38.47100
O  36.44400 58.86800 38.44600
C  35.73300 61.06400 38.79500
N  29.96600 61.14100 38.15900
C  31.14900 61.75700 38.32800
C  30.97300 63.26600 38.58000
C  29.40700 63.45700 38.48200
C  28.91100 62.06000 38.49300
C  31.59700 64.00600 39.78700
C  28.90500 64.21200 37.26300
C  27.97000 65.37700 37.65300
N  27.61700 59.37800 38.49800
C  26.88400 60.50900 38.67600
C  25.48200 60.33400 38.56500
C  25.41000 58.93600 38.31100
C  26.67600 58.45000 38.18900
C  24.47300 61.33300 38.55100
C  24.43600 57.87400 38.10100
O  23.20800 57.89500 37.94300
C  25.22700 56.61100 37.74600
C  24.92400 55.61100 38.78700
O  25.58400 55.48300 39.78300
O  23.71700 54.98100 38.48800
C  23.55100 53.83000 39.39900
H  32.12600 55.51800 37.03300
H  33.34400 61.63200 38.52100
H  27.00800 62.71800 38.77300
H  27.57600 54.23400 38.01800
H  30.13900 54.32900 36.51000
H  29.53300 53.25700 39.03400
H  30.68100 54.50500 39.39000
H  31.00400 53.16700 38.21800
H  28.51400 54.01100 35.18200
H  27.58700 55.50900 35.34700
H  25.78300 53.79500 36.47400
H  26.49300 52.87300 35.16100
H  35.08100 56.80000 36.37600
H  34.10200 55.57700 37.18500
H  35.42900 56.13400 38.04700
H  36.77400 61.15800 39.10600
H  35.06200 61.45700 39.55900
H  35.65000 61.60500 37.85300
H  31.45800 63.73900 37.72500
H  29.02000 63.93000 39.38500
H  32.47800 63.50100 40.18200
H  30.89400 63.95600 40.61900
H  31.83400 65.01800 39.46100
H  28.42400 63.55300 36.54000
H  29.80500 64.59600 36.78200
H  28.56800 66.23900 37.95100
H  27.26800 65.16500 38.46000
H  27.51100 65.78000 36.75000
H  24.22100 61.56800 37.51700
H  24.93300 62.22900 38.96700
H  23.60300 61.00000 39.11700
H  24.80300 56.45500 36.75500
H  22.63200 53.30800 39.13300
H  23.46800 54.14700 40.43900
H  24.43000 53.21400 39.20900

