158

Mg 17.80400 -2.04200 28.04700
C  16.93600 -0.08500 30.83200
C  19.97600 -3.77300 29.94100
C  19.25900 -3.09700 25.25000
C  15.81200 0.26000 26.26800
N  18.31600 -1.87600 30.13400
C  17.87800 -1.06400 31.15600
C  18.31500 -1.54800 32.50500
C  19.36700 -2.62300 32.13700
C  19.19500 -2.87600 30.66200
C  20.84600 -2.33900 32.60200
C  17.00600 -2.10100 33.33300
C  17.06900 -1.71600 34.87200
H  18.49200 -1.92200 35.44000
N  19.29400 -3.44000 27.64200
C  20.03400 -4.04600 28.54000
C  20.75700 -5.08800 27.89900
C  20.52200 -5.05200 26.50100
C  19.70100 -3.79700 26.41400
C  21.63000 -6.11600 28.60500
C  20.89000 -5.97900 25.38400
O  20.60100 -5.68200 24.24900
C  21.76100 -7.16900 25.64400
N  17.56600 -1.51500 26.08500
C  18.35100 -2.00200 25.08100
C  17.87800 -1.45900 23.69200
C  16.70200 -0.53500 24.05100
C  16.68100 -0.63100 25.55400
C  18.95300 -0.64900 22.90600
C  15.35900 -0.92400 23.34700
C  14.56400 0.22200 22.79000
N  16.43800 -0.33500 28.42900
C  15.67700 0.44200 27.61700
C  14.87700 1.42900 28.33900
C  15.40300 1.35700 29.62800
C  16.27800 0.24900 29.62800
C  13.92500 2.37300 27.71100
C  15.36200 1.92000 30.97400
O  14.81400 2.90100 31.45900
C  16.44400 0.98000 31.78300
C  17.58000 1.90900 32.30500
O  18.62200 2.15500 31.79400
O  17.03500 2.49200 33.42700
C  17.88900 3.38900 34.15900
H  20.66200 -4.47400 30.42100
H  19.78300 -3.46900 24.36700
H  15.24500 0.95000 25.63800
H  18.85400 -0.71900 32.96400
H  19.16800 -3.54400 32.68500
H  20.86700 -1.86600 33.58400
H  21.44900 -1.76600 31.89900
H  21.41900 -3.24700 32.79100
H  16.88500 -3.14800 33.05300
H  16.14800 -1.56900 32.92400
H  16.41500 -2.33500 35.48600
H  16.71300 -0.70400 35.06500
H  22.53200 -6.41200 28.07000
H  21.07000 -7.04100 28.74700
H  21.98500 -5.67900 29.53800
H  22.71800 -6.85100 26.05800
H  21.83200 -7.57700 24.63600
H  21.28900 -7.87000 26.33100
H  17.53700 -2.32800 23.12900
H  16.82600 0.49600 23.71700
H  19.90100 -0.82600 23.41600
H  18.76000 0.41800 22.79900
H  19.07100 -1.13900 21.94000
H  14.73900 -1.31100 24.15600
H  15.50400 -1.75100 22.65100
H  14.96500 1.18900 23.09300
H  13.56000 0.24700 23.21300
H  14.40200 0.08100 21.72100
H  14.49200 3.26900 27.45500
H  13.12300 2.54400 28.42800
H  13.59900 1.85700 26.80700
H  15.86900 0.57500 32.61600
H  18.92600 3.35800 33.82400
H  17.80500 3.08300 35.20200
H  17.30400 4.28100 33.93500
Mg 1.14900 43.59000 25.86000
C  3.44700 43.52200 28.54600
C  -1.17300 42.47000 28.07200
C  -0.73900 43.01100 23.22300
C  3.90500 44.24900 23.75200
N  1.21400 43.03500 28.11500
C  2.17700 43.25800 28.96900
C  1.64500 43.09100 30.43900
C  0.24600 42.61100 30.28000
C  0.03900 42.77800 28.72000
C  0.06900 41.11000 30.87100
C  1.84700 44.39000 31.17400
C  2.22800 44.44300 32.64500
H  1.60700 43.29200 33.42900
N  -0.77000 42.99100 25.67000
C  -1.56000 42.58900 26.74000
C  -2.86300 42.20700 26.19300
C  -2.71900 42.27800 24.76000
C  -1.41100 42.75200 24.47800
C  -3.96900 41.73300 27.10500
C  -3.66000 41.81300 23.65700
O  -3.45600 41.80200 22.42700
C  -5.04100 41.19800 24.05600
N  1.51200 43.71600 23.91600
C  0.50900 43.48600 22.97800
C  1.09000 43.58000 21.53900
C  2.39900 44.36400 21.74700
C  2.66700 43.96200 23.22100
C  1.28100 42.21100 20.79200
C  2.18200 45.88800 21.65800
C  3.06200 46.55000 20.58900
N  3.24900 43.93000 26.10200
C  4.27400 44.13000 25.11200
C  5.50900 44.23800 25.73800
C  5.22800 43.99400 27.11600
C  3.86100 43.82300 27.23800
C  6.84600 44.35600 25.16100
C  5.86000 43.88800 28.42200
O  7.02600 43.93100 28.77100
C  4.69500 43.61400 29.44600
C  4.93500 42.32200 30.21000
O  5.05500 41.27600 29.63900
O  5.14200 42.44500 31.54300
C  5.16800 41.22200 32.37300
H  -2.02300 42.35900 28.74700
H  -1.27000 42.73900 22.30800
H  4.69600 44.53400 23.05400
H  2.25100 42.45600 31.08500
H  -0.38200 43.29500 30.85100
H  -0.56200 41.14600 31.75900
H  0.97900 40.56000 31.11000
H  -0.43200 40.51300 30.10800
H  0.89900 44.92800 31.16200
H  2.62900 44.95200 30.66400
H  1.95000 45.44900 32.96100
H  3.30600 44.47600 32.80000
H  -5.00900 41.67300 26.78300
H  -4.07800 42.47100 27.90000
H  -3.68100 40.75500 27.48900
H  -4.88300 40.17500 24.39800
H  -5.60000 41.16800 23.12000
H  -5.46900 41.90500 24.76600
H  0.40300 44.09400 20.86800
H  3.19900 43.98600 21.11100
H  1.35700 41.39900 21.51600
H  2.24300 42.26400 20.28300
H  0.54300 42.02000 20.01300
H  2.31800 46.29700 22.65900
H  1.15200 46.12800 21.39400
H  2.48400 47.22500 19.95700
H  3.57300 45.81900 19.96300
H  3.84900 47.06800 21.13600
H  6.76400 44.06200 24.11500
H  7.49400 43.66600 25.70100
H  7.11600 45.40500 25.28400
H  4.62100 44.46100 30.12800
H  5.80400 40.50900 31.84700
H  4.28200 40.68000 32.70200
H  5.65600 41.52000 33.30100

