158

Mg 53.73800 24.76900 44.18400
C  50.80400 26.76100 43.71400
C  51.61900 21.92300 43.89600
C  56.40900 22.99200 43.66500
C  55.55600 27.70900 44.40100
N  51.52300 24.41400 43.80100
C  50.52800 25.39400 43.56900
C  49.17700 24.69300 43.40100
C  49.50400 23.24000 43.87500
C  51.01000 23.17500 43.80200
C  49.10500 22.83300 45.32100
C  48.42800 24.77100 42.04300
C  49.24000 25.22300 40.87800
H  49.28700 24.55400 39.55500
N  54.06400 22.71800 43.77700
C  53.07600 21.70800 43.73000
C  53.64700 20.45100 43.62300
C  55.01300 20.65700 43.67300
C  55.24000 22.16600 43.66200
C  52.83500 19.17500 43.55700
C  56.12400 19.65500 43.75500
O  55.82800 18.43700 43.72700
C  57.57500 20.13000 44.09800
N  55.60700 25.24600 43.98500
C  56.59400 24.32100 43.81100
C  57.98700 25.00800 43.50100
C  57.72500 26.50100 43.85500
C  56.22200 26.49800 44.20000
C  59.20000 24.31200 44.16800
C  58.12400 27.45500 42.69300
C  59.06000 28.63500 43.01900
N  53.31900 26.75600 44.19800
C  54.19000 27.88600 44.44600
C  53.40400 29.04200 44.67700
C  52.08000 28.64700 44.33000
C  52.05500 27.28800 44.01000
C  53.76100 30.42100 44.89700
C  50.72300 29.13700 44.17100
O  50.24800 30.24700 44.38900
C  49.89200 27.93900 43.76100
C  49.33900 28.37000 42.45300
O  49.97400 28.47100 41.43000
O  48.01900 28.81800 42.63400
C  47.31800 29.19400 41.34500
H  50.90800 21.10400 44.01800
H  57.31100 22.47300 43.33500
H  56.25900 28.54400 44.44500
H  48.47400 25.11500 44.12000
H  49.11100 22.52800 43.15000
H  49.88500 22.18400 45.71900
H  48.21800 22.23400 45.11600
H  48.78400 23.70700 45.88800
H  47.67200 25.55200 42.12300
H  48.00000 23.78300 41.87100
H  50.28700 25.27900 41.17400
H  48.87300 26.20700 40.58900
H  51.91700 19.29900 42.98400
H  52.71500 18.62400 44.49000
H  53.45800 18.46600 43.01000
H  58.07100 19.18500 44.32200
H  57.65200 20.74400 44.99500
H  58.07400 20.54700 43.22300
H  58.04500 24.81800 42.43000
H  58.24100 26.67000 44.80000
H  58.99800 23.49400 44.85900
H  59.67000 25.10000 44.75700
H  59.85000 23.99300 43.35300
H  57.17100 27.92600 42.45200
H  58.50900 26.96300 41.80000
H  59.43600 28.40800 44.01600
H  58.59100 29.61700 43.08900
H  59.87100 28.66200 42.29100
H  54.76400 30.65600 44.54300
H  53.72100 30.64700 45.96300
H  53.12200 31.17200 44.43200
H  49.15900 27.75900 44.54800
H  47.26400 28.42200 40.57700
H  47.77600 30.06600 40.87800
H  46.28900 29.45600 41.59400
Mg 27.46900 50.38500 25.81100
C  25.18200 51.17200 28.37900
C  29.48000 48.80700 28.07700
C  29.75600 49.90700 23.33300
C  25.18300 51.55200 23.45300
N  27.35700 50.22500 27.97600
C  26.33000 50.50100 28.80200
C  26.58900 50.06200 30.25500
C  28.06900 49.47800 30.08600
C  28.36600 49.47300 28.60900
C  29.17500 50.21800 30.84700
C  25.55800 49.14100 30.93700
C  24.83000 49.67900 32.25500
H  25.74500 50.15600 33.39600
N  29.34300 49.48500 25.74500
C  30.05700 48.83800 26.79000
C  31.21600 48.19000 26.24600
C  31.36500 48.67100 24.91500
C  30.18800 49.45400 24.63900
C  32.12700 47.41900 27.17100
C  32.52700 48.61800 23.99900
O  32.56300 49.10800 22.87700
C  33.74800 47.88600 24.49300
N  27.49000 50.77200 23.72600
C  28.49800 50.34500 22.93800
C  28.07800 50.30200 21.44300
C  26.54800 50.62900 21.51600
C  26.39200 51.05400 22.99700
C  29.03000 51.13200 20.49800
C  25.61000 49.47200 21.09500
C  24.83100 49.76200 19.77900
N  25.59700 51.31100 25.83300
C  24.82600 51.76200 24.82500
C  23.60300 52.36300 25.37300
C  23.68800 52.15000 26.76300
C  24.92400 51.45000 27.00200
C  22.51700 53.08000 24.63700
C  23.00300 52.32600 28.02400
O  21.91800 52.79700 28.32400
C  24.03700 51.76700 29.11300
C  24.43300 52.98900 29.91500
O  25.38500 53.65800 29.68900
O  23.64800 53.10100 31.08500
C  23.99800 54.25300 31.97700
H  30.06000 48.25100 28.81600
H  30.40900 49.67100 22.48900
H  24.52600 51.75100 22.60300
H  26.60000 51.01500 30.78500
H  28.03200 48.45000 30.44900
H  29.56200 49.47700 31.54600
H  28.75300 50.98600 31.49600
H  30.07000 50.52700 30.30600
H  26.03200 48.18400 31.15800
H  24.70300 48.97100 30.28200
H  24.34200 48.78500 32.64200
H  24.21400 50.55000 32.02800
H  32.75400 48.17000 27.65200
H  32.83000 46.67800 26.79200
H  31.52100 46.88100 27.90000
H  33.70400 46.79700 24.48800
H  33.91900 48.25900 25.50300
H  34.50100 48.28200 23.81200
H  28.13000 49.25000 21.16000
H  26.34700 51.49500 20.88500
H  29.48500 50.39000 19.84200
H  29.75200 51.65600 21.12400
H  28.46700 51.69600 19.75400
H  24.81600 49.33700 21.83100
H  26.07800 48.50300 20.92500
H  25.26200 48.98200 19.15100
H  25.15200 50.68500 19.29700
H  23.74800 49.63900 19.76400
H  21.79600 53.66700 25.20600
H  22.04800 52.32800 24.00300
H  23.02500 53.78300 23.97600
H  23.49700 51.03600 29.71500
H  24.67800 53.87300 32.73900
H  23.03500 54.56900 32.37800
H  24.41200 55.11400 31.45200

