158

Mg -2.63300 17.24500 27.10100
C  -3.14100 15.04100 29.76000
C  -3.06300 19.84700 29.18500
C  -2.53800 19.20200 24.37100
C  -2.79600 14.36600 24.94500
N  -3.25300 17.40400 29.27600
C  -3.28900 16.41000 30.15100
C  -3.38100 16.93400 31.62600
C  -3.52300 18.46700 31.35300
C  -3.30400 18.65700 29.84100
C  -4.76500 19.22700 31.79400
C  -2.22900 16.63400 32.61000
C  -2.66600 16.13800 33.98200
H  -1.74300 16.16000 35.25600
N  -2.61000 19.24500 26.83900
C  -2.86700 20.11400 27.84100
C  -2.59900 21.41300 27.22800
C  -2.46100 21.32600 25.85300
C  -2.51400 19.89300 25.60300
C  -2.79300 22.68400 27.95200
C  -2.24300 22.33700 24.69400
O  -2.20700 22.01500 23.47500
C  -2.09900 23.81400 25.02400
N  -2.91300 16.83600 24.94300
C  -2.70300 17.85500 24.05400
C  -2.60900 17.34500 22.58000
C  -2.56400 15.74800 22.77300
C  -2.79300 15.62000 24.31400
C  -3.65700 17.86800 21.54100
C  -1.42100 14.99700 22.18800
C  -0.08600 15.31000 22.86100
N  -2.98400 15.15800 27.23400
C  -2.92500 14.11500 26.32500
C  -2.95900 12.84700 26.92300
C  -3.03300 13.18100 28.26700
C  -3.07200 14.53800 28.41100
C  -2.92200 11.59000 26.27400
C  -3.22500 12.59300 29.50400
O  -3.34700 11.45100 29.89200
C  -3.18400 13.80700 30.55900
C  -1.89400 13.57600 31.29900
O  -0.74200 13.64000 30.85800
O  -2.14800 13.22600 32.63300
C  -0.93600 12.92400 33.42400
H  -3.11100 20.71800 29.84100
H  -2.35200 19.66300 23.39900
H  -2.81500 13.53700 24.23500
H  -4.31000 16.48000 31.97100
H  -2.66300 18.96800 31.79800
H  -5.45100 19.44100 30.97500
H  -4.45100 20.14900 32.28200
H  -5.37900 18.58200 32.42400
H  -1.48500 17.43100 32.63200
H  -1.74300 15.82800 32.06100
H  -3.10500 15.14300 33.89900
H  -3.43100 16.77100 34.43000
H  -3.24400 23.52700 27.42800
H  -1.81300 22.89400 28.37900
H  -3.34400 22.46800 28.86700
H  -1.58300 24.34500 24.22300
H  -1.54200 23.91100 25.95600
H  -3.09800 24.17900 25.26000
H  -1.60000 17.59900 22.25700
H  -3.47600 15.34400 22.33200
H  -4.10000 18.78100 21.93800
H  -4.53300 17.22100 21.50700
H  -3.24600 18.02600 20.54400
H  -1.29800 15.30300 21.14900
H  -1.58500 13.92000 22.24000
H  -0.14400 15.67100 23.88700
H  0.56800 16.01400 22.34600
H  0.53700 14.41800 22.79700
H  -2.45900 11.50100 25.29100
H  -3.98600 11.45400 26.08100
H  -2.57400 10.82400 26.96600
H  -4.01900 13.79200 31.25900
H  -0.81900 11.85800 33.23400
H  -1.09900 13.02000 34.49700
H  0.00800 13.40100 33.16100
Mg 1.75700 -2.16900 45.13600
C  5.02400 -1.05500 44.64500
C  0.72100 0.67000 43.37200
C  -1.47000 -3.45900 44.92900
C  2.88500 -5.28700 46.08400
N  2.78200 -0.39900 44.22400
C  4.13600 -0.08700 44.14800
C  4.39900 1.34600 43.68700
C  2.98700 1.78600 43.28000
C  2.10500 0.63100 43.64000
C  2.48800 3.21300 43.73000
C  5.55400 1.39700 42.60700
C  5.63300 0.39200 41.38200
H  5.42500 1.03200 39.99800
N  -0.12100 -1.41200 44.37900
C  -0.31500 -0.23300 43.68700
C  -1.72100 -0.04600 43.35900
C  -2.37700 -1.15200 43.91600
C  -1.33700 -2.11900 44.47200
C  -2.13200 1.13000 42.50900
C  -3.91900 -1.36800 43.90500
O  -4.62900 -0.54900 43.30600
C  -4.60900 -2.44500 44.63400
N  0.76400 -4.14000 45.47500
C  -0.53500 -4.37500 45.51100
C  -0.82000 -5.81800 45.97500
C  0.62900 -6.36200 46.24200
C  1.51100 -5.15500 45.94800
C  -1.85700 -5.95200 47.07100
C  0.97500 -7.58800 45.37600
C  0.87500 -8.91600 46.20000
N  3.57400 -3.02800 45.46400
C  3.88500 -4.26000 45.90800
C  5.38700 -4.36900 46.01200
C  5.88500 -3.12300 45.57800
C  4.72400 -2.36400 45.23600
C  6.06700 -5.62200 46.31500
C  7.02800 -2.33700 45.41800
O  8.19500 -2.65300 45.58200
C  6.52200 -0.98600 44.80600
C  6.88300 0.16100 45.79600
O  6.48700 0.27000 46.94900
O  7.80400 1.01200 45.23500
C  8.21400 2.24400 45.99500
H  0.41000 1.56900 42.83600
H  -2.49000 -3.84800 44.94400
H  3.32200 -6.25000 46.35800
H  4.62100 1.86500 44.61900
H  3.09600 1.77200 42.19600
H  1.61100 3.08400 44.36500
H  2.35300 3.85300 42.85800
H  3.25700 3.72600 44.30800
H  6.57000 1.48000 42.99000
H  5.34900 2.37400 42.17100
H  4.93400 -0.42700 41.55400
H  6.64300 -0.01000 41.30700
H  -2.07000 0.91600 41.44200
H  -1.54300 2.03300 42.67000
H  -3.18000 1.34600 42.71500
H  -5.63000 -2.13000 44.84600
H  -4.11100 -2.76300 45.55000
H  -4.63800 -3.21900 43.86700
H  -1.31700 -6.30200 45.13500
H  0.58500 -6.62300 47.30000
H  -2.78900 -6.32400 46.64500
H  -2.09500 -5.02800 47.59800
H  -1.63300 -6.77700 47.74700
H  1.98100 -7.48500 44.97000
H  0.25200 -7.65300 44.56300
H  0.46100 -8.74000 47.19200
H  1.81500 -9.44400 46.36200
H  0.21500 -9.60500 45.67300
H  6.22300 -6.28600 45.46400
H  5.41000 -5.98100 47.10600
H  7.06400 -5.36200 46.67100
H  7.03500 -0.91600 43.84700
H  7.30700 2.79600 46.24300
H  8.78100 2.88600 45.32000
H  8.59000 1.96200 46.97900

