158

Mg 30.30600 57.79500 40.62100
C  27.60400 55.69600 39.60200
C  32.51400 55.49400 39.72200
C  32.66900 60.17500 40.92400
C  27.88500 60.19000 41.21300
N  30.04100 55.94800 39.61900
C  28.89100 55.21900 39.30700
C  29.28900 53.91800 38.66800
C  30.83800 53.70300 38.99700
C  31.14000 55.11000 39.55100
C  31.15500 52.51800 39.99700
C  29.05800 53.95000 37.16700
C  28.14300 52.85200 36.54200
H  27.22000 53.32800 35.38100
N  32.37900 57.83500 40.34800
C  33.07400 56.75200 40.05100
C  34.51000 57.04300 40.09000
C  34.64300 58.38400 40.37100
C  33.19700 58.85800 40.55000
C  35.58300 55.95800 39.83700
C  35.91100 59.12500 40.70500
O  37.00000 58.53800 40.71100
C  36.00800 60.57300 41.02700
N  30.31300 59.94500 40.90900
C  31.40400 60.63300 41.16300
C  31.06300 62.06800 41.52300
C  29.52700 61.98400 41.85500
C  29.19500 60.58600 41.35200
C  32.02300 62.68600 42.63200
C  28.71200 63.22700 41.29900
C  27.72600 63.91500 42.24300
N  28.16400 57.93900 40.52600
C  27.37600 59.01200 40.77100
C  25.97500 58.67100 40.63300
C  26.02100 57.37100 40.09000
C  27.40700 56.97000 40.11600
C  24.77000 59.50200 40.69400
C  25.20300 56.26400 39.59000
O  23.99500 56.15100 39.39900
C  26.24000 55.05600 39.26400
C  25.67600 53.95400 39.95600
O  26.05900 53.55200 41.07100
O  24.85200 53.24600 39.09900
C  24.65300 51.87900 39.59700
H  33.20500 54.64900 39.67500
H  33.48500 60.86900 41.13500
H  27.24300 61.03700 41.46400
H  28.64200 53.15100 39.09300
H  31.48500 53.63600 38.12300
H  32.23500 52.46700 39.85400
H  30.76000 51.55300 39.67900
H  30.87500 52.60600 41.04600
H  30.01300 53.96800 36.64200
H  28.55800 54.88600 36.92000
H  27.50600 52.35300 37.27400
H  28.80900 52.22000 35.95500
H  35.42900 55.24000 40.64300
H  36.64500 56.20500 39.80600
H  35.42800 55.37300 38.93100
H  35.34000 60.66600 41.88300
H  35.74200 61.15000 40.14100
H  36.95300 60.97600 41.39300
H  31.17000 62.67600 40.62400
H  29.49500 61.95900 42.94400
H  32.55300 61.88300 43.14500
H  31.50900 63.28600 43.38200
H  32.76100 63.29600 42.11100
H  28.35700 62.86800 40.33300
H  29.48100 63.95100 41.02900
H  27.95800 63.71500 43.28900
H  26.73400 63.52800 42.00700
H  27.71900 65.00400 42.19500
H  23.89300 58.89800 40.92900
H  24.61900 59.95200 39.71300
H  24.85300 60.30200 41.43000
H  26.11100 54.88000 38.19600
H  23.66700 51.73300 40.03800
H  25.43300 51.44700 40.22500
H  24.66200 51.29900 38.67400
Mg -12.91600 16.77800 40.91800
C  -9.90900 15.07800 40.52600
C  -11.45600 19.61000 39.62400
C  -15.95300 18.21600 40.75800
C  -14.40000 13.65600 41.82400
N  -10.91300 17.29900 40.02700
C  -9.83600 16.42800 40.10300
C  -8.52700 17.20100 39.63400
C  -9.05400 18.71700 39.44800
C  -10.53000 18.54300 39.73700
C  -8.32200 19.72500 40.38700
C  -7.89100 16.51700 38.40000
C  -6.35100 16.28600 38.45300
H  -5.57600 16.62400 37.20200
N  -13.68100 18.60800 40.22500
C  -12.89700 19.66800 39.78300
C  -13.75700 20.85000 39.58000
C  -15.07400 20.42200 39.84600
C  -14.95900 18.98000 40.30500
C  -13.30800 22.25900 39.15700
C  -16.31200 21.35800 39.69700
O  -16.16300 22.48200 39.27600
C  -17.74100 20.81100 39.96000
N  -14.96800 15.96500 41.11900
C  -16.00200 16.87200 41.19500
C  -17.30800 16.04600 41.50800
C  -16.71700 14.62600 42.14600
C  -15.24100 14.74500 41.69900
C  -18.51500 16.72000 42.28900
C  -17.49000 13.37100 41.67300
C  -18.02100 12.30200 42.71400
N  -12.31700 14.66600 41.13500
C  -13.05300 13.54800 41.44100
C  -12.14400 12.43800 41.56800
C  -10.86000 12.97200 41.23800
C  -11.08400 14.35400 40.90100
C  -12.56600 11.08300 41.88600
C  -9.45900 12.65600 41.11900
O  -8.76800 11.63900 41.24200
C  -8.77700 14.03200 40.67300
C  -7.71800 14.42600 41.63600
O  -7.85100 15.13600 42.62900
O  -6.48500 14.03200 41.22100
C  -5.25200 14.67900 41.84200
H  -10.96900 20.55100 39.36100
H  -16.97000 18.60400 40.66700
H  -14.79700 12.72200 42.22700
H  -7.93300 17.09000 40.54100
H  -8.99700 19.06800 38.41800
H  -9.05500 20.30300 40.94900
H  -7.69600 20.34400 39.74400
H  -7.65700 19.18000 41.05700
H  -8.03400 17.20400 37.56600
H  -8.46400 15.60000 38.25800
H  -6.09800 15.25100 38.68600
H  -5.90900 16.91700 39.22400
H  -13.79800 22.63100 38.25700
H  -12.25500 22.40900 38.91900
H  -13.53500 22.92100 39.99200
H  -18.40000 21.54400 39.49500
H  -17.88800 20.93000 41.03400
H  -18.06700 19.88400 39.49000
H  -17.78700 15.70700 40.58900
H  -16.66400 14.64500 43.23400
H  -19.43100 16.88000 41.72000
H  -18.19000 17.74900 42.43800
H  -18.79200 16.23300 43.22400
H  -16.85700 12.86300 40.94600
H  -18.34900 13.63400 41.05600
H  -17.93600 12.78400 43.68800
H  -17.37500 11.42500 42.73300
H  -19.07500 12.04000 42.61400
H  -11.65000 10.50800 41.75000
H  -13.34200 10.67100 41.24200
H  -12.96300 10.98200 42.89600
H  -8.34500 13.88900 39.68200
H  -5.40400 15.67000 42.26800
H  -4.45800 14.72900 41.09600
H  -4.89100 14.06000 42.66400

