158

Mg 47.10700 24.65300 27.81000
C  48.11700 26.85100 30.32600
C  46.12300 22.43500 30.19900
C  46.29600 22.63700 25.24800
C  48.03300 27.11500 25.44100
N  47.04900 24.76000 29.95200
C  47.45100 25.74500 30.79500
C  47.02200 25.42700 32.28700
C  46.51000 23.97800 32.23400
C  46.53000 23.67600 30.70000
C  47.31200 22.98500 33.17100
C  46.09900 26.53300 32.95600
C  46.58800 26.91600 34.36600
H  45.68500 27.44100 35.48800
N  46.55100 22.79300 27.75500
C  46.16000 21.97000 28.84400
C  45.77400 20.64400 28.25600
C  45.78400 20.74200 26.84600
C  46.18300 22.15600 26.56400
C  45.45400 19.48600 29.09700
C  45.47100 19.71900 25.76300
O  45.65600 19.91200 24.58700
C  44.69300 18.44100 26.03700
N  47.43300 24.72500 25.65100
C  46.85900 23.78900 24.84700
C  46.80500 24.24000 23.42600
C  47.14300 25.73400 23.43200
C  47.62700 25.88400 24.92700
C  47.70700 23.43800 22.46000
C  45.93600 26.61700 23.23200
C  46.18600 28.06300 22.55800
N  48.02900 26.51100 27.76800
C  48.29100 27.41900 26.82400
C  48.92000 28.52900 27.33800
C  48.91400 28.39300 28.71900
C  48.29600 27.12300 28.94100
C  49.56400 29.61000 26.45400
C  49.23500 28.98400 29.92300
O  49.77200 30.06000 30.15400
C  48.57700 28.09300 31.02700
C  49.67500 27.87000 32.08800
O  50.61300 27.16700 32.02200
O  49.38800 28.70800 33.16200
C  50.18400 28.54100 34.38500
H  45.77000 21.65200 30.87400
H  45.92400 22.05400 24.40300
H  48.30500 27.87800 24.71000
H  47.97600 25.50600 32.80800
H  45.46200 23.96900 32.53400
H  47.81700 22.20800 32.59700
H  46.67500 22.46000 33.88300
H  48.01100 23.54400 33.79400
H  45.06800 26.18500 33.01300
H  46.10500 27.44900 32.36400
H  47.19900 27.81300 34.26300
H  47.11200 26.03900 34.74700
H  46.03600 19.64400 30.00500
H  45.87200 18.58700 28.64500
H  44.38100 19.29700 29.11800
H  43.91700 18.66800 26.76800
H  45.34500 17.79400 26.62400
H  44.38600 17.91100 25.13500
H  45.75900 24.05700 23.18300
H  47.91300 26.07400 22.73900
H  48.71600 23.38800 22.86900
H  47.89200 23.99800 21.54300
H  47.16900 22.51600 22.23900
H  45.37800 26.61600 24.16800
H  45.21300 26.13600 22.57300
H  45.94900 28.18500 21.50200
H  47.20400 28.44400 22.63900
H  45.53300 28.71000 23.14400
H  49.18000 29.76700 25.44500
H  50.55700 29.16100 26.46100
H  49.57300 30.48600 27.10200
H  47.80800 28.70900 31.49300
H  49.76400 27.69000 34.92100
H  50.02600 29.46200 34.94600
H  51.21900 28.23200 34.23800
Mg -4.85300 25.54600 26.57800
C  -3.75300 26.96200 29.57400
C  -6.64700 23.20600 28.45300
C  -5.26600 23.74100 23.84700
C  -2.72600 27.72900 24.78800
N  -4.99500 24.98600 28.73200
C  -4.55900 25.82800 29.84200
C  -5.13200 25.32000 31.13800
C  -5.72800 23.92900 30.76600
C  -5.83200 24.03000 29.22600
C  -4.89400 22.80800 31.30100
C  -6.16400 26.34200 31.80800
C  -6.50000 26.15500 33.31300
H  -5.96900 25.04400 34.29100
N  -5.97000 23.87800 26.17000
C  -6.66200 23.11300 27.07100
C  -7.53100 22.23200 26.32600
C  -7.11800 22.24700 24.96200
C  -6.06800 23.28500 24.94100
C  -8.69400 21.51500 26.89500
C  -7.70400 21.56900 23.75200
O  -7.11800 21.58200 22.67900
C  -9.01700 20.85600 23.80800
N  -4.24000 25.76900 24.55900
C  -4.49000 24.83500 23.60800
C  -3.84400 25.17800 22.25000
C  -3.22600 26.56100 22.59200
C  -3.47900 26.74700 24.07100
C  -2.86500 24.04800 21.86300
C  -3.68400 27.71700 21.69100
C  -3.04000 28.07400 20.35400
N  -3.49000 27.07400 27.01200
C  -2.62500 27.81400 26.17800
C  -1.91700 28.69300 27.04000
C  -2.32800 28.42600 28.36400
C  -3.30400 27.38500 28.28800
C  -0.81200 29.65100 26.57300
C  -2.19900 28.77800 29.78300
O  -1.55900 29.66300 30.30700
C  -3.11900 27.91900 30.60900
C  -2.37000 27.17400 31.64400
O  -1.63100 26.22700 31.44100
O  -2.74700 27.52500 32.86700
C  -2.27100 26.77600 33.98000
H  -7.18000 22.48000 29.07000
H  -5.46400 23.25400 22.89000
H  -2.03700 28.33800 24.20000
H  -4.33800 25.19000 31.87300
H  -6.71800 23.89900 31.22000
H  -4.05200 23.20800 31.86500
H  -4.46000 22.18800 30.51700
H  -5.48200 22.20300 31.99200
H  -7.08900 26.48600 31.25100
H  -5.65700 27.30100 31.70300
H  -7.58600 26.09800 33.38800
H  -6.23100 27.10800 33.76700
H  -9.46000 21.71600 26.14600
H  -8.98600 21.98600 27.83300
H  -8.58000 20.44100 27.04300
H  -9.78700 21.59200 24.04000
H  -8.91300 20.00200 24.47600
H  -9.35900 20.43900 22.86100
H  -4.54500 25.34300 21.43100
H  -2.14400 26.43900 22.54200
H  -3.00700 23.95100 20.78700
H  -3.12100 23.09700 22.32900
H  -1.80800 24.29500 21.96500
H  -3.52300 28.65000 22.23200
H  -4.75700 27.66200 21.50900
H  -2.26100 27.35200 20.10900
H  -2.85500 29.14300 20.24900
H  -3.72200 27.89100 19.52400
H  -0.65500 29.51400 25.50300
H  0.01800 29.39800 27.23300
H  -1.23800 30.62100 26.82800
H  -3.88600 28.57700 31.01600
H  -1.89100 27.41300 34.77900
H  -1.48200 26.10800 33.63300
H  -3.10500 26.21800 34.40500

