158

Mg 53.97500 24.21200 45.40400
C  51.36500 26.46500 44.38800
C  51.96600 21.69500 44.05400
C  56.74100 22.42800 45.01300
C  55.77600 26.97000 46.45900
N  51.81500 24.14000 44.43800
C  51.04500 25.14000 44.06900
C  49.68300 24.55100 43.46500
C  49.77500 23.10300 44.03600
C  51.30600 22.96200 44.13300
C  49.07100 22.94800 45.45600
C  49.62000 24.68300 41.90800
C  51.00900 24.60600 41.15900
H  51.80600 23.27200 41.06500
N  54.34700 22.24400 44.65600
C  53.33000 21.40300 44.26500
C  53.99800 20.22300 43.98900
C  55.40800 20.36600 44.14900
C  55.56600 21.68700 44.60000
C  53.32000 19.00400 43.45900
C  56.41900 19.28200 43.97100
O  56.02800 18.18000 43.72400
C  57.91500 19.49900 44.08100
N  56.01500 24.77300 45.36100
C  56.97600 23.80300 45.39100
C  58.30700 24.22900 45.88800
C  57.98900 25.66300 46.34200
C  56.51500 25.78200 46.05900
C  58.83800 23.26700 46.99200
C  58.85300 26.79500 45.79800
C  59.91500 27.40900 46.77300
N  53.57200 26.31000 45.60300
C  54.40700 27.25800 46.13900
C  53.72200 28.52900 46.17300
C  52.53400 28.27400 45.42900
C  52.54300 26.90200 45.00700
C  54.19500 29.87600 46.66400
C  51.32400 28.84600 44.88700
O  50.85400 29.92500 44.98000
C  50.64300 27.73700 44.06100
C  50.62400 28.06200 42.55700
O  51.64300 28.20300 41.91000
O  49.38700 28.33900 42.10500
C  49.18700 28.48700 40.61300
H  51.37100 20.90900 43.58400
H  57.64900 21.82200 44.99400
H  56.34400 27.83100 46.81900
H  49.08400 25.33300 43.93200
H  49.40000 22.35100 43.34100
H  49.77600 22.45000 46.12100
H  48.23800 22.27100 45.26500
H  48.63600 23.81700 45.95000
H  49.15900 25.64300 41.67200
H  48.99900 23.82800 41.64200
H  51.56600 25.49000 41.47000
H  50.71700 24.78400 40.12400
H  53.43800 18.95700 42.37700
H  52.28000 19.08600 43.77600
H  53.58700 18.07400 43.96200
H  58.35200 18.64100 43.57200
H  58.31300 19.61800 45.08900
H  58.15200 20.33400 43.42200
H  59.00100 24.18700 45.04800
H  58.06700 25.64700 47.42900
H  57.97300 23.05700 47.62100
H  59.57800 23.61300 47.71400
H  59.14600 22.24900 46.75400
H  58.27500 27.66400 45.48300
H  59.45000 26.45000 44.95400
H  60.85100 27.60800 46.25100
H  60.18800 26.73200 47.58300
H  59.44400 28.29000 47.20900
H  55.20900 29.85900 47.06300
H  53.48800 30.17500 47.43700
H  54.18300 30.63300 45.88000
H  49.61600 27.61200 44.40300
H  49.00500 27.49400 40.20200
H  50.13700 28.78800 40.17300
H  48.38400 29.20900 40.46800
Mg -11.42600 16.26800 41.58800
C  -8.40200 14.31100 41.23300
C  -9.77400 18.79800 39.96000
C  -14.30200 17.61800 40.93400
C  -13.05400 13.30800 42.77700
N  -9.28900 16.45400 40.63400
C  -8.26500 15.56200 40.55900
C  -7.01000 16.12600 39.93500
C  -7.51300 17.62800 39.63100
C  -8.95800 17.67400 40.13200
C  -6.67200 18.70800 40.28500
C  -6.63200 15.37400 38.62200
C  -5.16800 15.74300 38.17300
H  -4.93100 16.70100 36.92600
N  -11.94800 18.06600 40.70600
C  -11.10100 18.98500 40.10600
C  -11.87000 20.12900 39.66100
C  -13.27800 19.73400 39.77600
C  -13.22700 18.41500 40.45600
C  -11.31100 21.38300 39.06000
C  -14.40700 20.55800 39.24400
O  -14.14500 21.65100 38.79800
C  -15.85400 20.12300 39.25500
N  -13.44200 15.59700 41.78200
C  -14.48200 16.43200 41.58000
C  -15.81900 15.79800 42.00000
C  -15.32300 14.37500 42.63900
C  -13.84600 14.42300 42.43900
C  -16.67700 16.71900 42.85300
C  -16.08100 13.22300 41.96300
C  -16.57300 12.06900 42.96800
N  -10.88300 14.28800 41.99500
C  -11.63900 13.19200 42.50700
C  -10.76800 12.11700 42.84100
C  -9.50500 12.51900 42.34500
C  -9.60600 13.84100 41.81400
C  -11.19000 10.80000 43.35100
C  -8.10400 12.11400 42.27500
O  -7.53400 11.05200 42.60600
C  -7.36600 13.25100 41.55000
C  -6.28900 13.76100 42.51000
O  -6.41800 14.26000 43.59600
O  -5.11200 13.49900 41.93500
C  -3.88000 14.05200 42.42400
H  -9.30600 19.73200 39.64100
H  -15.21500 18.19800 40.78600
H  -13.50700 12.37600 43.12200
H  -6.11700 16.10000 40.55800
H  -7.50300 17.82900 38.56000
H  -5.82800 18.26000 40.81000
H  -7.15700 19.41100 40.96200
H  -6.22900 19.24900 39.44900
H  -7.14100 15.57800 37.68000
H  -6.57500 14.29600 38.77300
H  -4.50100 14.88100 38.14100
H  -4.76200 16.34300 38.98700
H  -11.33400 21.32700 37.97200
H  -10.24500 21.44600 39.27900
H  -11.76000 22.32200 39.38400
H  -16.34100 20.78500 38.53900
H  -16.28900 20.23300 40.24900
H  -15.90400 19.06000 39.02300
H  -16.34100 15.64900 41.05500
H  -15.65500 14.31100 43.67500
H  -16.04700 17.41200 43.41100
H  -17.36200 16.14000 43.47400
H  -17.31500 17.33500 42.21900
H  -15.37700 12.75600 41.27400
H  -16.94200 13.50800 41.35900
H  -16.16800 12.23300 43.96700
H  -16.30800 11.03100 42.76500
H  -17.64500 12.17100 43.14000
H  -10.44100 10.36000 44.00800
H  -11.36600 10.08800 42.54500
H  -12.11900 10.91300 43.91100
H  -6.84600 12.81900 40.69500
H  -3.65300 13.65400 43.41400
H  -3.96700 15.13200 42.53500
H  -3.23600 13.82200 41.57500

