158

Mg 45.48800 4.17700 46.72500
C  43.24800 6.85900 46.84500
C  42.75700 2.04200 46.58200
C  47.65000 1.70600 46.01600
C  48.15000 6.56500 46.60600
N  43.28600 4.49100 46.75700
C  42.59700 5.62900 46.73600
C  41.05400 5.40000 46.72100
C  40.98800 3.83900 46.63500
C  42.45800 3.38300 46.75700
C  40.02700 3.10600 47.56400
C  40.21600 6.17000 45.58500
C  40.82100 6.42100 44.21400
H  39.99600 5.94000 43.02000
N  45.21900 2.12800 46.36800
C  44.00700 1.45000 46.38500
C  44.29200 0.05400 46.12500
C  45.73100 -0.02600 45.92200
C  46.30500 1.28800 46.10100
C  43.18700 -1.03700 46.23300
C  46.51500 -1.27400 45.51000
O  45.92600 -2.35600 45.45900
C  47.92000 -1.26100 45.10900
N  47.63600 4.14600 46.43300
C  48.31600 2.96600 46.24900
C  49.84300 3.21400 46.12900
C  49.95900 4.75700 46.22200
C  48.57800 5.19400 46.59600
C  50.65100 2.42700 47.22400
C  50.63500 5.41100 44.96300
C  49.65200 5.77700 43.82200
N  45.71800 6.30200 46.79500
C  46.81800 7.09900 46.71800
C  46.49100 8.50600 46.84800
C  45.05300 8.44800 46.98100
C  44.66300 7.09400 46.97300
C  47.38600 9.69700 46.76500
C  43.86500 9.25500 47.14200
O  43.72800 10.43800 47.31500
C  42.63300 8.25200 47.04200
C  41.84300 8.17400 48.30900
O  42.22300 7.54000 49.30600
O  40.61700 8.64900 48.03600
C  39.51500 8.55500 49.04100
H  41.83600 1.45700 46.62700
H  48.34800 0.86900 46.07200
H  49.06000 7.16700 46.65800
H  40.67600 5.70200 47.69800
H  40.75700 3.42900 45.65100
H  39.45000 3.87100 48.08400
H  40.42900 2.46700 48.35000
H  39.22800 2.67800 46.95800
H  40.13100 7.12000 46.11300
H  39.23900 5.69400 45.50400
H  41.72400 5.81700 44.12500
H  41.12900 7.44700 44.01300
H  42.90400 -1.48600 47.18500
H  43.42900 -1.96400 45.71300
H  42.26100 -0.73000 45.74700
H  48.18500 -2.07500 44.43400
H  48.43800 -1.27700 46.06700
H  48.12900 -0.35600 44.53900
H  50.05900 2.89700 45.10800
H  50.49900 5.01600 47.13300
H  51.24100 3.17900 47.74600
H  51.40100 1.84300 46.69000
H  49.99400 1.82300 47.85000
H  51.31900 4.63600 44.61800
H  51.07900 6.35500 45.28100
H  48.61400 5.74100 44.15100
H  49.85500 5.03600 43.04900
H  49.90600 6.80900 43.57900
H  46.70000 10.54200 46.83100
H  47.89600 9.64600 45.80200
H  48.16400 9.74000 47.52700
H  42.03700 8.50200 46.16500
H  38.94400 9.47200 49.18800
H  39.85900 8.24000 50.02600
H  38.83700 7.80300 48.63700
Mg 7.10400 54.04300 41.11500
C  5.85000 50.67800 40.72900
C  9.97200 52.99900 39.81700
C  7.95200 57.32100 40.97800
C  3.82000 54.88700 42.08600
N  7.77300 52.06100 40.16500
C  7.13900 50.81200 40.16600
C  8.19800 49.75200 39.72800
C  9.58800 50.49000 39.82600
C  9.08600 51.94400 39.93300
C  10.40900 50.01800 41.06300
C  7.94600 49.20100 38.37600
C  7.45900 50.09800 37.22000
H  8.20200 50.18200 35.80700
N  8.82300 55.03700 40.54100
C  9.86800 54.39400 39.94600
C  10.86000 55.48800 39.62700
C  10.26500 56.72900 40.00700
C  8.93600 56.39300 40.52800
C  12.18400 55.13700 39.00100
C  10.84000 58.10600 39.80800
O  11.97900 58.23900 39.40000
C  10.18400 59.36200 40.02300
N  6.06000 55.84600 41.62300
C  6.68900 57.07900 41.51800
C  5.74300 58.16300 41.99900
C  4.42600 57.44700 42.45500
C  4.77200 55.95300 42.05200
C  6.40000 59.12100 42.99300
C  3.16500 58.06500 41.68800
C  2.08200 58.43000 42.69300
N  5.20200 53.02500 41.43500
C  4.01900 53.49000 41.88400
C  3.00500 52.47900 42.13600
C  3.81900 51.34600 41.79400
C  5.10900 51.69900 41.32500
C  1.51200 52.55400 42.45600
C  3.77300 49.93900 41.68400
O  2.91800 49.18400 41.94700
C  5.02200 49.45400 41.00600
C  4.70100 48.61600 39.79700
O  4.13400 49.00700 38.80700
O  5.04700 47.34000 40.04200
C  4.76000 46.30300 39.05300
H  10.95800 52.64700 39.50900
H  8.15800 58.39300 41.01400
H  2.87900 55.15000 42.57400
H  8.23800 48.95700 40.47300
H  10.24500 50.37600 38.96300
H  10.59600 50.89200 41.68700
H  11.40500 49.70600 40.74800
H  9.95700 49.23400 41.67000
H  7.28500 48.33700 38.45200
H  8.91000 48.81700 38.04200
H  7.29600 51.10800 37.59500
H  6.51100 49.65700 36.91300
H  12.18900 54.65100 38.02600
H  12.56500 54.39300 39.70000
H  12.86400 55.98400 39.08900
H  10.87100 60.14800 39.70700
H  10.07100 59.57800 41.08500
H  9.21700 59.37500 39.52200
H  5.48000 58.75800 41.12500
H  4.40000 57.47100 43.54400
H  7.45200 58.84100 43.05400
H  5.96500 59.24100 43.98500
H  6.38000 60.07700 42.47000
H  2.81600 57.39200 40.90500
H  3.44100 59.01600 41.23300
H  2.23700 57.99600 43.68000
H  1.11200 57.99200 42.45800
H  1.98900 59.51600 42.66500
H  0.99100 51.60000 42.53700
H  0.99900 53.18800 41.73300
H  1.39900 53.07900 43.40400
H  5.50500 48.83400 41.76200
H  5.05700 46.72500 38.09300
H  3.68900 46.09900 39.04400
H  5.30500 45.43400 39.42000

