158

Mg 0.20600 7.40700 24.71900
C  0.92300 9.29900 27.58800
C  0.70800 4.56800 26.60700
C  0.03600 5.61500 21.84100
C  0.46200 10.42300 22.77700
N  0.80600 7.02700 26.79100
C  0.78000 7.89900 27.83800
C  0.68300 7.20700 29.17900
C  0.91900 5.76400 28.79600
C  0.73100 5.74800 27.29600
C  2.41600 5.18000 29.17600
C  -0.66600 7.51400 29.90900
C  -0.65500 7.58100 31.47200
H  0.63500 7.25500 32.38100
N  0.46200 5.36200 24.32700
C  0.60400 4.32600 25.21700
C  0.53100 3.07900 24.52500
C  0.30100 3.37500 23.12500
C  0.32200 4.82000 23.04100
C  0.59800 1.75500 25.28100
C  0.17100 2.40000 21.98600
O  -0.09000 2.71900 20.84300
C  0.12200 0.94100 22.24200
N  0.22500 7.98300 22.57300
C  0.08100 6.97800 21.61200
C  0.25300 7.73100 20.27400
C  0.05600 9.22400 20.57000
C  0.21400 9.26600 22.06500
C  1.55600 7.28400 19.49200
C  -1.18700 10.04800 20.11200
C  -2.38700 10.38500 21.03600
N  0.67600 9.41600 25.07000
C  0.66500 10.51500 24.22600
C  0.97600 11.72300 24.99900
C  1.01800 11.23600 26.32500
C  0.83200 9.86300 26.33000
C  1.00600 13.16200 24.47200
C  1.28500 11.63600 27.65100
O  1.63500 12.76500 28.03900
C  1.03200 10.34200 28.60700
C  2.19900 10.33200 29.53900
O  3.25200 9.71400 29.39900
O  1.87200 11.16300 30.63600
C  3.00100 11.28800 31.58100
H  0.50500 3.67900 27.20900
H  0.08800 5.04500 20.91100
H  0.41100 11.40400 22.30100
H  1.48900 7.61700 29.78800
H  0.17400 5.09500 29.22600
H  2.98100 5.93900 29.71700
H  3.00300 4.86900 28.31200
H  2.19500 4.35900 29.85700
H  -1.37600 6.71800 29.68400
H  -1.04700 8.44400 29.48500
H  -1.37100 6.79800 31.72100
H  -1.23500 8.45200 31.77700
H  -0.44500 1.54400 25.51400
H  1.09900 1.96900 26.22600
H  1.25600 0.98300 24.88300
H  1.12500 0.71000 22.60100
H  0.04800 0.28500 21.37500
H  -0.75000 0.70800 22.85400
H  -0.58900 7.37700 19.68000
H  0.87600 9.82900 20.18400
H  1.27800 6.81000 18.55000
H  2.18800 6.59500 20.05200
H  2.22500 8.14400 19.52700
H  -1.54200 9.56600 19.20100
H  -0.73700 10.99700 19.81800
H  -2.50000 11.45100 20.84200
H  -2.10900 10.25000 22.08100
H  -3.18000 9.74400 20.65100
H  0.07500 13.38600 23.95100
H  1.87600 13.17600 23.81500
H  1.16600 13.93400 25.22400
H  0.11900 10.60100 29.14500
H  2.84000 10.41200 32.20900
H  2.89800 12.15600 32.23300
H  3.95900 11.17300 31.07400
Mg 9.57700 47.23000 26.75300
C  7.51700 47.63800 29.44900
C  12.17100 48.51300 28.63900
C  11.48400 46.89500 23.99700
C  6.75100 47.09600 24.59900
N  9.78800 48.28800 28.71900
C  8.84500 47.99800 29.72600
C  9.40300 48.36000 31.10100
C  10.68400 49.16400 30.71800
C  10.96800 48.70100 29.24400
C  10.71100 50.74500 30.93800
C  9.72000 47.09100 31.95500
C  9.26500 47.15400 33.46500
H  9.44900 45.84900 34.33500
N  11.58900 47.53100 26.44000
C  12.50000 48.10300 27.27100
C  13.89900 47.91000 26.65800
C  13.62100 47.21900 25.36400
C  12.16800 47.24800 25.18100
C  15.11200 48.24400 27.32100
C  14.65600 46.62500 24.43100
O  14.31100 46.06800 23.37200
C  16.13100 46.71800 24.81400
N  9.07800 46.95700 24.60700
C  10.12300 46.89100 23.75200
C  9.66900 46.78900 22.35100
C  8.06700 46.79500 22.40400
C  7.94300 46.96500 23.94300
C  10.32100 47.83100 21.31600
C  7.42800 45.45800 21.95600
C  7.17500 45.43600 20.41700
N  7.57600 47.21200 26.97000
C  6.58600 47.11600 26.02000
C  5.30100 47.03700 26.75900
C  5.63200 47.13400 28.09000
C  7.02500 47.38100 28.20700
C  3.87400 46.91000 26.12100
C  5.10400 47.10000 29.45300
O  3.95800 46.86300 29.83500
C  6.30400 47.57300 30.32500
C  6.41500 46.48000 31.42000
O  6.98800 45.41400 31.34100
O  5.76100 46.91100 32.56600
C  5.34500 45.87800 33.50000
H  13.00700 48.91200 29.21700
H  12.11200 46.68000 23.12900
H  5.84000 46.90200 24.02800
H  8.75200 49.06100 31.62400
H  11.43700 48.75900 31.39400
H  9.75700 51.24600 31.10400
H  11.05400 51.18700 30.00300
H  11.33200 51.05000 31.78100
H  10.76600 46.78600 31.98700
H  9.31000 46.22800 31.43100
H  8.26300 47.57800 33.52600
H  9.96600 47.85200 33.92300
H  14.90200 48.28900 28.38900
H  15.32500 49.26900 27.01800
H  15.96100 47.56300 27.38200
H  16.78600 46.41900 23.99600
H  16.20400 46.00600 25.63600
H  16.35000 47.74600 25.10400
H  9.90300 45.76300 22.06700
H  7.72100 47.74400 21.99400
H  11.25700 47.42500 20.93000
H  10.68800 48.67500 21.90000
H  9.65100 48.17400 20.52800
H  6.48000 45.35200 22.48400
H  8.07500 44.67700 22.35500
H  6.11700 45.50600 20.16400
H  7.54100 44.56800 19.86800
H  7.75000 46.27500 20.02600
H  3.96300 46.77000 25.04400
H  3.21300 47.76300 26.27600
H  3.38900 46.02200 26.52700
H  5.88800 48.54700 30.58400
H  5.15900 44.95500 32.95100
H  4.34100 46.21500 33.76000
H  6.06000 45.75500 34.31300

