158

Mg 3.01000 -0.62000 43.66400
C  5.92200 1.38600 43.46500
C  1.30400 2.03000 42.16900
C  0.28700 -2.54100 43.67700
C  5.00700 -3.17100 44.98300
N  3.56300 1.42100 42.85400
C  4.79300 2.13100 43.07300
C  4.65900 3.63000 42.61400
C  3.13900 3.79100 42.48300
C  2.63000 2.32600 42.48800
C  2.46800 4.57900 43.57200
C  5.36500 4.06900 41.30500
C  5.26800 3.17000 40.08600
H  5.28000 3.87700 38.71900
N  1.03700 -0.29400 43.00100
C  0.58200 0.76800 42.32100
C  -0.76300 0.54300 41.95500
C  -1.21700 -0.65600 42.53500
C  0.02900 -1.20500 43.11900
C  -1.55200 1.56700 41.08200
C  -2.56700 -1.30900 42.40300
O  -3.54600 -0.68500 41.95200
C  -2.78500 -2.63200 42.97500
N  2.73500 -2.55000 44.23000
C  1.47900 -3.13800 44.13500
C  1.49200 -4.60100 44.66500
C  2.95100 -4.74100 45.16000
C  3.59900 -3.41000 44.76300
C  0.38200 -4.93000 45.67200
C  3.82100 -6.02300 44.58800
C  4.23600 -6.98200 45.62900
N  5.07700 -1.00900 43.95100
C  5.71400 -2.04000 44.63200
C  7.15500 -1.72900 44.84500
C  7.27400 -0.42300 44.30600
C  5.96300 -0.02300 43.82500
C  8.18100 -2.58900 45.48500
C  8.16400 0.71200 44.00500
O  9.34000 0.88300 44.26000
C  7.34500 1.84700 43.42300
C  7.48200 2.98800 44.26300
O  7.76300 4.14300 43.93200
O  7.22200 2.65800 45.61700
C  7.37100 3.69600 46.61300
H  0.85100 2.85100 41.60900
H  -0.50300 -3.29500 43.72100
H  5.49900 -4.03600 45.43200
H  5.16200 4.14200 43.43500
H  2.85600 4.35200 41.59300
H  2.21600 3.94500 44.42200
H  1.53700 4.92500 43.12400
H  3.14900 5.40000 43.80100
H  6.38700 4.35700 41.55100
H  4.89400 4.99000 40.96200
H  4.30800 2.66900 40.20800
H  6.12000 2.49100 40.09000
H  -2.11100 0.95800 40.37200
H  -0.94200 2.22800 40.46700
H  -2.28500 2.16300 41.62600
H  -3.79300 -3.03600 42.87600
H  -2.49000 -2.78100 44.01300
H  -2.22400 -3.35000 42.37700
H  1.38400 -5.33300 43.86500
H  2.97900 -4.75100 46.25000
H  0.73400 -5.04900 46.69700
H  0.13700 -5.90900 45.26200
H  -0.45100 -4.22800 45.63600
H  4.70900 -5.65700 44.07100
H  3.16900 -6.49300 43.85200
H  4.07200 -6.59500 46.63500
H  5.29000 -7.09100 45.37300
H  3.88400 -7.99900 45.45400
H  9.00600 -1.99000 45.86800
H  8.66900 -3.39600 44.93800
H  7.67000 -3.02700 46.34200
H  7.59900 2.05500 42.38400
H  8.03300 4.46400 46.21300
H  7.78800 3.36700 47.56500
H  6.41900 4.21800 46.70300
Mg 35.95300 50.09000 26.23400
C  35.57400 48.07100 29.13100
C  35.04300 52.81500 28.18200
C  36.40600 51.98400 23.59100
C  36.71400 47.13400 24.46500
N  35.46700 50.38800 28.30900
C  35.42300 49.44800 29.30200
C  35.42600 50.14900 30.69400
C  34.69400 51.51900 30.35300
C  35.08100 51.59300 28.84900
C  33.19000 51.56500 30.59000
C  36.79400 50.28600 31.34800
C  36.76100 50.09400 32.86400
H  35.48700 50.15900 33.66600
N  35.77500 52.10900 25.90500
C  35.40700 53.07300 26.83700
C  35.42600 54.33300 26.28800
C  35.94200 54.21800 24.91200
C  36.10400 52.74900 24.71200
C  34.95100 55.48700 27.05200
C  36.28200 55.28400 23.83700
O  36.63400 54.93800 22.73200
C  36.05400 56.73300 24.18000
N  36.27900 49.58900 24.29900
C  36.53900 50.57600 23.39100
C  36.84600 49.97900 22.03200
C  37.34000 48.56500 22.43500
C  36.64500 48.33500 23.77600
C  35.57200 50.07600 21.13000
C  38.85300 48.35100 22.52600
C  39.44500 47.26600 21.67700
N  36.13400 47.97300 26.68700
C  36.41800 46.91300 25.87000
C  36.42400 45.71800 26.64100
C  36.18300 46.10700 27.89400
C  35.94500 47.46600 27.90100
C  36.72400 44.34500 26.17400
C  36.01700 45.68000 29.26500
O  36.10500 44.57400 29.72400
C  35.63400 46.95200 30.16000
C  34.37100 46.75900 30.92700
O  33.22200 47.03500 30.57800
O  34.60000 46.13300 32.16100
C  33.41200 45.76700 32.87600
H  34.58200 53.53300 28.86300
H  36.77100 52.63400 22.79400
H  36.96700 46.22800 23.90900
H  34.77700 49.49700 31.27900
H  35.06500 52.32300 30.98800
H  32.88100 50.66000 31.11200
H  32.73200 51.64000 29.60400
H  32.82000 52.36900 31.22600
H  37.34500 51.17900 31.05500
H  37.42500 49.51500 30.90500
H  37.46200 50.72500 33.40900
H  37.14700 49.07700 32.92500
H  35.74800 55.90800 27.66400
H  34.10400 55.22500 27.68700
H  34.59400 56.27400 26.38800
H  36.47000 57.29000 23.34100
H  36.69800 57.00500 25.01700
H  35.01000 57.03700 24.25900
H  37.74000 50.44500 21.61600
H  36.94500 47.87100 21.69200
H  35.23900 51.10100 20.96700
H  34.64500 49.56300 21.38700
H  35.87700 49.72700 20.14400
H  39.13200 48.32400 23.57900
H  39.34700 49.23800 22.13100
H  40.02700 46.71400 22.41500
H  39.96600 47.62200 20.78800
H  38.67600 46.56500 21.35200
H  37.13200 44.43500 25.16700
H  35.85400 43.69400 26.08700
H  37.46800 44.02600 26.90400
H  36.48600 47.17200 30.80300
H  33.62500 45.12300 33.72900
H  32.59000 45.35600 32.28800
H  32.99800 46.62700 33.40200

