158

Mg 24.52100 -5.48900 46.14700
C  26.58000 -2.96000 44.73300
C  22.19300 -4.48100 43.59900
C  23.02000 -8.22000 46.48400
C  27.36400 -6.59300 47.90800
N  24.45000 -3.76300 44.42000
C  25.34300 -2.80300 44.16200
C  24.85400 -1.96100 43.00900
C  23.25800 -2.14700 43.21200
C  23.31800 -3.53900 43.73000
C  22.47200 -1.23500 44.23500
C  25.50900 -2.44200 41.60900
C  26.12900 -1.33100 40.67000
H  25.57200 -1.36600 39.26800
N  22.76700 -6.18400 45.36700
C  21.92100 -5.63800 44.30400
C  20.78300 -6.44200 44.21200
C  20.96800 -7.56000 45.03800
C  22.31100 -7.37900 45.69600
C  19.55200 -6.11800 43.39500
C  19.96400 -8.78000 45.15800
O  18.88700 -8.88300 44.55000
C  20.12700 -9.90200 46.14400
N  25.10100 -7.12200 47.29300
C  24.28000 -8.22200 47.17500
C  25.02800 -9.49000 47.72400
C  26.22200 -8.83700 48.52800
C  26.24500 -7.44400 47.95600
C  24.25200 -10.64800 48.41400
C  27.64600 -9.58000 48.63400
C  28.38800 -9.54200 50.03300
N  26.50900 -4.85700 46.50300
C  27.50200 -5.36000 47.21500
C  28.71200 -4.51700 47.21500
C  28.37600 -3.57200 46.23200
C  27.05600 -3.87100 45.72500
C  29.96000 -4.79000 47.97700
C  28.89000 -2.47700 45.45300
O  29.93400 -1.88800 45.48700
C  27.80800 -2.06000 44.40900
C  27.62600 -0.57400 44.47500
O  27.29900 0.01700 45.47600
O  27.73600 0.01700 43.27100
C  27.67800 1.52000 43.24500
H  21.39800 -4.15500 42.92500
H  22.52300 -9.17800 46.65100
H  28.18700 -7.00000 48.49900
H  25.23700 -0.98300 43.29800
H  22.75000 -2.07200 42.25100
H  23.21200 -0.60300 44.72600
H  22.06800 -1.83300 45.05200
H  21.74700 -0.59000 43.74000
H  24.74000 -2.89600 40.98400
H  26.27200 -3.20400 41.76900
H  27.20600 -1.50200 40.64900
H  25.93200 -0.32500 41.04000
H  18.70900 -6.31700 44.05600
H  19.55400 -6.74400 42.50200
H  19.50500 -5.04400 43.21500
H  19.18200 -10.41500 46.31900
H  20.38700 -9.51300 47.12900
H  20.78500 -10.66900 45.73600
H  25.32800 -9.97600 46.79600
H  25.88900 -8.62400 49.54400
H  24.66200 -11.51100 47.88800
H  23.18800 -10.78200 48.21900
H  24.39700 -10.61800 49.49400
H  28.36700 -9.21100 47.90400
H  27.47600 -10.63800 48.43400
H  29.46400 -9.69600 49.94200
H  28.02500 -10.39600 50.60500
H  28.06100 -8.67300 50.60300
H  30.66100 -4.96100 47.16000
H  29.95100 -5.61700 48.68700
H  30.10300 -3.83100 48.47600
H  28.16400 -2.26300 43.39900
H  26.86400 1.90300 43.85900
H  27.48500 1.85400 42.22600
H  28.62800 1.90900 43.61200
Mg 47.06000 24.46900 27.48800
C  48.09800 26.71100 29.99100
C  46.29500 22.34800 30.00300
C  46.29500 22.25700 25.23800
C  48.57400 26.40600 25.21400
N  47.06700 24.54800 29.71500
C  47.46900 25.58700 30.50700
C  47.16100 25.30600 32.02800
C  46.76600 23.81300 31.95100
C  46.73600 23.55700 30.45800
C  47.78700 22.90800 32.61400
C  46.21700 26.42700 32.67600
C  45.60100 26.01300 33.94100
H  45.70600 26.90900 35.15800
N  46.35100 22.58700 27.55400
C  46.12600 21.84300 28.69000
C  45.55000 20.56500 28.33300
C  45.41900 20.57700 26.90800
C  46.04000 21.83900 26.51500
C  45.28600 19.47300 29.41900
C  44.79800 19.47400 25.99100
O  44.89600 19.51300 24.77500
C  44.11900 18.27100 26.54600
N  47.46700 24.38500 25.50300
C  46.85500 23.43900 24.74500
C  47.18500 23.64400 23.23400
C  47.82000 25.09800 23.25700
C  47.94400 25.34500 24.74800
C  48.08600 22.53200 22.59800
C  46.88400 26.17700 22.58600
C  47.10200 26.37200 21.01200
N  48.19500 26.18500 27.55200
C  48.67600 26.90500 26.50700
C  49.23600 28.14800 27.01200
C  49.04400 28.15700 28.38100
C  48.42300 26.94600 28.63800
C  49.55300 29.36800 26.09300
C  49.10900 28.91500 29.56500
O  49.49000 30.05600 29.75800
C  48.58100 27.94600 30.66800
C  49.51200 27.84900 31.76300
O  50.44400 27.09000 31.82400
O  49.02000 28.62300 32.80800
C  49.77400 28.52700 34.06700
H  45.85400 21.69000 30.75500
H  45.77900 21.74900 24.42100
H  49.02400 27.04900 24.45500
H  48.13200 25.36300 32.51900
H  45.75100 23.62200 32.29900
H  48.40700 23.40700 33.36000
H  48.48100 22.39400 31.95000
H  47.26200 22.13200 33.17100
H  45.41200 26.60700 31.96400
H  46.71900 27.34100 32.99500
H  45.86500 25.00000 34.24400
H  44.56500 26.05600 33.60400
H  44.39000 18.88300 29.23100
H  45.09700 19.86800 30.41800
H  46.16700 18.83600 29.50400
H  43.23800 18.60200 27.09600
H  44.80700 17.80000 27.24800
H  43.91400 17.54900 25.75600
H  46.26500 23.72800 22.65500
H  48.77000 25.20900 22.73500
H  48.31400 21.84500 23.41200
H  49.07900 22.89200 22.32700
H  47.54600 22.04100 21.78900
H  46.89900 27.16200 23.05500
H  45.85500 25.81900 22.60000
H  46.41200 25.59600 20.68100
H  48.17200 26.33400 20.80800
H  46.77900 27.32500 20.59400
H  49.89000 29.11000 25.08900
H  50.42100 29.85500 26.53700
H  48.59300 29.88000 26.04200
H  47.63500 28.42700 30.91600
H  49.67400 27.46000 34.27100
H  49.25800 28.97600 34.91600
H  50.77400 28.94400 33.94900

