158

Mg 31.18500 58.79100 40.67100
C  28.32500 57.21900 39.37300
C  33.03700 56.29600 39.15000
C  33.94300 60.71400 41.01400
C  29.13500 61.52000 41.66700
N  30.70300 57.01300 39.28800
C  29.49400 56.47800 39.09100
C  29.62200 55.05300 38.60200
C  31.16500 54.73400 38.85300
C  31.68000 56.09100 39.12700
C  31.45100 53.75500 39.98000
C  29.28600 54.86400 37.06300
C  27.97400 54.22200 36.61600
H  27.18800 54.81700 35.38700
N  33.20900 58.46300 40.13000
C  33.78800 57.42700 39.57000
C  35.24500 57.59200 39.36000
C  35.54700 58.79100 40.03500
C  34.22200 59.35500 40.49600
C  36.09300 56.56300 38.74800
C  36.87700 59.37500 40.24200
O  37.89200 58.79400 39.86700
C  37.03900 60.74100 40.88000
N  31.49300 60.80300 41.25500
C  32.78200 61.32400 41.30200
C  32.70600 62.76000 41.86900
C  31.18300 63.11900 42.01000
C  30.53500 61.75200 41.68000
C  33.73700 63.03600 43.00800
C  30.71000 64.33800 41.17000
C  29.49800 65.15200 41.67100
N  29.18400 59.27500 40.60100
C  28.53600 60.38400 41.04400
C  27.10700 60.25900 40.85500
C  26.96800 59.02100 40.22400
C  28.24700 58.48700 40.04200
C  26.00700 61.18900 41.35700
C  25.97900 58.00700 39.73600
O  24.72100 58.00200 39.64000
C  26.84500 56.80300 39.18900
C  26.56400 55.63500 40.01800
O  27.14400 55.38600 41.08700
O  25.59500 54.84400 39.41300
C  25.26000 53.65100 40.15700
H  33.55500 55.39800 38.80700
H  34.79900 61.37600 41.16000
H  28.49200 62.32700 42.02600
H  28.95200 54.43400 39.19800
H  31.73600 54.38700 37.99100
H  30.59300 53.73000 40.65200
H  32.32600 53.99200 40.58600
H  31.54800 52.68900 39.77400
H  30.06500 54.32700 36.52300
H  29.20400 55.86900 36.64900
H  27.24900 54.15700 37.42700
H  28.29400 53.19500 36.44100
H  36.64600 57.08100 37.96400
H  35.47800 55.83500 38.21900
H  36.78700 56.12300 39.46400
H  36.55400 61.52300 40.29500
H  38.09100 61.01200 40.96000
H  36.73700 60.77400 41.92700
H  33.10400 63.43400 41.11000
H  31.05800 63.31100 43.07500
H  34.15800 62.15500 43.49300
H  33.34500 63.63000 43.83300
H  34.63500 63.59000 42.73400
H  30.32200 63.86000 40.27100
H  31.65400 64.82500 40.92500
H  29.79100 66.20100 41.72000
H  29.09100 64.66300 42.55600
H  28.71000 65.09600 40.91900
H  26.31800 62.17300 41.00700
H  26.04800 61.14900 42.44600
H  25.03200 60.97800 40.91900
H  26.57900 56.41200 38.20700
H  26.16200 53.08700 40.39500
H  24.61900 52.99200 39.57100
H  24.72300 53.77600 41.09700
Mg -5.36000 24.95200 26.09100
C  -3.78200 26.03800 28.94000
C  -7.27800 22.79200 28.05300
C  -6.27400 23.40400 23.32400
C  -3.01900 26.87500 24.11500
N  -5.55800 24.57300 28.21600
C  -4.92400 25.24700 29.16200
C  -5.35700 24.90900 30.52400
C  -6.24800 23.63400 30.21000
C  -6.37100 23.60500 28.77400
C  -5.71400 22.33700 30.79200
C  -6.05500 26.04800 31.19800
C  -5.89100 26.16000 32.77100
H  -5.11700 25.08200 33.55800
N  -6.73000 23.41200 25.72400
C  -7.42100 22.71200 26.61200
C  -8.31600 21.91100 25.92500
C  -8.09300 22.15600 24.51000
C  -6.94400 22.94000 24.45400
C  -9.32900 21.05200 26.56800
C  -8.86800 21.46200 23.33900
O  -8.45500 21.54600 22.19000
C  -10.06600 20.55000 23.55800
N  -4.61200 25.08600 24.00700
C  -5.21300 24.28500 23.09800
C  -4.66500 24.59900 21.63700
C  -3.61200 25.75700 21.89700
C  -3.79100 25.94900 23.44500
C  -4.13800 23.42000 20.86700
C  -3.98000 27.13100 21.20800
C  -3.32600 27.24100 19.79400
N  -3.72400 26.17200 26.39400
C  -2.91700 26.94700 25.52500
C  -2.04400 27.79900 26.39000
C  -2.39100 27.42100 27.74700
C  -3.40300 26.48300 27.65100
C  -1.08800 28.78100 25.93000
C  -2.05200 27.70500 29.05300
O  -1.11900 28.37200 29.42900
C  -3.01900 26.89400 30.02100
C  -2.19000 26.17900 30.99400
O  -1.59200 25.15200 30.74400
O  -2.00800 26.85000 32.12800
C  -1.13800 26.28800 33.14800
H  -7.91900 22.07900 28.57600
H  -6.56000 22.96600 22.36500
H  -2.33800 27.48000 23.51200
H  -4.43100 24.63700 31.03200
H  -7.16700 23.70300 30.79100
H  -4.74700 22.45800 31.28000
H  -5.47600 21.60500 30.02100
H  -6.32300 21.84400 31.55000
H  -7.12200 25.90100 31.03200
H  -5.87400 27.03300 30.76800
H  -6.94000 26.06300 33.05200
H  -5.56000 27.17700 32.98300
H  -9.63100 20.16300 26.01600
H  -10.24300 21.63400 26.68600
H  -8.95000 20.69500 27.52600
H  -10.84000 21.14000 24.04900
H  -9.69700 19.65500 24.05700
H  -10.46200 20.19000 22.60900
H  -5.55200 24.99800 21.14600
H  -2.61600 25.45700 21.57200
H  -4.83100 23.28400 20.03600
H  -4.18700 22.50900 21.46300
H  -3.10200 23.59200 20.57400
H  -3.73000 28.02200 21.78400
H  -5.06200 27.06700 21.09300
H  -4.07700 27.28000 19.00400
H  -2.61600 26.45500 19.53600
H  -2.75800 28.16900 19.84800
H  -0.87800 29.41100 26.79500
H  -1.74400 29.36400 25.28300
H  -0.18000 28.35800 25.50100
H  -3.65300 27.61800 30.53200
H  -0.07300 26.45000 32.97900
H  -1.20800 25.20100 33.19400
H  -1.48000 26.69900 34.09800

