158

Mg 45.83900 3.66500 47.07500
C  43.49300 6.27300 46.52800
C  43.21300 1.42300 46.92300
C  48.00700 1.08600 46.95300
C  48.31100 5.90900 46.78300
N  43.65200 3.87800 46.77700
C  42.90400 5.00000 46.55100
C  41.42800 4.72300 46.45800
C  41.34200 3.27400 46.98200
C  42.82400 2.77800 46.91400
C  40.78700 3.18400 48.42000
C  40.84800 4.81800 44.91400
C  39.67700 5.78900 44.66700
H  39.81000 6.86600 43.62000
N  45.60000 1.49400 47.04400
C  44.45300 0.79100 47.05500
C  44.73000 -0.60700 47.23800
C  46.16200 -0.68800 47.20900
C  46.67300 0.66300 47.06200
C  43.69000 -1.66500 47.24200
C  46.91600 -1.90600 47.48800
O  46.32300 -2.97000 47.79700
C  48.41700 -1.95300 47.56000
N  47.80000 3.53400 46.66700
C  48.49700 2.39800 46.78800
C  50.01600 2.58700 46.85800
C  50.08100 4.20200 46.76300
C  48.63500 4.56400 46.62200
C  50.62100 2.30400 48.21600
C  51.02100 4.73900 45.65800
C  52.24800 5.48200 46.08200
N  45.94400 5.64700 46.68500
C  47.07500 6.48700 46.77900
C  46.73700 7.92100 46.68800
C  45.26500 7.87700 46.59400
C  44.87900 6.48800 46.66700
C  47.61000 9.19000 46.59900
C  44.07300 8.64900 46.53500
O  43.86100 9.87600 46.58400
C  42.78100 7.64400 46.59800
C  42.04700 7.73900 47.92700
O  42.30600 7.23000 49.00300
O  41.10000 8.68200 47.77100
C  40.10500 8.95500 48.84400
H  42.45500 0.65700 47.10000
H  48.89400 0.46000 47.06800
H  49.14700 6.60900 46.71400
H  40.84500 5.44500 47.03000
H  40.74000 2.68200 46.29200
H  40.46800 4.17400 48.74400
H  41.61400 2.86700 49.05600
H  39.96400 2.47500 48.51100
H  40.52900 3.81700 44.62400
H  41.63700 5.12000 44.22600
H  39.27900 6.30000 45.54300
H  38.75600 5.27300 44.39800
H  43.87000 -2.57200 46.66600
H  42.76000 -1.21700 46.89200
H  43.43300 -2.01500 48.24200
H  48.78000 -2.96600 47.73400
H  48.83000 -1.46200 48.44100
H  48.80400 -1.53200 46.63200
H  50.52500 2.06100 46.05000
H  50.39000 4.66000 47.70300
H  51.33800 3.09500 48.43700
H  51.17300 1.36500 48.19400
H  49.96600 2.35000 49.08600
H  50.27100 5.25700 45.05900
H  51.37000 3.83600 45.15600
H  52.39600 5.59000 47.15700
H  52.40400 6.48200 45.67800
H  53.10000 5.04800 45.55900
H  48.62300 8.82900 46.42500
H  47.46300 9.68000 47.56200
H  47.35400 9.79700 45.73100
H  42.07100 7.84600 45.79600
H  40.14000 10.00900 49.12000
H  40.42700 8.57200 49.81200
H  39.10500 8.61800 48.57300
Mg 35.01300 48.66700 26.17200
C  35.37800 46.64700 28.99500
C  33.53600 51.12700 28.23200
C  34.02100 50.45400 23.44200
C  35.74300 45.92100 24.28800
N  34.67100 48.95300 28.38400
C  34.94000 47.97200 29.34600
C  34.66100 48.46700 30.78300
C  34.03300 49.87800 30.51200
C  34.12800 50.05000 28.95600
C  32.62000 50.12800 31.08000
C  35.85900 48.55900 31.74700
C  35.73900 48.19900 33.23900
H  36.04200 49.26700 34.31300
N  33.99100 50.53800 25.89000
C  33.49000 51.36200 26.89600
C  32.87300 52.46200 26.21200
C  32.99500 52.35100 24.79400
C  33.64900 51.06600 24.62900
C  32.33500 53.66700 26.96500
C  32.58300 53.20400 23.64700
O  32.72500 52.95300 22.50000
C  31.93300 54.62800 23.83400
N  35.00000 48.28400 24.13700
C  34.65100 49.21200 23.18100
C  34.73800 48.58300 21.79000
C  35.20600 47.19100 22.06400
C  35.42500 47.11400 23.58200
C  33.41300 48.68100 20.92800
C  36.43900 46.60000 21.24600
C  36.14900 45.43700 20.28700
N  35.84200 46.72300 26.49200
C  35.92300 45.62800 25.63000
C  36.16500 44.39200 26.37900
C  36.08000 44.78900 27.71600
C  35.77300 46.15900 27.73600
C  36.40300 43.01400 25.76700
C  36.19600 44.26400 29.09600
O  36.53800 43.12700 29.46700
C  35.73000 45.51800 30.01200
C  34.66700 45.04000 30.86400
O  33.54600 44.78400 30.49200
O  35.01900 44.89600 32.19200
C  33.99000 44.79200 33.19300
H  33.21600 52.02400 28.76600
H  33.50200 51.04500 22.68500
H  35.89700 45.05600 23.63900
H  33.89900 47.82200 31.22000
H  34.67000 50.60400 31.01800
H  32.13100 49.27200 31.54500
H  31.98300 50.50400 30.27900
H  32.54700 50.86900 31.87700
H  36.37400 49.51900 31.74600
H  36.58400 47.88100 31.29700
H  36.33500 47.31700 33.47100
H  34.73300 47.82500 33.43200
H  32.18300 54.60900 26.43800
H  33.02100 53.84700 27.79200
H  31.36100 53.31600 27.30300
H  31.68200 54.98500 22.83500
H  32.75900 55.16000 24.30700
H  31.07600 54.66100 24.50600
H  35.51800 49.13500 21.26500
H  34.36700 46.51900 21.88300
H  32.55100 48.81800 21.58100
H  33.27300 47.71500 20.44400
H  33.50000 49.47100 20.18100
H  37.20900 46.22800 21.92100
H  36.85100 47.41800 20.65600
H  36.25400 44.43600 20.70800
H  36.76400 45.50900 19.39000
H  35.14600 45.54300 19.87400
H  37.48900 42.93700 25.72600
H  36.04900 42.89200 24.74400
H  35.81500 42.26400 26.29700
H  36.55400 45.89300 30.61900
H  33.00200 45.05900 32.81900
H  34.23400 45.56000 33.92800
H  33.96700 43.91200 33.83500

