158

Mg 26.53600 49.66900 27.06000
C  24.49100 51.12500 29.60300
C  28.38100 48.11300 29.39600
C  28.51800 48.70800 24.52300
C  24.57300 51.43000 24.71700
N  26.28000 49.57800 29.21100
C  25.41800 50.24700 30.09400
C  25.67100 49.77400 31.54700
C  27.11900 49.06100 31.42200
C  27.22400 48.80400 29.88000
C  28.37500 49.75300 32.06400
C  24.49700 48.93100 32.17500
C  23.95800 49.38400 33.51500
H  24.17200 48.54000 34.74500
N  28.20500 48.56300 26.93200
C  28.89900 48.00700 28.05400
C  30.08800 47.34300 27.58500
C  30.19900 47.55900 26.18500
C  28.94300 48.29500 25.78200
C  30.99900 46.64700 28.43200
C  31.26600 47.21200 25.20100
O  31.21700 47.50700 24.02500
C  32.41600 46.35200 25.52800
N  26.50100 49.97500 24.94800
C  27.34900 49.35900 24.09500
C  27.06800 49.63100 22.57800
C  25.61300 50.18700 22.70000
C  25.51400 50.53600 24.22400
C  27.97800 50.75900 21.97600
C  24.45200 49.24700 22.21400
C  23.41600 49.78300 21.25100
N  24.87000 51.02100 27.11000
C  24.23600 51.67100 26.09000
C  23.19100 52.62400 26.70700
C  23.25400 52.36500 27.99600
C  24.28700 51.45000 28.24700
C  22.26800 53.54800 25.94300
C  22.61300 52.67200 29.24700
O  21.65100 53.36600 29.50100
C  23.41000 51.90100 30.38900
C  23.83100 52.96400 31.26400
O  24.84200 53.70200 31.15100
O  22.98100 52.93000 32.35100
C  23.26100 53.91100 33.40500
H  28.97200 47.67400 30.20300
H  29.16000 48.42100 23.68700
H  23.88000 51.84800 23.98400
H  25.90700 50.71500 32.04400
H  26.91000 48.08300 31.85500
H  28.90000 50.51400 31.48600
H  29.09500 48.99800 32.37800
H  28.12000 50.40500 32.89900
H  24.71100 47.86900 32.29600
H  23.66600 48.96000 31.47000
H  22.92800 49.73000 33.43000
H  24.42200 50.31600 33.84000
H  31.91700 47.23200 28.48800
H  31.11800 45.70400 27.89800
H  30.51700 46.47500 29.39400
H  32.02200 45.34000 25.62600
H  32.89200 46.67100 26.45500
H  33.08500 46.41900 24.67100
H  26.95600 48.66900 22.07900
H  25.54600 51.13800 22.17300
H  28.96300 50.64500 22.42800
H  27.58000 51.72200 22.29600
H  28.04500 50.56800 20.90600
H  24.13900 48.79400 23.15500
H  25.01100 48.49200 21.66200
H  23.56900 50.84900 21.08600
H  22.38100 49.65600 21.56900
H  23.44900 49.28400 20.28200
H  21.52800 52.98300 25.37600
H  22.90700 54.09500 25.25000
H  21.83700 54.24900 26.65800
H  22.74900 51.20900 30.91200
H  22.39600 53.88900 34.06700
H  23.24500 54.92000 32.99300
H  24.21300 53.78100 33.92000
Mg -3.00000 34.22700 26.42800
C  -4.76900 32.73800 29.11900
C  -2.18500 36.79700 28.67500
C  -1.20300 35.45700 24.10300
C  -4.23200 31.75900 24.30100
N  -3.55200 34.71500 28.64700
C  -4.15600 33.92000 29.53000
C  -4.13600 34.54900 30.92800
C  -3.43200 35.92900 30.69300
C  -3.07800 35.88300 29.21700
C  -4.16400 37.24900 31.17500
C  -3.35600 33.65800 32.04700
C  -3.18300 34.34800 33.35300
H  -3.49300 33.67900 34.69600
N  -1.79000 35.86700 26.43700
C  -1.61800 36.78400 27.36300
C  -0.71400 37.71000 26.89000
C  -0.30800 37.33500 25.61400
C  -1.15500 36.16600 25.33600
C  -0.26800 38.84300 27.71100
C  0.77600 38.04000 24.73700
O  1.03500 37.63700 23.65300
C  1.51700 39.24400 25.26700
N  -2.63600 33.66400 24.56300
C  -1.82000 34.25900 23.74400
C  -1.65200 33.60300 22.33600
C  -2.71600 32.53100 22.34700
C  -3.21400 32.61800 23.88800
C  -1.65400 34.63200 21.14800
C  -2.24000 31.18600 21.82400
C  -3.13600 30.56800 20.73200
N  -4.23200 32.64300 26.64500
C  -4.71600 31.71300 25.63700
C  -5.63600 30.76800 26.26000
C  -5.63800 31.15000 27.61300
C  -4.78500 32.29900 27.75800
C  -6.48200 29.68800 25.61100
C  -6.20200 30.74100 28.93300
O  -6.99300 29.88000 29.26100
C  -5.58400 31.75500 29.94400
C  -6.70400 32.36200 30.66400
O  -7.57600 32.99400 30.14100
O  -6.47900 32.34100 32.01800
C  -7.36800 33.05100 32.96100
H  -1.73800 37.38700 29.47800
H  -0.48000 35.86700 23.39500
H  -4.73300 31.08000 23.60900
H  -5.15800 34.80500 31.20700
H  -2.47500 35.95800 31.21300
H  -5.17100 37.01000 31.51600
H  -4.31000 37.93900 30.34400
H  -3.55800 37.77300 31.91400
H  -2.39400 33.34400 31.64200
H  -3.86600 32.71000 32.21900
H  -3.68100 35.31700 33.38900
H  -2.12100 34.57900 33.44300
H  -0.48600 39.73200 27.11800
H  0.77600 38.77900 28.01800
H  -0.75600 39.03100 28.66700
H  2.27100 39.49900 24.52300
H  1.94800 39.00800 26.24000
H  0.85300 40.10900 25.25200
H  -0.66600 33.15900 22.47400
H  -3.53900 32.80400 21.68700
H  -2.19000 35.49100 21.55000
H  -2.22100 34.24300 20.30100
H  -0.63400 34.95200 20.93200
H  -2.26600 30.45300 22.63000
H  -1.19300 31.20500 21.52400
H  -3.20300 29.48700 20.85500
H  -2.83600 30.76500 19.70300
H  -4.12300 31.01200 20.86200
H  -5.98400 29.25100 24.74600
H  -7.41000 30.13500 25.25700
H  -6.71900 28.90700 26.33400
H  -4.90300 31.16500 30.55500
H  -6.99600 34.06400 33.11200
H  -7.38200 32.46000 33.87700
H  -8.41900 33.06700 32.67300

