158

Mg 49.70200 45.44500 42.57600
C  46.21900 45.30700 41.37000
C  49.55300 42.06400 42.33500
C  52.83800 45.67700 42.83900
C  49.19600 48.82300 42.46700
N  48.01700 43.91000 41.89800
C  46.79100 44.05200 41.41600
C  46.06400 42.75400 41.15400
C  47.10400 41.71400 41.70500
C  48.26900 42.58900 42.00200
C  46.56000 40.98900 43.06300
C  45.59300 42.53100 39.70600
C  46.67300 42.78000 38.66600
H  46.12700 43.43400 37.35100
N  51.09100 43.98000 42.71300
C  50.83800 42.64600 42.50800
C  52.08600 41.99100 42.58300
C  53.16400 43.00200 42.74600
C  52.41400 44.29300 42.78800
C  52.13300 40.41100 42.67500
C  54.59300 42.80000 42.86200
O  55.03900 41.62000 42.97500
C  55.69300 43.95900 42.89300
N  50.92200 47.05400 42.48800
C  52.21200 46.93000 42.84400
C  52.84200 48.30300 42.92500
C  51.56800 49.25200 43.17000
C  50.48500 48.32600 42.63800
C  53.77600 48.44400 44.17700
C  51.66500 50.63500 42.38700
C  51.14100 51.78800 43.30100
N  48.07400 46.87800 42.07000
C  48.04300 48.19600 42.05800
C  46.75500 48.76000 41.61300
C  46.05900 47.56500 41.33900
C  46.85400 46.47500 41.74400
C  46.48600 50.17500 41.49300
C  44.71100 47.18800 40.96100
O  43.72700 47.84200 40.62100
C  44.71800 45.68600 41.02300
C  43.65300 45.11700 41.95200
O  42.49600 44.92300 41.68200
O  44.25500 44.96600 43.15100
C  43.42200 44.47600 44.27500
H  49.60200 41.00000 42.09500
H  53.88000 45.68500 43.16300
H  49.04300 49.90000 42.55600
H  45.17000 42.74000 41.77800
H  47.35100 40.90600 41.01600
H  45.48200 40.83500 43.09700
H  46.88700 41.58200 43.91700
H  46.97500 39.98100 43.06300
H  44.72700 43.17800 39.56900
H  45.26100 41.51100 39.51200
H  47.06800 41.81000 38.36600
H  47.54600 43.34100 39.00000
H  52.83900 40.20500 41.87000
H  51.18400 39.90500 42.49700
H  52.48700 40.22400 43.68900
H  55.59200 44.53900 41.97600
H  56.63200 43.41500 42.79100
H  55.69100 44.44400 43.86900
H  53.32500 48.51200 41.97000
H  51.33500 49.27600 44.23400
H  54.48000 47.62100 44.29700
H  53.27600 48.53000 45.14200
H  54.44700 49.26600 43.93000
H  51.00100 50.50300 41.53300
H  52.67500 50.82000 42.02200
H  50.13000 51.97400 42.94100
H  51.74100 52.68600 43.15600
H  51.09300 51.59400 44.37200
H  45.65600 50.20300 40.78700
H  47.32800 50.65300 40.99400
H  46.24900 50.64300 42.44900
H  44.44600 45.32600 40.03000
H  43.90400 43.54700 44.57900
H  42.38800 44.20900 44.05600
H  43.41900 45.02000 45.21900
Mg 43.09600 42.28900 26.48200
C  42.50300 44.73100 28.98100
C  44.51100 40.16900 28.76400
C  43.71100 40.16100 24.02000
C  42.56100 44.89400 24.07200
N  43.64200 42.56100 28.59300
C  43.05100 43.51500 29.47100
C  43.12300 42.99000 30.87800
C  44.18200 41.79200 30.77900
C  44.03600 41.43400 29.27700
C  45.62000 42.18500 31.01100
C  41.69300 42.66300 31.39400
C  41.27800 43.22200 32.73400
H  42.13500 42.96000 33.95900
N  43.96000 40.44000 26.43700
C  44.43600 39.70000 27.46200
C  44.74000 38.38300 27.06100
C  44.41400 38.31500 25.67200
C  43.98900 39.61800 25.31300
C  45.42000 37.30000 27.96500
C  44.55100 37.09800 24.69300
O  44.57500 37.16900 23.49300
C  44.98700 35.79800 25.31600
N  43.17400 42.57300 24.37500
C  43.33800 41.46200 23.59500
C  43.11700 41.82900 22.04000
C  42.55400 43.26200 22.20800
C  42.69200 43.60700 23.65500
C  44.47600 41.78800 21.34800
C  41.17000 43.42600 21.60300
C  40.04000 42.61800 22.34500
N  42.56100 44.30900 26.47500
C  42.49800 45.23100 25.41500
C  42.14600 46.54000 25.88400
C  41.99900 46.32400 27.26100
C  42.40900 44.98900 27.57800
C  41.97500 47.83300 25.02600
C  41.64900 46.99500 28.49000
O  41.19800 48.09800 28.72800
C  41.86200 45.90300 29.71300
C  42.73000 46.57900 30.67400
O  43.88100 46.90400 30.40900
O  42.09000 46.70500 31.86100
C  42.71200 47.78300 32.78400
H  44.83800 39.44700 29.51600
H  43.90200 39.54500 23.14000
H  42.31200 45.70700 23.38700
H  43.56100 43.80600 31.45200
H  43.92400 40.87900 31.31400
H  46.39600 41.77700 30.36300
H  45.86400 42.00700 32.05800
H  45.64400 43.27000 30.91400
H  41.60300 41.58500 31.53000
H  41.01300 43.09400 30.65900
H  40.20400 43.04700 32.80200
H  41.35200 44.28900 32.52400
H  45.49400 37.70400 28.97400
H  46.45200 37.30300 27.61600
H  44.93400 36.33400 28.11000
H  45.08900 35.06400 24.51600
H  44.50000 35.29900 26.15400
H  46.03700 35.98400 25.54000
H  42.44400 41.07900 21.62600
H  43.26300 43.96500 21.77200
H  45.30500 41.68400 22.04800
H  44.65700 42.73500 20.84000
H  44.46400 41.02000 20.57500
H  41.09400 42.98900 20.60800
H  40.82300 44.45100 21.47200
H  39.15100 43.12000 22.72900
H  40.51300 41.93300 23.04800
H  39.62100 41.88200 21.65900
H  42.84900 47.99100 24.39300
H  41.78200 48.65600 25.71300
H  41.10000 47.67800 24.39600
H  40.88000 45.68700 30.13400
H  43.09300 48.58900 32.15700
H  43.55200 47.36200 33.33600
H  41.97700 48.24500 33.44400

