158

Mg 1.82700 -2.64100 44.34800
C  5.39700 -2.47000 43.82800
C  1.60000 0.19900 42.33900
C  -1.33500 -3.32700 44.05200
C  2.38600 -5.86900 45.71600
N  3.44100 -1.26700 43.26100
C  4.83900 -1.42700 43.14000
C  5.41000 -0.36800 42.15700
C  4.17400 0.50900 41.75200
C  2.94200 -0.19400 42.50100
C  4.31800 2.03700 42.05300
C  6.27600 -1.02900 40.94100
C  7.62900 -0.43000 40.58500
H  7.68800 0.86600 39.83000
N  0.22800 -1.61600 43.51300
C  0.38400 -0.43300 42.78000
C  -0.94000 0.03000 42.43800
C  -1.91000 -0.94100 42.83400
C  -1.03100 -1.97500 43.54000
C  -1.03500 1.44200 41.87300
C  -3.39900 -0.87700 42.66300
O  -3.96800 0.04200 42.10000
C  -4.30500 -1.79900 43.30000
N  0.75100 -4.35900 44.84000
C  -0.58100 -4.34600 44.67600
C  -1.16100 -5.67200 45.16600
C  0.04700 -6.57900 45.46600
C  1.11400 -5.57400 45.34000
C  -2.28700 -5.45100 46.32800
C  0.23900 -7.79300 44.52700
C  0.65800 -9.15000 45.28900
N  3.48200 -3.83600 44.93600
C  3.57400 -5.13000 45.35800
C  4.97000 -5.49900 45.59400
C  5.65800 -4.42700 45.13500
C  4.74900 -3.49300 44.55000
C  5.44400 -6.81200 46.15600
C  7.04500 -4.03800 44.91500
O  8.02000 -4.56500 45.23000
C  6.92500 -2.78200 43.85800
C  7.68900 -1.59100 44.31700
O  7.30600 -0.64300 44.97000
O  8.98200 -1.63100 43.80300
C  9.77700 -0.43700 43.91200
H  1.51400 1.04500 41.65500
H  -2.35700 -3.67900 43.89700
H  2.55200 -6.87600 46.10300
H  6.09300 0.28400 42.70200
H  3.84600 0.48700 40.71300
H  5.33800 2.29600 42.33700
H  3.61700 2.28000 42.85100
H  3.99800 2.63200 41.19800
H  5.64200 -1.02900 40.05400
H  6.46600 -2.07800 41.16700
H  8.12200 -1.18300 39.97000
H  8.27600 -0.30100 41.45200
H  -2.07100 1.64100 41.59800
H  -0.46300 1.42000 40.94600
H  -0.54100 2.18100 42.50500
H  -5.37900 -1.65200 43.19000
H  -3.91800 -1.98400 44.30300
H  -4.13500 -2.70700 42.72100
H  -1.64800 -6.04800 44.26600
H  0.00400 -6.90800 46.50400
H  -2.67100 -4.44000 46.19000
H  -1.86300 -5.35400 47.32700
H  -3.01600 -6.25100 46.19800
H  1.05500 -7.58700 43.83400
H  -0.69900 -8.01200 44.01700
H  -0.11800 -9.91500 45.24700
H  0.84600 -9.14300 46.36200
H  1.60500 -9.44200 44.83500
H  5.57700 -6.75400 47.23600
H  6.44800 -7.02400 45.78800
H  4.71200 -7.58000 45.90900
H  7.26000 -3.07700 42.86300
H  10.32900 -0.44900 44.85200
H  9.15800 0.45500 43.82500
H  10.61300 -0.46900 43.21200
Mg 48.09600 45.27000 42.86500
C  44.59200 45.26900 42.12400
C  48.26800 42.22500 41.37600
C  51.44800 45.81300 42.54900
C  47.70000 48.61100 43.88100
N  46.59400 43.94100 41.75400
C  45.25300 44.15800 41.65300
C  44.67600 43.05400 40.68600
C  45.72500 41.91300 40.76800
C  46.94200 42.67300 41.38400
C  45.36400 40.61500 41.47600
C  44.64500 43.69400 39.30000
C  43.25900 43.67400 38.55000
H  43.22300 43.47200 37.04900
N  49.69200 44.11000 42.25100
C  49.52400 42.83200 41.75100
C  50.85200 42.21500 41.68600
C  51.84900 43.24100 42.04100
C  51.02200 44.47500 42.28100
C  51.10200 40.70300 41.39300
C  53.31400 43.11000 42.09500
O  53.79200 42.05300 41.83900
C  54.33500 44.27100 42.28400
N  49.40900 47.18800 42.77300
C  50.72300 46.99100 42.82300
C  51.45100 48.29000 43.24200
C  50.24700 49.25700 43.65200
C  49.04200 48.24200 43.50800
C  52.44000 48.11300 44.40900
C  49.99000 50.60900 42.80600
C  49.38000 51.78000 43.56100
N  46.51000 46.65100 43.11700
C  46.49800 47.91800 43.65400
C  45.13200 48.30000 43.89300
C  44.42100 47.31600 43.18500
C  45.28300 46.35900 42.76300
C  44.70300 49.53600 44.75000
C  43.05500 46.99000 42.78700
O  41.98400 47.53000 43.02400
C  43.12500 45.70400 41.95100
C  42.09100 44.73700 42.54600
O  41.44400 43.95600 41.84700
O  42.15700 44.64200 43.87100
C  41.24900 43.72500 44.58600
H  48.47300 41.19300 41.08400
H  52.53600 45.89000 42.50800
H  47.63600 49.63200 44.26100
H  43.65800 42.86300 41.02500
H  46.06200 41.59200 39.78200
H  45.57600 39.76700 40.82400
H  44.30500 40.56900 41.73300
H  45.98800 40.72000 42.36300
H  45.28700 43.12500 38.62700
H  44.98300 44.72100 39.16200
H  42.63800 44.51700 38.85400
H  42.87000 42.78800 39.05000
H  51.91900 40.63800 40.67500
H  50.23400 40.28300 40.88500
H  51.34100 40.13000 42.28900
H  54.12900 44.86300 41.39300
H  55.36100 43.90500 42.24200
H  54.19700 44.81300 43.21900
H  51.86400 48.82200 42.38500
H  50.21600 49.46400 44.72100
H  53.27000 47.50200 44.05300
H  51.99100 47.43500 45.13400
H  52.85000 49.09100 44.66200
H  49.46100 50.40600 41.87400
H  51.01900 50.88400 42.57500
H  48.45100 52.20800 43.18500
H  50.08200 52.61100 43.63200
H  49.27300 51.53700 44.61800
H  45.22000 49.54900 45.71000
H  43.66000 49.35400 45.00600
H  44.99300 50.44500 44.22200
H  42.82500 45.85200 40.91300
H  40.30900 43.47700 44.09100
H  41.05000 44.25400 45.51800
H  41.64000 42.75800 44.90100

