158

Mg 24.45500 -6.77500 47.95500
C  26.87700 -4.30300 47.12200
C  22.43800 -5.55800 45.33900
C  22.41400 -9.30500 48.60100
C  27.05400 -8.47300 49.79300
N  24.73600 -5.21700 46.28600
C  25.75700 -4.29600 46.26900
C  25.45600 -3.32700 45.16600
C  23.93200 -3.59200 44.73200
C  23.70900 -4.91700 45.48000
C  22.97100 -2.48900 45.06300
C  26.48200 -3.50400 44.00500
C  27.20600 -2.24600 43.50000
H  26.86400 -1.71600 42.11300
N  22.65900 -7.33300 47.22700
C  22.00100 -6.70900 46.12200
C  20.71500 -7.34500 46.08400
C  20.61500 -8.43800 46.97700
C  21.88500 -8.38200 47.70800
C  19.65700 -6.88200 45.07400
C  19.39800 -9.39400 47.13300
O  18.38500 -9.18200 46.45700
C  19.46800 -10.66300 47.99000
N  24.84200 -8.81600 48.77800
C  23.69900 -9.48600 49.15000
C  23.98100 -10.57200 50.21400
C  25.50300 -10.49100 50.38800
C  25.85500 -9.19600 49.62500
C  23.18000 -10.24100 51.49600
C  26.27300 -11.67700 49.88200
C  26.96800 -12.60900 50.88600
N  26.50400 -6.45900 48.49800
C  27.40600 -7.24300 49.28600
C  28.65100 -6.49700 49.40400
C  28.46800 -5.34600 48.66000
C  27.13600 -5.35300 48.10900
C  29.88700 -6.77400 50.26600
C  29.05800 -3.97600 48.28200
O  30.06800 -3.35500 48.63600
C  28.04000 -3.35800 47.24700
C  27.59600 -1.98700 47.75900
O  27.32100 -1.77200 48.94300
O  27.51800 -1.03000 46.76400
C  27.08600 0.24500 47.32000
H  21.72700 -5.24900 44.57000
H  21.69900 -10.03700 48.98200
H  27.88300 -8.85700 50.39300
H  25.59900 -2.32200 45.56400
H  23.81300 -3.68000 43.65200
H  23.38300 -1.59300 45.52800
H  22.15100 -2.90300 45.64800
H  22.60200 -2.07100 44.12600
H  25.95700 -3.92600 43.14900
H  27.22900 -4.28300 44.15800
H  28.28600 -2.39500 43.50100
H  27.01200 -1.35800 44.10200
H  19.82000 -5.82500 44.86500
H  18.69600 -7.03200 45.56600
H  19.67600 -7.41200 44.12200
H  20.42400 -11.11500 47.72500
H  18.59800 -11.28500 47.78100
H  19.55500 -10.38200 49.04000
H  23.71100 -11.53100 49.77200
H  25.63600 -10.24800 51.44300
H  22.52100 -9.38800 51.33600
H  23.75500 -10.23100 52.42300
H  22.48400 -11.07700 51.56000
H  27.01800 -11.23000 49.22400
H  25.69000 -12.42400 49.34300
H  26.24000 -13.38600 51.12100
H  27.16300 -12.05900 51.80700
H  27.85900 -13.15500 50.57800
H  30.78200 -6.68000 49.65100
H  29.99300 -7.79300 50.63900
H  30.04800 -6.08800 51.09800
H  28.40400 -3.28700 46.22200
H  26.56500 0.30800 48.27500
H  26.39900 0.62300 46.56300
H  27.90800 0.95400 47.41700
Mg 36.24100 0.96500 29.84700
C  34.24200 2.14300 32.58800
C  38.81400 0.71700 31.97500
C  37.96500 -0.06900 27.29100
C  33.43300 1.54500 27.77600
N  36.46100 1.31900 32.08200
C  35.45200 1.70200 33.05600
C  36.08200 1.67300 34.35700
C  37.59700 1.52900 34.14000
C  37.69000 1.13300 32.67000
C  38.39300 2.73600 34.59700
C  35.41300 0.52100 35.15900
C  35.08200 0.86700 36.60000
H  36.05000 1.76200 37.32700
N  38.20800 0.51500 29.67400
C  39.14800 0.40800 30.64900
C  40.38300 -0.15000 30.08800
C  40.11100 -0.29400 28.63500
C  38.67800 0.04800 28.47600
C  41.60900 -0.36000 30.96700
C  41.04500 -0.69200 27.43600
O  40.65900 -0.92800 26.27600
C  42.43100 -0.98100 27.75000
N  35.71400 0.78000 27.82700
C  36.65000 0.26700 27.01900
C  36.12100 0.39800 25.53200
C  34.65900 0.68400 25.73700
C  34.57600 1.05800 27.16800
C  37.02400 1.33900 24.62400
C  33.56700 -0.29400 25.13800
C  32.29300 0.24200 24.62400
N  34.27000 1.71500 30.03300
C  33.21300 1.81600 29.12600
C  32.05200 2.25400 29.80000
C  32.40900 2.26800 31.17900
C  33.77300 2.03500 31.25200
C  30.75800 2.59700 29.13100
C  31.87900 2.74900 32.43300
O  30.82300 3.26200 32.77400
C  33.07300 2.55400 33.40400
C  33.34700 3.75200 34.20500
O  33.55400 4.89800 33.78300
O  33.29800 3.35600 35.49800
C  33.54800 4.48100 36.44900
H  39.63600 0.63500 32.68900
H  38.54600 -0.47400 26.46000
H  32.68100 1.81900 27.03300
H  35.81900 2.59300 34.87800
H  37.86000 0.69300 34.78800
H  37.98300 3.39200 35.36500
H  38.50400 3.40900 33.74800
H  39.35900 2.37600 34.95300
H  35.99600 -0.40000 35.18200
H  34.52900 0.19500 34.61200
H  34.85700 -0.04800 37.14900
H  34.12200 1.38300 36.58000
H  42.17200 0.57100 31.04100
H  42.21000 -1.21600 30.66100
H  41.27000 -0.69500 31.94700
H  43.00300 -0.90000 26.82500
H  42.35100 -1.97700 28.18600
H  42.74500 -0.31000 28.55000
H  36.08300 -0.55000 24.99300
H  34.45700 1.69200 25.37400
H  37.83300 1.72500 25.24400
H  36.50500 2.23200 24.27500
H  37.45600 0.72800 23.83100
H  33.36700 -0.97400 25.96600
H  34.08000 -0.70400 24.26900
H  32.45300 0.06300 23.56100
H  32.14700 1.31700 24.72400
H  31.43200 -0.19300 25.13200
H  29.86200 2.47300 29.73800
H  30.55400 2.05200 28.20900
H  30.73700 3.65500 28.87100
H  32.73200 1.78600 34.09700
H  34.47200 5.00800 36.21100
H  33.39800 4.06800 37.44600
H  32.66800 5.11200 36.33100

