158

Mg 3.47600 1.06200 44.35200
C  6.22600 3.25800 43.84700
C  1.53200 3.50200 42.71100
C  1.15700 -1.22200 43.80600
C  5.84900 -1.39100 45.26100
N  3.88500 3.03000 43.26000
C  5.00100 3.71500 43.36900
C  4.81500 5.11200 42.74300
C  3.31700 5.26900 42.80600
C  2.85800 3.86100 42.85700
C  2.74800 6.11300 43.97300
C  5.35500 5.25500 41.34200
C  5.42400 3.96700 40.51300
H  5.67000 4.10400 39.01400
N  1.59200 1.16000 43.52700
C  0.94400 2.25000 42.99900
C  -0.44700 1.93100 42.85600
C  -0.58400 0.54400 43.17200
C  0.75600 0.07400 43.57300
C  -1.43600 2.91800 42.29900
C  -1.90300 -0.26500 43.15100
O  -2.94900 0.22000 42.77400
C  -1.95900 -1.67600 43.41600
N  3.59100 -1.03100 44.38900
C  2.44600 -1.78500 44.16600
C  2.57600 -3.30900 44.57400
C  3.99400 -3.26300 45.23700
C  4.60300 -1.87600 44.90300
C  1.44100 -3.80100 45.50500
C  4.82400 -4.50300 44.86100
C  5.43200 -5.25100 45.99800
N  5.66100 0.95000 44.56500
C  6.44300 -0.13000 44.99300
C  7.82300 0.32900 44.94500
C  7.72100 1.69400 44.58200
C  6.43400 2.00900 44.30700
C  9.08400 -0.43800 45.44800
C  8.52600 2.87100 44.39800
O  9.76200 3.02400 44.44900
C  7.57600 3.92100 43.83800
C  7.63300 5.21900 44.58600
O  8.12200 6.27600 44.25600
O  6.94000 4.95300 45.79000
C  6.57500 6.20700 46.52500
H  0.85600 4.28000 42.34800
H  0.45700 -2.04000 43.62300
H  6.52100 -2.16900 45.62900
H  5.33200 5.90900 43.27700
H  2.81000 5.69300 41.93900
H  2.54900 7.15100 43.70700
H  3.38500 6.29400 44.83900
H  1.82100 5.76100 44.42500
H  6.31300 5.75500 41.48900
H  4.75100 5.94200 40.74900
H  4.45600 3.46700 40.55600
H  6.24600 3.31700 40.81200
H  -1.43100 2.98800 41.21100
H  -1.19100 3.91800 42.65700
H  -2.47900 2.70500 42.53400
H  -1.74100 -2.10700 44.39300
H  -1.40600 -2.11200 42.58300
H  -2.96400 -2.08900 43.32300
H  2.63400 -3.91000 43.66600
H  3.87100 -3.09100 46.30700
H  0.54200 -4.09400 44.96300
H  1.16000 -2.99200 46.18000
H  1.70000 -4.66700 46.11400
H  5.65300 -4.15300 44.24600
H  4.25600 -5.16200 44.20500
H  5.30300 -6.26600 45.62200
H  4.96800 -5.10100 46.97300
H  6.51900 -5.18800 46.04400
H  9.76100 -0.74400 44.65000
H  8.80100 -1.31800 46.02600
H  9.59900 0.12700 46.22500
H  8.06600 4.11200 42.88400
H  5.69400 5.92800 47.10300
H  6.43100 7.00700 45.79900
H  7.34200 6.40500 47.27400
Mg 53.33800 23.37800 43.74600
C  50.42800 25.38900 43.54000
C  51.40300 20.76600 42.70900
C  56.17100 21.67600 43.48600
C  55.28100 26.43900 44.05300
N  51.13400 23.08700 43.13700
C  50.13200 24.03900 43.21100
C  48.73200 23.35300 43.14800
C  49.08100 21.83800 43.24000
C  50.63200 21.87200 43.01000
C  48.61800 21.17000 44.50700
C  47.77700 23.90000 42.04000
C  48.32000 24.19600 40.58400
H  47.78100 23.41000 39.39000
N  53.73900 21.48200 43.14800
C  52.80800 20.50500 42.80700
C  53.52600 19.26100 42.72700
C  54.90800 19.50800 42.91000
C  55.00500 20.90600 43.22600
C  52.87500 17.94800 42.26100
C  56.02700 18.48100 42.80200
O  55.82500 17.37100 42.50200
C  57.48300 18.82000 42.99200
N  55.36200 23.99300 43.72000
C  56.39100 23.05800 43.70900
C  57.75300 23.63400 43.92700
C  57.43500 25.21200 43.88200
C  55.89600 25.24900 43.88700
C  58.53300 23.16700 45.17600
C  58.16200 25.94000 42.68700
C  57.62200 25.57300 41.26000
N  53.01000 25.53100 43.94400
C  53.83900 26.60000 44.05700
C  52.98500 27.78500 44.37700
C  51.65100 27.35400 44.14800
C  51.70900 25.93600 43.86700
C  53.46300 29.17200 44.85400
C  50.26700 27.74100 44.13500
O  49.66300 28.73000 44.47500
C  49.48500 26.51000 43.51400
C  49.09700 26.96500 42.18300
O  49.90100 27.23000 41.20400
O  47.82600 27.34900 42.24000
C  47.15200 27.71400 40.98700
H  50.64700 20.01800 42.46100
H  57.15300 21.20300 43.42300
H  55.89400 27.33200 44.18900
H  48.17900 23.63000 44.04600
H  48.64700 21.32100 42.38400
H  49.46200 20.93100 45.15300
H  47.94700 20.35600 44.23200
H  48.05000 21.85900 45.13200
H  47.25600 24.79900 42.36900
H  46.95300 23.20700 41.86900
H  49.40500 24.12600 40.50400
H  47.97900 25.21200 40.38100
H  53.14900 17.86100 41.21000
H  51.78600 17.92900 42.27000
H  53.32000 17.15200 42.85900
H  57.75300 19.52400 42.20500
H  58.17100 17.97900 42.90000
H  57.61600 19.27200 43.97500
H  58.33500 23.26800 43.08100
H  57.75900 25.67200 44.81500
H  59.47100 22.77600 44.78100
H  57.90600 22.48400 45.74900
H  58.92700 23.99200 45.77000
H  59.21900 25.68800 42.77000
H  57.88800 26.99300 42.74100
H  58.48300 25.24600 40.67600
H  57.19400 26.47000 40.81300
H  56.91000 24.74900 41.21200
H  54.52900 29.07900 45.06500
H  52.86300 29.33900 45.74800
H  53.24500 29.83600 44.01800
H  48.63800 26.40600 44.19200
H  47.71100 27.48500 40.08000
H  46.94900 28.78400 41.03500
H  46.24500 27.10900 41.00000

