158

Mg 35.49000 0.79400 29.91800
C  33.28100 2.15700 32.18700
C  37.92000 1.15500 32.39100
C  37.78800 -0.36900 27.77100
C  33.16600 0.91300 27.41700
N  35.57800 1.52000 32.03700
C  34.48500 1.92400 32.76500
C  34.82800 2.11800 34.23400
C  36.37000 2.14900 34.14700
C  36.66100 1.65800 32.72100
C  37.04600 3.40000 34.53500
C  34.15700 0.92800 34.89500
C  33.49700 1.30200 36.18500
H  34.24400 2.22100 37.15500
N  37.55400 0.47400 29.97600
C  38.37900 0.67500 31.10000
C  39.67100 0.14700 30.84700
C  39.70000 -0.19600 29.44000
C  38.31600 -0.04500 28.96300
C  40.73100 -0.22200 31.85800
C  40.83100 -0.73800 28.57100
O  40.63500 -1.13400 27.44200
C  42.27800 -0.85900 29.15900
N  35.45200 0.32800 27.89300
C  36.53500 -0.25800 27.22500
C  36.20100 -0.51500 25.76100
C  34.66900 -0.28600 25.71100
C  34.39500 0.30700 27.15200
C  37.06100 0.46800 24.89400
C  33.69500 -1.37300 25.27900
C  33.31300 -2.39900 26.30300
N  33.58200 1.41800 29.70600
C  32.69400 1.34500 28.67200
C  31.50100 1.99500 29.11500
C  31.61400 2.24500 30.53300
C  32.95800 1.93700 30.85200
C  30.31300 2.42800 28.20300
C  30.94800 2.88100 31.66100
O  29.83400 3.47300 31.73500
C  31.99900 2.67300 32.87700
C  32.22600 4.00900 33.54500
O  32.79800 5.00500 33.08200
O  31.50800 4.02600 34.69600
C  31.63800 5.25900 35.46100
H  38.67500 1.29700 33.16700
H  38.49800 -0.64200 26.98700
H  32.43600 0.90800 26.60500
H  34.41300 3.05500 34.60600
H  36.71700 1.32200 34.76700
H  37.75600 3.22200 35.34200
H  36.27400 4.02300 34.98600
H  37.34000 3.90600 33.61500
H  34.86900 0.17100 35.22500
H  33.54200 0.29300 34.25700
H  33.25600 0.33700 36.63200
H  32.50900 1.69700 35.94600
H  40.64700 -1.28800 32.06900
H  40.76800 0.38300 32.76400
H  41.73300 0.01300 31.50000
H  42.53400 0.11100 29.58500
H  42.87200 -1.11100 28.28000
H  42.34300 -1.76900 29.75600
H  36.44300 -1.56900 25.62300
H  34.48600 0.57900 25.07400
H  38.13900 0.45000 25.05500
H  36.67300 1.47900 25.01600
H  36.78000 0.21300 23.87200
H  34.02300 -1.88800 24.37600
H  32.75900 -0.88600 25.00300
H  33.79300 -2.26900 27.27300
H  33.48100 -3.39100 25.88400
H  32.24300 -2.29700 26.48500
H  29.69700 3.12300 28.77400
H  29.86400 1.52100 27.79900
H  30.81900 2.90200 27.36300
H  31.69000 1.93200 33.61500
H  32.68000 5.22700 35.77800
H  30.96200 5.22600 36.31600
H  31.40000 6.11600 34.83100
Mg 53.24600 23.20300 44.25600
C  50.91000 25.56200 43.42600
C  51.02700 20.79000 43.09800
C  55.66400 20.88800 44.77200
C  55.45300 25.78300 45.00400
N  51.28500 23.22900 43.03900
C  50.53000 24.29600 42.92700
C  49.18100 23.87700 42.32600
C  48.99000 22.37800 42.65600
C  50.51600 22.11000 43.05500
C  48.08700 22.06700 43.83000
C  49.18100 24.12600 40.70900
C  47.74000 24.33600 40.11800
H  47.15800 23.24700 39.25700
N  53.36800 21.15900 43.90600
C  52.35500 20.35300 43.46200
C  52.71200 18.98100 43.52900
C  54.06400 18.97300 43.94000
C  54.44200 20.37900 44.25700
C  51.75000 17.79400 43.14800
C  54.86600 17.73500 43.90500
O  54.37700 16.70500 43.56300
C  56.27900 17.71100 44.27700
N  55.35500 23.26800 44.71500
C  56.11700 22.20800 44.96400
C  57.54600 22.64800 45.41400
C  57.42100 24.23400 45.55300
C  56.01800 24.48100 45.04800
C  58.20200 22.00100 46.61300
C  58.51600 25.08800 44.83800
C  59.70900 25.39400 45.80000
N  53.26500 25.23200 44.32000
C  54.21700 26.15700 44.72200
C  53.71100 27.44200 44.61100
C  52.38400 27.25800 44.17000
C  52.19700 25.91500 43.94200
C  54.35000 28.76400 44.89400
C  51.17900 27.93800 43.82000
O  50.90600 29.10900 43.92300
C  50.11800 26.86900 43.41700
C  49.57900 27.12700 42.05700
O  50.18200 27.32800 41.04600
O  48.21300 27.10500 42.18900
C  47.41500 27.78100 41.14900
H  50.22700 20.09100 42.84700
H  56.50200 20.18800 44.77400
H  56.05500 26.57100 45.46100
H  48.22700 24.31400 42.62000
H  48.77700 21.81900 41.74400
H  48.70000 21.59700 44.59900
H  47.30800 21.41700 43.43100
H  47.65900 22.96600 44.27500
H  49.57700 23.25100 40.19300
H  49.78000 24.98400 40.40100
H  47.75700 25.30700 39.62500
H  47.03500 24.45700 40.94100
H  52.10200 17.06300 42.42100
H  50.76800 18.12900 42.81400
H  51.49800 17.41400 44.13800
H  56.77000 17.94800 43.33400
H  56.51800 16.65700 44.42200
H  56.55600 18.25700 45.17900
H  58.20100 22.37000 44.58800
H  57.42200 24.43900 46.62300
H  57.70500 21.09000 46.94500
H  58.44500 22.58900 47.49900
H  59.23700 21.77600 46.35600
H  58.00400 26.01900 44.59400
H  58.85300 24.71300 43.87200
H  59.54000 24.90900 46.76100
H  59.79400 26.47500 45.91100
H  60.58400 24.97600 45.30300
H  54.10300 29.08100 45.90700
H  54.01500 29.55500 44.22200
H  55.43700 28.68600 44.87400
H  49.35300 26.80600 44.19000
H  46.90100 27.09300 40.47800
H  47.92600 28.59600 40.63500
H  46.60100 28.20400 41.73800

