158

Mg 0.31400 7.26500 25.78800
C  1.16800 9.41200 28.73000
C  0.90000 4.62100 27.93900
C  0.08200 5.48900 23.20500
C  0.48000 10.25400 23.89000
N  1.03600 7.10300 28.05500
C  1.11500 8.02500 29.04400
C  1.23100 7.47000 30.44000
C  1.38600 5.95000 30.08400
C  1.12900 5.85900 28.56200
C  2.78800 5.30900 30.44400
C  -0.07900 7.84800 31.27000
C  -0.09600 7.53800 32.73600
H  1.29700 7.39900 33.43100
N  0.46600 5.30900 25.63400
C  0.60200 4.34700 26.60200
C  0.46600 3.07600 25.98800
C  0.05900 3.31900 24.65600
C  0.19500 4.74500 24.41900
C  0.92500 1.80400 26.71500
C  -0.18800 2.20700 23.63100
O  -0.19900 2.49900 22.47500
C  -0.36100 0.74400 23.87000
N  0.47600 7.83700 23.84800
C  0.15500 6.84300 22.93800
C  -0.26000 7.46300 21.57600
C  -0.23200 8.99500 21.83000
C  0.23300 9.07700 23.26000
C  0.53900 6.93500 20.33200
C  -1.56800 9.80000 21.59400
C  -1.34000 11.09700 20.74800
N  0.69100 9.45900 26.19700
C  0.77300 10.48400 25.24000
C  1.08400 11.73200 25.93800
C  1.16500 11.30200 27.24400
C  1.03100 9.93900 27.40700
C  1.20300 13.09400 25.25100
C  1.47700 11.81800 28.56300
O  1.81400 12.92400 28.86400
C  1.40500 10.59900 29.63800
C  2.71200 10.57900 30.32400
O  3.79700 10.49700 29.75700
O  2.48100 10.77400 31.66900
C  3.64000 10.87700 32.50900
H  0.95600 3.76700 28.61700
H  -0.19400 4.78800 22.41400
H  0.35700 11.13200 23.25200
H  2.08600 7.88400 30.97500
H  0.67800 5.37900 30.68600
H  2.70200 4.45700 31.11800
H  3.25700 5.98300 31.16000
H  3.45100 5.07100 29.61200
H  -0.86000 7.31000 30.73400
H  -0.26100 8.92200 31.23900
H  -0.68200 6.61900 32.73300
H  -0.71700 8.28100 33.23600
H  1.39600 1.05200 26.08300
H  0.06400 1.46900 27.29500
H  1.80100 2.08300 27.30100
H  -0.69500 0.68400 24.90600
H  0.59100 0.25900 23.65300
H  -1.18300 0.47300 23.20800
H  -1.26200 7.06700 21.41100
H  0.51900 9.46100 21.19300
H  1.17300 7.71400 19.90900
H  -0.09300 6.57900 19.51900
H  1.20200 6.09100 20.52100
H  -2.04200 10.04700 22.54300
H  -2.19300 9.23700 20.90000
H  -1.44700 10.86700 19.68800
H  -0.34900 11.53800 20.85700
H  -2.15600 11.71400 21.12300
H  0.58400 13.02100 24.35600
H  2.23100 13.34200 24.98900
H  0.77600 13.86900 25.88700
H  0.54300 10.68400 30.29900
H  4.30000 10.05200 32.24400
H  3.44300 10.82700 33.58000
H  4.28600 11.73400 32.31700
Mg -8.68700 18.06500 43.64700
C  -5.19400 17.90000 43.99000
C  -8.58800 21.31000 43.24200
C  -12.02000 18.06000 42.77900
C  -8.72200 14.53800 43.77700
N  -6.96400 19.41100 43.44400
C  -5.65000 19.23100 43.85500
C  -4.82600 20.51100 43.79400
C  -6.07200 21.58000 43.91100
C  -7.31200 20.74200 43.52100
C  -6.11200 22.24400 45.38600
C  -4.05700 20.82100 42.43200
C  -4.08900 19.75600 41.31900
H  -4.44700 20.10300 39.84200
N  -10.07500 19.50400 43.06700
C  -9.80900 20.78700 42.97500
C  -10.92100 21.46700 42.41200
C  -11.99300 20.51100 42.21200
C  -11.40700 19.30100 42.57000
C  -10.98000 22.97200 42.34800
C  -13.42900 20.85500 41.73400
O  -13.82100 22.04800 41.60000
C  -14.37600 19.75400 41.46500
N  -10.09000 16.48500 43.21700
C  -11.44500 16.78400 43.12900
C  -12.30000 15.56700 43.38700
C  -11.19300 14.47900 43.53800
C  -9.88600 15.21500 43.61200
C  -13.31200 15.60100 44.58600
C  -11.17600 13.61400 42.25800
C  -12.21500 12.42700 42.28700
N  -7.27400 16.51000 43.89800
C  -7.41000 15.18500 43.87100
C  -6.07200 14.59500 43.90400
C  -5.15100 15.59500 43.94800
C  -5.96400 16.76200 43.96700
C  -5.94400 13.12500 43.73300
C  -3.78400 15.93200 43.94500
O  -2.77600 15.23200 43.99900
C  -3.73500 17.44300 44.19300
C  -3.33900 17.51100 45.62400
O  -2.25200 17.82700 46.12500
O  -4.42200 17.12400 46.45200
C  -4.30300 17.26600 47.92500
H  -8.46700 22.39400 43.27000
H  -13.11000 18.00700 42.76700
H  -8.76100 13.44700 43.80000
H  -4.15000 20.58900 44.64500
H  -5.83400 22.35400 43.18200
H  -7.14800 22.12000 45.70200
H  -5.87300 23.30100 45.26400
H  -5.52500 21.67800 46.10900
H  -3.05000 20.89500 42.84300
H  -4.36500 21.72300 41.90300
H  -4.95900 19.13100 41.52400
H  -3.19200 19.14200 41.39700
H  -10.83500 23.39800 41.35600
H  -10.15800 23.28300 42.99300
H  -11.91100 23.39700 42.72300
H  -14.72800 19.28300 42.38200
H  -14.01500 19.03600 40.72800
H  -15.22100 20.26500 41.00500
H  -12.89400 15.39600 42.49000
H  -11.27400 13.83000 44.41000
H  -14.33600 15.75500 44.24500
H  -12.91900 16.43800 45.16300
H  -13.33900 14.73600 45.24900
H  -10.13900 13.30800 42.11800
H  -11.51600 14.22400 41.42100
H  -12.98700 12.68200 43.01300
H  -11.64300 11.50100 42.34300
H  -12.59500 12.40200 41.26600
H  -6.55600 12.60400 44.47000
H  -4.90700 12.85300 43.93000
H  -6.19800 12.79100 42.72700
H  -3.04600 18.02900 43.58400
H  -3.36000 16.81600 48.23500
H  -5.20300 16.78100 48.30300
H  -4.31800 18.34100 48.10800

