158

Mg 16.22100 -2.63600 27.79000
C  15.21800 -0.42800 30.46200
C  17.78500 -4.52700 30.20000
C  17.63000 -4.44100 25.40900
C  14.63300 -0.44900 25.48000
N  16.44700 -2.44100 30.08700
C  15.94100 -1.50600 30.94600
C  16.07200 -1.96000 32.41800
C  17.06000 -3.17300 32.31000
C  17.09100 -3.42000 30.75500
C  18.45600 -3.00700 33.01400
C  14.75000 -2.27800 33.03600
C  14.41400 -1.66700 34.42700
H  15.56400 -1.27400 35.30000
N  17.51200 -4.24800 27.87900
C  17.99800 -4.96400 28.90800
C  18.85600 -6.05200 28.49500
C  18.74900 -6.04100 27.05200
C  17.95700 -4.87100 26.71600
C  19.53200 -7.02500 29.47500
C  19.43700 -7.00000 26.07300
O  19.33800 -6.85300 24.84200
C  20.36900 -8.04700 26.67200
N  15.97700 -2.56600 25.78200
C  16.82600 -3.29700 25.07500
C  16.72200 -2.88800 23.57300
C  15.54900 -1.84600 23.58700
C  15.34700 -1.61500 25.06500
C  18.01800 -2.18500 23.07800
C  14.23400 -2.30800 22.91000
C  13.32800 -1.28700 22.16400
N  15.03600 -0.84300 27.86500
C  14.49600 -0.02400 26.85100
C  13.73800 1.07900 27.36000
C  14.03400 1.00500 28.78900
C  14.84000 -0.16500 29.01400
C  12.93700 2.06400 26.56600
C  13.84600 1.57100 30.08400
O  13.33100 2.62500 30.32100
C  14.42900 0.58600 31.22000
C  15.20300 1.49700 32.03600
O  16.35700 1.85300 31.88500
O  14.36300 1.85100 33.13000
C  14.93300 2.87000 33.95800
H  18.25000 -5.16200 30.95700
H  18.09700 -4.89400 24.53200
H  14.19600 0.19000 24.71000
H  16.51700 -1.09700 32.91300
H  16.63300 -4.06900 32.76000
H  18.54600 -3.83900 33.71300
H  18.45400 -2.04600 33.52800
H  19.15100 -3.11900 32.18200
H  14.69700 -3.34700 33.24500
H  13.93600 -1.97400 32.37900
H  13.78700 -2.37600 34.96900
H  13.84600 -0.75200 34.26300
H  19.65500 -8.06700 29.18000
H  19.17400 -6.90200 30.49700
H  20.55400 -6.64900 29.52700
H  19.69200 -8.87800 26.86800
H  21.10400 -7.73400 27.41400
H  21.02700 -8.37200 25.86600
H  16.43800 -3.82800 23.10000
H  15.82800 -0.86100 23.21300
H  18.19200 -2.39100 22.02200
H  18.92300 -2.23200 23.68500
H  17.91600 -1.10000 23.05500
H  13.62300 -2.68600 23.73000
H  14.58700 -3.09500 22.24400
H  12.66400 -0.98900 22.97500
H  12.72600 -1.71900 21.36400
H  13.98500 -0.45400 21.91400
H  12.90200 3.01400 27.10000
H  11.91700 1.68200 26.53600
H  13.31100 2.25100 25.56000
H  13.54100 0.24000 31.74800
H  15.36200 2.31300 34.79100
H  14.14500 3.46300 34.42100
H  15.70900 3.48700 33.50500
Mg 42.87600 41.96300 26.22800
C  41.91500 44.40200 28.81400
C  43.83600 39.87200 28.53200
C  43.74500 40.06800 23.67500
C  41.86800 44.59600 23.92400
N  42.87000 42.24100 28.33000
C  42.51000 43.18300 29.24800
C  42.76100 42.74000 30.69400
C  43.58300 41.34700 30.53200
C  43.44400 41.09600 29.06500
C  45.15400 41.38200 30.92400
C  41.42800 42.49900 31.50300
C  41.34000 43.02700 32.92100
H  42.48500 42.84700 33.85100
N  43.76100 40.25300 26.09400
C  44.08800 39.42400 27.16600
C  44.61400 38.17400 26.62200
C  44.66900 38.28600 25.20500
C  43.99500 39.55600 24.93200
C  45.08000 37.03900 27.48000
C  45.16900 37.25100 24.25000
O  44.84100 37.37600 23.05500
C  45.96100 36.06700 24.59300
N  42.93300 42.39600 24.15400
C  43.26000 41.35400 23.31600
C  43.16100 41.76000 21.82800
C  42.28000 43.02800 21.92400
C  42.38800 43.39300 23.38900
C  44.48900 41.82900 21.02500
C  40.83200 42.93500 21.42800
C  39.81300 42.00600 22.11100
N  41.94100 44.03200 26.30200
C  41.63200 44.91600 25.25500
C  41.09000 46.18600 25.85200
C  41.12900 45.95800 27.21400
C  41.68600 44.67500 27.43600
C  40.77600 47.46800 25.10000
C  40.88700 46.59200 28.50100
O  40.59600 47.74900 28.73700
C  41.28800 45.57800 29.56000
C  42.05000 46.17500 30.68300
O  43.26300 46.44800 30.68700
O  41.26500 46.38000 31.80500
C  41.86800 46.72400 33.13700
H  43.89600 38.99100 29.17300
H  44.04400 39.45800 22.82000
H  41.62900 45.43100 23.26300
H  43.36400 43.45100 31.25900
H  43.22800 40.42000 30.98400
H  45.31600 40.78500 31.82200
H  45.49500 42.40500 31.08000
H  45.73500 41.07100 30.05600
H  41.27200 41.42100 31.52500
H  40.48800 42.83000 31.06100
H  40.48900 42.71000 33.52400
H  41.19600 44.10600 32.86200
H  44.80600 36.01700 27.21700
H  44.62500 37.20300 28.45700
H  46.16700 37.08600 27.55600
H  46.52200 36.17000 25.52200
H  46.76200 35.98800 23.85900
H  45.50900 35.07700 24.52600
H  42.65300 40.86800 21.46100
H  42.70200 43.80100 21.28300
H  44.59800 42.87100 20.72400
H  44.59600 41.19400 20.14600
H  45.37400 41.52400 21.58200
H  40.92600 42.64400 20.38100
H  40.46800 43.95600 21.30800
H  40.40400 41.21700 22.57500
H  39.11500 41.57700 21.39200
H  39.27100 42.60700 22.84100
H  40.39100 47.19100 24.11800
H  41.74100 47.90800 24.84800
H  40.19300 48.23500 25.61000
H  40.37700 45.21300 30.03300
H  41.81000 45.84100 33.77300
H  41.35900 47.55300 33.62800
H  42.94200 46.88400 33.04000

