158

Mg 8.71500 2.98900 27.77900
C  10.12100 1.59100 30.71200
C  6.91200 5.22800 29.90800
C  7.29400 4.44500 25.14400
C  10.18300 0.55600 25.83200
N  8.42000 3.27000 30.07500
C  9.13700 2.60500 31.08200
C  8.83300 3.14500 32.48300
C  7.90800 4.32400 32.16700
C  7.60600 4.27500 30.60400
C  6.62500 4.36500 33.06900
C  10.15300 3.63000 33.10300
C  10.07500 4.28500 34.47100
H  10.35600 3.41900 35.69500
N  7.30300 4.61700 27.51400
C  6.71300 5.34100 28.51900
C  5.91400 6.38900 27.90800
C  6.19600 6.38200 26.48600
C  6.95400 5.13800 26.28400
C  5.18900 7.52100 28.70700
C  5.85100 7.33300 25.38400
O  6.10600 7.12600 24.21100
C  5.21900 8.60800 25.74500
N  8.75100 2.59100 25.73700
C  8.02400 3.32100 24.83300
C  8.19200 2.74800 23.46800
C  9.33500 1.64600 23.63600
C  9.39500 1.52000 25.16000
C  6.89100 2.17200 22.72400
C  10.68900 1.91400 22.96800
C  11.48900 0.85200 22.31900
N  9.87100 1.35800 28.11500
C  10.40700 0.46100 27.25800
C  11.28000 -0.49400 27.92300
C  11.15600 -0.09200 29.29600
C  10.35700 1.06300 29.34900
C  12.00100 -1.66500 27.32200
C  11.56900 -0.45300 30.61200
O  12.20900 -1.42900 30.99600
C  10.94700 0.63400 31.61600
C  10.12200 0.10300 32.68900
O  9.02400 -0.41900 32.56900
O  10.89600 0.02000 33.87100
C  10.22200 -0.66000 34.99600
H  6.44400 6.06300 30.43400
H  6.88400 4.94100 24.26200
H  10.83800 -0.07300 25.22600
H  8.41200 2.36900 33.12300
H  8.47700 5.23900 32.32800
H  5.95600 5.01100 32.50000
H  6.76100 4.68700 34.10100
H  6.30000 3.32700 32.99200
H  10.68600 4.20700 32.34800
H  10.88000 2.82000 33.15800
H  9.00600 4.33400 34.67400
H  10.62500 5.22600 34.48200
H  5.79000 8.43000 28.67400
H  5.05400 7.32100 29.77000
H  4.32500 7.79100 28.10000
H  5.20700 9.25700 24.87000
H  5.64200 9.07700 26.63300
H  4.22500 8.31600 26.08400
H  8.66400 3.63100 23.03800
H  8.95200 0.72200 23.20100
H  6.86200 1.11600 22.45400
H  6.66700 2.70300 21.79900
H  6.00800 2.28100 23.35400
H  11.33600 2.21600 23.79100
H  10.62800 2.71700 22.23400
H  11.01200 -0.12800 22.35800
H  12.47500 0.80700 22.78100
H  11.71500 1.10400 21.28200
H  11.83300 -1.65000 26.24500
H  11.57700 -2.60700 27.67000
H  13.07400 -1.66900 27.51300
H  11.74100 1.24200 32.05100
H  10.04200 -1.69100 34.69100
H  9.22700 -0.29000 35.24000
H  10.81600 -0.59400 35.90700
Mg 6.19900 56.65300 42.52800
C  4.90800 53.52300 41.73800
C  9.23400 55.69700 41.15300
C  7.09700 59.94300 42.19500
C  2.99600 57.57500 43.56400
N  6.92100 54.91300 41.36700
C  6.25100 53.70000 41.25100
C  7.15200 52.63200 40.68800
C  8.56200 53.28600 40.87900
C  8.24900 54.76500 41.15300
C  9.43200 52.67000 42.04900
C  6.88400 52.11200 39.15000
C  7.11400 50.61700 38.94700
H  6.46500 50.12600 37.77500
N  7.97600 57.67700 41.87600
C  9.08700 57.11900 41.47400
C  10.10700 58.12600 41.30200
C  9.55700 59.33000 41.69500
C  8.17400 59.00400 41.97900
C  11.52500 57.76200 40.96900
C  10.35500 60.62500 41.91300
O  11.48600 60.77000 41.56000
C  9.76300 61.72600 42.74000
N  5.22800 58.47500 42.80000
C  5.78500 59.74100 42.45400
C  4.71400 60.84800 42.57400
C  3.39400 60.05500 42.95000
C  3.85500 58.58400 43.12400
C  4.94200 62.11400 43.41900
C  2.10500 60.19000 41.98900
C  0.74800 60.62100 42.63000
N  4.34700 55.76900 42.81500
C  3.15200 56.23100 43.30500
C  2.20300 55.15600 43.46200
C  2.87500 54.02200 42.91500
C  4.12300 54.49800 42.40500
C  0.80800 55.23900 43.93900
C  2.74700 52.63100 42.61700
O  1.82600 51.81700 42.81300
C  4.11700 52.25100 41.89700
C  3.75100 51.64200 40.65100
O  3.65800 52.19600 39.60800
O  3.50100 50.28100 40.85600
C  3.11100 49.38800 39.73500
H  10.27600 55.42000 40.98200
H  7.37100 60.99500 42.08900
H  2.02700 57.91200 43.93600
H  7.06000 51.73600 41.30200
H  9.08500 53.24800 39.92300
H  8.89600 51.87600 42.57000
H  9.61200 53.50500 42.72600
H  10.34300 52.28800 41.58700
H  7.53200 52.64500 38.45400
H  5.90400 52.52600 38.91400
H  6.78000 50.08700 39.83900
H  8.20300 50.62800 38.90400
H  11.87400 58.57100 40.32800
H  11.64200 56.78600 40.49800
H  12.13600 57.72100 41.87100
H  9.08800 61.29400 43.47800
H  9.20900 62.43000 42.12000
H  10.53100 62.34200 43.20800
H  4.73300 61.24600 41.56000
H  3.14500 60.31500 43.97900
H  5.99800 62.28400 43.62800
H  4.44900 62.02900 44.38800
H  4.64900 63.02700 42.90100
H  2.05300 59.17100 41.60400
H  2.34400 60.96600 41.26200
H  -0.03000 59.85900 42.58600
H  0.33900 61.52300 42.17500
H  1.05600 60.86200 43.64800
H  0.16000 55.57000 43.12700
H  0.80100 56.02000 44.69900
H  0.46800 54.26700 44.29500
H  4.60800 51.49400 42.50900
H  3.02500 49.92000 38.78800
H  2.10800 49.02200 39.95200
H  3.89600 48.63400 39.66800

