158

Mg 55.29000 23.59400 44.66600
C  53.14400 26.19200 43.71700
C  52.93300 21.23200 43.67400
C  57.65600 21.23200 44.73400
C  57.75900 26.14300 45.32500
N  53.32900 23.76500 43.73200
C  52.61700 24.94100 43.45400
C  51.25200 24.57800 42.82100
C  51.11600 23.02800 43.19900
C  52.55300 22.60600 43.59700
C  50.03800 22.72700 44.32600
C  51.04900 24.82400 41.29100
C  49.73300 25.37500 40.90200
H  49.00900 24.61600 39.86000
N  55.25300 21.47600 44.31500
C  54.21200 20.70400 43.96200
C  54.59700 19.28200 43.95600
C  55.98100 19.23900 44.31200
C  56.34200 20.67900 44.51900
C  53.69000 18.15300 43.57400
C  56.71900 18.01200 44.53300
O  56.19700 16.96000 44.35400
C  58.20300 17.98600 45.00100
N  57.42500 23.68900 44.93400
C  58.13800 22.58400 44.86200
C  59.64600 22.87200 45.10800
C  59.63100 24.40700 45.51900
C  58.18300 24.78900 45.15300
C  60.46200 21.95800 46.15900
C  60.84800 25.25500 44.95700
C  61.70700 26.00800 46.00000
N  55.38400 25.71200 44.73800
C  56.42100 26.60600 45.05100
C  55.88000 27.95400 45.08100
C  54.63100 27.83700 44.48800
C  54.40800 26.47700 44.28600
C  56.57300 29.21800 45.58900
C  53.44100 28.56100 44.18600
O  53.28300 29.75600 44.40000
C  52.47700 27.58200 43.48900
C  52.34400 27.94500 42.05000
O  53.06300 27.70700 41.14400
O  51.19700 28.68600 41.90500
C  50.89200 29.04700 40.53600
H  52.13100 20.53200 43.43200
H  58.34500 20.40600 44.55100
H  58.51600 26.86900 45.63000
H  50.49500 25.14800 43.36000
H  50.82200 22.39400 42.36200
H  49.16300 22.27000 43.86400
H  49.57700 23.62700 44.73200
H  50.55200 22.08900 45.04500
H  50.99300 23.82400 40.86100
H  51.94100 25.29100 40.87500
H  49.89200 26.43800 40.71900
H  49.07400 25.53600 41.75400
H  54.24600 17.40800 43.00500
H  52.98700 18.49400 42.81400
H  53.30900 17.72700 44.50200
H  58.85300 18.42500 44.24300
H  58.57700 17.01400 45.32000
H  58.26800 18.64100 45.87000
H  60.09500 22.61600 44.14800
H  59.58100 24.51500 46.60200
H  59.85900 21.19200 46.64600
H  60.91400 22.61400 46.90300
H  61.22700 21.58600 45.47700
H  60.58100 25.91500 44.13200
H  61.44100 24.56200 44.36000
H  62.70500 25.57000 45.98300
H  61.22900 25.92900 46.97700
H  61.74200 27.06300 45.72800
H  56.77500 29.83500 44.71300
H  57.51000 29.01900 46.11100
H  55.78000 29.72200 46.14200
H  51.48000 27.56400 43.92800
H  50.22200 29.90300 40.60800
H  50.50900 28.23500 39.91700
H  51.78500 29.44200 40.05100
Mg 4.83600 54.68400 40.34300
C  4.34600 51.19100 40.58600
C  8.18200 54.01600 39.53600
C  5.14700 57.81200 39.36100
C  1.36500 55.15100 40.92100
N  6.10500 52.74800 39.85900
C  5.68800 51.45500 40.12100
C  6.85000 50.44500 39.89400
C  8.06500 51.38300 39.98600
C  7.46400 52.82200 39.74900
C  8.72500 51.33000 41.35500
C  6.67300 49.55600 38.57000
C  6.02000 50.24700 37.40100
H  6.92600 51.11000 36.51700
N  6.43000 55.80300 39.59200
C  7.76100 55.38200 39.41800
C  8.64900 56.47900 39.04900
C  7.71700 57.66500 39.04100
C  6.34400 57.10000 39.24500
C  10.14500 56.39800 38.70400
C  8.14900 59.06300 38.83900
O  9.34500 59.31300 38.82300
C  7.23900 60.14200 38.83200
N  3.46200 56.21000 40.12000
C  3.86700 57.43900 39.74600
C  2.78600 58.51300 39.97200
C  1.52800 57.67100 40.45600
C  2.17900 56.22400 40.47200
C  3.15300 59.67400 40.95800
C  0.32400 57.76900 39.50600
C  -1.12000 58.05400 40.02300
N  3.15200 53.45600 40.58400
C  1.83800 53.81000 40.90500
C  1.10800 52.67600 41.40400
C  2.07700 51.66000 41.33000
C  3.25000 52.18200 40.71200
C  -0.33600 52.50000 41.86700
C  2.40500 50.24400 41.64700
O  1.81800 49.35900 42.21000
C  3.77900 49.88300 41.06900
C  3.70300 48.81800 40.02600
O  3.33700 49.00700 38.92900
O  4.15500 47.61100 40.53800
C  4.09500 46.51600 39.55900
H  9.27000 53.95100 39.47000
H  5.11000 58.86200 39.06500
H  0.34000 55.34500 41.24400
H  6.83700 49.72300 40.71000
H  8.77200 51.15300 39.18900
H  9.81000 51.37900 41.25900
H  8.52100 50.37300 41.83500
H  8.40900 52.16600 41.97800
H  6.17400 48.62400 38.83400
H  7.70100 49.30700 38.30400
H  5.29200 50.91400 37.86300
H  5.56800 49.43300 36.83400
H  10.31100 55.54100 38.05200
H  10.74900 56.19500 39.58900
H  10.52500 57.23400 38.11700
H  7.78300 61.07000 38.65100
H  6.70100 60.15300 39.77900
H  6.60900 60.04000 37.94800
H  2.77100 59.02600 39.01100
H  1.25400 57.91100 41.48400
H  2.57300 59.72600 41.87900
H  3.00700 60.60500 40.41100
H  4.17400 59.46700 41.28000
H  0.20700 56.95100 38.79500
H  0.62800 58.70900 39.04500
H  -1.00300 59.09200 40.33400
H  -1.42400 57.43100 40.86400
H  -1.93000 58.02400 39.29400
H  -0.73500 51.49900 41.70900
H  -1.02200 53.19600 41.38500
H  -0.33600 52.89400 42.88400
H  4.31600 49.45300 41.91500
H  3.01700 46.35600 39.52100
H  4.54700 45.63200 40.01100
H  4.41300 46.68900 38.53100

