158

Mg 16.23200 -1.62000 26.80100
C  15.06700 0.19600 29.65600
C  18.18500 -3.48600 28.97500
C  17.46900 -3.14000 24.17000
C  14.43400 0.65600 24.73500
N  16.78400 -1.47200 29.00100
C  16.08800 -0.73400 29.97100
C  16.57300 -1.12700 31.39100
C  17.72800 -2.15400 31.09500
C  17.54900 -2.38900 29.56600
C  19.22000 -1.76500 31.43200
C  15.41500 -1.69000 32.27100
C  15.10700 -0.99800 33.60900
H  16.23300 -0.24100 34.33600
N  17.61400 -3.04400 26.61900
C  18.19400 -3.84200 27.62700
C  18.97700 -4.87900 27.05500
C  18.84200 -4.74100 25.63900
C  17.94000 -3.67300 25.41300
C  19.74400 -5.96000 27.82700
C  19.36600 -5.69800 24.57900
O  19.03000 -5.56500 23.41100
C  20.15500 -6.95100 24.93100
N  16.02700 -1.20000 24.57900
C  16.58900 -2.04900 23.76900
C  16.06600 -1.69100 22.38700
C  14.97700 -0.53700 22.50200
C  15.16400 -0.33000 24.05900
C  17.19500 -1.35400 21.45700
C  13.56800 -0.89800 22.10800
C  12.83700 0.09600 21.25000
N  15.00900 0.06300 27.06400
C  14.28300 0.82000 26.12100
C  13.52600 1.79300 26.85600
C  13.65700 1.54400 28.26100
C  14.68100 0.53000 28.34400
C  12.61000 2.81500 26.21400
C  13.21200 1.96500 29.62100
O  12.40900 2.83000 29.93800
C  14.10600 1.04900 30.59400
C  14.92300 2.10900 31.34100
O  15.95800 2.63600 30.94900
O  14.31200 2.31200 32.53700
C  14.79500 3.50000 33.32000
H  18.72500 -4.08800 29.70900
H  17.80100 -3.49700 23.19300
H  13.79400 1.29900 24.12800
H  16.88100 -0.21800 31.90800
H  17.56400 -3.10000 31.61100
H  19.72900 -2.45000 32.10900
H  19.25100 -0.87600 32.06300
H  19.78100 -1.64900 30.50500
H  15.58700 -2.75000 32.45700
H  14.50600 -1.65100 31.67200
H  14.81500 -1.82600 34.25500
H  14.35200 -0.22800 33.45300
H  20.75500 -6.23700 27.53200
H  19.22700 -6.90400 27.65600
H  19.66700 -5.60100 28.85300
H  20.45900 -7.46800 24.02100
H  19.47400 -7.66400 25.39800
H  21.10100 -6.69100 25.40600
H  15.64100 -2.59100 21.94200
H  15.33900 0.33200 21.95500
H  17.32100 -0.30300 21.19500
H  17.23200 -1.99600 20.57700
H  18.14900 -1.55100 21.94600
H  13.15800 -0.77200 23.11000
H  13.44700 -1.88400 21.66100
H  13.55300 0.60700 20.60500
H  12.34200 0.72200 21.99200
H  12.08600 -0.45600 20.68500
H  12.37400 3.59600 26.93500
H  11.68100 2.41700 25.80700
H  13.12100 3.28500 25.37400
H  13.48100 0.58100 31.35500
H  14.48800 4.49300 32.99400
H  15.88300 3.43800 33.34400
H  14.58300 3.32600 34.37500
Mg -12.02200 38.61200 41.49100
C  -10.14900 36.07300 40.25000
C  -9.94700 40.91900 39.96400
C  -14.26000 41.01700 42.20200
C  -14.16400 36.22100 42.85300
N  -10.32600 38.55100 40.27600
C  -9.66800 37.36600 39.90700
C  -8.34600 37.71900 39.09200
C  -8.16300 39.22400 39.46000
C  -9.55100 39.65100 39.95700
C  -7.04300 39.47400 40.61400
C  -8.41800 37.31800 37.60400
C  -7.23800 36.48800 36.89800
H  -6.58200 37.13600 35.67600
N  -12.14000 40.70600 41.11200
C  -11.10600 41.49400 40.51000
C  -11.50100 42.87300 40.55200
C  -12.82700 42.93300 41.15700
C  -13.12000 41.55000 41.63000
C  -10.62000 43.93500 40.17100
C  -13.61700 44.19000 41.41500
O  -13.13900 45.26900 41.06700
C  -14.92900 44.30500 42.25200
N  -14.01700 38.57600 42.28900
C  -14.67200 39.71000 42.46500
C  -16.16800 39.31700 42.78400
C  -16.07700 37.84100 43.17000
C  -14.64700 37.49600 42.81100
C  -16.93000 40.19600 43.74800
C  -17.16000 36.93200 42.50500
C  -17.78900 35.70300 43.38100
N  -12.07400 36.51100 41.61000
C  -13.02200 35.69700 42.21200
C  -12.57700 34.37300 42.03400
C  -11.45700 34.46500 41.23200
C  -11.27400 35.77600 40.98400
C  -13.20700 33.14500 42.62100
C  -10.39400 33.68800 40.58500
O  -10.23400 32.48400 40.44600
C  -9.46100 34.74200 39.83400
C  -7.93200 34.72600 40.23300
O  -7.00600 34.38200 39.49100
O  -7.78600 35.02700 41.57100
C  -6.49000 34.72600 42.10100
H  -9.18800 41.49800 39.43500
H  -14.99600 41.66600 42.68300
H  -14.79800 35.52700 43.41000
H  -7.55400 37.21600 39.64800
H  -7.86900 39.80800 38.58700
H  -7.18500 40.46500 41.04500
H  -6.07400 39.58300 40.12600
H  -7.07800 38.54700 41.18700
H  -8.41000 38.23300 37.01200
H  -9.30500 36.74800 37.33000
H  -7.54400 35.45100 36.76100
H  -6.44900 36.53000 37.64900
H  -9.59100 43.57900 40.13000
H  -10.66800 44.77600 40.86400
H  -10.75000 44.27800 39.14500
H  -15.43700 45.23100 41.98400
H  -14.77500 44.27700 43.33000
H  -15.55800 43.48700 41.90000
H  -16.62700 39.44200 41.80300
H  -16.08100 37.85000 44.26000
H  -17.77000 40.73300 43.30800
H  -16.31100 40.89300 44.31300
H  -17.36900 39.49100 44.45500
H  -16.76300 36.51200 41.58100
H  -17.96400 37.61600 42.23700
H  -17.27500 35.85400 44.33000
H  -17.65500 34.71800 42.93300
H  -18.83200 35.94000 43.59400
H  -13.48200 33.24500 43.67100
H  -12.55200 32.30700 42.38100
H  -14.20600 33.01100 42.20700
H  -9.62100 34.61800 38.76300
H  -6.30800 33.65300 42.15900
H  -6.52900 35.10600 43.12100
H  -5.59900 35.16800 41.65600

