158

Mg 47.67100 15.79600 28.13600
C  45.79200 15.40800 31.01800
C  49.80300 17.94400 29.90600
C  49.40300 16.02100 25.30800
C  45.28000 13.92100 26.41100
N  47.75000 16.63300 30.13200
C  46.97900 16.19100 31.15600
C  47.56800 16.56700 32.46300
C  48.56500 17.65000 32.11900
C  48.75300 17.37100 30.62000
C  48.12800 19.08300 32.45100
C  48.09100 15.30700 33.27400
C  47.73100 15.39600 34.76800
H  47.54900 16.76500 35.52000
N  49.45300 16.68200 27.68600
C  50.10500 17.59800 28.53300
C  51.35100 17.99200 27.79200
C  51.27400 17.44900 26.46500
C  49.98000 16.69400 26.42300
C  52.34900 18.87100 28.52600
C  52.35000 17.60300 25.39100
O  52.19200 17.04200 24.25800
C  53.66400 18.36700 25.63800
N  47.26800 15.26500 26.00700
C  48.16100 15.46400 25.12400
C  47.71800 14.97000 23.72000
C  46.41900 14.16700 24.14200
C  46.33500 14.43200 25.60000
C  47.44400 16.02300 22.66300
C  46.62100 12.66100 23.79800
C  47.59500 11.91700 24.79700
N  45.74400 15.01200 28.50800
C  44.98600 14.02500 27.74700
C  43.88300 13.58800 28.64400
C  44.24900 13.96300 29.93100
C  45.33400 14.88200 29.77800
C  42.60200 12.75800 28.37300
C  43.97500 13.91200 31.33300
O  43.10800 13.26100 31.90700
C  44.84600 14.85500 32.08700
C  44.03800 15.93300 32.73100
O  43.35100 16.79400 32.16600
O  44.18200 15.71000 34.09600
C  43.32100 16.51600 35.01300
H  50.50500 18.49100 30.53900
H  49.91700 16.10800 24.34800
H  44.54400 13.27500 25.92800
H  46.70900 16.96300 33.00400
H  49.50100 17.55400 32.66900
H  47.06000 19.27700 32.35700
H  48.50900 19.84900 31.77500
H  48.57000 19.32500 33.41700
H  49.16100 15.10100 33.25600
H  47.62300 14.38600 32.92500
H  48.42600 14.80100 35.36000
H  46.73700 14.97000 34.90100
H  51.85800 19.42700 29.32500
H  52.82500 19.63700 27.91400
H  53.20800 18.29500 28.87100
H  54.15000 17.89300 26.49000
H  53.50600 19.42900 25.82400
H  54.29500 18.44000 24.75300
H  48.58000 14.40300 23.36700
H  45.61300 14.59700 23.54600
H  47.34800 17.00900 23.11700
H  46.63200 15.80600 21.97000
H  48.39700 16.31900 22.22500
H  46.96700 12.43500 22.78900
H  45.61600 12.24200 23.78800
H  48.37800 12.49400 25.28800
H  48.13400 11.19200 24.18600
H  47.10200 11.31100 25.55700
H  42.83400 12.05200 27.57600
H  41.74400 13.40800 28.20400
H  42.46600 12.13900 29.26000
H  45.34400 14.20200 32.80300
H  42.73200 17.19500 34.39700
H  43.81500 17.15000 35.74900
H  42.58300 15.89300 35.51800
Mg -2.66300 35.04200 26.85200
C  -4.52300 33.47400 29.21300
C  -1.83100 37.50700 29.09600
C  -0.64400 36.44900 24.52400
C  -3.93400 32.98000 24.41800
N  -3.20300 35.45200 28.88200
C  -3.91200 34.60200 29.69500
C  -3.85700 35.10400 31.16300
C  -3.42300 36.58200 30.98200
C  -2.73900 36.53400 29.53900
C  -4.57600 37.58500 30.95900
C  -2.88100 34.28900 32.11000
C  -3.41000 33.70100 33.38600
H  -2.52500 33.59000 34.67100
N  -1.39100 36.74300 26.82300
C  -1.13000 37.59200 27.85400
C  -0.04900 38.44000 27.50100
C  0.33000 38.15200 26.17600
C  -0.53700 37.07200 25.76500
C  0.38700 39.51100 28.47600
C  1.31900 38.78700 25.20700
O  1.57000 38.21700 24.16800
C  1.96200 40.07500 25.55400
N  -2.38200 34.83400 24.70100
C  -1.39500 35.47100 24.06000
C  -1.18600 34.87600 22.62100
C  -2.30100 33.72200 22.58800
C  -2.92400 33.86800 24.01000
C  -1.36700 35.94800 21.48800
C  -1.73000 32.33600 22.19800
C  -2.70900 31.38100 21.46000
N  -4.09200 33.63000 26.75900
C  -4.54500 32.88100 25.68600
C  -5.49900 31.89600 26.18900
C  -5.45300 32.04900 27.58400
C  -4.58900 33.12100 27.83500
C  -6.14000 30.76700 25.43400
C  -5.91300 31.51400 28.83500
O  -6.51700 30.46500 29.07400
C  -5.31500 32.44800 29.97400
C  -6.45800 33.11600 30.69900
O  -7.20700 33.93300 30.23500
O  -6.64700 32.52200 31.91500
C  -7.49100 33.31400 32.78400
H  -1.42600 38.12200 29.90300
H  -0.00700 36.76300 23.69400
H  -4.31200 32.32100 23.63400
H  -4.91900 34.99500 31.38100
H  -2.67200 36.90600 31.70200
H  -5.43600 37.00500 31.29400
H  -4.68600 37.91300 29.92600
H  -4.57800 38.32300 31.76100
H  -2.00500 34.91700 32.27300
H  -2.54500 33.43100 31.52900
H  -3.76500 32.71400 33.09000
H  -4.34400 34.17400 33.69000
H  0.85600 39.23500 29.42000
H  -0.41000 40.18000 28.80000
H  1.01300 40.25600 27.98400
H  2.41800 40.40900 24.62200
H  2.67100 39.79500 26.33400
H  1.20000 40.76600 25.91500
H  -0.18300 34.44900 22.58900
H  -3.04600 33.98100 21.83400
H  -2.13500 36.56900 21.94800
H  -1.75800 35.46600 20.59200
H  -0.44800 36.47600 21.23200
H  -1.59600 31.78000 23.12600
H  -0.70000 32.35300 21.84300
H  -2.15900 30.90700 20.64800
H  -3.49200 32.05500 21.11100
H  -3.06300 30.58400 22.11300
H  -5.76500 30.81700 24.41200
H  -7.21700 30.69900 25.59100
H  -5.60400 29.95400 25.92300
H  -4.64800 31.88200 30.62400
H  -7.24100 34.37100 32.86900
H  -7.60100 32.87400 33.77500
H  -8.47700 33.31300 32.32000

