158

Mg 44.96300 5.43600 47.86000
C  42.92100 8.14700 46.85500
C  42.20200 3.33700 47.19700
C  46.98300 2.82600 47.99700
C  47.67700 7.55800 47.70800
N  42.88500 5.70000 47.01000
C  42.21900 6.90700 46.78200
C  40.81100 6.65200 46.22500
C  40.57500 5.23600 46.75100
C  41.97700 4.72800 47.00400
C  39.58400 4.99100 47.89300
C  40.76900 6.83800 44.64200
C  39.60000 7.73000 44.09500
H  38.74100 7.15800 43.00200
N  44.61800 3.33100 47.73400
C  43.43700 2.70700 47.46600
C  43.65700 1.31700 47.66900
C  45.00900 1.15000 47.98600
C  45.63200 2.47800 47.97000
C  42.57700 0.30400 47.38600
C  45.65900 -0.16500 48.33000
O  44.99600 -1.24200 48.19500
C  47.05500 -0.32800 48.93500
N  47.05600 5.22500 47.87500
C  47.66600 4.06500 47.96800
C  49.16100 4.16000 48.08700
C  49.41500 5.74400 48.00400
C  47.93900 6.27000 47.89100
C  49.59600 3.43500 49.31700
C  50.29600 6.09700 46.71800
C  51.81900 6.09100 47.05400
N  45.26100 7.48500 47.70500
C  46.45900 8.20800 47.58400
C  46.16900 9.62500 47.30200
C  44.73200 9.64000 47.17700
C  44.31300 8.29200 47.20400
C  47.18100 10.72800 47.22100
C  43.64700 10.51400 46.84200
O  43.57700 11.70200 46.66500
C  42.38000 9.57100 46.67700
C  41.38700 9.86900 47.64100
O  41.44500 9.39900 48.78900
O  40.21900 10.55800 47.18800
C  39.06800 10.51500 48.00200
H  41.27200 2.77300 47.10600
H  47.63500 1.96200 47.85200
H  48.54500 8.19700 47.53200
H  40.06200 7.30500 46.67400
H  40.09300 4.62500 45.98800
H  40.05600 4.97100 48.87600
H  39.03400 4.05800 47.76700
H  38.86700 5.81100 47.91000
H  40.92200 5.84400 44.22200
H  41.68900 7.38800 44.44600
H  40.09200 8.59300 43.64500
H  38.96000 8.10700 44.89200
H  41.56800 0.68400 47.22600
H  42.37200 -0.42100 48.17300
H  42.78800 -0.39400 46.57500
H  47.74100 -0.43100 48.09400
H  47.12500 -1.23400 49.53800
H  47.28500 0.61400 49.43300
H  49.66400 3.70500 47.23400
H  50.02700 6.04200 48.85500
H  49.79100 2.37700 49.14300
H  48.94400 3.55700 50.18200
H  50.50800 3.99600 49.52600
H  49.96600 7.06900 46.35200
H  50.00000 5.50100 45.85500
H  52.41100 5.87200 46.16600
H  52.09100 5.30100 47.75400
H  52.22100 7.05900 47.35400
H  47.93100 10.36600 46.51900
H  47.54100 11.04200 48.20100
H  46.69600 11.57000 46.72600
H  41.89000 9.74900 45.71900
H  39.05800 11.29000 48.76800
H  39.00500 9.55300 48.51000
H  38.27800 10.73000 47.28200
Mg 48.17400 35.13300 27.56800
C  46.22400 33.27900 29.82900
C  48.54400 37.50200 29.99900
C  49.71700 36.95600 25.21800
C  47.00600 32.94500 25.01600
N  47.48700 35.28900 29.61400
C  46.82200 34.36300 30.36300
C  46.94600 34.59700 31.83100
C  47.31900 36.14500 31.89800
C  47.85600 36.35700 30.40400
C  46.12100 37.13300 32.30000
C  48.06900 33.66500 32.35100
C  48.07800 33.38400 33.85000
H  47.20300 34.29900 34.79900
N  49.08800 36.95500 27.64800
C  49.17700 37.76600 28.75200
C  50.20400 38.76900 28.46000
C  50.63000 38.66000 27.10300
C  49.90200 37.44500 26.62700
C  50.67600 39.82600 29.55900
C  51.57600 39.46300 26.26500
O  51.79100 39.07300 25.09500
C  52.21100 40.66800 26.83800
N  48.24700 35.03500 25.36300
C  49.05200 35.90600 24.70600
C  48.96400 35.61500 23.21900
C  48.41900 34.10700 23.13000
C  47.83100 33.99400 24.59000
C  48.01800 36.58700 22.42700
C  49.39200 32.94300 22.75800
C  50.45400 32.43000 23.64000
N  46.99900 33.42700 27.36400
C  46.57800 32.65300 26.30200
C  45.56400 31.70400 26.67900
C  45.26300 31.99700 28.04700
C  46.24400 32.93800 28.43200
C  44.94500 30.65600 25.73500
C  44.43100 31.63400 29.26500
O  43.53400 30.83800 29.46600
C  45.13400 32.51600 30.48600
C  45.70200 31.34700 31.33700
O  46.45900 30.50000 30.84500
O  45.18200 31.35000 32.58000
C  45.74200 30.39000 33.51600
H  48.79500 38.10900 30.87100
H  50.07800 37.56000 24.38300
H  46.64400 32.20000 24.30500
H  46.06400 34.39000 32.43700
H  48.20300 36.29800 32.51700
H  46.29900 37.68100 33.22500
H  45.14000 36.66400 32.37900
H  46.05200 37.87400 31.50400
H  49.07600 34.03300 32.15500
H  47.84600 32.73400 31.82900
H  49.09700 33.46600 34.22800
H  47.72700 32.36700 34.02600
H  51.66000 39.53400 29.92500
H  49.96800 39.91800 30.38200
H  50.83900 40.78200 29.06100
H  53.02100 40.39700 27.51400
H  51.46500 41.30200 27.31700
H  52.72200 41.32600 26.13500
H  49.94500 35.55500 22.74800
H  47.57500 33.87500 22.48100
H  47.33400 36.95100 23.19400
H  47.59000 36.14600 21.52700
H  48.61400 37.44400 22.11300
H  49.83200 33.21900 21.80100
H  48.90800 32.01700 22.44600
H  51.29500 32.09700 23.03300
H  50.12500 31.56000 24.20800
H  50.72800 33.15200 24.41000
H  44.20800 29.99200 26.18600
H  45.65800 29.95100 25.30600
H  44.44700 31.24600 24.96500
H  44.38900 33.06300 31.06400
H  46.75400 30.11900 33.21600
H  45.05200 29.55300 33.62100
H  45.77900 30.96600 34.44000

