158

Mg 17.00200 52.42300 26.49600
C  18.95700 51.23300 29.00200
C  14.75900 53.71200 28.87900
C  14.93500 53.43200 23.94300
C  19.10000 50.89700 24.09500
N  16.83100 52.37400 28.60500
C  17.74200 51.83800 29.40800
C  17.41900 52.20400 30.88500
C  15.92500 52.58300 30.87100
C  15.85000 52.97500 29.38400
C  14.95400 51.37100 31.23200
C  18.40900 53.25200 31.50600
C  18.43100 53.57500 33.03900
H  17.58700 52.65100 33.99000
N  15.06100 53.45000 26.37000
C  14.41100 53.89400 27.50900
C  13.31300 54.74100 27.01200
C  13.26000 54.67800 25.61500
C  14.40300 53.82200 25.23100
C  12.45900 55.53900 27.96800
C  12.34400 55.28800 24.66300
O  12.55500 55.16300 23.43900
C  11.22600 56.12100 25.14400
N  17.02800 52.28000 24.30500
C  16.08600 52.74100 23.52000
C  16.41400 52.40800 22.03000
C  17.90400 51.94700 22.06000
C  18.00000 51.66100 23.56100
C  15.45300 51.51100 21.23100
C  18.97200 53.00300 21.65900
C  19.95000 52.51900 20.56500
N  18.64400 51.28300 26.46100
C  19.40900 50.67100 25.41400
C  20.64900 50.09000 26.01600
C  20.42100 50.26000 27.41900
C  19.27800 50.95800 27.62600
C  21.76900 49.29400 25.28700
C  21.04300 49.99300 28.76800
O  22.03300 49.41100 29.17100
C  20.04600 50.61400 29.79100
C  19.44300 49.46500 30.50000
O  18.85000 48.53500 30.00000
O  19.68600 49.64300 31.85400
C  19.17500 48.60200 32.72400
H  14.01700 54.01500 29.62200
H  14.31200 53.84200 23.14600
H  19.80300 50.58100 23.32200
H  17.51800 51.31200 31.50400
H  15.67100 53.38900 31.55900
H  14.15300 51.37800 30.49300
H  14.41200 51.45500 32.17400
H  15.51800 50.44200 31.15800
H  18.42300 54.17100 30.92000
H  19.35600 52.73000 31.36900
H  17.93300 54.54500 33.06000
H  19.45500 53.68100 33.39500
H  12.59300 56.55300 27.59000
H  12.85500 55.49200 28.98200
H  11.42800 55.20600 27.85000
H  11.54500 57.03600 25.64400
H  10.74000 55.51500 25.90800
H  10.40800 56.34200 24.45800
H  16.32300 53.32200 21.44300
H  17.96000 51.00000 21.52300
H  15.06700 52.00200 20.33700
H  14.68600 51.23400 21.95400
H  15.88900 50.56200 20.91900
H  19.51100 53.37300 22.53100
H  18.55200 53.96300 21.36000
H  19.51600 51.82100 19.84900
H  20.79800 51.97800 20.98500
H  20.43100 53.38000 20.10200
H  22.39600 48.96900 26.11700
H  22.29300 49.89800 24.54600
H  21.26600 48.48800 24.75300
H  20.54300 51.33400 30.44100
H  19.85100 47.75100 32.79900
H  18.16300 48.29900 32.45600
H  18.92400 49.05300 33.68400
Mg 0.18700 42.87800 26.74300
C  2.39700 42.92700 29.45200
C  -2.32800 42.26800 29.01500
C  -1.87800 42.38900 24.12900
C  2.86300 43.15200 24.56600
N  0.02800 42.58100 29.00800
C  1.09300 42.74600 29.84400
C  0.63600 42.74700 31.27000
C  -0.88400 42.29700 31.20300
C  -1.09000 42.37100 29.66300
C  -1.07600 40.79600 31.61600
C  0.69900 44.20900 31.94500
C  1.08900 44.34200 33.38400
H  0.94300 43.19900 34.33500
N  -1.86600 42.28100 26.58100
C  -2.74800 42.28600 27.69200
C  -4.12400 42.11300 27.15300
C  -3.95700 42.14700 25.70900
C  -2.51300 42.27700 25.38400
C  -5.23200 41.87300 28.11600
C  -5.01500 42.04300 24.60400
O  -4.83600 42.05600 23.37700
C  -6.46700 41.95900 25.06200
N  0.43000 42.74900 24.66000
C  -0.54500 42.54500 23.78100
C  -0.04400 42.47000 22.23400
C  1.35700 43.27600 22.47600
C  1.59500 43.06200 24.00700
C  -0.01400 41.09200 21.59100
C  1.21800 44.78500 22.06300
C  1.27400 45.92500 23.12700
N  2.19200 43.03000 26.89900
C  3.18400 43.11700 25.93200
C  4.47500 43.14800 26.55800
C  4.22200 43.09500 27.93200
C  2.83500 42.98100 28.13000
C  5.86300 43.29700 25.84300
C  4.87800 43.03700 29.22100
O  6.04400 42.98200 29.62400
C  3.59800 43.00700 30.23600
C  3.85900 41.86100 31.12100
O  3.79900 40.70000 30.75700
O  4.12600 42.30500 32.41800
C  4.63200 41.34800 33.43100
H  -3.13800 42.33100 29.74500
H  -2.58200 42.32500 23.29700
H  3.67400 43.35400 23.86200
H  1.20300 42.04800 31.88500
H  -1.51300 42.96000 31.79600
H  -1.40700 40.24800 30.73500
H  -1.87800 40.74700 32.35200
H  -0.26300 40.25600 32.10200
H  -0.20100 44.74300 31.64000
H  1.46900 44.78200 31.42900
H  0.42800 45.10400 33.79800
H  2.13200 44.64600 33.48100
H  -4.97000 40.91800 28.57000
H  -6.20400 41.68000 27.66300
H  -5.36200 42.52700 28.97800
H  -6.39600 41.09900 25.72800
H  -7.25700 41.76300 24.33700
H  -6.70500 42.75900 25.76200
H  -0.74600 43.05600 21.64100
H  2.17600 42.90400 21.86000
H  -0.41300 40.30200 22.22700
H  1.01600 40.81200 21.37300
H  -0.50400 41.03700 20.61800
H  0.42200 44.94100 21.33400
H  2.09300 44.99700 21.44800
H  0.39700 46.54100 22.92800
H  2.15300 46.55200 22.98200
H  1.11100 45.48600 24.11100
H  5.73300 42.87000 24.84800
H  6.55800 42.73300 26.46500
H  6.22000 44.32100 25.72900
H  3.56000 43.91200 30.84200
H  5.21100 40.56900 32.93400
H  3.83000 40.86300 33.98700
H  5.31000 41.91800 34.06700

