158

Mg 25.64600 1.28100 29.33100
C  27.53900 1.04700 32.23800
C  22.77700 1.84700 31.25700
C  23.86200 1.07500 26.44400
C  28.56400 0.62700 27.41000
N  25.19600 1.27600 31.42400
C  26.12200 1.36000 32.46200
C  25.54200 1.77000 33.78400
C  23.99900 1.67100 33.42600
C  23.99800 1.65300 31.92300
C  23.12200 0.60900 34.16600
C  26.09000 3.05600 34.43100
C  26.56700 2.82700 35.91900
H  26.20500 3.95500 36.95800
N  23.60700 1.44700 28.88100
C  22.56500 1.71800 29.83500
C  21.36700 1.84000 29.12500
C  21.63600 1.62100 27.78700
C  23.11800 1.38100 27.64800
C  20.11000 2.07800 29.77500
C  20.64400 1.65600 26.66300
O  21.01500 1.36700 25.50400
C  19.15300 1.90100 26.87600
N  26.13300 0.87000 27.23100
C  25.20800 0.84300 26.24300
C  25.85700 0.63900 24.83300
C  27.41000 0.51700 25.16700
C  27.37600 0.64000 26.67700
C  25.25400 -0.46000 23.90400
C  28.23100 1.73900 24.51300
C  27.89600 3.19700 24.90300
N  27.63500 1.00600 29.68400
C  28.67200 0.75600 28.85000
C  29.81300 0.40000 29.58900
C  29.45100 0.58800 30.92100
C  28.09900 0.87200 30.94000
C  31.14500 -0.05100 29.10900
C  29.92000 0.58200 32.33200
O  30.99000 0.36500 32.90400
C  28.67100 1.07300 33.18000
C  28.55400 0.16600 34.37000
O  27.88700 -0.87100 34.43000
O  29.48800 0.53300 35.28600
C  29.44600 -0.23600 36.53700
H  21.95400 1.88400 31.97400
H  23.39800 1.03300 25.45700
H  29.51300 0.45600 26.89800
H  25.74400 0.98000 34.50600
H  23.48400 2.61700 33.59500
H  22.10500 0.98600 34.27500
H  23.55300 0.28400 35.11300
H  23.17500 -0.22800 33.46900
H  25.28500 3.79000 34.42000
H  26.88400 3.44200 33.79200
H  27.63800 2.63700 35.83900
H  26.19400 1.90400 36.36300
H  19.52300 1.17600 29.60500
H  19.63100 2.98400 29.40400
H  20.31600 2.25200 30.83100
H  18.89200 2.95400 26.98300
H  18.77000 1.30200 27.70300
H  18.66900 1.67500 25.92600
H  25.75000 1.56900 24.27600
H  27.81800 -0.48600 25.03700
H  24.42600 -1.02300 24.33500
H  26.05500 -1.17700 23.72200
H  24.81300 -0.09500 22.97600
H  28.08000 1.65700 23.43600
H  29.28300 1.48000 24.63000
H  27.09200 3.13800 25.63600
H  27.60100 3.74600 24.00900
H  28.71100 3.75900 25.36100
H  31.30900 0.29500 28.08800
H  31.33600 -1.11300 28.95300
H  31.89100 0.36800 29.78500
H  28.88500 2.09000 33.51000
H  28.52800 -0.13400 37.11500
H  30.20100 -0.01500 37.29200
H  29.52400 -1.29700 36.30200
Mg 53.80500 25.09300 45.85300
C  51.18400 27.20000 44.68600
C  52.17900 22.39200 44.45900
C  56.78700 23.41500 45.64100
C  55.52200 28.09500 46.45800
N  51.91800 24.93700 44.73700
C  50.97600 25.89000 44.34300
C  49.82600 25.24000 43.62000
C  49.98200 23.72000 44.03000
C  51.54900 23.64700 44.39400
C  49.05900 23.34500 45.14200
C  49.87500 25.44200 42.08300
C  48.50400 25.37100 41.43500
H  48.34300 24.49600 40.13600
N  54.40800 23.12900 45.30500
C  53.51000 22.18600 44.80900
C  54.19800 20.90100 44.71700
C  55.57700 21.18300 44.96600
C  55.66100 22.64900 45.34300
C  53.53600 19.56700 44.33400
C  56.65800 20.05400 44.79200
O  56.28400 18.88000 44.61300
C  58.04600 20.35100 44.96200
N  55.90300 25.70600 45.86700
C  56.92100 24.73200 45.90800
C  58.21900 25.43200 46.35200
C  57.85300 26.96800 46.45700
C  56.34700 26.93900 46.30700
C  58.83500 24.78800 47.66100
C  58.70700 27.92900 45.59800
C  58.92500 29.40600 46.18800
N  53.47000 27.22500 45.80100
C  54.16100 28.33300 46.19400
C  53.30100 29.47700 46.27500
C  52.08100 29.05500 45.75800
C  52.31700 27.74500 45.32600
C  53.64200 30.80900 46.83400
C  50.75600 29.43600 45.40700
O  50.08300 30.44400 45.52700
C  50.15800 28.28000 44.60300
C  49.89500 28.77000 43.27100
O  50.68700 29.24000 42.41400
O  48.54800 28.57000 43.08700
C  47.98100 28.96600 41.77600
H  51.69700 21.53900 43.97700
H  57.76400 22.92700 45.63400
H  56.04200 28.94500 46.90600
H  48.87800 25.63100 43.98700
H  49.80500 23.00600 43.22500
H  49.57100 23.45700 46.09800
H  48.68400 22.32900 45.02100
H  48.17000 23.97300 45.20100
H  50.38800 24.56400 41.69000
H  50.29800 26.43700 41.94800
H  48.36800 26.40700 41.12300
H  47.76800 25.00200 42.14900
H  53.79200 19.06900 43.39800
H  52.44600 19.53500 44.32600
H  53.80900 18.79800 45.05600
H  58.57800 19.42800 44.73200
H  58.13600 20.59700 46.02000
H  58.34000 21.18300 44.32300
H  58.86400 25.34200 45.47800
H  58.16200 27.24600 47.46400
H  58.14800 23.98900 47.94000
H  58.98400 25.44600 48.51700
H  59.77300 24.37900 47.28600
H  58.30100 28.12400 44.60500
H  59.68000 27.52500 45.31900
H  59.11700 30.08500 45.35700
H  59.64700 29.27900 46.99500
H  57.99600 29.70200 46.67500
H  54.30300 30.86300 47.70000
H  52.68200 31.14900 47.22300
H  53.95900 31.46800 46.02600
H  49.17900 28.06200 45.02900
H  48.73300 29.09900 40.99800
H  47.49000 29.93600 41.85600
H  47.31300 28.23600 41.31800

