158

Mg 46.83400 17.12000 28.43100
C  45.28700 16.48100 31.53700
C  49.33600 18.66700 30.23000
C  48.11300 18.18500 25.47900
C  44.13700 15.69600 26.88000
N  47.22400 17.56600 30.65000
C  46.38900 17.24900 31.74200
C  47.01500 17.77400 33.05100
C  48.31600 18.46600 32.53800
C  48.31500 18.27800 31.03500
C  48.57700 19.95800 32.89300
C  47.29800 16.61300 34.06500
C  47.95300 16.85000 35.38200
H  47.54300 18.00300 36.28900
N  48.52100 18.15300 27.92500
C  49.45100 18.60100 28.80400
C  50.63200 18.96100 28.01100
C  50.31900 18.89400 26.63500
C  48.89500 18.44200 26.63000
C  51.92000 19.37700 28.64800
C  51.21000 19.09800 25.32600
O  50.71700 19.12400 24.21400
C  52.67100 19.46300 25.39000
N  46.36400 16.65800 26.50600
C  46.94000 17.35300 25.41500
C  46.24600 16.98000 24.17100
C  44.97900 16.27100 24.56900
C  45.16800 16.11100 26.06200
C  45.98500 18.11600 23.21100
C  44.59300 14.97700 23.87600
C  43.75900 15.24700 22.58100
N  45.08600 16.21900 29.01000
C  44.07600 15.61400 28.28800
C  42.97500 15.19200 29.12500
C  43.44800 15.49700 30.42500
C  44.72600 16.10500 30.27600
C  41.68000 14.51600 28.65100
C  43.12800 15.38100 31.88800
O  42.19200 14.89300 32.50100
C  44.26000 16.02300 32.59100
C  43.74800 17.12500 33.46000
O  43.23900 18.17800 33.08500
O  43.79200 16.68300 34.74500
C  43.01600 17.45900 35.73900
H  50.21100 18.99100 30.79800
H  48.34000 18.52500 24.46600
H  43.28000 15.17800 26.44400
H  46.27000 18.43500 33.49400
H  49.22100 17.92200 32.80900
H  48.17500 20.71300 32.21800
H  49.55500 20.32600 33.20200
H  48.01200 20.10200 33.81400
H  47.89500 15.87300 33.53300
H  46.30800 16.17600 34.19600
H  49.03600 16.77900 35.28000
H  47.49600 16.02300 35.92600
H  52.67100 18.62400 28.88500
H  51.66200 19.93600 29.54700
H  52.31700 20.14700 27.98500
H  52.68000 20.38700 25.96900
H  53.05600 19.53500 24.37300
H  53.20000 18.62800 25.84900
H  46.85100 16.21400 23.68700
H  44.09500 16.90300 24.48000
H  45.89000 19.07900 23.71400
H  45.08500 17.94900 22.61800
H  46.75100 18.31800 22.46200
H  43.91800 14.52700 24.60400
H  45.43900 14.38200 23.53300
H  43.85800 16.25900 22.18900
H  42.72000 15.05400 22.84700
H  44.08500 14.46400 21.89600
H  41.48600 14.72100 27.59900
H  40.92100 15.03400 29.23600
H  41.86600 13.44800 28.76600
H  44.63300 15.16200 33.14600
H  42.28400 16.67700 35.94000
H  42.53500 18.37800 35.40500
H  43.63700 17.58400 36.62600
Mg 27.64900 49.70800 26.91200
C  25.48600 50.72800 29.67100
C  29.99000 48.90500 29.17100
C  29.67100 49.30400 24.35600
C  25.08100 50.88800 24.72100
N  27.68400 49.77400 29.27200
C  26.69200 50.16300 30.12000
C  27.12500 49.85500 31.51400
C  28.67600 49.39200 31.37600
C  28.80400 49.30700 29.86200
C  29.78300 50.26100 32.03600
C  26.13900 48.87200 32.21800
C  25.38900 49.27700 33.50400
H  26.15900 49.86100 34.73200
N  29.53300 49.22000 26.79900
C  30.37300 48.85900 27.84800
C  31.68300 48.41800 27.31800
C  31.56300 48.53800 25.90000
C  30.19700 48.98900 25.61600
C  32.91100 48.05700 28.15000
C  32.62700 48.29700 24.79900
O  32.45800 48.50600 23.57700
C  33.95600 47.65600 25.24300
N  27.43800 50.13600 24.83300
C  28.44700 49.80600 23.96100
C  27.99500 49.99600 22.45100
C  26.42100 50.18500 22.62100
C  26.24900 50.31200 24.10100
C  28.82200 51.12800 21.74000
C  25.62300 49.02000 22.01100
C  24.48500 49.45600 21.10700
N  25.78500 50.66500 27.08200
C  24.87900 51.04100 26.10100
C  23.72900 51.62400 26.73000
C  23.95600 51.52700 28.14200
C  25.18300 50.90000 28.28100
C  22.62900 52.27000 25.91500
C  23.36800 51.78100 29.43200
O  22.32400 52.39900 29.75700
C  24.35300 51.24300 30.51100
C  24.74100 52.37600 31.41000
O  25.65100 53.17400 31.30800
O  23.85000 52.34000 32.47200
C  24.06900 53.31800 33.56500
H  30.77900 48.70400 29.90000
H  30.21200 48.97000 23.46800
H  24.18000 51.12700 24.15300
H  27.06100 50.80200 32.04800
H  28.69400 48.34400 31.67800
H  30.08300 49.72500 32.93600
H  29.55700 51.31000 32.22500
H  30.70700 50.25200 31.45800
H  26.69300 48.07800 32.72000
H  25.38900 48.35200 31.62100
H  24.93300 48.32000 33.76000
H  24.56900 49.92700 33.19800
H  33.62600 48.81400 27.82700
H  33.31200 47.07100 27.91800
H  32.78100 48.13400 29.22900
H  33.79200 46.76900 25.85400
H  34.49800 48.47300 25.72100
H  34.54700 47.40100 24.36300
H  28.32800 49.15700 21.84000
H  26.09600 51.17500 22.30300
H  29.41700 51.60500 22.51900
H  28.12600 51.70900 21.13500
H  29.51000 50.66000 21.03600
H  25.24000 48.46900 22.87000
H  26.41400 48.62400 21.37500
H  24.59800 50.46600 20.71400
H  23.62300 49.46900 21.77400
H  24.35700 48.64900 20.38600
H  23.00600 52.98800 25.18700
H  22.06300 52.81700 26.66900
H  22.08500 51.44300 25.45800
H  23.86300 50.48800 31.12600
H  23.47600 52.96800 34.41000
H  23.70500 54.34100 33.47700
H  25.11500 53.49200 33.81500

