158

Mg 2.63300 -2.31300 44.35800
C  6.00700 -1.26500 43.98200
C  1.76800 0.32100 42.29300
C  -0.32400 -3.79600 44.00200
C  3.98000 -5.16700 45.97700
N  3.74900 -0.66100 43.25000
C  5.12400 -0.51400 43.17100
C  5.60200 0.51200 42.12300
C  4.20400 1.27700 41.87800
C  3.15400 0.28800 42.53600
C  4.05600 2.67300 42.50500
C  6.27400 -0.11600 40.83800
C  7.71700 0.28800 40.50100
H  8.17200 0.44700 39.05900
N  0.92600 -1.73700 43.36000
C  0.74900 -0.64700 42.63400
C  -0.60000 -0.54400 42.17500
C  -1.30400 -1.71400 42.59600
C  -0.24400 -2.48600 43.35600
C  -1.20500 0.62100 41.47300
C  -2.75900 -1.99000 42.38000
O  -3.47500 -1.15000 41.88200
C  -3.37200 -3.28800 42.83000
N  1.93100 -4.16300 45.00400
C  0.61500 -4.50900 44.81000
C  0.27000 -5.89400 45.36600
C  1.68800 -6.46100 45.73700
C  2.61500 -5.20700 45.58100
C  -0.62000 -5.87500 46.57500
C  2.07500 -7.60700 44.74100
C  2.12100 -9.04200 45.34200
N  4.52700 -2.98400 45.09900
C  4.93700 -4.13900 45.77200
C  6.39300 -4.07300 46.00200
C  6.85500 -2.90800 45.39000
C  5.70400 -2.28100 44.89400
C  7.21600 -5.11700 46.80400
C  8.04100 -2.20300 45.09900
O  9.26000 -2.30100 45.41300
C  7.45800 -0.99900 44.20000
C  7.56600 0.23500 44.90900
O  6.96600 0.49000 45.94000
O  8.68600 0.98100 44.40100
C  9.01300 2.14400 45.23900
H  1.52600 1.11400 41.58200
H  -1.31500 -4.25500 43.96800
H  4.44400 -6.00500 46.50200
H  6.30100 1.18100 42.62600
H  3.89900 1.38000 40.83700
H  5.00100 3.14300 42.78100
H  3.46900 2.74100 43.42000
H  3.71000 3.41200 41.78200
H  5.66100 -0.17600 39.93900
H  6.35300 -1.18200 41.05300
H  8.43900 -0.28300 41.08500
H  7.64900 1.30000 40.90100
H  -1.79000 0.36300 40.59100
H  -0.36500 1.22700 41.13400
H  -1.86100 1.09600 42.20300
H  -2.85300 -4.17700 42.47100
H  -4.43400 -3.31000 42.58600
H  -3.29300 -3.38200 43.91300
H  -0.15100 -6.59300 44.64300
H  1.90500 -6.79100 46.75200
H  -0.23700 -6.41000 47.44400
H  -1.48500 -6.48300 46.31100
H  -0.94600 -4.85300 46.77000
H  3.07500 -7.47400 44.32800
H  1.34300 -7.58200 43.93400
H  1.92800 -9.13900 46.41000
H  3.09300 -9.48200 45.11800
H  1.33600 -9.68100 44.93700
H  6.98300 -6.12400 46.45700
H  7.08200 -5.09800 47.88600
H  8.25200 -4.88300 46.56100
H  8.07000 -0.95600 43.29900
H  9.52700 2.88700 44.62900
H  9.44100 1.92000 46.21600
H  8.04900 2.63500 45.37500
Mg 16.74600 -2.50200 27.48000
C  15.54700 -0.33100 30.08800
C  19.18600 -3.46500 29.64900
C  18.16100 -4.21700 24.91300
C  14.60900 -0.92700 25.32100
N  17.21300 -1.89500 29.60800
C  16.57200 -1.14800 30.53800
C  17.14700 -1.30300 32.00100
C  18.44900 -2.15800 31.63500
C  18.27300 -2.58700 30.17700
C  19.74000 -1.30000 31.78400
C  16.21100 -1.86900 33.02900
C  16.49000 -1.56200 34.49400
H  17.75500 -0.84700 34.91700
N  18.43000 -3.65500 27.32400
C  19.29800 -3.98100 28.32600
C  20.28300 -4.91000 27.85300
C  20.02200 -5.01800 26.50800
C  18.81200 -4.28800 26.18400
C  21.32500 -5.62200 28.77300
C  20.84800 -5.77300 25.45500
O  20.59200 -5.75400 24.26900
C  22.21500 -6.34800 25.78300
N  16.53900 -2.52000 25.48300
C  17.06800 -3.38600 24.59100
C  16.62100 -3.23700 23.13900
C  15.42300 -2.22600 23.32000
C  15.51900 -1.86600 24.83100
C  17.84900 -2.71800 22.29700
C  14.08800 -2.93700 22.87500
C  13.38900 -2.32900 21.69400
N  15.21100 -1.02100 27.62600
C  14.44400 -0.53600 26.65800
C  13.50600 0.34000 27.28900
C  13.86700 0.44200 28.67700
C  14.99000 -0.37400 28.80300
C  12.47200 1.12300 26.68000
C  13.57100 1.15600 29.85800
O  12.75500 2.02900 30.13900
C  14.65300 0.69300 30.85400
C  15.42000 1.88000 31.24100
O  16.17700 2.43200 30.49200
O  15.21000 2.19700 32.54900
C  15.85600 3.42600 32.86400
H  19.97700 -3.78200 30.33200
H  18.48200 -4.78100 24.03400
H  13.83400 -0.51800 24.67000
H  17.39500 -0.27300 32.25800
H  18.53300 -3.00300 32.31800
H  19.61400 -0.46400 32.47100
H  20.04800 -0.81600 30.85700
H  20.50700 -2.01800 32.07500
H  16.29900 -2.95500 33.01400
H  15.19500 -1.58600 32.75200
H  16.55800 -2.44900 35.12400
H  15.63700 -1.04800 34.93600
H  22.31900 -5.63900 28.32500
H  21.03100 -6.56100 29.24100
H  21.38700 -5.09200 29.72400
H  22.01400 -7.16700 26.47300
H  22.84700 -5.56500 26.20200
H  22.66400 -6.65100 24.83700
H  16.34100 -4.24600 22.83800
H  15.51000 -1.34400 22.68500
H  18.69100 -2.52900 22.96400
H  17.54700 -1.76800 21.85700
H  17.94300 -3.43400 21.48000
H  13.32200 -2.99000 23.64900
H  14.23300 -3.97300 22.56800
H  12.36600 -2.21100 22.05100
H  13.29600 -3.02200 20.85800
H  13.89100 -1.46200 21.26500
H  12.00400 0.78900 25.75400
H  12.86300 2.13400 26.56800
H  11.60200 1.17800 27.33400
H  14.09400 0.26700 31.68800
H  15.50600 3.76500 33.83900
H  15.64400 4.18800 32.11300
H  16.92900 3.23800 32.89300

