158

Mg 2.20800 -1.00300 44.72800
C  5.64400 -0.20000 43.96800
C  1.36600 1.57600 42.76500
C  -0.80200 -2.33800 44.56100
C  3.56500 -4.07200 46.09900
N  3.43500 0.49500 43.47600
C  4.76700 0.69000 43.39700
C  5.12400 2.00800 42.76900
C  3.70300 2.70400 42.71900
C  2.76400 1.54200 43.04700
C  3.41900 3.85700 43.70300
C  5.79500 1.78700 41.35000
C  6.93900 2.68400 40.91800
H  6.79600 3.34600 39.51100
N  0.48200 -0.36800 43.97900
C  0.32500 0.69100 43.13500
C  -1.04500 0.85400 42.69500
C  -1.72500 -0.27800 43.17400
C  -0.66500 -1.04300 43.92000
C  -1.63300 1.96600 41.80400
C  -3.11500 -0.55000 43.05500
O  -3.87300 0.12300 42.40300
C  -3.80600 -1.57300 43.82800
N  1.53500 -3.01500 45.08100
C  0.16300 -3.16600 45.27500
C  -0.24800 -4.44800 45.98600
C  1.19600 -5.08300 46.16600
C  2.20700 -3.96400 45.86400
C  -1.12700 -4.27700 47.29900
C  1.59900 -6.27800 45.25900
C  1.81500 -7.61200 46.04800
N  4.20700 -1.92200 45.14400
C  4.56800 -3.06800 45.87400
C  5.98500 -3.14900 46.00200
C  6.42900 -1.99900 45.28000
C  5.31500 -1.34400 44.77000
C  6.75400 -4.27800 46.70200
C  7.61900 -1.34100 44.85900
O  8.81500 -1.68500 44.84800
C  7.18500 -0.01300 44.10200
C  7.47100 1.10100 45.04400
O  6.69200 1.61100 45.77800
O  8.76200 1.54700 44.93100
C  9.36400 2.79600 45.53700
H  1.13200 2.48100 42.20100
H  -1.73200 -2.90900 44.58400
H  3.81200 -5.00500 46.60800
H  5.78000 2.62300 43.38500
H  3.63700 3.03100 41.68200
H  3.23700 3.43700 44.69300
H  2.63700 4.52800 43.34800
H  4.22600 4.54200 43.96400
H  5.03900 1.84400 40.56800
H  6.27500 0.80900 41.33100
H  7.82100 2.06000 40.77400
H  7.12500 3.52800 41.58200
H  -2.07000 1.72000 40.83600
H  -0.86900 2.73700 41.70400
H  -2.42900 2.34300 42.44600
H  -4.88500 -1.42100 43.80800
H  -3.36400 -1.52800 44.82400
H  -3.64500 -2.56100 43.39500
H  -0.83200 -5.02400 45.26800
H  1.37700 -5.30300 47.21800
H  -2.00500 -3.63200 47.31500
H  -0.55000 -3.96700 48.17100
H  -1.66400 -5.21800 47.41500
H  2.58100 -6.16800 44.80000
H  0.96500 -6.40600 44.38200
H  2.79600 -8.02200 45.80600
H  0.91600 -8.18000 45.80700
H  1.80300 -7.51300 47.13300
H  6.11500 -5.13900 46.50800
H  6.92900 -4.15300 47.77000
H  7.73400 -4.46800 46.26300
H  7.62800 0.13200 43.11700
H  8.57100 3.49000 45.81500
H  10.21000 3.31500 45.08500
H  9.85500 2.51600 46.46900
Mg 15.92800 51.88800 25.96500
C  17.68300 50.68800 28.84800
C  13.55000 53.09500 28.12500
C  14.39400 53.26000 23.37700
C  18.46600 50.58100 24.11000
N  15.55600 51.68200 28.18200
C  16.39600 51.22600 29.09300
C  15.89500 51.60100 30.58800
C  14.43300 51.99800 30.24900
C  14.49100 52.27400 28.76200
C  13.27600 51.00200 30.55700
C  16.70600 52.61100 31.36600
C  16.78800 52.23500 32.88200
H  15.62400 52.82000 33.79100
N  14.14300 53.04000 25.78200
C  13.32500 53.44000 26.84000
C  12.34300 54.37000 26.22600
C  12.50800 54.32600 24.78600
C  13.72700 53.51600 24.56500
C  11.18000 54.96000 27.06800
C  11.64900 54.96700 23.64900
O  11.89900 54.80400 22.44000
C  10.44100 55.81900 23.98900
N  16.24700 51.74000 24.02100
C  15.55700 52.48100 23.13700
C  16.31600 52.60400 21.79400
C  17.64000 51.79400 22.07300
C  17.43100 51.29000 23.49600
C  15.49000 52.19600 20.54600
C  18.97800 52.55100 21.90500
C  20.22800 51.91300 21.28600
N  17.63300 50.55800 26.37800
C  18.60800 50.18700 25.50300
C  19.67900 49.51700 26.26800
C  19.36900 49.76400 27.57500
C  18.11100 50.37500 27.56600
C  20.95500 48.90100 25.77500
C  19.76900 49.42700 28.87800
O  20.74100 48.77100 29.24000
C  18.69200 50.15400 29.77000
C  18.14000 49.23000 30.78400
O  17.35200 48.31200 30.56900
O  18.68500 49.43100 32.05500
C  18.24500 48.45100 33.08500
H  12.77400 53.34400 28.85200
H  14.07200 53.77700 22.47100
H  19.23200 50.30000 23.38400
H  15.80400 50.72800 31.23500
H  14.03800 52.90200 30.71200
H  12.44900 51.11500 29.85700
H  12.98800 50.89700 31.60300
H  13.60900 49.97500 30.41000
H  16.03800 53.47000 31.42500
H  17.67600 52.84700 30.92800
H  17.71400 52.64200 33.28700
H  16.85300 51.17800 33.14100
H  11.22800 54.55600 28.08000
H  10.18800 54.72000 26.68500
H  11.25700 56.04700 27.09100
H  9.99900 56.31000 23.12200
H  10.70700 56.49900 24.79900
H  9.74500 55.06300 24.35300
H  16.55800 53.66300 21.70800
H  17.66200 50.89000 21.46600
H  16.08500 51.48100 19.97700
H  15.21100 53.06200 19.94600
H  14.59400 51.65200 20.84200
H  19.29000 52.83600 22.91000
H  18.73500 53.53700 21.50900
H  20.50700 52.60800 20.49400
H  20.05400 50.90700 20.90300
H  21.11600 51.73700 21.89200
H  21.16500 49.37900 24.81800
H  20.81100 47.83100 25.62900
H  21.79200 49.13300 26.43400
H  19.12100 50.97600 30.34300
H  17.22300 48.12600 32.89000
H  18.24300 49.01100 34.02000
H  18.93800 47.61500 33.18000

