158

Mg 24.59100 -5.88600 45.54600
C  26.98100 -3.63300 44.16600
C  22.18600 -4.41800 43.55400
C  22.67800 -8.50200 46.18600
C  27.11000 -7.14800 47.65600
N  24.65000 -4.33000 43.88000
C  25.69100 -3.51300 43.55100
C  25.28400 -2.50000 42.51500
C  23.73400 -2.53000 42.67800
C  23.44600 -3.82800 43.46000
C  23.03000 -1.39600 43.41500
C  25.83700 -2.80200 41.06600
C  26.46600 -1.67500 40.22000
H  26.05900 -1.73500 38.78800
N  22.65500 -6.45000 44.96400
C  21.80700 -5.65200 44.23500
C  20.55100 -6.37300 44.04500
C  20.69800 -7.58400 44.72900
C  22.03400 -7.56900 45.29700
C  19.34600 -6.01100 43.14500
C  19.66700 -8.75000 44.81500
O  18.55500 -8.52400 44.36300
C  19.94900 -10.16300 45.39800
N  24.92100 -7.67900 46.61900
C  23.97800 -8.62100 46.76000
C  24.44500 -9.79600 47.56700
C  25.82500 -9.31400 48.16800
C  26.02600 -7.92800 47.49500
C  23.53600 -10.55900 48.50600
C  27.03400 -10.30800 48.04200
C  27.84800 -10.40400 49.34600
N  26.63700 -5.47600 45.91300
C  27.46800 -5.99700 46.83800
C  28.79300 -5.34100 46.74200
C  28.65100 -4.45700 45.65800
C  27.34000 -4.58400 45.16500
C  30.06100 -5.70700 47.51600
C  29.33800 -3.39900 44.90100
O  30.47300 -2.91900 45.07700
C  28.27000 -2.85900 43.90100
C  28.05900 -1.36800 44.08600
O  27.38200 -0.86400 44.96400
O  28.68400 -0.63300 43.13900
C  28.47700 0.84000 43.23100
H  21.47200 -3.89700 42.91300
H  22.08200 -9.36900 46.47800
H  27.86600 -7.42200 48.39500
H  25.65900 -1.52800 42.83500
H  23.35500 -2.59900 41.65900
H  22.59900 -1.78600 44.33700
H  22.31600 -0.80300 42.84300
H  23.76500 -0.63800 43.68900
H  24.94900 -3.04900 40.48300
H  26.52500 -3.63900 41.18900
H  27.50700 -1.93600 40.40800
H  26.20300 -0.74700 40.72800
H  18.38500 -6.29500 43.57300
H  19.39000 -6.58700 42.22100
H  19.34700 -4.92100 43.15200
H  19.17500 -10.79800 44.96600
H  19.95600 -10.23100 46.48500
H  20.98300 -10.45200 45.21000
H  24.68500 -10.64200 46.92200
H  25.62900 -9.13300 49.22500
H  24.08400 -10.84200 49.40500
H  23.15600 -11.41800 47.95200
H  22.68200 -9.95500 48.81300
H  27.71600 -10.08100 47.22300
H  26.83300 -11.35900 47.83400
H  28.91300 -10.40200 49.11400
H  27.66700 -11.35700 49.84300
H  27.52500 -9.64300 50.05600
H  30.63200 -6.45500 46.96500
H  29.93900 -6.15800 48.50100
H  30.69200 -4.85400 47.76500
H  28.49200 -3.07700 42.85600
H  29.46200 1.30300 43.28800
H  27.81200 1.25300 43.98900
H  28.00600 1.23500 42.33000
Mg 47.01400 34.85900 26.14900
C  45.73700 33.29600 29.08900
C  47.28300 37.71800 28.11900
C  48.00900 36.44900 23.44600
C  46.51700 31.90000 24.43900
N  46.62100 35.40300 28.34200
C  46.25200 34.59900 29.39300
C  46.31200 35.29000 30.72700
C  46.66000 36.76200 30.40900
C  46.97700 36.60400 28.88100
C  45.71000 37.77400 30.96100
C  47.51200 34.56400 31.54000
C  47.52000 34.52000 33.06700
H  46.33600 35.23700 33.70200
N  47.48800 36.81100 25.78900
C  47.50800 37.85100 26.73100
C  47.93000 39.12600 26.05700
C  48.34900 38.62700 24.71400
C  47.86500 37.26500 24.57200
C  48.18200 40.38600 26.83400
C  49.09200 39.47100 23.68200
O  49.44500 39.02800 22.57800
C  49.51600 40.85900 24.05200
N  47.01400 34.29100 24.22800
C  47.66600 35.09600 23.28200
C  48.14500 34.34900 22.04900
C  47.67100 32.85500 22.32200
C  47.03100 33.04000 23.69400
C  47.70900 34.89200 20.66100
C  48.87000 31.76300 22.37000
C  49.25200 30.99000 21.10100
N  46.25100 33.00500 26.57500
C  46.13400 31.86400 25.77000
C  45.51600 30.79800 26.53000
C  45.23400 31.32300 27.81600
C  45.75200 32.67000 27.82500
C  45.16900 29.39500 25.93900
C  44.67000 31.11800 29.06100
O  43.98000 30.16700 29.35700
C  44.91200 32.43000 29.94100
C  45.44300 31.80900 31.18200
O  46.36900 31.01400 31.30600
O  44.50700 31.99900 32.17800
C  44.72400 31.44800 33.56900
H  47.26700 38.66400 28.66400
H  48.35000 36.91800 22.52100
H  46.37700 30.98700 23.85600
H  45.37500 35.13300 31.26000
H  47.56200 37.13100 30.89700
H  45.20400 38.17000 30.08000
H  46.22800 38.63300 31.38800
H  45.07100 37.28400 31.69500
H  48.35300 35.16600 31.19700
H  47.71000 33.53300 31.24800
H  48.45000 34.70200 33.60500
H  47.32000 33.45400 33.17200
H  47.91700 41.23000 26.19600
H  49.23100 40.28800 27.11400
H  47.68500 40.51800 27.79500
H  48.67800 41.55500 24.10700
H  50.12700 41.22600 23.22700
H  50.22700 40.89000 24.87700
H  49.23400 34.36300 22.10000
H  46.88500 32.49200 21.66100
H  46.72500 35.36000 20.67700
H  47.76300 34.14700 19.86700
H  48.43800 35.67100 20.43900
H  48.77600 31.12700 23.24900
H  49.81800 32.29600 22.45200
H  50.26100 31.18000 20.73600
H  48.57900 31.35200 20.32300
H  49.18400 29.91300 21.25500
H  45.02000 28.64300 26.71300
H  46.10000 29.07800 25.46900
H  44.30000 29.38800 25.28000
H  43.96000 32.89600 30.19200
H  43.80300 31.17000 34.08000
H  45.17300 32.25200 34.15300
H  45.49900 30.68600 33.65400

