158

Mg 1.86800 -1.67200 45.52100
C  5.10700 -0.72900 44.62700
C  0.75100 0.99600 43.83500
C  -1.21200 -3.04200 45.67500
C  3.22300 -4.67300 46.95500
N  2.88400 0.05300 44.47300
C  4.15700 0.18500 44.15900
C  4.38400 1.53900 43.41400
C  2.96400 2.21500 43.48900
C  2.10800 1.05000 43.98300
C  2.78800 3.45500 44.46800
C  4.97900 1.36900 41.97100
C  6.25200 2.14800 41.74500
H  7.42700 1.48100 40.98700
N  0.01500 -1.10500 44.80800
C  -0.23000 -0.00900 44.07500
C  -1.62800 0.02600 43.64500
C  -2.23200 -1.13300 44.20100
C  -1.14900 -1.83800 44.91000
C  -2.16400 1.26200 42.82200
C  -3.69000 -1.52000 44.03500
O  -4.40900 -0.83600 43.33200
C  -4.35100 -2.76500 44.47000
N  1.10100 -3.51100 46.44400
C  -0.25900 -3.77800 46.44000
C  -0.59400 -5.13000 47.13600
C  0.88900 -5.60400 47.61200
C  1.83300 -4.55200 46.99200
C  -1.71800 -5.04700 48.25000
C  1.35600 -7.09100 47.25100
C  1.57800 -8.01000 48.49800
N  3.74200 -2.62100 45.71400
C  4.15000 -3.76400 46.41000
C  5.59900 -3.81200 46.25900
C  6.00500 -2.62800 45.69100
C  4.85800 -1.94900 45.34000
C  6.38100 -4.97900 46.67900
C  7.08900 -1.86800 45.24900
O  8.27100 -2.04100 45.43000
C  6.62400 -0.58000 44.58600
C  7.00500 0.55100 45.41600
O  6.26600 1.17000 46.16400
O  8.34600 0.86500 45.19800
C  8.80500 2.12700 45.70000
H  0.44600 1.92100 43.34100
H  -2.24300 -3.37900 45.80300
H  3.66900 -5.59200 47.34100
H  5.05100 2.16200 44.01100
H  2.61000 2.47100 42.49100
H  1.85800 3.48900 45.03400
H  2.79300 4.37000 43.87600
H  3.64300 3.55600 45.13600
H  4.30900 1.67800 41.16900
H  5.22900 0.32700 41.76900
H  6.81000 2.37700 42.65300
H  5.94400 3.06300 41.23900
H  -2.09400 1.18300 41.73700
H  -1.64700 2.16000 43.16100
H  -3.21500 1.44600 43.04500
H  -4.24100 -2.69500 45.55200
H  -3.75100 -3.50300 43.93800
H  -5.40500 -2.69500 44.19900
H  -0.96200 -5.78300 46.34400
H  1.02100 -5.46900 48.68500
H  -1.26700 -5.32000 49.20400
H  -2.60400 -5.63000 47.99900
H  -2.10000 -4.03400 48.37700
H  2.22000 -7.06900 46.58700
H  0.47900 -7.45100 46.71200
H  0.58500 -8.16900 48.91900
H  2.03600 -7.35100 49.23600
H  2.27000 -8.82800 48.29800
H  7.43300 -4.77000 46.87000
H  6.26300 -5.80700 45.98000
H  6.05200 -5.44700 47.60700
H  7.12100 -0.35700 43.64200
H  9.61400 1.93500 46.40400
H  8.09400 2.71300 46.28200
H  9.26900 2.63300 44.85400
Mg 45.98100 25.81300 27.78200
C  47.12800 28.11500 30.27600
C  45.32900 23.64700 30.17100
C  45.73300 23.51100 25.35300
C  47.55100 27.91100 25.38200
N  46.11000 25.96100 30.01900
C  46.42100 27.00200 30.77800
C  46.01300 26.75600 32.30400
C  45.52700 25.19300 32.25100
C  45.61100 24.92500 30.73400
C  46.41000 24.14400 33.03600
C  44.85700 27.65600 32.80300
C  45.28500 28.65000 33.89500
H  44.41600 28.77200 35.17100
N  45.39400 23.93100 27.82000
C  45.15400 23.17600 28.86900
C  44.57400 21.90600 28.51400
C  44.70200 21.84200 27.08600
C  45.26900 23.15700 26.67000
C  44.06100 20.86700 29.51500
C  44.18400 20.73800 26.15600
O  44.18400 20.85800 24.94500
C  43.74400 19.39400 26.71500
N  46.55800 25.80100 25.54900
C  46.33200 24.64000 24.80400
C  46.57300 24.99400 23.29200
C  47.10600 26.44700 23.34000
C  47.04200 26.76200 24.81500
C  47.45700 24.09200 22.56100
C  46.36200 27.46600 22.41400
C  47.33300 28.13400 21.40600
N  47.00700 27.72300 27.78000
C  47.57600 28.41500 26.74700
C  48.28200 29.51200 27.27800
C  48.14100 29.47400 28.65500
C  47.37200 28.32400 28.92600
C  49.13700 30.55200 26.50200
C  48.35200 30.16500 29.89700
O  48.90400 31.23500 30.13200
C  47.78000 29.24700 31.02500
C  48.85600 28.90800 31.95600
O  49.82300 28.17900 31.75800
O  48.61400 29.62400 33.11400
C  49.50700 29.30200 34.23400
H  45.32200 22.86300 30.93000
H  45.55800 22.80300 24.54000
H  48.07000 28.51700 24.63600
H  46.92500 26.91000 32.88100
H  44.49500 25.18900 32.60000
H  45.70600 23.73300 33.76000
H  47.22600 24.61200 33.58700
H  46.91700 23.40000 32.42200
H  44.08400 26.98300 33.17300
H  44.39700 28.21400 31.98700
H  45.30900 29.67600 33.52800
H  46.32200 28.45000 34.16200
H  44.71500 19.99500 29.54000
H  43.07500 20.53600 29.18800
H  43.88300 21.34300 30.47900
H  44.38400 19.03100 27.51800
H  43.79000 18.66400 25.90700
H  42.72500 19.42600 27.10200
H  45.55500 24.80900 22.94700
H  48.17000 26.31100 23.14800
H  48.18500 23.63200 23.23000
H  47.91300 24.66000 21.75000
H  46.89700 23.27900 22.09800
H  45.87900 28.16500 23.09800
H  45.57900 26.85900 21.95800
H  46.86800 28.15400 20.42000
H  48.24300 27.53800 21.47500
H  47.51800 29.19000 21.60100
H  48.79900 30.52000 25.46600
H  50.12600 30.09300 26.50200
H  49.12900 31.58100 26.86200
H  47.00200 29.81200 31.53800
H  50.54100 29.30100 33.88900
H  49.38800 28.35200 34.75600
H  49.43300 30.18100 34.87500

