158

Mg 6.22500 54.00100 42.10000
C  5.29600 50.57100 41.68800
C  9.31200 53.27400 40.60600
C  6.78800 57.28500 41.75300
C  2.81800 54.63700 42.71200
N  7.08400 52.20800 41.22400
C  6.56500 50.92600 41.14600
C  7.58300 49.95900 40.45500
C  8.90800 50.73700 40.46100
C  8.42900 52.18600 40.78200
C  9.98400 50.17900 41.45200
C  7.21800 49.34300 39.04900
C  6.20800 50.21000 38.22200
H  6.48100 50.36400 36.70400
N  7.87400 55.15300 41.42100
C  9.09600 54.65000 40.92400
C  10.01900 55.73400 40.67900
C  9.32500 56.94100 41.13300
C  7.92900 56.54200 41.46800
C  11.36600 55.63500 40.06700
C  9.88700 58.34200 41.13300
O  11.11300 58.51600 40.95300
C  9.04100 59.52500 41.44900
N  4.96500 55.67700 41.94900
C  5.47900 56.93800 42.03500
C  4.39500 57.90700 42.52400
C  3.07300 57.08300 42.43800
C  3.65800 55.72600 42.40100
C  4.65500 58.43100 43.92900
C  2.21600 57.43200 41.19400
C  0.73100 57.81800 41.53200
N  4.39000 52.87100 42.34600
C  3.15100 53.28100 42.78000
C  2.30700 52.12000 42.99300
C  3.20300 51.04100 42.66600
C  4.35700 51.56800 42.17200
C  0.98700 52.06300 43.54600
C  3.33900 49.59900 42.66200
O  2.62700 48.73300 43.09500
C  4.71800 49.24900 42.00200
C  4.33600 48.42700 40.81200
O  3.67700 48.79800 39.85100
O  4.74900 47.16400 41.03200
C  4.30900 46.14200 40.06500
H  10.30000 53.04100 40.20300
H  6.95800 58.35400 41.89300
H  1.74900 54.77500 42.88700
H  7.69500 49.15700 41.18500
H  9.33000 50.84500 39.46200
H  9.57700 50.04300 42.45400
H  10.81100 50.88300 41.54600
H  10.30300 49.23100 41.01900
H  6.77300 48.35600 39.17700
H  8.11700 49.19600 38.45000
H  6.34100 51.25600 38.49800
H  5.22600 49.77900 38.41700
H  11.28500 55.28600 39.03700
H  11.91700 54.83500 40.56100
H  12.10300 56.43800 40.07800
H  8.26700 59.56600 40.68200
H  9.66400 60.40600 41.29700
H  8.61500 59.55700 42.45100
H  4.31800 58.79900 41.90200
H  2.55700 57.17800 43.39300
H  3.99200 57.99900 44.67900
H  4.52700 59.51000 44.01800
H  5.65700 58.10700 44.20900
H  2.05200 56.58600 40.52600
H  2.71100 58.16900 40.56200
H  0.47500 57.80800 42.59100
H  0.12700 57.09800 40.98100
H  0.47900 58.78100 41.08700
H  0.42200 51.20400 43.18400
H  0.44300 52.96800 43.27500
H  1.12700 52.00400 44.62500
H  5.27300 48.60700 42.68600
H  4.58300 45.21800 40.57300
H  4.89900 46.21400 39.15200
H  3.27200 46.21600 39.73700
Mg 8.97100 48.19900 26.45400
C  6.46600 48.88400 28.85200
C  11.34500 49.10100 28.72100
C  11.29700 47.58100 24.11700
C  6.47600 47.56000 24.09600
N  8.86500 49.03600 28.51800
C  7.71600 49.13000 29.29200
C  8.12600 49.34300 30.77500
C  9.64900 49.60900 30.64600
C  9.96800 49.20000 29.21100
C  9.97100 51.07300 30.97600
C  7.84700 48.15600 31.71500
C  8.67900 47.99600 32.98700
H  8.13800 47.10900 34.18800
N  11.04800 48.23600 26.41900
C  11.79600 48.72400 27.43600
C  13.19800 48.70700 26.98900
C  13.24100 48.21100 25.69100
C  11.83100 48.00400 25.33900
C  14.36500 49.08500 27.94800
C  14.40200 47.92000 24.69900
O  14.24700 47.51000 23.54800
C  15.79300 48.10500 25.16500
N  8.89500 47.73900 24.39300
C  10.01200 47.40000 23.69700
C  9.66600 46.93400 22.28400
C  8.17200 46.97200 22.23100
C  7.76600 47.39300 23.68500
C  10.31800 47.63300 21.09600
C  7.56200 45.54800 21.79800
C  7.27500 45.56000 20.22500
N  6.82100 48.39500 26.37200
C  5.92300 48.02100 25.34800
C  4.56200 48.26300 25.89500
C  4.74900 48.48200 27.23700
C  6.09700 48.62900 27.44100
C  3.30400 47.97500 25.26800
C  4.10200 48.71500 28.45100
O  2.89900 48.74400 28.69500
C  5.12800 48.89300 29.63600
C  5.09200 47.74400 30.50000
O  5.50100 46.60600 30.21900
O  4.62800 48.13900 31.68300
C  4.10400 47.16800 32.57900
H  12.10700 49.30300 29.47600
H  12.01800 47.19300 23.39500
H  5.79100 47.34500 23.27400
H  7.55400 50.21900 31.08000
H  10.32700 49.03600 31.27700
H  9.12300 51.70300 31.24300
H  10.22700 51.47500 29.99600
H  10.79900 51.12900 31.68300
H  7.65900 47.22800 31.17500
H  6.89800 48.45100 32.16300
H  9.03700 48.93900 33.40000
H  9.63200 47.54400 32.71200
H  15.05500 49.73100 27.40500
H  15.03600 48.26600 28.20800
H  13.96700 49.62100 28.81000
H  16.52300 47.75800 24.43400
H  15.97900 47.58700 26.10600
H  15.90300 49.18900 25.19800
H  10.03500 45.91200 22.20000
H  7.65400 47.64200 21.54400
H  9.54000 48.01400 20.43400
H  10.96600 47.02500 20.46400
H  10.93300 48.48600 21.38300
H  6.69800 45.38800 22.44300
H  8.19400 44.66200 21.85300
H  7.76800 46.36200 19.67500
H  6.20600 45.73400 20.09600
H  7.49200 44.57700 19.80800
H  3.53400 47.40700 24.36700
H  2.71800 48.85700 25.01000
H  2.69000 47.33000 25.89700
H  5.05500 49.83700 30.17500
H  3.89400 47.61400 33.55100
H  4.79400 46.32700 32.52400
H  3.14000 46.98700 32.10200

