158

Mg 26.59300 0.34200 29.27700
C  28.39600 -0.33200 32.25200
C  23.80600 0.86700 31.14900
C  24.91900 0.56900 26.44700
C  29.45000 -0.50900 27.34100
N  26.08300 0.06500 31.52800
C  27.03900 0.00500 32.51000
C  26.44500 0.37100 33.88400
C  24.93100 0.52800 33.49100
C  24.91000 0.59400 31.93900
C  23.91700 -0.46100 34.16300
C  27.05900 1.69400 34.52400
C  26.23700 2.20800 35.80600
H  26.95500 2.32700 37.15500
N  24.59900 0.78700 28.86700
C  23.62800 0.96600 29.75400
C  22.38400 1.20200 28.99000
C  22.69700 1.00700 27.59600
C  24.14900 0.80400 27.58500
C  21.06500 1.41200 29.66200
C  21.69900 1.02300 26.44000
O  22.13300 0.89200 25.26500
C  20.19700 1.15700 26.69100
N  27.10300 -0.09200 27.02100
C  26.17100 0.12100 26.10000
C  26.80600 -0.07600 24.69100
C  28.28900 -0.16000 24.99500
C  28.28600 -0.31400 26.54700
C  26.09500 -1.18000 23.85800
C  29.26200 0.97500 24.55100
C  30.09600 0.75700 23.25600
N  28.49500 -0.36500 29.64000
C  29.58900 -0.48900 28.76800
C  30.75700 -0.80500 29.54200
C  30.36000 -0.76400 30.87100
C  28.97600 -0.46700 30.91500
C  32.08700 -1.04700 28.95400
C  30.83700 -0.78000 32.24800
O  31.91300 -0.99600 32.73800
C  29.55700 -0.30900 33.14400
C  29.49200 -1.21900 34.22900
O  29.29000 -2.44200 34.12200
O  29.82300 -0.62000 35.47400
C  29.87000 -1.46100 36.63100
H  22.94700 1.09500 31.78300
H  24.38400 0.58800 25.49500
H  30.32400 -0.70800 26.71700
H  26.58100 -0.46300 34.57200
H  24.72700 1.56900 33.74000
H  24.48700 -0.93900 34.96000
H  23.55600 -1.17000 33.41800
H  22.95500 -0.09500 34.52200
H  27.17600 2.51800 33.82100
H  28.01300 1.37700 34.94600
H  25.31500 1.63500 35.90100
H  25.89600 3.15900 35.39600
H  21.15600 1.54800 30.73900
H  20.51400 0.48400 29.51400
H  20.54000 2.24000 29.18500
H  19.86000 2.04500 27.22500
H  19.90400 0.37500 27.39100
H  19.65500 1.02200 25.75500
H  26.63900 0.86600 24.17000
H  28.64700 -1.10700 24.59300
H  25.97300 -0.86200 22.82200
H  25.08400 -1.25600 24.25600
H  26.55500 -2.16600 23.78700
H  29.90600 1.28700 25.37300
H  28.54100 1.77400 24.37300
H  30.17100 -0.31800 23.08700
H  31.07700 1.20600 23.40700
H  29.57300 1.24300 22.43200
H  32.65500 -0.11700 28.98100
H  32.12100 -1.39500 27.92200
H  32.66800 -1.81400 29.46800
H  29.76700 0.67600 33.56100
H  29.86500 -2.55000 36.58300
H  29.09300 -1.19400 37.34700
H  30.83100 -1.23800 37.09300
Mg 16.28900 52.34100 25.06600
C  18.18400 51.20100 27.85400
C  13.93900 53.39200 27.38500
C  14.75900 53.44900 22.55300
C  18.86800 51.00500 23.04100
N  16.02200 52.12600 27.38700
C  16.97800 51.81700 28.29600
C  16.52100 52.18500 29.72500
C  15.03500 52.56300 29.49300
C  15.04300 52.85200 28.00900
C  14.14400 51.36800 29.86900
C  17.39100 53.34800 30.37800
C  17.17600 53.53100 31.85900
H  16.23200 52.57100 32.57800
N  14.54300 53.25600 24.93100
C  13.63200 53.57100 25.98800
C  12.46800 54.29400 25.33800
C  12.70400 54.38400 23.91600
C  14.04100 53.71800 23.74800
C  11.36400 54.93000 26.08200
C  11.84700 55.00100 22.88600
O  12.23700 55.04600 21.75300
C  10.56300 55.69200 23.13400
N  16.69000 52.25100 23.02500
C  15.96900 52.87900 22.19200
C  16.61300 53.01800 20.84100
C  17.86100 52.14000 20.92800
C  17.89000 51.76900 22.39700
C  15.67900 52.57600 19.66400
C  19.13000 52.76500 20.32800
C  20.23600 51.86500 19.65200
N  17.98600 51.16600 25.27100
C  18.91900 50.75000 24.41900
C  20.04300 50.02800 25.08900
C  19.79500 50.21100 26.43800
C  18.52400 50.96400 26.48000
C  21.09200 49.13900 24.50600
C  20.32500 49.87600 27.67700
O  21.33900 49.29300 27.99100
C  19.43900 50.66700 28.67600
C  18.96700 49.71900 29.70300
O  18.49000 48.57400 29.41900
O  19.10300 50.18800 30.94100
C  18.71000 49.24700 32.02900
H  13.12200 53.68800 28.04600
H  14.32000 53.99300 21.71400
H  19.58900 50.54700 22.36100
H  16.74500 51.26900 30.27200
H  14.64400 53.35300 30.13400
H  13.11300 51.69500 30.00900
H  14.53800 50.86900 30.75400
H  14.10200 50.62800 29.06900
H  17.02300 54.26900 29.92600
H  18.46900 53.26700 30.24000
H  16.86100 54.56700 31.98000
H  18.13400 53.37500 32.35400
H  11.21700 55.97000 25.78800
H  11.63600 55.02000 27.13400
H  10.40800 54.41300 26.00000
H  9.93600 55.18200 23.86500
H  10.09900 55.76100 22.14900
H  10.87900 56.68500 23.45400
H  17.05500 54.01300 20.78100
H  17.69300 51.24200 20.33400
H  16.29400 52.38800 18.78400
H  15.09300 53.49300 19.59900
H  15.09200 51.68700 19.89400
H  19.57900 53.34200 21.13600
H  18.77000 53.48700 19.59400
H  21.11900 52.34600 20.07400
H  20.23100 51.85000 18.56200
H  20.25300 50.83200 20.00000
H  20.81500 48.58800 23.60600
H  21.23600 48.37500 25.27000
H  22.02300 49.69600 24.40800
H  20.05200 51.43700 29.14400
H  19.35500 48.39600 32.24500
H  17.66800 48.96500 31.87600
H  18.65300 49.99500 32.82000

