158

Mg -0.38900 6.55000 26.14800
C  0.54500 8.85600 28.62600
C  0.21300 3.95800 28.28500
C  -0.79700 4.52900 23.59900
C  0.01900 9.31500 23.92600
N  0.39000 6.33000 28.21800
C  0.42600 7.48800 29.08400
C  0.40600 6.97200 30.58900
C  0.49900 5.39600 30.41600
C  0.30400 5.18000 28.89900
C  1.73700 4.70800 31.05400
C  -0.80000 7.49200 31.40000
C  -0.51400 8.34000 32.60600
H  0.63400 7.86300 33.49600
N  -0.36200 4.53800 25.93400
C  0.00900 3.61200 26.89500
C  -0.14500 2.31600 26.38700
C  -0.56000 2.44700 25.03200
C  -0.63100 3.85500 24.80400
C  0.04500 1.14300 27.23900
C  -0.93300 1.40200 24.04200
O  -1.54000 1.71600 23.02400
C  -0.68600 -0.05300 24.34000
N  -0.48000 6.93700 24.10500
C  -0.67300 5.90600 23.26900
C  -0.43200 6.34000 21.84900
C  -0.51100 7.86200 21.91700
C  -0.31600 8.09900 23.41600
C  0.97600 5.90700 21.33200
C  -1.74200 8.59700 21.28700
C  -2.82200 9.15200 22.25900
N  0.18600 8.68200 26.16100
C  0.25800 9.65700 25.20600
C  0.79600 10.85900 25.75600
C  0.84200 10.65500 27.09400
C  0.48500 9.29200 27.25300
C  1.20000 12.04300 25.03900
C  1.22900 11.26600 28.39700
O  1.63400 12.39500 28.71100
C  0.89900 10.14400 29.40700
C  2.11700 9.99200 30.24100
O  3.03600 9.23200 29.97000
O  1.97100 10.81200 31.36000
C  3.12500 10.98300 32.20600
H  0.30300 3.16400 29.02900
H  -0.90200 3.84600 22.75400
H  0.32800 10.12000 23.25600
H  1.27800 7.31300 31.14700
H  -0.40500 4.97400 30.85500
H  2.08800 5.40700 31.81300
H  2.49000 4.50500 30.29200
H  1.38200 3.73100 31.38100
H  -1.57000 6.77100 31.67300
H  -1.23200 8.17800 30.67200
H  -1.35700 8.36600 33.29600
H  -0.41900 9.39400 32.34500
H  -0.87300 0.81000 27.72300
H  0.64500 1.26300 28.14100
H  0.57700 0.37400 26.68000
H  -1.00800 -0.33200 25.34400
H  0.33200 -0.42400 24.22500
H  -1.26100 -0.68400 23.66300
H  -1.28500 6.09100 21.21800
H  0.38200 8.29100 21.46200
H  1.25400 4.93200 21.73000
H  1.78100 6.63200 21.45300
H  0.95200 5.75800 20.25200
H  -2.28600 7.93600 20.61300
H  -1.28600 9.44300 20.77200
H  -2.81100 10.23800 22.17100
H  -2.64800 9.08800 23.33300
H  -3.73300 8.70800 21.85700
H  0.45300 12.40500 24.33300
H  2.09500 12.01100 24.41700
H  1.13100 12.88000 25.73400
H  0.06700 10.46100 30.03600
H  3.95300 11.22000 31.53700
H  3.38700 10.03800 32.68300
H  2.99000 11.66200 33.04800
Mg 48.46800 35.59600 27.46800
C  46.58000 34.11200 30.08200
C  48.92200 38.30900 29.60300
C  50.12700 37.24100 25.03700
C  47.67200 33.05400 25.31600
N  47.72200 36.11600 29.63000
C  47.27100 35.23700 30.55100
C  47.43200 35.72500 31.95400
C  47.69700 37.27100 31.59700
C  48.20500 37.26600 30.17600
C  46.42200 38.13400 31.71000
C  48.65100 35.02200 32.58600
C  48.70500 34.98600 34.09900
H  47.62600 35.69500 34.83100
N  49.47000 37.47600 27.36900
C  49.52600 38.43900 28.28800
C  50.26700 39.50100 27.83700
C  50.84000 39.10300 26.59000
C  50.10500 37.94700 26.24100
C  50.47500 40.81100 28.60700
C  51.79400 39.81300 25.68900
O  52.22300 39.36400 24.65900
C  52.58400 40.98200 26.28900
N  49.06700 35.08500 25.48500
C  49.64100 35.95600 24.70500
C  49.59900 35.48600 23.23400
C  48.98400 34.09100 23.32100
C  48.54500 34.04400 24.81900
C  48.93200 36.48900 22.24200
C  50.01800 32.92700 23.15400
C  50.04000 32.11400 21.86600
N  47.35400 33.86800 27.61300
C  47.07800 32.95200 26.64500
C  46.19200 31.96000 27.22600
C  45.91500 32.37600 28.53100
C  46.70100 33.52800 28.74100
C  45.62400 30.86200 26.39900
C  45.24500 32.05300 29.75400
O  44.54800 31.08200 30.08900
C  45.55200 33.24400 30.77700
C  45.91200 32.68000 32.13200
O  46.89700 31.91200 32.38900
O  44.95300 33.06200 33.06000
C  45.08200 32.52900 34.45600
H  49.13400 39.18500 30.21900
H  50.50600 37.82300 24.19400
H  47.36900 32.28300 24.60500
H  46.52400 35.50200 32.51400
H  48.45900 37.61800 32.29500
H  45.53700 37.58600 32.03300
H  46.32300 38.66100 30.76000
H  46.71900 38.86000 32.46700
H  49.57200 35.34800 32.10200
H  48.56200 34.00900 32.19300
H  49.51800 35.60500 34.48100
H  48.84200 33.95700 34.43300
H  50.46500 41.60800 27.86400
H  51.43200 40.84900 29.12700
H  49.63600 40.93600 29.29300
H  51.90300 41.83000 26.36500
H  53.32200 41.48300 25.66200
H  53.01100 40.73900 27.26200
H  50.63800 35.43600 22.90700
H  48.04000 33.86500 22.82400
H  48.14800 36.02100 21.64700
H  49.67300 36.80600 21.50700
H  48.57400 37.34700 22.80900
H  49.96800 32.27500 24.02600
H  50.99300 33.40900 23.23000
H  49.30100 32.53200 21.18300
H  49.77600 31.06600 22.00900
H  51.02700 32.24300 21.42200
H  46.33400 30.32300 25.77200
H  44.85500 31.26600 25.74100
H  45.05000 30.18200 27.02900
H  44.64600 33.84500 30.86000
H  44.43900 31.66900 34.64400
H  44.69200 33.30900 35.10900
H  46.11300 32.35100 34.76200

