158

Mg 49.03200 45.13300 42.07000
C  45.96600 45.74000 40.48200
C  48.96200 42.00100 40.95600
C  52.34500 44.99000 42.83400
C  49.25000 48.60200 42.67600
N  47.55100 43.92100 40.97200
C  46.37800 44.36400 40.43500
C  45.69100 43.24000 39.67500
C  46.60000 41.99200 40.02500
C  47.79100 42.63200 40.67000
C  45.98800 40.88000 40.98400
C  45.65500 43.64900 38.16800
C  44.26700 43.54600 37.53600
H  44.16900 42.56100 36.30700
N  50.41100 43.62800 41.95400
C  50.14900 42.37800 41.54000
C  51.34700 41.55000 41.61100
C  52.33600 42.41000 42.20600
C  51.73900 43.72600 42.43200
C  51.48100 40.02400 41.23400
C  53.77900 41.97900 42.50400
O  54.02900 40.76300 42.38400
C  54.96200 42.85700 42.85000
N  50.66100 46.66600 42.31000
C  51.84300 46.28400 42.67300
C  52.78600 47.51800 42.89800
C  51.79600 48.62400 43.04000
C  50.48800 47.96600 42.70600
C  53.76000 47.48600 44.16400
C  52.06600 49.95400 42.30400
C  52.09300 51.28400 43.12700
N  47.80300 46.78000 41.83200
C  48.10700 48.08400 42.12400
C  46.95300 48.91200 41.69300
C  46.07300 47.99000 41.05500
C  46.64300 46.75900 41.12500
C  46.83600 50.45700 41.88100
C  44.86800 47.90000 40.32500
O  44.11400 48.73200 39.83800
C  44.67600 46.42600 40.02700
C  43.44000 45.95900 40.75500
O  42.43200 45.56200 40.12000
O  43.64600 45.93600 42.05800
C  42.59600 45.39200 42.88000
H  48.99000 40.93400 40.72300
H  53.42000 44.90000 43.00600
H  49.26400 49.68200 42.83700
H  44.72200 43.05300 40.13900
H  47.04800 41.46100 39.18500
H  45.90600 39.92100 40.47400
H  44.97000 41.16700 41.24600
H  46.49800 40.70600 41.93200
H  46.29600 42.98300 37.58900
H  46.14600 44.60800 38.00400
H  44.00500 44.54800 37.19700
H  43.57700 43.21600 38.31400
H  50.62900 39.81200 40.58800
H  51.29100 39.45800 42.14600
H  52.39000 39.84700 40.65900
H  54.89400 43.22800 43.87300
H  55.05200 43.69900 42.16400
H  55.84400 42.21800 42.80600
H  53.45900 47.69200 42.05900
H  51.68700 48.82100 44.10600
H  53.77500 46.41800 44.38400
H  53.37400 48.01000 45.03900
H  54.78400 47.76300 43.91600
H  51.37400 50.03100 41.46600
H  52.98400 49.79900 41.73900
H  53.03400 51.82800 43.05200
H  51.85200 51.07400 44.16900
H  51.29500 51.98300 42.87500
H  46.48500 50.87700 40.93800
H  47.76500 50.94500 42.17600
H  46.01400 50.68100 42.56000
H  44.38900 46.27900 38.98600
H  42.18400 46.19300 43.49400
H  42.96300 44.62700 43.56400
H  41.68400 45.01500 42.41600
Mg 41.86600 40.52800 26.90100
C  41.46300 42.82200 29.57300
C  42.99600 38.26800 29.03100
C  42.74300 38.67000 24.25400
C  41.07600 43.24300 24.72900
N  42.24600 40.70200 29.02200
C  41.91500 41.62100 30.02500
C  42.03300 41.16100 31.38400
C  42.81800 39.83600 31.07400
C  42.57700 39.54700 29.57200
C  44.29200 39.91900 31.58500
C  40.64200 41.06400 32.14100
C  40.41600 41.96600 33.44100
H  39.64000 41.32200 34.68100
N  42.80900 38.71000 26.65900
C  43.20000 37.88100 27.68200
C  43.59300 36.51700 27.16300
C  43.34100 36.60500 25.73800
C  42.88700 38.02900 25.49600
C  44.00200 35.29900 28.03200
C  43.60500 35.58100 24.70000
O  43.42900 35.81100 23.49200
C  44.11900 34.16800 25.03300
N  41.98700 40.95900 24.87500
C  42.35400 39.99500 23.93700
C  41.83700 40.33600 22.54800
C  41.31800 41.83900 22.68100
C  41.41500 42.04700 24.18700
C  42.96100 40.14700 21.49400
C  39.84900 42.00500 22.23500
C  39.67800 42.32600 20.77500
N  41.40800 42.68900 27.08500
C  40.99800 43.54000 26.09600
C  40.62100 44.76200 26.71900
C  40.72100 44.57200 28.13500
C  41.30900 43.28800 28.27800
C  40.18700 45.88300 25.94400
C  40.49400 45.19200 29.42100
O  40.04700 46.26400 29.73700
C  41.00100 44.06700 30.43100
C  42.10000 44.65800 31.15100
O  43.17900 44.95100 30.69100
O  41.63400 45.01900 32.34900
C  42.57600 45.63500 33.26900
H  43.26600 37.58100 29.83600
H  42.80300 38.06900 23.34400
H  40.80700 44.11400 24.12700
H  42.59700 41.97200 31.84400
H  42.23100 39.08800 31.60600
H  44.91000 39.66800 30.72300
H  44.47600 39.11700 32.30000
H  44.65400 40.91800 31.82900
H  40.38800 40.09800 32.57700
H  39.90100 41.36300 31.40000
H  39.82700 42.85400 33.21200
H  41.41100 42.21200 33.81300
H  45.01800 35.06900 27.70900
H  43.40200 34.42700 27.77100
H  43.84500 35.54800 29.08100
H  44.34400 33.54000 24.17100
H  43.31300 33.63900 25.54200
H  45.08600 34.20700 25.53300
H  41.03900 39.62600 22.32800
H  41.94200 42.56100 22.15500
H  44.02100 40.13000 21.74800
H  42.89200 40.96000 20.77100
H  42.82400 39.17100 21.03000
H  39.37500 42.81100 22.79700
H  39.29600 41.10400 22.49800
H  39.25900 43.29400 20.49800
H  39.03800 41.63400 20.22700
H  40.66400 42.38600 20.31400
H  40.68300 45.99900 24.98000
H  40.36300 46.77200 26.55100
H  39.11400 45.74600 25.81100
H  40.17200 43.90500 31.12000
H  43.06800 44.99400 34.00000
H  41.91600 46.23400 33.89600
H  43.30000 46.24200 32.72600

