158

Mg 52.81000 23.57200 44.73400
C  50.22500 25.84000 43.78600
C  50.94700 21.12500 43.68900
C  55.60500 21.62600 44.79200
C  54.80600 26.37800 45.52500
N  50.79000 23.61300 43.79500
C  49.95700 24.57900 43.37600
C  48.75000 23.95800 42.66300
C  48.84800 22.43800 43.09200
C  50.26600 22.35500 43.54000
C  47.94500 22.09000 44.36500
C  48.59600 24.14900 41.12000
C  49.97700 24.26200 40.40500
H  49.89800 24.48200 38.88300
N  53.15400 21.63500 44.42800
C  52.22700 20.75400 43.99300
C  52.81600 19.45700 43.90300
C  54.16300 19.52900 44.33200
C  54.35700 21.01700 44.49100
C  52.00400 18.26200 43.54700
C  55.11100 18.36300 44.62800
O  54.87800 17.27600 44.12000
C  56.43700 18.50500 45.32000
N  55.03400 24.00400 44.81000
C  55.90100 23.03300 44.95200
C  57.29100 23.61200 45.36200
C  56.92500 24.99200 45.88300
C  55.52700 25.17500 45.36600
C  58.05200 22.75400 46.36000
C  57.95900 26.04300 45.44400
C  58.46600 27.08000 46.51800
N  52.62400 25.68600 44.68000
C  53.42300 26.66700 45.21400
C  52.62300 27.91700 45.41500
C  51.37800 27.62300 44.86000
C  51.39400 26.24700 44.44800
C  53.05400 29.14900 46.09800
C  50.03600 28.15600 44.56000
O  49.67300 29.30600 44.66500
C  49.25500 27.03000 43.81400
C  48.89000 27.48000 42.53400
O  49.65400 27.41900 41.59400
O  47.55300 27.94900 42.48200
C  47.20100 28.32800 41.20500
H  50.30000 20.31500 43.34600
H  56.41800 20.91500 44.95700
H  55.27100 27.16100 46.12700
H  47.88700 24.47600 43.08100
H  48.58500 21.85700 42.20800
H  48.53700 21.63500 45.15900
H  47.19300 21.37000 44.04300
H  47.50100 23.01300 44.73700
H  47.89900 24.98300 41.04000
H  48.00800 23.29500 40.78400
H  50.69000 23.46700 40.62400
H  50.41300 25.19400 40.76400
H  52.32800 18.03700 42.53100
H  50.95200 18.44200 43.77100
H  52.31900 17.37900 44.10300
H  56.38500 19.22200 46.14000
H  57.31600 18.85600 44.77900
H  56.72200 17.50000 45.63200
H  57.90900 23.78200 44.48000
H  56.75000 25.02300 46.95900
H  58.75500 23.27800 47.00800
H  58.71300 22.03000 45.88300
H  57.31400 22.24500 46.98000
H  57.62300 26.45700 44.49300
H  58.78100 25.37400 45.18900
H  59.43300 26.74800 46.89500
H  57.67600 27.03600 47.26700
H  58.65800 28.08100 46.13000
H  54.04400 29.44400 45.74900
H  53.05500 28.98800 47.17600
H  52.32800 29.92400 45.85600
H  48.28400 26.88400 44.28700
H  47.32700 29.41100 41.23200
H  46.19100 27.91900 41.20500
H  47.81000 27.86000 40.43200
Mg -11.31600 16.01100 43.37100
C  -7.93400 17.13800 43.42300
C  -12.19100 19.23100 42.53800
C  -14.44300 14.97000 43.28300
C  -10.13700 12.71400 43.57100
N  -10.16800 17.95700 42.92100
C  -8.83700 18.14700 43.01600
C  -8.45600 19.53400 42.62800
C  -9.84800 20.25700 42.49700
C  -10.81800 19.06800 42.63700
C  -10.12100 21.49500 43.41500
C  -7.67800 19.42100 41.23900
C  -6.38800 20.16400 41.22600
H  -5.38600 19.72900 40.12800
N  -13.09200 17.03000 43.13700
C  -13.23500 18.34000 42.86800
C  -14.63300 18.68100 42.81900
C  -15.40000 17.45500 43.02800
C  -14.32700 16.41700 43.17200
C  -15.08300 20.13000 42.46000
C  -16.84400 17.31300 43.16900
O  -17.53700 18.26900 42.81500
C  -17.49400 16.15600 43.73900
N  -12.17200 14.08200 43.21100
C  -13.50100 13.98400 43.29100
C  -13.84400 12.52300 43.46000
C  -12.47000 11.73100 43.43400
C  -11.49300 12.88800 43.43900
C  -14.76000 12.18800 44.66100
C  -12.24300 10.82400 42.13400
C  -12.31600 9.29500 42.26700
N  -9.45100 15.07700 43.40200
C  -9.13500 13.72800 43.51700
C  -7.76300 13.54900 43.69500
C  -7.23700 14.88400 43.69800
C  -8.29400 15.77700 43.60700
C  -7.00600 12.27900 43.79900
C  -6.04600 15.69700 43.76200
O  -4.87700 15.36700 43.84200
C  -6.40900 17.25700 43.69700
C  -6.14800 17.92700 44.87400
O  -6.14900 17.44300 45.97000
O  -5.87900 19.28100 44.60800
C  -5.76700 20.15600 45.74700
H  -12.36800 20.28800 42.32800
H  -15.44200 14.54300 43.39800
H  -9.80200 11.67800 43.65700
H  -7.98900 19.96900 43.51000
H  -9.99700 20.66000 41.49500
H  -10.44000 22.42500 42.94400
H  -9.16500 21.72900 43.88300
H  -10.77700 21.14400 44.21200
H  -8.16900 19.88900 40.38600
H  -7.58100 18.36000 41.01000
H  -5.93900 20.03200 42.21100
H  -6.60700 21.23100 41.20800
H  -16.13800 20.04300 42.20000
H  -14.48600 20.70000 41.74800
H  -15.01600 20.59400 43.44400
H  -18.45200 16.46800 44.15300
H  -16.82900 15.86300 44.55100
H  -17.74400 15.42900 42.96600
H  -14.42300 12.16300 42.60900
H  -12.31700 11.14300 44.33900
H  -14.71700 12.92600 45.46300
H  -14.68400 11.19000 45.09200
H  -15.80000 12.22900 44.33900
H  -11.29300 11.15900 41.71600
H  -13.06800 11.17000 41.51100
H  -13.23200 8.89100 41.83700
H  -12.08800 8.99700 43.29100
H  -11.52300 8.80700 41.70000
H  -7.01700 11.82900 42.80700
H  -7.35400 11.66500 44.63000
H  -5.98600 12.59000 44.02800
H  -5.87400 17.79100 42.91100
H  -6.75600 20.50700 46.04200
H  -5.28000 21.10700 45.53500
H  -5.25900 19.70000 46.59700

