158

Mg 17.45300 -2.91200 28.11000
C  16.47700 -0.83000 30.73800
C  19.56500 -4.56300 30.12800
C  18.87600 -4.23400 25.33500
C  15.60500 -0.74600 25.88600
N  17.98400 -2.62000 30.19000
C  17.38200 -1.79100 31.13400
C  17.95700 -2.00700 32.49900
C  19.06500 -3.06600 32.17400
C  18.90300 -3.44300 30.72800
C  20.55700 -2.60400 32.47800
C  16.86700 -2.46600 33.59000
C  17.03500 -2.08300 35.03400
H  18.46000 -1.67800 35.51800
N  18.93100 -4.35300 27.82800
C  19.65900 -4.96600 28.73800
C  20.40800 -6.06600 28.17300
C  20.23900 -5.96400 26.71200
C  19.31700 -4.78900 26.55300
C  21.24500 -7.11400 28.96100
C  20.83200 -6.69200 25.54500
O  20.65600 -6.40200 24.34900
C  21.57100 -7.91500 25.88000
N  17.18600 -2.60200 26.01000
C  17.90100 -3.27200 25.12500
C  17.51800 -2.87600 23.64400
C  16.31900 -1.92200 23.86600
C  16.29500 -1.80900 25.34800
C  18.63300 -2.31600 22.74400
C  14.86900 -2.24100 23.30900
C  13.97800 -1.04100 22.72100
N  16.18200 -1.23700 28.26900
C  15.57300 -0.46700 27.29800
C  14.89900 0.72200 27.91700
C  15.24900 0.64700 29.26800
C  15.98900 -0.56900 29.45200
C  14.34600 1.93400 27.18300
C  15.14600 1.27000 30.60400
O  14.40700 2.18200 30.92000
C  15.80600 0.31100 31.59900
C  16.63500 1.17000 32.47200
O  17.68500 1.67300 32.23100
O  15.98100 1.31600 33.70100
C  16.52800 2.36500 34.58300
H  20.25800 -5.15500 30.73000
H  19.27500 -4.60000 24.38700
H  15.00100 -0.15000 25.19900
H  18.41700 -1.07500 32.82600
H  18.98100 -3.92400 32.84200
H  20.96600 -3.18700 33.30300
H  20.59400 -1.58100 32.85200
H  21.16000 -2.72100 31.57700
H  16.84200 -3.54900 33.47200
H  15.86000 -2.18100 33.28600
H  16.80700 -2.95300 35.65000
H  16.35500 -1.26900 35.28500
H  21.39200 -6.71800 29.96600
H  22.15000 -7.40600 28.42700
H  20.59600 -7.98800 29.01100
H  22.63400 -7.78100 26.08000
H  21.46800 -8.56500 25.01100
H  21.05300 -8.46900 26.66200
H  16.98200 -3.72600 23.22200
H  16.61800 -0.90400 23.61800
H  18.30900 -1.44200 22.17900
H  18.87000 -3.02000 21.94600
H  19.56700 -2.08000 23.25400
H  14.31200 -2.66800 24.14300
H  15.05600 -3.00300 22.55200
H  13.09400 -0.76200 23.29300
H  13.84000 -1.30200 21.67100
H  14.51300 -0.09200 22.73800
H  13.94200 1.61200 26.22300
H  15.16700 2.64900 27.14500
H  13.47600 2.28100 27.74100
H  15.00600 -0.15400 32.17500
H  16.23500 2.15700 35.61300
H  16.15700 3.35200 34.30800
H  17.61400 2.31000 34.65300
Mg 46.49300 45.14600 43.58000
C  42.97400 44.88300 43.36700
C  46.66600 41.72900 42.74400
C  49.88300 45.45600 43.45900
C  46.13500 48.65800 43.69700
N  45.00400 43.56500 42.76100
C  43.59700 43.67900 42.99300
C  42.98900 42.29900 42.88800
C  44.15100 41.30600 42.68700
C  45.36800 42.24200 42.68200
C  44.25500 40.18900 43.77500
C  41.81100 42.17200 41.89100
C  42.12800 42.70200 40.44700
H  41.88900 41.70300 39.22000
N  48.04600 43.75300 43.26400
C  47.94600 42.42500 42.97700
C  49.31900 41.86300 42.97600
C  50.19000 42.94900 43.04400
C  49.36400 44.11200 43.30900
C  49.68100 40.29600 42.85400
C  51.71100 42.75700 42.85300
O  52.18500 41.70400 42.49500
C  52.64300 43.96000 42.70100
N  47.81300 46.72900 43.55400
C  49.15800 46.68100 43.62800
C  49.83700 48.03400 43.90800
C  48.65700 49.03900 43.62800
C  47.41500 48.07600 43.58000
C  50.46400 48.08000 45.30100
C  48.79300 49.98000 42.44300
C  48.59200 51.47000 42.72200
N  44.92500 46.53100 43.51700
C  44.93800 47.89800 43.67100
C  43.60800 48.35800 43.93100
C  42.77500 47.21900 43.80000
C  43.64500 46.11900 43.60300
C  43.16700 49.80600 44.18100
C  41.33500 46.67400 43.67800
O  40.27700 47.24700 43.61500
C  41.49900 45.19000 43.43500
C  40.73600 44.48700 44.53800
O  39.49800 44.41300 44.46300
O  41.52300 44.17000 45.58500
C  40.93000 43.22500 46.56000
H  46.83800 40.65400 42.65200
H  50.96800 45.58400 43.48600
H  45.98400 49.69700 44.00000
H  42.61100 42.19300 43.90500
H  44.00300 40.89200 41.68900
H  43.31100 40.03000 44.29700
H  45.04500 40.43300 44.48500
H  44.37400 39.20700 43.31700
H  40.85100 42.56900 42.22000
H  41.71800 41.08900 41.81600
H  43.08900 43.20900 40.36100
H  41.33700 43.43000 40.26900
H  49.83200 39.97200 41.82400
H  48.83500 39.69600 43.18900
H  50.52200 40.09100 43.51700
H  52.21400 44.48600 41.84800
H  53.62200 43.68900 42.30600
H  52.81100 44.66200 43.51800
H  50.53300 48.27700 43.10600
H  48.61400 49.64900 44.53000
H  51.48600 48.41300 45.12000
H  50.53400 47.07200 45.71000
H  49.95800 48.79500 45.94800
H  48.01500 49.70300 41.73200
H  49.78000 49.78500 42.02300
H  49.44900 52.08900 42.45600
H  48.36800 51.61200 43.77900
H  47.69700 51.76400 42.17300
H  43.03600 50.35500 43.24800
H  43.85900 50.35600 44.81700
H  42.19100 49.74000 44.66300
H  41.02000 44.84500 42.51900
H  41.41100 43.38400 47.52500
H  40.95900 42.18800 46.22500
H  39.89900 43.43000 46.84800

