158

Mg 47.15200 16.28600 28.58000
C  45.12600 15.78600 31.30500
C  49.32600 17.99100 30.57700
C  49.21700 16.63800 25.87300
C  44.70200 15.03500 26.42400
N  47.12500 16.81200 30.69600
C  46.30700 16.45500 31.71800
C  46.77200 16.89300 33.08700
C  47.98700 17.77100 32.70400
C  48.09300 17.60200 31.14200
C  47.86700 19.28100 33.13700
C  47.23600 15.63600 33.93900
C  47.07100 15.81100 35.48700
H  46.72100 17.16900 36.04500
N  48.97000 17.19800 28.22900
C  49.73500 17.85700 29.18000
C  50.99500 18.25400 28.64800
C  51.05800 17.78100 27.32800
C  49.74100 17.13700 27.08800
C  52.05600 19.05800 29.50300
C  52.12300 17.84300 26.38300
O  52.00300 17.50500 25.22800
C  53.45800 18.49200 26.70600
N  46.99200 15.94000 26.33000
C  47.98900 16.11500 25.47200
C  47.48700 15.98900 23.99200
C  46.12400 15.35800 24.17800
C  45.92200 15.42700 25.72000
C  47.44700 17.30200 23.20600
C  45.96100 13.94400 23.49500
C  46.06400 12.72800 24.38100
N  45.35000 15.49800 28.76500
C  44.40900 15.04500 27.81900
C  43.20300 14.60000 28.56800
C  43.49800 14.81400 29.90900
C  44.77600 15.40000 30.01900
C  41.91800 14.10000 28.02600
C  42.99700 14.72100 31.26700
O  41.89500 14.30100 31.70200
C  43.99600 15.45100 32.22000
C  43.32900 16.60400 32.88300
O  42.97800 17.63600 32.36900
O  43.02100 16.24500 34.18600
C  42.59800 17.39300 35.08400
H  50.01900 18.46100 31.27800
H  49.77000 16.94500 24.98300
H  43.92600 14.62700 25.77300
H  45.98600 17.46900 33.57600
H  48.89600 17.51400 33.24800
H  46.93900 19.42300 33.69100
H  47.89000 19.85900 32.21300
H  48.72300 19.51500 33.77100
H  48.25900 15.40200 33.64700
H  46.54900 14.81400 33.73600
H  47.96000 15.46600 36.01500
H  46.26600 15.11500 35.72300
H  52.99200 18.51000 29.39300
H  51.92500 19.11400 30.58400
H  52.02200 20.09600 29.17200
H  53.45300 19.51000 27.09500
H  53.94400 18.69900 25.75300
H  54.06400 17.89800 27.39000
H  48.04400 15.27200 23.38900
H  45.42800 16.00000 23.63700
H  47.69300 18.08300 23.92600
H  46.46000 17.64900 22.90000
H  48.02400 17.37100 22.28300
H  46.72900 13.87700 22.72500
H  45.00700 13.92100 22.96900
H  46.94800 12.18000 24.05600
H  45.24500 12.01800 24.26400
H  46.14600 13.04600 25.42000
H  42.02700 13.86300 26.96800
H  41.03300 14.72100 28.16000
H  41.74200 13.11800 28.46700
H  44.26500 14.77800 33.03400
H  41.54600 17.37500 35.36900
H  43.07300 18.35200 34.87700
H  43.07200 17.16800 36.03900
Mg 16.94700 51.54600 26.25500
C  18.77700 50.41100 28.87100
C  14.42700 52.52400 28.56900
C  15.02300 52.66500 23.62600
C  19.12200 50.22300 23.95600
N  16.63900 51.41500 28.50400
C  17.56400 50.97900 29.35000
C  17.27400 51.25400 30.84800
C  15.70800 51.67900 30.68500
C  15.52200 51.88900 29.16000
C  14.71700 50.63700 31.26900
C  18.17800 52.35500 31.54100
C  18.68900 52.06400 32.92200
H  17.75000 51.46900 33.98600
N  15.00900 52.46100 26.16600
C  14.13900 52.77300 27.18100
C  13.01100 53.50200 26.62900
C  13.23400 53.58000 25.23500
C  14.42400 52.83600 24.96800
C  11.94200 54.17300 27.47000
C  12.35800 54.30900 24.17800
O  12.70800 54.50200 23.01200
C  11.16400 55.10700 24.76300
N  17.02100 51.50200 24.08700
C  16.22500 52.11300 23.25700
C  16.59800 51.90300 21.82700
C  18.06700 51.39500 21.97800
C  18.07400 50.96700 23.39500
C  15.73100 51.01100 20.97700
C  19.13600 52.51700 21.81300
C  20.34800 52.06500 20.95700
N  18.53800 50.58800 26.32200
C  19.38600 50.04900 25.32500
C  20.47100 49.36400 25.95400
C  20.19700 49.52900 27.29000
C  19.06900 50.26600 27.47800
C  21.54400 48.70900 25.21600
C  20.76500 49.09500 28.53500
O  21.71600 48.36200 28.84300
C  19.96700 49.95700 29.63300
C  19.71400 48.94000 30.69600
O  18.79700 48.13900 30.68900
O  20.68200 48.94200 31.66800
C  20.53300 48.09100 32.83600
H  13.74900 52.93800 29.31800
H  14.58700 53.25300 22.81600
H  19.83700 49.76000 23.27200
H  17.33500 50.28000 31.33300
H  15.54300 52.64300 31.16600
H  14.18700 51.17300 32.05700
H  15.27800 49.84300 31.76300
H  14.04400 50.17400 30.54700
H  17.59100 53.27300 31.58500
H  19.12100 52.41600 30.99900
H  18.97800 53.08400 33.17400
H  19.67100 51.59400 32.87100
H  10.91800 53.91500 27.19900
H  12.17300 55.23800 27.45900
H  11.99200 53.94500 28.53500
H  11.31400 55.75400 25.62800
H  10.39900 54.34800 24.92300
H  10.75600 55.81800 24.04500
H  16.46200 52.86400 21.33100
H  18.33700 50.56900 21.32000
H  14.78100 50.71700 21.42500
H  16.29600 50.18000 20.55500
H  15.43100 51.71600 20.20200
H  19.61800 52.81900 22.74300
H  18.64000 53.38400 21.37600
H  20.72000 52.80300 20.24700
H  20.07500 51.26100 20.27300
H  21.28700 51.79000 21.43900
H  21.17200 48.24500 24.30300
H  22.11300 47.98100 25.79400
H  22.16600 49.58600 25.03900
H  20.56100 50.78200 30.02500
H  20.16000 48.81900 33.55800
H  21.56100 47.90600 33.14800
H  19.73200 47.35400 32.77400

