158

Mg 0.10200 7.78700 26.98000
C  0.95700 9.91800 29.53700
C  0.57200 5.02000 29.14200
C  0.11600 5.83500 24.24200
C  0.72000 10.59600 24.73700
N  0.90000 7.51100 29.06200
C  0.78400 8.55000 29.95200
C  0.70700 8.07000 31.37900
C  1.01200 6.53100 31.30500
C  0.79900 6.30500 29.72900
C  2.34400 6.02000 31.90500
C  -0.62700 8.36100 32.05800
C  -0.51300 8.82700 33.50400
H  0.52400 8.30100 34.48100
N  0.23800 5.68800 26.69900
C  0.30400 4.79400 27.74100
C  0.21500 3.49000 27.07600
C  0.10500 3.66100 25.66700
C  0.08000 5.12800 25.49900
C  0.27000 2.28700 27.92000
C  0.03500 2.71000 24.51600
O  -0.25200 3.03100 23.38800
C  -0.00800 1.24300 24.82900
N  0.29900 8.15700 24.75500
C  0.18000 7.17100 23.84900
C  0.32600 7.74100 22.43200
C  0.42200 9.28800 22.60500
C  0.42700 9.38600 24.14000
C  1.47500 7.16300 21.57100
C  -0.76100 10.17700 21.99300
C  -2.01900 10.39100 22.80000
N  0.62600 9.82800 27.08100
C  0.80700 10.83100 26.15100
C  1.09700 12.09900 26.76700
C  1.21800 11.82100 28.13000
C  0.85900 10.44100 28.25700
C  1.41000 13.42600 26.02500
C  1.58800 12.32100 29.43600
O  1.84900 13.45000 29.82100
C  1.43800 11.08800 30.43500
C  2.66800 10.76100 31.11400
O  3.70600 10.21200 30.71100
O  2.50800 11.14200 32.49200
C  3.81500 11.12300 33.26400
H  0.57500 4.16300 29.82000
H  -0.15400 5.32100 23.31800
H  0.71000 11.49900 24.12400
H  1.54500 8.44200 31.96900
H  0.19400 5.99600 31.78900
H  2.11800 5.32100 32.71000
H  2.95500 6.81100 32.33900
H  2.83400 5.46900 31.10200
H  -1.39700 7.59400 31.97900
H  -1.13800 9.20700 31.59900
H  -1.48800 8.75700 33.98600
H  -0.22700 9.87800 33.44400
H  -0.59500 1.62500 27.90800
H  0.24000 2.47200 28.99400
H  1.23600 1.82600 27.71400
H  0.13600 0.62300 23.94400
H  -0.98700 0.94400 25.20300
H  0.74700 0.87900 25.52500
H  -0.59700 7.51500 21.89900
H  1.36300 9.73700 22.28700
H  0.89000 6.66900 20.79600
H  2.18500 6.52100 22.09300
H  2.04700 7.90600 21.01600
H  -1.11700 9.72300 21.06800
H  -0.44100 11.14600 21.61100
H  -2.13700 9.59500 23.53400
H  -2.86600 10.28500 22.12300
H  -2.03300 11.38700 23.24400
H  1.76900 13.21300 25.01800
H  2.13800 14.04500 26.54900
H  0.46700 13.95500 25.88900
H  0.58900 11.06200 31.11800
H  4.27900 12.06900 32.98500
H  4.66400 10.47500 33.04800
H  3.65100 11.07500 34.34100
Mg 8.30100 3.01600 27.87600
C  9.84100 1.40100 30.66600
C  6.40100 4.73800 29.83500
C  6.89200 4.27700 25.07800
C  9.62300 0.40400 25.80700
N  8.29300 3.09300 29.95800
C  8.97200 2.45800 30.98800
C  8.61900 3.05100 32.33500
C  7.33500 3.96300 32.08100
C  7.29200 3.93500 30.48800
C  6.04300 3.45300 32.71100
C  9.82800 3.93700 32.93700
C  10.31500 3.51900 34.36400
H  10.51800 4.68400 35.44400
N  6.88300 4.42700 27.49200
C  6.19500 4.99900 28.47700
C  5.28000 6.00300 27.81500
C  5.51400 5.98000 26.42400
C  6.44300 4.88900 26.28100
C  4.23300 6.77100 28.57600
C  4.81600 6.73800 25.30700
O  4.87800 6.43300 24.09200
C  4.00900 8.02500 25.69700
N  8.30900 2.40000 25.79900
C  7.60900 3.13400 24.84000
C  7.81600 2.64300 23.45000
C  8.67400 1.37300 23.70100
C  8.87300 1.35800 25.15600
C  6.41400 2.31800 22.79200
C  9.97200 1.41400 22.86100
C  10.12800 0.25300 21.84600
N  9.68700 1.32700 28.11200
C  10.02700 0.35400 27.16700
C  10.84300 -0.70100 27.86800
C  10.86600 -0.28500 29.21900
C  10.07200 0.90200 29.32800
C  11.44100 -1.90100 27.19900
C  11.38700 -0.57300 30.63400
O  12.16800 -1.43700 31.04200
C  10.75800 0.60600 31.59700
C  10.08200 -0.23000 32.69000
O  9.32400 -1.10800 32.43800
O  10.50300 0.18500 33.86900
C  9.99200 -0.45200 35.02100
H  5.96900 5.51200 30.47100
H  6.58600 4.83600 24.19000
H  9.94200 -0.43200 25.18100
H  8.48000 2.25900 33.07100
H  7.53500 4.99800 32.35900
H  6.21900 2.69700 33.47600
H  5.38600 3.01000 31.96300
H  5.45900 4.22400 33.21400
H  9.51600 4.96600 33.11700
H  10.64400 4.12200 32.23800
H  11.34300 3.18700 34.22500
H  9.64500 2.73100 34.71100
H  4.19500 7.83500 28.34200
H  4.44200 6.81400 29.64500
H  3.26000 6.30200 28.43200
H  2.97200 7.88000 26.00300
H  3.89800 8.62000 24.79100
H  4.49500 8.65700 26.44000
H  8.21900 3.32900 22.70500
H  8.19900 0.41400 23.49800
H  5.73500 2.12000 23.62000
H  6.55700 1.51100 22.07300
H  6.00200 3.17000 22.25000
H  10.83500 1.47600 23.52400
H  10.01300 2.37200 22.34300
H  11.00600 -0.36000 22.04900
H  10.35800 0.72900 20.89300
H  9.17700 -0.27900 21.86200
H  11.75500 -1.75200 26.16600
H  10.74200 -2.73500 27.26700
H  12.28600 -2.22500 27.80600
H  11.54500 1.20500 32.05500
H  8.90600 -0.53300 34.98500
H  10.33900 0.06600 35.91500
H  10.27000 -1.50200 35.10700

