158

Mg 1.24300 7.83900 26.14600
C  1.58200 9.52900 29.11100
C  1.22600 4.84400 28.00900
C  1.01600 6.09200 23.23900
C  1.78000 10.77200 24.42700
N  1.37800 7.22500 28.28000
C  1.29500 8.14200 29.27100
C  1.18200 7.51400 30.64800
C  1.28900 6.01400 30.35300
C  1.28200 6.00600 28.77200
C  2.47900 5.26400 31.00400
C  -0.11000 7.95200 31.37500
C  0.00900 8.30400 32.80400
H  1.19300 7.71000 33.60500
N  1.15100 5.67700 25.67900
C  1.11500 4.64500 26.58200
C  0.87700 3.38500 25.90100
C  0.88900 3.74200 24.48100
C  1.04700 5.21600 24.41000
C  0.83700 2.04200 26.54300
C  0.74000 2.94100 23.29500
O  0.69900 3.37500 22.18300
C  0.73400 1.39400 23.37500
N  1.60700 8.33900 24.07700
C  1.26100 7.47400 23.09500
C  1.16700 8.23700 21.79000
C  1.20200 9.68100 22.19400
C  1.56000 9.62100 23.67400
C  2.26000 7.89700 20.72000
C  -0.16500 10.45000 22.08700
C  -1.05700 10.16900 20.85900
N  1.75200 9.69200 26.63900
C  1.84700 10.84200 25.81700
C  1.88200 12.01100 26.58400
C  1.84100 11.53100 27.89200
C  1.74600 10.15200 27.86200
C  2.09400 13.45000 26.05600
C  1.75200 11.97700 29.21600
O  1.65700 13.09600 29.68100
C  1.71500 10.65800 30.11000
C  3.03200 10.62800 30.84800
O  4.01000 9.94400 30.61600
O  2.77400 11.21200 32.09400
C  3.76800 10.85600 33.19400
H  1.22900 3.96800 28.66100
H  0.78000 5.63500 22.27600
H  1.87400 11.74200 23.93500
H  2.01400 7.78200 31.30000
H  0.40900 5.51200 30.75500
H  3.11800 5.95000 31.56000
H  3.03500 4.70600 30.25100
H  2.00300 4.54800 31.67400
H  -0.88400 7.19300 31.26200
H  -0.61900 8.69600 30.76200
H  -0.85700 7.91900 33.34100
H  -0.00200 9.39400 32.80800
H  0.62800 2.11800 27.61000
H  1.79300 1.53200 26.42400
H  -0.03500 1.46100 26.24300
H  1.67800 1.11300 23.84200
H  0.75000 0.91700 22.39400
H  -0.04500 1.07300 24.06600
H  0.21800 8.00100 21.30800
H  1.92400 10.35900 21.73800
H  1.86100 7.57100 19.76000
H  2.85300 7.10100 21.17100
H  2.83100 8.79900 20.50300
H  0.19300 11.47600 22.01200
H  -0.65100 10.34200 23.05700
H  -0.54900 9.68900 20.02300
H  -1.39400 11.13300 20.47700
H  -1.88200 9.53000 21.17200
H  1.37200 13.76800 25.30400
H  3.11100 13.62600 25.70600
H  1.88500 14.03700 26.95000
H  0.86800 10.76800 30.78700
H  3.16700 10.67700 34.08600
H  4.41500 11.70900 33.39800
H  4.29900 9.92800 32.98200
Mg 43.41500 3.34200 47.15500
C  41.47800 6.27000 47.12300
C  40.68600 1.45100 47.06300
C  45.46800 0.71400 46.84100
C  46.28200 5.52200 46.39500
N  41.31500 3.90200 47.07200
C  40.70300 5.08800 47.14900
C  39.18700 4.91000 46.99500
C  39.05300 3.37700 47.19700
C  40.44100 2.82000 47.04300
C  38.27400 2.87000 48.49200
C  38.52100 5.39900 45.68500
C  38.99100 4.75400 44.30300
H  39.67700 5.62200 43.24200
N  43.10600 1.27400 47.15800
C  41.85500 0.68900 47.20800
C  42.00600 -0.78700 47.11000
C  43.43200 -1.01900 47.08200
C  44.09200 0.33600 47.03300
C  40.83500 -1.76800 47.23000
C  44.16200 -2.37600 47.07700
O  43.46800 -3.36200 47.10400
C  45.65700 -2.61700 47.05400
N  45.52700 3.20000 46.72600
C  46.14600 1.97800 46.76900
C  47.70900 2.03600 46.74200
C  47.90200 3.56100 46.44600
C  46.45600 4.14900 46.42400
C  48.39700 1.46800 48.00500
C  48.79800 3.86700 45.16900
C  49.90800 4.86200 45.45300
N  43.90800 5.47100 46.76000
C  45.02600 6.18700 46.53300
C  44.75300 7.58900 46.56400
C  43.35900 7.66000 46.75800
C  42.87900 6.32800 46.85200
C  45.64200 8.71700 46.55200
C  42.26000 8.60700 46.86000
O  42.19400 9.82300 46.85000
C  40.92100 7.66700 47.00400
C  40.05600 8.04200 48.16100
O  40.27100 7.77600 49.29100
O  39.10600 8.98300 47.71700
C  38.28900 9.58400 48.81000
H  39.80000 0.82400 46.94500
H  46.08400 -0.18200 46.73900
H  47.11900 6.15900 46.10200
H  38.77600 5.51500 47.80300
H  38.50300 2.96200 46.35200
H  37.94500 3.73700 49.06500
H  38.89200 2.14800 49.02600
H  37.38100 2.34000 48.16100
H  38.61800 6.47800 45.57400
H  37.47500 5.09200 45.72600
H  38.16700 4.31300 43.74200
H  39.66500 3.90400 44.40800
H  39.90900 -1.25600 47.48900
H  40.97200 -2.50100 48.02500
H  40.89500 -2.31200 46.28700
H  46.08300 -2.33200 46.09200
H  45.78700 -3.68500 46.87500
H  46.19800 -2.29100 47.94300
H  48.16700 1.48200 45.92200
H  48.35700 4.01500 47.32700
H  47.59500 1.46200 48.74400
H  49.21700 2.13500 48.27300
H  48.70700 0.44400 47.79800
H  48.19900 4.20900 44.32500
H  49.21300 2.90600 44.86600
H  50.85000 4.41400 45.13600
H  50.09400 5.24900 46.45500
H  49.70900 5.79500 44.92500
H  45.41800 9.36200 45.70300
H  46.66000 8.32700 46.56600
H  45.43000 9.34000 47.42100
H  40.51100 7.94600 46.03300
H  38.72800 10.49100 49.22500
H  38.04500 8.91100 49.63200
H  37.32400 9.71100 48.31900

