158

Mg 25.30900 1.06900 30.40300
C  27.23500 1.06700 33.25800
C  22.46000 1.49500 32.34000
C  23.36000 1.10600 27.59300
C  28.00200 0.56800 28.47600
N  24.86600 1.27500 32.57200
C  25.88500 1.38800 33.48200
C  25.27600 1.77800 34.90700
C  23.73400 1.78800 34.59800
C  23.65400 1.48200 33.14400
C  22.83200 0.99500 35.62000
C  25.93000 3.08800 35.57600
C  26.56600 2.90000 36.94400
H  26.35900 4.00800 37.98500
N  23.25400 1.18300 30.08700
C  22.27000 1.38300 30.99600
C  21.02000 1.49500 30.32000
C  21.26100 1.47100 28.99000
C  22.68900 1.32100 28.83500
C  19.70800 1.62500 31.07700
C  20.26100 1.50400 27.83800
O  20.52500 1.34200 26.65100
C  18.81800 2.00700 28.12200
N  25.61500 0.90600 28.32600
C  24.71000 0.89800 27.35700
C  25.34200 0.77300 25.95700
C  26.86500 0.84400 26.30000
C  26.85400 0.73600 27.79000
C  24.86900 -0.59800 25.25500
C  27.63700 2.08400 25.72700
C  26.99600 3.40100 26.05300
N  27.26500 0.87300 30.72500
C  28.27600 0.59200 29.85200
C  29.53700 0.47400 30.60800
C  29.13700 0.68000 31.94000
C  27.75500 0.91300 31.96000
C  30.87000 0.19300 30.11200
C  29.68700 0.79500 33.27800
O  30.84300 0.72900 33.70700
C  28.45100 1.03600 34.23400
C  28.42400 -0.10700 35.17200
O  27.91300 -1.19000 34.93100
O  28.95000 0.25900 36.42500
C  28.77400 -0.65700 37.50000
H  21.55100 1.73500 32.89500
H  22.83200 1.22700 26.64500
H  28.87800 0.46000 27.83400
H  25.40400 1.06900 35.72400
H  23.43500 2.83400 34.53300
H  21.82000 1.38800 35.72400
H  23.32600 0.95400 36.59100
H  22.57600 0.00600 35.24000
H  25.10400 3.79700 35.50700
H  26.70200 3.37600 34.86200
H  27.63400 2.97000 36.73900
H  26.34700 1.91300 37.35100
H  19.02600 0.81700 30.81000
H  19.38700 2.64000 30.84500
H  19.82900 1.48800 32.15200
H  18.36400 1.91300 27.13500
H  18.80700 2.99400 28.58300
H  18.22100 1.32000 28.72100
H  25.09300 1.66400 25.38100
H  27.35700 -0.00800 25.83100
H  23.96100 -1.00900 25.69700
H  25.62900 -1.37900 25.28100
H  24.68400 -0.52200 24.18400
H  27.76100 2.02800 24.64500
H  28.58400 2.16500 26.26000
H  26.79500 3.91500 25.11300
H  27.63500 4.09700 26.59600
H  26.05600 3.42300 26.60600
H  30.86200 -0.88200 29.93200
H  31.55700 0.66800 30.81300
H  31.04300 0.70600 29.16700
H  28.61300 1.96200 34.78700
H  27.95700 -0.38000 38.16500
H  29.66200 -0.67600 38.13200
H  28.61400 -1.67600 37.14600
Mg 10.62600 47.53800 25.90300
C  8.53900 47.34600 28.84100
C  13.19900 48.49900 27.96200
C  12.65500 47.46900 23.28300
C  7.98000 46.70300 23.95400
N  10.72400 47.97600 28.17300
C  9.82800 47.74100 29.18300
C  10.42200 48.10000 30.55200
C  11.76500 48.80400 30.13700
C  11.95800 48.27200 28.68200
C  11.70600 50.34300 30.05300
C  10.64400 46.81800 31.39200
C  10.14500 46.89200 32.82100
H  10.37600 45.67600 33.71000
N  12.66200 48.00600 25.65200
C  13.56400 48.34000 26.64300
C  14.87600 48.22400 26.09100
C  14.78800 47.91500 24.74500
C  13.32600 47.88300 24.52100
C  16.12800 48.44700 27.02400
C  15.94800 47.79300 23.76700
O  15.73200 47.81000 22.52000
C  17.35400 47.73400 24.31200
N  10.34000 47.34700 23.85300
C  11.33200 47.35600 22.94100
C  10.85500 47.11900 21.57900
C  9.36500 46.92700 21.78200
C  9.21200 46.99700 23.30600
C  11.14700 48.21600 20.58400
C  8.86200 45.66100 21.06000
C  9.24000 44.29500 21.63400
N  8.61500 47.24700 26.22800
C  7.65100 46.81200 25.32400
C  6.40400 46.61500 25.97700
C  6.72200 46.84800 27.34400
C  8.07900 47.19400 27.44700
C  5.06900 46.03900 25.43100
C  6.12700 46.75400 28.73700
O  5.01700 46.44300 29.17900
C  7.35600 47.04000 29.77300
C  7.53500 45.74800 30.46500
O  8.29800 44.82200 30.20200
O  6.71300 45.77300 31.53500
C  6.84800 44.57400 32.45700
H  13.94400 48.88600 28.66100
H  13.33300 47.16500 22.48300
H  7.19800 46.38900 23.26000
H  9.71600 48.76000 31.05400
H  12.65900 48.53400 30.70000
H  10.95500 50.77800 30.71200
H  11.31900 50.54900 29.05400
H  12.71700 50.74100 30.13400
H  11.72600 46.75900 31.50400
H  10.40000 45.91500 30.83200
H  9.10200 47.20800 32.80200
H  10.69900 47.69900 33.30100
H  15.80900 48.51400 28.06400
H  16.57800 49.43500 26.92500
H  16.77200 47.57100 26.94400
H  17.45100 46.98600 25.09900
H  17.54800 48.73800 24.68900
H  18.03300 47.46800 23.50200
H  11.28300 46.20100 21.17600
H  8.77800 47.74500 21.36400
H  11.52900 47.80700 19.64900
H  11.76400 48.94200 21.11400
H  10.22900 48.72800 20.29600
H  9.23000 45.66900 20.03400
H  7.78100 45.69600 20.92500
H  9.30000 44.30300 22.72200
H  10.21600 43.91100 21.33600
H  8.49200 43.54200 21.38700
H  4.56800 46.82100 24.86200
H  4.40500 45.56800 26.15600
H  5.38500 45.23300 24.76800
H  7.24500 47.89200 30.44400
H  7.60700 44.56000 33.24000
H  6.84100 43.67400 31.84400
H  5.91600 44.52700 33.02000

