158

Mg 0.75600 7.09000 25.22500
C  1.55400 9.17500 28.02500
C  0.89100 4.41300 27.19800
C  0.19800 5.30600 22.48500
C  1.28500 9.90600 23.17900
N  1.20300 6.85500 27.36000
C  1.36200 7.80300 28.36700
C  1.33700 7.19600 29.69000
C  1.11800 5.66600 29.40900
C  1.15200 5.60500 27.88200
C  2.18800 4.71400 30.07500
C  0.17000 7.74700 30.54200
C  0.41400 7.97300 32.08100
H  1.64000 7.47900 32.81000
N  0.58500 5.11200 24.89200
C  0.68500 4.15200 25.83400
C  0.45200 2.89100 25.24300
C  0.21400 3.05400 23.85400
C  0.27500 4.54300 23.65700
C  0.51700 1.56900 26.05800
C  -0.01700 2.07400 22.73800
O  -0.37000 2.44900 21.61400
C  -0.00600 0.59500 22.94300
N  0.83100 7.52200 23.17100
C  0.32600 6.62400 22.30200
C  0.13600 7.23900 20.83600
C  0.33000 8.69700 21.15800
C  0.82600 8.75700 22.62900
C  1.29600 6.64100 19.90200
C  -0.94800 9.58500 21.10300
C  -1.18600 10.38600 19.81200
N  1.35700 9.06400 25.47500
C  1.56600 10.08400 24.53400
C  1.93900 11.35500 25.16400
C  1.87500 10.97200 26.58000
C  1.55600 9.63200 26.66000
C  2.13000 12.64300 24.53700
C  2.06300 11.58500 27.91400
O  2.30900 12.70200 28.28000
C  1.64300 10.42200 28.95100
C  2.65900 10.36200 29.98700
O  3.72900 9.74000 29.78700
O  2.35000 11.24900 30.98800
C  3.37200 11.37900 32.06000
H  0.81900 3.55700 27.87200
H  -0.28000 4.84000 21.62000
H  1.29100 10.79400 22.54300
H  2.26100 7.44600 30.21100
H  0.08000 5.40600 29.61700
H  3.03000 4.38500 29.46600
H  1.61600 3.87800 30.47700
H  2.66200 5.21800 30.91700
H  -0.75500 7.17300 30.49400
H  -0.18900 8.68200 30.11300
H  -0.45500 7.46000 32.49200
H  0.42600 9.03200 32.33900
H  -0.23900 0.87000 25.69900
H  0.18700 1.73100 27.08400
H  1.54000 1.21700 26.19000
H  -0.85400 0.22500 23.51900
H  0.89300 0.37200 23.51700
H  0.02600 -0.01300 22.03800
H  -0.86000 6.94100 20.50700
H  1.08500 9.16500 20.52700
H  1.88800 5.87000 20.39500
H  1.82400 7.35600 19.27100
H  0.73400 5.98200 19.23900
H  -0.97400 10.25800 21.96000
H  -1.77900 8.90900 21.30300
H  -2.04800 10.13600 19.19300
H  -0.34700 10.28300 19.12400
H  -1.18800 11.43900 20.09100
H  3.02100 12.70800 23.91300
H  2.35200 13.32100 25.36100
H  1.22900 12.88100 23.97000
H  0.70000 10.65000 29.44800
H  4.03700 12.22700 31.89100
H  4.06500 10.53800 32.04200
H  2.91900 11.33000 33.05000
Mg 47.82500 15.07800 28.75900
C  45.67200 15.08700 31.48000
C  49.86700 17.21100 30.62200
C  49.78600 15.20600 26.08400
C  45.47700 13.23600 26.95900
N  47.64600 16.15000 30.86000
C  46.79000 15.83700 31.75600
C  47.15600 16.52800 33.08900
C  48.42800 17.34900 32.78900
C  48.62000 16.97800 31.30600
C  48.23300 18.96100 33.01000
C  47.42400 15.30800 34.05600
C  46.65100 15.46400 35.39000
H  47.53800 16.21700 36.42900
N  49.55800 15.95900 28.43300
C  50.29200 16.73900 29.32300
C  51.65300 16.85800 28.78100
C  51.63000 16.43700 27.48800
C  50.31300 15.83700 27.27400
C  52.71400 17.39300 29.60400
C  52.67900 16.46800 26.44500
O  52.54400 15.89700 25.38100
C  53.93500 17.25100 26.78200
N  47.55800 14.48000 26.68500
C  48.56200 14.62900 25.76900
C  48.22400 13.95200 24.46900
C  46.91000 13.19500 24.85600
C  46.59900 13.64600 26.28000
C  48.20700 14.84500 23.22400
C  47.05000 11.69500 24.52400
C  47.64000 10.79700 25.69900
N  45.92800 14.32700 29.07100
C  45.11200 13.54600 28.31300
C  43.86800 13.21300 29.03200
C  44.02800 13.86200 30.27000
C  45.29800 14.45900 30.27200
C  42.77000 12.33500 28.55800
C  43.44000 14.09400 31.59900
O  42.40300 13.67600 32.07200
C  44.50700 14.85600 32.36100
C  43.91900 16.12800 32.87800
O  43.91200 17.21000 32.36600
O  43.36900 15.75800 34.09900
C  42.75500 16.78600 34.97100
H  50.50800 17.92800 31.13900
H  50.47800 15.12700 25.24300
H  44.79100 12.64300 26.35100
H  46.37500 17.23500 33.36800
H  49.26200 17.05400 33.42600
H  47.22200 19.25900 33.29000
H  48.60900 19.48200 32.12900
H  48.90000 19.16100 33.84800
H  48.48600 15.25000 34.29100
H  47.34600 14.34000 33.56000
H  46.43300 14.45000 35.72300
H  45.73900 16.03200 35.20600
H  53.08200 18.33900 29.20600
H  53.55400 16.69900 29.63400
H  52.41400 17.59200 30.63300
H  54.39900 16.71100 27.60700
H  53.72600 18.29200 27.02800
H  54.67600 17.21700 25.98300
H  49.06300 13.25600 24.44700
H  46.06600 13.51900 24.24700
H  48.69400 14.36400 22.37600
H  48.57400 15.86000 23.38000
H  47.16800 15.01600 22.94300
H  47.63700 11.56500 23.61400
H  46.01900 11.42700 24.29200
H  47.88000 11.41400 26.56500
H  48.63800 10.49700 25.38000
H  47.06000 9.92200 25.99100
H  42.37400 12.58400 27.57400
H  42.00700 12.38700 29.33500
H  43.10500 11.29800 28.57800
H  44.90400 14.35700 33.24400
H  43.40000 17.05500 35.80700
H  41.82700 16.29200 35.26100
H  42.48300 17.66600 34.38700

