158

Mg 25.92600 0.08800 28.78200
C  27.59800 0.12200 31.97800
C  22.95800 0.58100 30.48000
C  24.38800 0.22900 25.74800
C  28.71800 -1.18000 27.20300
N  25.36800 0.40000 30.98400
C  26.19800 0.33800 32.15200
C  25.34900 0.65100 33.39900
C  23.92600 0.88700 32.87200
C  24.05600 0.58200 31.37100
C  22.76800 0.08000 33.68200
C  26.11600 1.77600 34.30800
C  25.20100 2.52500 35.32000
H  25.75300 2.70600 36.74600
N  23.92200 0.39100 28.20000
C  22.87000 0.47500 29.02300
C  21.67300 0.55900 28.18500
C  22.09300 0.58800 26.82900
C  23.51200 0.49500 26.87800
C  20.23700 0.59800 28.73800
C  21.23300 0.72800 25.55100
O  21.71200 0.73300 24.39400
C  19.70600 0.99700 25.69700
N  26.51600 -0.39300 26.77300
C  25.71300 -0.13400 25.66500
C  26.40700 -0.63000 24.37500
C  27.87200 -0.91100 24.84300
C  27.71100 -0.78500 26.34000
C  25.65700 -1.82500 23.74400
C  28.95200 -0.01100 24.30400
C  28.79800 1.50300 24.72300
N  27.68300 -0.53200 29.38200
C  28.70200 -1.12200 28.62900
C  29.84700 -1.34800 29.60400
C  29.43100 -0.84600 30.85200
C  28.12600 -0.40400 30.71300
C  31.13400 -1.90900 29.30600
C  29.90000 -0.51800 32.21400
O  30.95500 -0.81600 32.75900
C  28.69800 -0.05900 33.01800
C  28.39800 -1.18300 33.89200
O  27.96100 -2.24000 33.50700
O  28.59400 -0.73400 35.21500
C  28.37800 -1.84400 36.23500
H  21.98000 0.73200 30.94300
H  23.88200 0.22400 24.78000
H  29.68400 -1.39000 26.74100
H  25.34000 -0.23700 34.03200
H  23.86500 1.97200 32.95700
H  22.42500 -0.72700 33.03500
H  21.90900 0.72200 33.88100
H  23.13600 -0.47000 34.54800
H  26.49400 2.45700 33.54600
H  26.84400 1.17500 34.85200
H  24.29000 1.93200 35.40700
H  24.95200 3.49400 34.88700
H  19.74200 1.56200 28.61800
H  20.24400 0.32400 29.79200
H  19.69600 -0.19400 28.22000
H  19.26400 0.03500 25.95800
H  19.42500 1.27800 24.68200
H  19.46100 1.80200 26.39000
H  26.43500 0.18900 23.65600
H  28.27400 -1.90500 24.64200
H  24.67000 -2.01600 24.16600
H  26.23200 -2.74800 23.81300
H  25.42400 -1.59200 22.70400
H  28.91800 -0.12900 23.22100
H  29.93700 -0.28200 24.68300
H  29.40900 1.60100 25.62000
H  27.83700 1.85000 25.10100
H  29.30800 2.08200 23.95300
H  31.12100 -2.43100 28.34900
H  31.31800 -2.57800 30.14600
H  31.92000 -1.15400 29.31400
H  28.65900 0.85200 33.61600
H  28.77200 -2.78300 35.84700
H  27.33300 -1.90100 36.54200
H  28.94400 -1.70200 37.15500
Mg 41.82400 40.89000 26.40900
C  40.76300 43.19700 28.87400
C  42.72200 38.67900 28.92900
C  43.01400 38.78300 23.97200
C  40.98800 43.16000 23.88000
N  41.71800 41.03100 28.63300
C  41.15200 41.99000 29.44000
C  41.28700 41.58700 30.94000
C  41.96500 40.15400 30.86200
C  42.20000 39.95200 29.36000
C  43.24400 40.05600 31.70600
C  39.91600 41.75100 31.71500
C  39.77200 42.83400 32.74100
H  39.06800 42.53700 34.08500
N  42.67700 38.96400 26.45400
C  42.98700 38.24100 27.56600
C  43.43000 36.90100 27.14600
C  43.51100 36.88700 25.70400
C  43.06200 38.24100 25.31100
C  43.77200 35.81500 28.12600
C  43.96900 35.78100 24.64500
O  44.04600 35.88900 23.41600
C  44.23800 34.48500 25.20700
N  42.04000 40.98200 24.24100
C  42.54800 39.96600 23.45900
C  42.48800 40.28000 21.99400
C  41.58100 41.52200 21.95500
C  41.53300 41.91600 23.42900
C  43.84700 40.38400 21.22300
C  40.12000 41.45200 21.33400
C  39.23100 40.25100 21.72900
N  41.08600 42.81900 26.28600
C  40.81300 43.61900 25.18700
C  40.26100 44.89300 25.61700
C  40.31000 44.81600 27.06000
C  40.70400 43.50200 27.41800
C  39.77300 46.01200 24.80800
C  40.06900 45.46700 28.32600
O  39.66100 46.60800 28.57000
C  40.42600 44.57200 29.50700
C  41.47800 45.19300 30.38600
O  42.63400 45.37300 30.13200
O  40.88900 45.48400 31.62000
C  41.72900 46.11600 32.62400
H  42.91100 37.99300 29.75700
H  43.27900 38.06100 23.19700
H  40.83000 43.94700 23.14000
H  42.08300 42.18100 31.38700
H  41.16600 39.46000 31.12300
H  43.37600 39.17700 32.33700
H  43.28900 40.83800 32.46400
H  44.08200 40.33700 31.06900
H  39.76100 40.79100 32.20600
H  39.09400 41.87900 31.01100
H  39.36800 43.75700 32.32600
H  40.73400 43.23100 33.06600
H  43.17500 35.95300 29.02800
H  44.84200 35.77000 28.32500
H  43.48100 34.82800 27.76800
H  43.41900 34.00600 25.74300
H  44.95000 34.74800 25.98900
H  44.72400 33.84100 24.47400
H  41.99100 39.46500 21.46900
H  42.08400 42.40700 21.56500
H  44.56500 39.79600 21.79600
H  43.95700 41.43200 20.94700
H  43.68100 39.75500 20.34800
H  40.22900 41.46700 20.25000
H  39.54400 42.34300 21.58400
H  38.77300 39.67300 20.92600
H  38.41600 40.62100 22.35200
H  39.70500 39.51600 22.37900
H  40.62800 46.68200 24.89600
H  38.83500 46.40000 25.20500
H  39.64500 45.63300 23.79400
H  39.53000 44.61600 30.12700
H  41.44400 45.68200 33.58300
H  41.51500 47.18400 32.57900
H  42.80400 46.01000 32.48300

