158

Mg 2.01400 8.46800 27.25800
C  2.50400 10.55500 30.19300
C  1.92100 5.83900 29.62300
C  1.90800 6.37400 24.78400
C  2.64300 11.12600 25.26200
N  2.03400 8.23200 29.68700
C  2.13500 9.29400 30.60100
C  1.84800 8.80500 32.03200
C  1.76300 7.20000 31.83900
C  1.88600 7.06400 30.34300
C  2.92700 6.45700 32.62500
C  0.49900 9.39000 32.62600
C  0.27700 9.00500 34.05900
H  1.38800 8.48800 35.00600
N  1.93400 6.47500 27.18500
C  1.90400 5.55900 28.23200
C  1.71500 4.23300 27.75300
C  1.63900 4.34200 26.29400
C  1.89800 5.75200 26.02100
C  1.47600 2.99900 28.57500
C  1.44000 3.30100 25.20000
O  1.31000 3.58800 24.01700
C  1.21800 1.84700 25.56100
N  2.42200 8.67900 25.36000
C  2.20300 7.69300 24.47900
C  2.06900 8.24000 23.08500
C  1.96400 9.79300 23.24100
C  2.37200 9.85500 24.72200
C  3.37200 7.88300 22.27600
C  0.64600 10.46300 22.82600
C  0.81800 11.56900 21.78200
N  2.47500 10.45300 27.60300
C  2.77900 11.40100 26.62600
C  3.01900 12.63900 27.35100
C  3.13600 12.30600 28.69600
C  2.70400 10.94300 28.83900
C  3.12400 13.96200 26.76400
C  3.38200 12.94200 29.96200
O  3.55400 14.13400 30.30700
C  2.85900 11.75600 31.00700
C  3.97700 11.40700 31.97700
O  5.05300 10.84500 31.75600
O  3.58700 11.91300 33.18400
C  4.56000 11.66200 34.28200
H  1.63600 5.07300 30.34800
H  2.03800 5.81200 23.85700
H  2.64400 11.91000 24.50300
H  2.69400 9.09500 32.65500
H  0.82200 6.75000 32.15500
H  2.65500 5.75300 33.41100
H  3.60900 7.13500 33.13800
H  3.59800 5.96700 31.91900
H  -0.26200 9.00800 31.94600
H  0.24700 10.44700 32.54500
H  -0.54800 8.29600 34.12600
H  -0.13200 9.86800 34.58500
H  0.39500 2.86000 28.58500
H  1.75200 3.00600 29.62900
H  1.92100 2.09000 28.17000
H  0.78300 1.37500 24.67900
H  0.67500 1.70900 26.49600
H  2.19500 1.37700 25.66900
H  1.12200 7.87600 22.68700
H  2.74300 10.32300 22.69400
H  3.98600 8.78100 22.21200
H  3.05900 7.55800 21.28400
H  3.97300 7.12800 22.78200
H  0.10400 10.77500 23.71900
H  0.05800 9.70200 22.31300
H  1.71900 11.35900 21.20500
H  0.78800 12.56900 22.21600
H  0.00100 11.54300 21.06000
H  2.10100 14.25200 26.52300
H  3.62200 13.82200 25.80500
H  3.63900 14.66000 27.42400
H  1.94000 12.16700 31.42600
H  4.39400 12.26500 35.17500
H  5.56700 11.98400 34.01500
H  4.59700 10.57800 34.39600
Mg 16.93600 -1.64100 28.29500
C  15.99000 0.54600 31.05200
C  18.79800 -3.47500 30.55100
C  18.61600 -2.97300 25.72900
C  15.90000 1.08500 26.15300
N  17.36700 -1.35200 30.52300
C  16.85500 -0.48200 31.45200
C  17.33900 -0.80900 32.83600
C  18.36200 -2.06500 32.60800
C  18.17200 -2.32900 31.08900
C  19.87100 -1.90400 32.93200
C  16.25800 -0.99700 33.89500
C  16.52700 -0.44900 35.27500
H  17.91800 0.01900 35.68500
N  18.30800 -3.19600 28.12100
C  18.89300 -3.88100 29.19600
C  19.63900 -5.02800 28.60400
C  19.59600 -4.85700 27.22100
C  18.75400 -3.65800 26.96100
C  20.28200 -6.07800 29.43000
C  20.17600 -5.71800 26.14100
O  20.02400 -5.46800 24.89900
C  21.05100 -6.89700 26.49100
N  17.14500 -1.05800 26.23300
C  18.00600 -1.73900 25.41200
C  18.05600 -1.16000 24.01100
C  17.04800 0.07300 24.11500
C  16.72300 0.06900 25.60300
C  19.41300 -0.77200 23.49900
C  15.82200 0.05800 23.18400
C  14.69600 -0.90500 23.57800
N  15.90800 0.23300 28.54800
C  15.58600 1.13500 27.56700
C  14.79600 2.25900 28.22300
C  15.03700 2.05200 29.58600
C  15.66400 0.82400 29.72600
C  14.08600 3.32300 27.49100
C  14.70800 2.58800 30.91800
O  14.11900 3.56200 31.18000
C  15.37800 1.66400 31.92600
C  16.34800 2.51400 32.73300
O  17.46900 2.82400 32.35700
O  15.78800 2.89400 33.88000
C  16.56800 3.95900 34.60900
H  19.33100 -4.03500 31.32300
H  19.08300 -3.42800 24.85300
H  15.61500 1.93600 25.53100
H  18.00100 0.03200 33.04700
H  18.01900 -3.00100 33.04800
H  20.17000 -2.62800 33.68900
H  20.01500 -0.90100 33.33500
H  20.51400 -2.01200 32.05900
H  16.27100 -2.08400 33.96500
H  15.36600 -0.62700 33.38900
H  16.21700 -1.23900 35.95900
H  15.93300 0.46400 35.32100
H  20.31600 -5.87400 30.50000
H  21.22500 -6.43700 29.01700
H  19.61300 -6.93300 29.34100
H  21.92300 -6.42600 26.94400
H  21.30600 -7.34600 25.53200
H  20.63400 -7.66900 27.13800
H  17.68500 -1.87400 23.27600
H  17.58300 0.97600 23.82400
H  20.10100 -0.84000 24.34200
H  19.41100 0.24400 23.10300
H  19.75400 -1.61600 22.90000
H  16.08100 -0.24400 22.16900
H  15.47200 1.08800 23.24200
H  13.81200 -0.35600 23.90300
H  14.91700 -1.58300 24.40300
H  14.36700 -1.53800 22.75300
H  14.23600 4.28000 27.99100
H  13.00600 3.21900 27.59600
H  14.44300 3.46600 26.47100
H  14.64600 1.18900 32.57900
H  16.73200 4.76700 33.89600
H  17.56100 3.63800 34.92300
H  16.04400 4.40100 35.45600

