158

Mg 40.46700 9.97200 30.31900
C  42.49400 11.27700 32.83000
C  38.47800 8.58400 32.81500
C  38.93200 8.36600 27.88500
C  42.86600 11.11000 27.93500
N  40.45600 9.95900 32.59300
C  41.33300 10.66500 33.38000
C  40.93000 10.57700 34.89600
C  39.69700 9.57200 34.83600
C  39.53100 9.34200 33.35400
C  39.77200 8.20400 35.64000
C  40.56300 11.96700 35.62200
C  41.33200 12.10700 37.00100
H  40.58300 12.73700 38.15900
N  38.87400 8.73400 30.32500
C  38.10600 8.28300 31.45600
C  37.04500 7.39100 30.98200
C  37.25100 7.27900 29.50100
C  38.40700 8.12400 29.21000
C  36.03900 6.84300 31.94200
C  36.59400 6.45300 28.52200
O  36.81400 6.43100 27.33500
C  35.51800 5.61500 29.04100
N  40.93800 9.68200 28.24100
C  40.13400 8.95200 27.45000
C  40.39100 9.20100 25.97900
C  41.65600 10.12100 26.03800
C  41.89600 10.22800 27.50100
C  40.36500 8.06000 24.88900
C  41.44400 11.55900 25.51600
C  42.63100 12.14500 24.80600
N  42.27900 11.06700 30.30600
C  43.11100 11.36500 29.28000
C  44.21100 12.10200 29.86700
C  43.95900 12.15000 31.24700
C  42.80000 11.44900 31.47500
C  45.33500 12.73900 29.21100
C  44.44800 12.73000 32.52000
O  45.36400 13.52800 32.71100
C  43.47700 12.12200 33.60100
C  44.29200 11.26600 34.42200
O  44.93400 10.32100 34.00700
O  44.14200 11.57500 35.74900
C  44.82300 10.60300 36.61900
H  37.71600 8.17800 33.48300
H  38.41800 7.92200 27.03000
H  43.63600 11.50000 27.26600
H  41.72900 10.06100 35.43000
H  38.81300 10.15400 35.09900
H  38.77900 8.11200 36.08100
H  40.55500 8.37900 36.37900
H  40.01100 7.31200 35.06200
H  39.49200 12.12600 35.73900
H  40.84300 12.69300 34.85800
H  42.16500 12.76200 36.74800
H  41.81700 11.15700 37.23000
H  35.16500 7.48700 32.03000
H  36.45200 6.65500 32.93300
H  35.74900 5.81300 31.73400
H  36.00600 4.80300 29.58100
H  34.89500 5.25900 28.22100
H  34.92300 6.31600 29.62600
H  39.55300 9.85300 25.73300
H  42.50800 9.62500 25.57200
H  40.20000 7.11000 25.39800
H  41.27700 7.98300 24.29700
H  39.56500 8.18200 24.16000
H  41.16800 12.23600 26.32400
H  40.70100 11.53700 24.71900
H  42.82200 13.13500 25.22100
H  42.39900 12.26900 23.74800
H  43.56900 11.59300 24.85600
H  45.11100 12.81400 28.14700
H  46.27100 12.17900 29.23100
H  45.46500 13.73900 29.62500
H  43.01900 12.87200 34.24600
H  45.91100 10.62500 36.55900
H  44.47400 9.57200 36.54700
H  44.59400 10.94500 37.62800
Mg 42.67600 42.29100 25.88900
C  41.54200 44.46800 28.45200
C  43.87100 40.15500 28.18300
C  44.15300 40.69200 23.32300
C  41.66800 44.81400 23.54900
N  42.91900 42.44500 28.16100
C  42.21400 43.29800 28.99900
C  42.30900 42.83700 30.46300
C  43.15800 41.52800 30.33200
C  43.30000 41.34300 28.78900
C  44.49400 41.58700 31.09200
C  41.05800 42.67600 31.21600
C  41.28700 42.06600 32.62100
H  40.92500 43.00600 33.88200
N  43.71500 40.55600 25.73000
C  44.11700 39.77700 26.77200
C  44.62600 38.58300 26.32900
C  44.97900 38.80000 24.92900
C  44.33100 40.08300 24.59100
C  45.04100 37.45000 27.21500
C  45.66400 37.87200 23.87400
O  46.11800 38.32700 22.81400
C  46.00500 36.38400 24.28400
N  42.97700 42.75800 23.78900
C  43.56600 41.87100 22.96700
C  43.47300 42.28700 21.50600
C  42.25000 43.32300 21.60900
C  42.33300 43.69900 23.04700
C  44.73300 42.91300 20.88800
C  40.85100 42.85400 21.07100
C  40.13800 41.82100 21.99700
N  41.93000 44.25900 25.95000
C  41.45400 45.10800 24.95100
C  40.85900 46.25500 25.52000
C  40.80600 46.01300 26.87500
C  41.48300 44.78600 27.09500
C  40.39300 47.44800 24.68900
C  40.40000 46.53900 28.18100
O  39.86800 47.57900 28.59300
C  40.73800 45.44700 29.22600
C  41.61400 46.11700 30.33600
O  42.77700 46.24100 30.28500
O  40.88600 46.40000 31.39600
C  41.58500 46.83200 32.59500
H  44.19700 39.37300 28.87200
H  44.56100 40.24200 22.41600
H  41.16700 45.49600 22.85800
H  43.03900 43.52600 30.88800
H  42.54300 40.72200 30.73300
H  44.62500 42.49800 31.67600
H  45.35000 41.58900 30.41700
H  44.63300 40.77100 31.80100
H  40.35100 42.17600 30.55400
H  40.89900 43.73400 31.42300
H  42.26900 41.62600 32.79500
H  40.60700 41.21500 32.60400
H  46.11900 37.31800 27.11600
H  44.61000 36.57400 26.73100
H  44.60800 37.52700 28.21200
H  46.40500 35.73900 23.50100
H  45.11400 35.91400 24.70000
H  46.62800 36.50300 25.17000
H  43.07300 41.49700 20.87000
H  42.45600 44.24900 21.07300
H  44.41200 43.80300 20.34600
H  45.30300 42.27500 20.21300
H  45.35400 43.08400 21.76800
H  41.08400 42.51600 20.06100
H  40.26000 43.77000 21.06500
H  39.41100 42.41600 22.55000
H  40.83800 41.30300 22.65200
H  39.68500 40.97500 21.47900
H  39.86300 48.12900 25.35500
H  39.61800 47.18300 23.97000
H  41.21500 47.83700 24.08900
H  39.74500 45.15100 29.56400
H  41.49200 46.02200 33.31800
H  41.01400 47.70800 32.90100
H  42.62000 47.12300 32.41600

