158

Mg -1.87900 34.18500 27.31400
C  -3.58300 32.14900 29.75200
C  -0.62600 36.03100 30.08600
C  -0.61800 36.45600 25.24000
C  -3.55100 32.58300 24.81600
N  -2.12200 34.08300 29.62800
C  -2.88400 33.24900 30.36800
C  -2.86400 33.51100 31.83200
C  -2.03200 34.86600 31.84800
C  -1.52400 35.04700 30.48300
C  -2.95100 36.10800 32.32900
C  -2.16900 32.33300 32.55700
C  -2.95700 31.70700 33.79400
H  -2.23500 31.77400 35.15400
N  -0.67300 35.89300 27.64800
C  -0.17200 36.39500 28.83900
C  0.77800 37.46100 28.49900
C  0.72700 37.69800 27.09500
C  -0.23700 36.70500 26.60000
C  1.61700 38.18000 29.45400
C  1.32700 38.72700 26.25200
O  1.12200 38.91300 25.06400
C  2.35400 39.61700 26.87700
N  -2.06500 34.46500 25.31900
C  -1.51900 35.55300 24.71300
C  -1.93500 35.57900 23.22900
C  -2.53800 34.19200 23.07600
C  -2.77200 33.74400 24.48200
C  -2.97600 36.76400 22.91200
C  -1.70400 33.20000 22.15400
C  -0.94300 32.08400 22.88800
N  -3.23000 32.67600 27.22000
C  -3.75700 32.10000 26.07800
C  -4.71400 31.10300 26.50900
C  -4.59500 31.07800 27.88500
C  -3.68800 32.03400 28.26500
C  -5.59100 30.25400 25.60300
C  -5.09600 30.38500 29.05800
O  -5.88000 29.44200 29.13900
C  -4.48100 31.03900 30.30400
C  -5.67500 31.53000 31.08900
O  -6.54100 32.28400 30.74200
O  -5.62900 30.90300 32.30900
C  -6.79700 30.82000 33.20500
H  -0.17500 36.70900 30.81400
H  -0.27000 37.21000 24.53000
H  -4.07900 32.25200 23.91900
H  -3.88500 33.76600 32.11600
H  -1.23700 34.78700 32.59000
H  -2.45400 36.50300 33.21500
H  -3.97600 35.76400 32.46900
H  -2.92800 36.88600 31.56600
H  -1.17800 32.70400 32.81700
H  -2.03400 31.58100 31.77900
H  -3.28500 30.69000 33.57800
H  -3.90600 32.22600 33.92900
H  1.53900 37.71300 30.43600
H  1.18100 39.17900 29.44200
H  2.61100 38.04000 29.02800
H  1.95100 40.19800 27.70700
H  2.73500 40.33800 26.15400
H  3.20100 39.06700 27.28500
H  -1.08100 35.77000 22.57900
H  -3.54200 34.31900 22.67300
H  -3.90400 36.47800 22.41800
H  -2.48100 37.60800 22.43000
H  -3.33700 37.06000 23.89700
H  -0.96900 33.69600 21.52000
H  -2.36000 32.76800 21.39800
H  -0.43600 32.53000 23.74400
H  -0.17200 31.70400 22.21900
H  -1.65200 31.30500 23.17000
H  -6.49500 30.00900 26.16100
H  -5.11300 29.33800 25.25500
H  -5.90800 30.89600 24.78200
H  -3.85500 30.32100 30.83400
H  -6.92500 29.79000 33.53900
H  -7.72300 31.04900 32.67800
H  -6.61300 31.42200 34.09500
Mg -12.75600 16.97500 41.58100
C  -9.92100 15.08900 40.86500
C  -11.44600 19.63600 39.71600
C  -15.86700 18.35200 41.47600
C  -14.34800 13.92500 42.77000
N  -10.88200 17.32800 40.39100
C  -9.90400 16.36400 40.24800
C  -8.68800 17.02000 39.54200
C  -9.05400 18.48200 39.41300
C  -10.52300 18.52800 39.89100
C  -8.12300 19.43600 40.13700
C  -8.38800 16.29000 38.25000
C  -6.90100 15.83600 38.16600
H  -6.18300 16.52600 37.07900
N  -13.45900 18.69200 40.84800
C  -12.72500 19.72400 40.16700
C  -13.70100 20.79600 39.85700
C  -14.90400 20.52400 40.50000
C  -14.76800 19.11800 40.93300
C  -13.30500 22.02100 39.11700
C  -16.06700 21.51000 40.66700
O  -16.12600 22.56300 40.01600
C  -17.14300 21.30900 41.66000
N  -14.84100 16.17900 41.93300
C  -15.90600 17.02600 41.98100
C  -17.20600 16.36900 42.45300
C  -16.67300 14.94200 42.95100
C  -15.22400 14.97600 42.55100
C  -18.04000 17.10300 43.53800
C  -17.36900 13.69200 42.43700
C  -18.23400 12.83400 43.38600
N  -12.25300 15.00400 41.98300
C  -12.98000 13.92700 42.42800
C  -12.04900 12.79400 42.47400
C  -10.84000 13.19500 41.81800
C  -11.03500 14.55200 41.51900
C  -12.35200 11.42900 43.13500
C  -9.54800 12.69000 41.47100
O  -8.95900 11.61600 41.57900
C  -8.92100 13.90600 40.80400
C  -7.65900 14.11500 41.57400
O  -7.52900 14.64100 42.65600
O  -6.65400 13.69000 40.81100
C  -5.34900 13.94700 41.50700
H  -10.96200 20.39600 39.09900
H  -16.86600 18.79000 41.52500
H  -14.82400 13.03200 43.18200
H  -7.96800 16.94700 40.35700
H  -9.11600 18.76900 38.36300
H  -7.07600 19.35600 39.84300
H  -8.30700 19.30100 41.20300
H  -8.41700 20.44200 39.83900
H  -8.56600 16.87800 37.35000
H  -9.09500 15.47100 38.12300
H  -6.93700 14.75900 38.00500
H  -6.37800 16.07900 39.09200
H  -14.10600 22.26000 38.41800
H  -12.50200 21.96500 38.38200
H  -13.10300 22.80200 39.85000
H  -17.62300 22.20100 42.06300
H  -16.81100 20.86200 42.59700
H  -17.87300 20.77200 41.05500
H  -17.82500 16.17200 41.57700
H  -16.75000 14.88800 44.03700
H  -17.96500 16.65700 44.53000
H  -19.12100 17.13000 43.40300
H  -17.56000 18.08100 43.58300
H  -16.68200 13.00500 41.94200
H  -18.01100 13.96300 41.59800
H  -19.27500 12.70200 43.09100
H  -18.29900 13.20800 44.40800
H  -17.71100 11.88400 43.48800
H  -11.37300 11.00200 43.35300
H  -12.96700 10.87200 42.42900
H  -12.90400 11.43600 44.07500
H  -8.61600 13.62200 39.79700
H  -5.12600 13.24000 42.30600
H  -5.36800 14.89400 42.04700
H  -4.55200 13.92300 40.76300

