158

Mg 45.36300 5.48300 48.32300
C  43.44300 8.14500 47.45000
C  42.92700 3.30000 47.21400
C  47.60700 2.83400 48.43400
C  48.08400 7.58900 48.73700
N  43.56700 5.72700 47.27900
C  42.86800 6.90600 47.12800
C  41.59900 6.70200 46.41100
C  41.28900 5.19900 46.69000
C  42.67500 4.68400 47.11700
C  40.16100 4.91500 47.67500
C  41.60700 7.09200 44.86800
C  40.50100 7.94600 44.30800
H  39.90700 7.54700 43.00100
N  45.26100 3.35200 48.03200
C  44.09800 2.66300 47.64600
C  44.34600 1.22900 47.67200
C  45.67200 1.08500 48.15400
C  46.26300 2.48000 48.23400
C  43.33200 0.23800 47.48500
C  46.34000 -0.30600 48.50800
O  45.67200 -1.33000 48.44700
C  47.66700 -0.54200 49.01500
N  47.57100 5.27700 48.51700
C  48.20000 4.11900 48.57800
C  49.70900 4.20700 48.85000
C  49.86100 5.79200 48.91200
C  48.38000 6.29100 48.70900
C  50.18700 3.60400 50.22800
C  50.82900 6.37400 47.88400
C  51.58400 7.59500 48.48900
N  45.77200 7.52900 48.28600
C  46.89400 8.20400 48.40000
C  46.63500 9.61800 48.12900
C  45.25200 9.66400 47.84500
C  44.77300 8.32900 47.96200
C  47.62400 10.75100 48.06700
C  44.14100 10.49200 47.48800
O  44.02200 11.65900 47.36000
C  42.92600 9.50200 47.28700
C  41.73100 9.82400 48.13800
O  41.63400 9.41400 49.32100
O  40.85900 10.55700 47.44400
C  39.69000 11.00800 48.11700
H  42.21300 2.56600 46.83600
H  48.41600 2.10600 48.51400
H  48.80200 8.35800 49.03100
H  40.82200 7.26700 46.92600
H  41.03000 4.62800 45.79800
H  39.76700 5.80800 48.15900
H  40.56100 4.36000 48.52300
H  39.38100 4.33300 47.18400
H  41.65600 6.20900 44.23100
H  42.56700 7.60300 44.79900
H  40.82300 8.98600 44.26200
H  39.65800 7.91800 44.99800
H  43.48400 -0.40900 46.62100
H  42.34500 0.55800 47.15100
H  43.18400 -0.37100 48.37700
H  48.01200 -1.55000 49.24800
H  47.66800 -0.00000 49.96100
H  48.37000 -0.14200 48.28500
H  50.29300 3.75700 48.04800
H  50.02200 6.07100 49.95400
H  50.93700 4.26700 50.65700
H  50.51000 2.58200 50.03000
H  49.32700 3.43800 50.87700
H  50.26000 6.86000 47.09100
H  51.58300 5.65300 47.56700
H  52.29900 7.97000 47.75700
H  52.07700 7.10900 49.33100
H  50.83600 8.35000 48.73200
H  48.58200 10.39900 47.68500
H  47.68500 11.03500 49.11800
H  47.18500 11.50700 47.41500
H  42.65300 9.58400 46.23500
H  39.53700 12.03700 47.79300
H  39.77800 10.97300 49.20300
H  38.85400 10.35600 47.86500
Mg 49.09800 34.02500 26.15000
C  46.96900 33.11900 28.78700
C  49.39900 37.13600 27.56800
C  50.83400 35.10200 23.42200
C  48.20500 31.13000 24.44000
N  48.06600 35.06700 27.95700
C  47.57400 34.39900 29.05200
C  47.43300 35.28000 30.26600
C  48.02500 36.66000 29.76500
C  48.53000 36.29000 28.31100
C  47.12000 37.83300 30.00300
C  48.08300 34.79700 31.59300
C  47.18700 35.02400 32.84400
H  47.54500 36.17100 33.82200
N  50.00500 35.87700 25.60700
C  50.03700 37.01500 26.32400
C  50.82000 37.96100 25.76400
C  51.27700 37.42300 24.50600
C  50.66200 36.06400 24.44500
C  51.17400 39.27300 26.38400
C  52.15700 38.09100 23.48300
O  52.43200 37.56100 22.45400
C  52.94600 39.34600 23.74200
N  49.47800 33.16700 24.16000
C  50.30200 33.79000 23.29200
C  50.68700 32.90100 22.12400
C  49.63400 31.70000 22.27700
C  49.06700 31.93300 23.68100
C  50.44800 33.52200 20.68900
C  50.17500 30.22200 22.03400
C  50.97900 29.93500 20.78000
N  47.88800 32.38200 26.57100
C  47.59400 31.30600 25.75600
C  46.68000 30.38800 26.45300
C  46.44800 31.07900 27.67800
C  47.12900 32.30600 27.69200
C  46.25700 28.93100 25.95000
C  45.75400 30.97100 28.91000
O  45.05200 30.05400 29.35900
C  45.98900 32.32100 29.60100
C  46.22900 31.98000 31.05100
O  47.29700 31.71900 31.52900
O  45.09100 31.98900 31.77400
C  45.19900 31.67400 33.25700
H  49.72100 37.96800 28.19800
H  51.45500 35.47300 22.60400
H  48.00000 30.16600 23.97000
H  46.35400 35.36400 30.38900
H  48.90500 37.05100 30.27600
H  46.16900 37.45300 30.37800
H  46.97100 38.26300 29.01200
H  47.55200 38.59000 30.65700
H  48.78500 35.61600 31.75100
H  48.48900 33.79300 31.46800
H  47.01800 34.09900 33.39400
H  46.18000 35.31900 32.54900
H  50.75300 39.53800 27.35400
H  50.91500 40.16600 25.81700
H  52.24900 39.19800 26.54900
H  53.47400 39.26600 24.69200
H  52.23500 40.14300 23.95900
H  53.64700 39.63000 22.95800
H  51.72300 32.57800 22.23500
H  48.78100 31.84400 21.61300
H  50.05400 32.79900 19.97600
H  51.42200 33.70000 20.23400
H  49.84100 34.42700 20.64600
H  49.23300 29.68800 21.90900
H  50.56300 29.72800 22.92500
H  50.54800 29.20900 20.09100
H  51.96700 29.55400 21.03800
H  51.16800 30.88200 20.27400
H  46.81300 28.22400 26.56700
H  46.29500 28.73900 24.87800
H  45.24100 28.75300 26.30300
H  44.98300 32.71600 29.46000
H  45.52300 32.64200 33.64000
H  46.01300 31.00900 33.54400
H  44.26500 31.32100 33.69400

