158

Mg 30.29300 59.18800 38.58000
C  27.45200 57.31900 38.06200
C  32.21500 56.50500 37.86200
C  32.95000 61.25100 38.39000
C  28.25600 62.03900 39.11400
N  29.85600 57.17000 38.01500
C  28.62900 56.59200 37.93200
C  28.79100 55.12200 37.51300
C  30.28100 54.82100 37.96200
C  30.85000 56.27500 37.97100
C  30.31300 54.17900 39.38900
C  28.56500 54.89700 35.97300
C  29.18300 55.86900 34.94600
H  28.19900 56.77100 34.15400
N  32.20900 58.95500 38.05800
C  32.91300 57.73700 37.95400
C  34.29400 57.89900 37.68600
C  34.47500 59.36700 37.67800
C  33.18600 59.96500 37.99200
C  35.29800 56.75500 37.42100
C  35.86400 60.02000 37.22600
O  36.80900 59.23700 36.99900
C  36.03700 61.53400 36.99400
N  30.53700 61.42400 38.75000
C  31.79300 61.90900 38.73600
C  31.69100 63.43700 38.96200
C  30.19300 63.65700 39.48100
C  29.61500 62.28900 39.22600
C  32.85400 64.02200 39.95000
C  29.45000 64.90800 38.92800
C  28.64900 65.78200 39.82100
N  28.23300 59.62600 38.69700
C  27.53000 60.78600 38.91100
C  26.05700 60.57400 38.79400
C  25.98900 59.19700 38.52300
C  27.32200 58.68800 38.38000
C  24.96100 61.63800 38.99200
C  25.08300 58.08300 38.30500
O  23.88000 58.05600 38.24000
C  26.03300 56.80800 37.97200
C  25.60300 55.58700 38.79600
O  25.48100 55.53800 40.00700
O  25.18200 54.62000 37.97800
C  24.17600 53.64900 38.55300
H  32.87900 55.63900 37.88600
H  33.77100 61.96600 38.46900
H  27.66000 62.93200 39.31200
H  28.09600 54.44300 38.00600
H  30.83900 54.22800 37.23700
H  29.32400 54.10200 39.84100
H  30.74800 54.90900 40.07100
H  30.75600 53.18300 39.38400
H  27.47800 54.94400 35.90300
H  28.96700 53.92000 35.70300
H  29.64600 55.24300 34.18300
H  29.96500 56.52000 35.33700
H  35.53800 56.61800 36.36600
H  34.87500 55.82500 37.80100
H  36.21000 56.76300 38.01800
H  37.06000 61.80400 36.72900
H  35.83600 61.94100 37.98400
H  35.29600 61.69700 36.21200
H  31.75700 63.88500 37.97100
H  30.30500 63.78400 40.55800
H  33.60700 64.36600 39.24100
H  33.31200 63.19300 40.48900
H  32.40900 64.73900 40.64100
H  28.85700 64.64600 38.05200
H  30.16400 65.50400 38.35900
H  29.04600 66.79500 39.75500
H  28.58500 65.36100 40.82400
H  27.58100 65.74200 39.60600
H  25.33800 62.57600 39.40000
H  24.18400 61.30700 39.68000
H  24.43900 62.00800 38.10900
H  25.85700 56.56000 36.92500
H  24.63100 52.97700 39.28100
H  23.89400 53.06600 37.67600
H  23.36300 54.14800 39.08100
Mg -1.21700 34.89700 27.17500
C  -2.88200 33.23400 29.84500
C  -0.08200 37.08100 29.60300
C  0.02200 36.80300 24.71100
C  -2.74500 32.75400 24.95100
N  -1.45600 35.17500 29.50300
C  -2.13500 34.30800 30.32200
C  -1.99900 34.78500 31.77900
C  -1.31600 36.13600 31.63700
C  -0.84700 36.11100 30.17800
C  -2.17600 37.36100 32.03200
C  -1.22800 33.64900 32.64300
C  -1.90700 33.37200 33.93900
H  -0.97400 33.17100 35.13300
N  -0.02700 36.56000 27.19600
C  0.37100 37.32400 28.23700
C  1.16700 38.42300 27.75700
C  1.36100 38.28400 26.35000
C  0.41300 37.17500 26.03300
C  1.79800 39.49800 28.56200
C  2.17000 39.03400 25.29400
O  2.16000 38.80000 24.10900
C  3.05400 40.00800 25.69500
N  -1.33300 34.71800 25.12700
C  -0.76600 35.69600 24.27200
C  -1.18500 35.33100 22.84100
C  -1.72900 33.89500 22.93700
C  -2.00100 33.74800 24.39100
C  -2.18800 36.29500 22.13700
C  -0.79100 32.91900 22.18500
C  0.22000 32.14300 23.11900
N  -2.59800 33.34600 27.29000
C  -3.12800 32.56600 26.30200
C  -3.87200 31.45700 26.87600
C  -3.81600 31.71700 28.20700
C  -3.01300 32.85400 28.47400
C  -4.57600 30.32500 26.18000
C  -4.29900 31.15700 29.45600
O  -4.96900 30.16300 29.68500
C  -3.59600 32.08600 30.59100
C  -4.60500 32.46000 31.43400
O  -5.43700 33.28500 31.24000
O  -4.56800 31.71200 32.57900
C  -5.53500 32.09000 33.63300
H  0.31500 37.72400 30.39100
H  0.34400 37.46300 23.90300
H  -3.25600 32.16600 24.18600
H  -3.01000 34.81600 32.18400
H  -0.44200 36.28400 32.27100
H  -2.29700 38.03900 31.18700
H  -1.54100 37.78300 32.81100
H  -3.17600 37.19400 32.43400
H  -0.16600 33.89800 32.65600
H  -1.25800 32.71800 32.07600
H  -2.41400 32.42000 33.78400
H  -2.63200 34.13000 34.23400
H  1.54700 40.48000 28.16100
H  2.87100 39.39000 28.71800
H  1.39700 39.53100 29.57600
H  3.69400 39.63200 26.49400
H  2.34600 40.71800 26.12200
H  3.57800 40.33300 24.79600
H  -0.21400 35.38600 22.34900
H  -2.63900 33.90600 22.33600
H  -2.51300 37.12000 22.77100
H  -3.09500 35.79200 21.80100
H  -1.70000 36.72200 21.26100
H  -0.13900 33.38800 21.44900
H  -1.43400 32.19200 21.68800
H  0.46800 32.65200 24.05100
H  1.16100 32.06000 22.57400
H  -0.11300 31.12400 23.31900
H  -4.17000 29.37400 26.52500
H  -4.40600 30.34800 25.10300
H  -5.58300 30.44400 26.57900
H  -2.94600 31.41800 31.15600
H  -5.33400 33.11600 33.94100
H  -5.39100 31.40900 34.47200
H  -6.47800 31.76600 33.19400

