158

Mg 55.17200 23.15800 44.63100
C  52.77700 25.43100 43.81300
C  53.20300 20.57500 43.52500
C  57.86700 21.09800 44.65300
C  57.27000 25.91400 45.65500
N  53.31200 22.97500 43.66200
C  52.46600 24.10300 43.45100
C  51.02600 23.67400 42.97900
C  51.04800 22.13500 43.34700
C  52.57800 21.81000 43.55000
C  50.19500 21.58400 44.50300
C  50.83600 23.87800 41.46600
C  49.50500 24.14100 40.91900
H  49.30800 23.82700 39.39100
N  55.46700 21.09600 44.18400
C  54.58200 20.20100 43.65000
C  55.12000 18.94400 43.53100
C  56.39900 19.03200 44.11000
C  56.65500 20.48500 44.37000
C  54.33000 17.78200 42.92000
C  57.26200 17.80500 44.48300
O  56.91100 16.67800 44.15200
C  58.56400 17.95600 45.24000
N  57.25500 23.44500 45.16700
C  58.13900 22.41200 45.03800
C  59.58600 22.83000 45.41500
C  59.35900 24.35700 45.95100
C  57.89800 24.66200 45.52800
C  60.38000 22.01900 46.43600
C  60.39700 25.30200 45.36000
C  61.35000 25.84200 46.46400
N  54.99300 25.23400 44.86100
C  55.86600 26.25800 45.27100
C  55.16200 27.54000 45.34200
C  53.91200 27.24700 44.80400
C  53.91600 25.87100 44.46300
C  55.80000 28.81900 45.92800
C  52.69200 27.81600 44.30700
O  52.41400 28.99200 44.31400
C  51.85800 26.66400 43.68900
C  51.67000 27.08600 42.33200
O  52.53900 27.00200 41.45200
O  50.35500 27.39600 42.12400
C  49.98600 28.04500 40.85200
H  52.49000 19.79700 43.24600
H  58.74700 20.45200 44.60100
H  57.81300 26.79600 46.00300
H  50.22900 24.09600 43.59200
H  50.78300 21.61800 42.42400
H  49.93400 22.37800 45.20300
H  50.67500 20.82400 45.12100
H  49.27400 21.23600 44.03600
H  51.41800 23.12000 40.94200
H  51.42200 24.79200 41.37700
H  49.26500 25.18700 41.10900
H  48.86300 23.50500 41.52800
H  53.63100 18.20600 42.19800
H  53.78800 17.24800 43.70100
H  55.06500 17.11100 42.47600
H  59.36700 18.28800 44.58300
H  58.98100 17.04500 45.67000
H  58.36400 18.50400 46.16100
H  60.19400 22.93700 44.51600
H  59.43500 24.35500 47.03900
H  61.26600 21.61200 45.94700
H  59.81900 21.17500 46.83800
H  60.55000 22.59800 47.34300
H  59.85600 26.04000 44.76900
H  61.03000 24.79100 44.63500
H  62.31000 25.33200 46.37600
H  61.02300 25.66600 47.48900
H  61.40900 26.93000 46.48900
H  56.39400 29.28100 45.14000
H  56.49800 28.58300 46.73200
H  54.96500 29.46500 46.19700
H  50.97400 26.51300 44.30900
H  50.80500 28.49300 40.28900
H  49.18600 28.77500 40.97800
H  49.62400 27.15900 40.33100
Mg -2.66300 35.04200 26.85200
C  -4.52300 33.47400 29.21300
C  -1.83100 37.50700 29.09600
C  -0.64400 36.44900 24.52400
C  -3.93400 32.98000 24.41800
N  -3.20300 35.45200 28.88200
C  -3.91200 34.60200 29.69500
C  -3.85700 35.10400 31.16300
C  -3.42300 36.58200 30.98200
C  -2.73900 36.53400 29.53900
C  -4.57600 37.58500 30.95900
C  -2.88100 34.28900 32.11000
C  -3.41000 33.70100 33.38600
H  -2.52500 33.59000 34.67100
N  -1.39100 36.74300 26.82300
C  -1.13000 37.59200 27.85400
C  -0.04900 38.44000 27.50100
C  0.33000 38.15200 26.17600
C  -0.53700 37.07200 25.76500
C  0.38700 39.51100 28.47600
C  1.31900 38.78700 25.20700
O  1.57000 38.21700 24.16800
C  1.96200 40.07500 25.55400
N  -2.38200 34.83400 24.70100
C  -1.39500 35.47100 24.06000
C  -1.18600 34.87600 22.62100
C  -2.30100 33.72200 22.58800
C  -2.92400 33.86800 24.01000
C  -1.36700 35.94800 21.48800
C  -1.73000 32.33600 22.19800
C  -2.70900 31.38100 21.46000
N  -4.09200 33.63000 26.75900
C  -4.54500 32.88100 25.68600
C  -5.49900 31.89600 26.18900
C  -5.45300 32.04900 27.58400
C  -4.58900 33.12100 27.83500
C  -6.14000 30.76700 25.43400
C  -5.91300 31.51400 28.83500
O  -6.51700 30.46500 29.07400
C  -5.31500 32.44800 29.97400
C  -6.45800 33.11600 30.69900
O  -7.20700 33.93300 30.23500
O  -6.64700 32.52200 31.91500
C  -7.49100 33.31400 32.78400
H  -1.42600 38.12200 29.90300
H  -0.00700 36.76300 23.69400
H  -4.31200 32.32100 23.63400
H  -4.91900 34.99500 31.38100
H  -2.67200 36.90600 31.70200
H  -5.43600 37.00500 31.29400
H  -4.68600 37.91300 29.92600
H  -4.57800 38.32300 31.76100
H  -2.00500 34.91700 32.27300
H  -2.54500 33.43100 31.52900
H  -3.76500 32.71400 33.09000
H  -4.34400 34.17400 33.69000
H  0.85600 39.23500 29.42000
H  -0.41000 40.18000 28.80000
H  1.01300 40.25600 27.98400
H  2.41800 40.40900 24.62200
H  2.67100 39.79500 26.33400
H  1.20000 40.76600 25.91500
H  -0.18300 34.44900 22.58900
H  -3.04600 33.98100 21.83400
H  -2.13500 36.56900 21.94800
H  -1.75800 35.46600 20.59200
H  -0.44800 36.47600 21.23200
H  -1.59600 31.78000 23.12600
H  -0.70000 32.35300 21.84300
H  -2.15900 30.90700 20.64800
H  -3.49200 32.05500 21.11100
H  -3.06300 30.58400 22.11300
H  -5.76500 30.81700 24.41200
H  -7.21700 30.69900 25.59100
H  -5.60400 29.95400 25.92300
H  -4.64800 31.88200 30.62400
H  -7.24100 34.37100 32.86900
H  -7.60100 32.87400 33.77500
H  -8.47700 33.31300 32.32000

