158

Mg 9.32600 3.45900 28.25800
C  11.00900 2.14200 31.12700
C  7.59700 5.61800 30.42900
C  7.70000 4.71000 25.66300
C  10.66000 0.87400 26.40500
N  9.33800 3.84900 30.54000
C  10.11800 3.19400 31.49800
C  9.84000 3.71500 32.90200
C  8.49200 4.59100 32.62000
C  8.38400 4.61500 31.11800
C  7.21700 4.13000 33.39300
C  11.02800 4.54600 33.41100
C  11.62900 4.07300 34.76100
H  10.64100 4.01200 35.97500
N  7.96900 5.00300 28.06600
C  7.42200 5.82800 29.02900
C  6.77400 6.96700 28.37500
C  6.76700 6.63300 26.99500
C  7.48300 5.41200 26.82200
C  6.05300 8.08400 29.19400
C  6.21500 7.48100 25.74100
O  6.36200 7.20100 24.52100
C  5.51600 8.81600 25.98500
N  9.09400 2.79700 26.27500
C  8.50500 3.55500 25.36200
C  8.52600 2.80900 23.96700
C  9.56000 1.70700 24.19900
C  9.71200 1.72800 25.68400
C  7.10600 2.35700 23.45500
C  10.89900 1.83600 23.26700
C  10.80200 1.20800 21.94900
N  10.55500 1.90000 28.63300
C  11.01700 0.91900 27.79500
C  11.83700 -0.03600 28.51900
C  11.92700 0.52800 29.78600
C  11.09300 1.64700 29.87500
C  12.51900 -1.21900 27.97400
C  12.58700 0.33500 31.10000
O  13.38300 -0.52500 31.48300
C  11.89000 1.31500 32.07800
C  11.13200 0.41700 33.03600
O  10.39900 -0.50200 32.74700
O  11.47800 0.77300 34.31700
C  10.65600 0.09000 35.36800
H  7.03100 6.36200 30.99300
H  7.15900 4.99100 24.75700
H  11.02900 -0.02100 25.90100
H  9.56100 2.86300 33.52200
H  8.86700 5.55700 32.95700
H  7.55900 3.52800 34.23500
H  6.60100 3.44200 32.81500
H  6.59500 4.99100 33.63800
H  10.88000 5.61900 33.29000
H  11.81500 4.31300 32.69400
H  12.36800 4.84600 34.97100
H  12.29300 3.21100 34.72100
H  5.02700 8.03700 28.83000
H  6.48900 9.03100 28.87500
H  6.19000 8.07200 30.27600
H  6.31000 9.44900 26.38200
H  4.77800 8.67200 26.77400
H  5.01200 9.25100 25.12200
H  8.98500 3.49400 23.25500
H  9.15500 0.70000 24.10000
H  6.82600 2.83600 22.51700
H  6.41900 2.70100 24.22800
H  7.02400 1.28000 23.30700
H  11.66600 1.37400 23.88900
H  11.15700 2.87900 23.08200
H  11.26800 0.22400 21.89000
H  11.19900 1.83200 21.14900
H  9.73100 1.08700 21.78800
H  13.29700 -0.80000 27.33500
H  11.83600 -1.82400 27.37800
H  12.91600 -1.85200 28.76800
H  12.68000 1.75600 32.68600
H  11.31400 -0.71300 35.69900
H  9.71900 -0.33700 35.01300
H  10.41600 0.79900 36.16100
Mg 0.00200 43.94800 25.80700
C  2.42000 43.51700 28.21100
C  -2.37600 42.95100 28.06400
C  -2.12800 43.94000 23.18700
C  2.59400 44.60700 23.53900
N  0.06000 43.26200 27.91700
C  1.10900 43.31400 28.69600
C  0.69800 43.24200 30.10300
C  -0.78400 42.85100 30.05400
C  -1.09000 43.00000 28.59000
C  -1.02300 41.43800 30.59300
C  1.05200 44.49200 30.98200
C  1.28000 44.32100 32.47800
H  0.98300 42.90300 33.05500
N  -2.01700 43.52600 25.60800
C  -2.83700 43.11000 26.65500
C  -4.05800 42.77900 26.12200
C  -4.04900 43.04500 24.71900
C  -2.69500 43.53500 24.40700
C  -5.16300 42.21500 27.01500
C  -5.14500 42.78200 23.67100
O  -5.04000 43.09700 22.50500
C  -6.38600 42.07300 24.06600
N  0.21100 44.38200 23.66400
C  -0.85000 44.29200 22.81800
C  -0.41800 44.59700 21.37200
C  1.13800 44.76100 21.47200
C  1.35000 44.68400 23.02100
C  -0.88800 43.57800 20.27700
C  1.64300 46.06600 20.80300
C  1.31600 47.36900 21.50800
N  2.04500 43.98000 25.80100
C  2.96100 44.26900 24.81400
C  4.36600 44.07300 25.31100
C  4.20200 43.73900 26.68200
C  2.78900 43.78500 26.91300
C  5.66000 44.32300 24.54700
C  4.84700 43.30400 27.87700
O  6.03500 42.99200 28.05100
C  3.72400 43.30800 28.98700
C  3.68700 42.03100 29.77800
O  3.61400 40.85400 29.36600
O  4.26200 42.34100 30.98500
C  4.57800 41.15700 31.83600
H  -3.15900 42.69000 28.77900
H  -2.86600 43.89200 22.38400
H  3.49700 44.87400 22.98600
H  1.35300 42.48400 30.53400
H  -1.41400 43.54100 30.61500
H  -0.14500 40.81900 30.77800
H  -1.65600 40.84400 29.93300
H  -1.55100 41.62800 31.52700
H  0.30000 45.26800 30.84300
H  1.98600 44.96500 30.67800
H  0.57200 45.03500 32.90000
H  2.32100 44.54700 32.70900
H  -5.53600 41.29000 26.57600
H  -5.97800 42.93800 27.03200
H  -4.83200 41.97000 28.02400
H  -6.21700 41.02900 24.33300
H  -6.99800 41.89500 23.18300
H  -6.86700 42.62300 24.87500
H  -0.91800 45.53600 21.13800
H  1.66900 43.89000 21.08700
H  -1.28600 44.12700 19.42400
H  -1.53100 42.76900 20.62500
H  -0.02100 43.03700 19.89700
H  1.19000 46.07600 19.81200
H  2.69700 46.10900 20.53000
H  1.19800 47.21200 22.58100
H  0.33900 47.60100 21.08500
H  1.90000 48.25500 21.25900
H  5.54400 45.36800 24.26200
H  6.00000 43.61300 23.79300
H  6.41400 44.25500 25.33100
H  3.83300 44.21000 29.59000
H  3.84500 40.36700 31.67000
H  4.29600 41.25100 32.88500
H  5.59800 40.80600 31.68100

