158

Mg 41.45500 41.40000 27.28300
C  40.72900 43.84000 29.73600
C  42.48000 39.26000 29.64400
C  42.63700 39.46700 24.76100
C  41.03200 44.13700 24.82500
N  41.58400 41.56000 29.35900
C  41.11200 42.55600 30.18100
C  41.12100 42.17200 31.62900
C  41.75500 40.72600 31.59800
C  42.01700 40.47600 30.14000
C  43.16100 40.66500 32.29300
C  39.64800 42.26600 32.38300
C  39.50900 43.12300 33.63500
H  39.06900 42.50500 34.94200
N  42.36400 39.67500 27.21100
C  42.63200 38.84200 28.29900
C  42.98200 37.51200 27.81800
C  43.06500 37.56400 26.40700
C  42.67100 38.98500 26.08300
C  43.26500 36.34400 28.73200
C  43.51300 36.50700 25.36200
O  43.61500 36.79700 24.16900
C  43.87100 34.98900 25.80700
N  41.84700 41.79300 25.11800
C  42.26700 40.75100 24.34000
C  41.98700 41.06400 22.87300
C  41.22900 42.45400 22.92400
C  41.36400 42.81200 24.39500
C  43.22200 40.99200 21.98300
C  39.75300 42.30100 22.44300
C  38.63800 42.32100 23.45500
N  40.89400 43.46000 27.23700
C  40.82200 44.40800 26.21400
C  40.40100 45.69400 26.69500
C  40.33500 45.51300 28.05200
C  40.70700 44.13800 28.35400
C  40.19900 46.98500 25.91200
C  40.14400 46.19500 29.32100
O  39.83700 47.34700 29.58600
C  40.36800 45.11800 30.42500
C  41.49200 45.60800 31.30000
O  42.60900 45.76200 30.98000
O  41.00300 46.03300 32.55300
C  41.87500 46.98600 33.28000
H  42.68300 38.52200 30.42300
H  42.73200 38.81900 23.88800
H  40.73800 44.86600 24.06700
H  41.83300 42.77000 32.19900
H  41.15300 39.91500 32.00700
H  43.05100 40.38600 33.34100
H  43.52000 41.69100 32.37800
H  43.92400 40.03000 31.84300
H  39.37400 41.23600 32.61000
H  38.94400 42.53000 31.59400
H  38.75600 43.86200 33.36000
H  40.43000 43.69800 33.72900
H  43.14500 36.54100 29.79800
H  44.33300 36.18200 28.58400
H  42.60500 35.53100 28.42700
H  42.96500 34.45000 26.08300
H  44.61100 35.03500 26.60600
H  44.30300 34.44400 24.96700
H  41.33000 40.34300 22.38500
H  41.76200 43.15700 22.28300
H  43.99600 40.63900 22.66300
H  43.47600 41.95900 21.54900
H  42.98300 40.31000 21.16600
H  39.76400 41.39900 21.83000
H  39.68700 43.24100 21.89500
H  37.87100 41.57200 23.25500
H  38.25200 43.34000 23.41400
H  38.92800 42.18900 24.49700
H  40.26100 47.78300 26.65200
H  39.19400 46.80400 25.53200
H  40.91500 47.20300 25.12000
H  39.49000 45.00700 31.06100
H  41.91700 47.94700 32.76700
H  42.83900 46.54200 33.52900
H  41.45300 47.23300 34.25400
Mg -10.38500 40.18500 42.18400
C  -9.47900 37.04100 40.90800
C  -7.49300 41.49700 40.81100
C  -11.63500 43.34200 42.67000
C  -13.67100 38.84100 42.68300
N  -8.79500 39.33000 40.92400
C  -8.55900 38.10900 40.60000
C  -7.23800 37.91000 39.85200
C  -6.48200 39.24000 40.01200
C  -7.62100 40.07700 40.68800
C  -5.13600 39.19100 40.78200
C  -7.33300 37.49500 38.34400
C  -6.55700 36.22300 37.93000
H  -5.51000 36.37400 36.87400
N  -9.62100 42.12200 42.01500
C  -8.37000 42.44100 41.40600
C  -8.09700 43.85500 41.51700
C  -9.29100 44.45200 42.13900
C  -10.22700 43.31200 42.35500
C  -6.90200 44.54900 40.96700
C  -9.53100 45.81800 42.55300
O  -8.66200 46.67100 42.31000
C  -10.73900 46.28500 43.40900
N  -12.34500 40.96800 42.57100
C  -12.58200 42.30200 42.80500
C  -14.06800 42.57100 43.15500
C  -14.74100 41.12100 43.14000
C  -13.52000 40.26700 42.70900
C  -14.07900 43.36400 44.53900
C  -15.96100 41.04900 42.15400
C  -17.26600 40.54800 42.81400
N  -11.42300 38.28100 42.05700
C  -12.71400 37.89300 42.29800
C  -12.79100 36.48700 42.08800
C  -11.51900 36.03200 41.68700
C  -10.74700 37.22100 41.54500
C  -14.02500 35.67300 42.34700
C  -10.66300 34.88700 41.27800
O  -10.88300 33.67900 41.39500
C  -9.36900 35.58400 40.56900
C  -8.10700 34.87600 41.04500
O  -7.64600 34.93500 42.14500
O  -7.63900 34.07200 40.05100
C  -6.41000 33.35200 40.51600
H  -6.50500 41.72900 40.40900
H  -12.08100 44.32400 42.83900
H  -14.67900 38.46000 42.85900
H  -6.67200 37.23400 40.49300
H  -6.40200 39.73900 39.04600
H  -4.71500 38.18800 40.85900
H  -5.33900 39.66200 41.74400
H  -4.49200 39.88400 40.24100
H  -7.04700 38.30300 37.67100
H  -8.37200 37.33700 38.05300
H  -7.30600 35.46400 37.70500
H  -5.98100 35.77400 38.73900
H  -6.25600 43.90600 40.37000
H  -6.29900 44.83400 41.83000
H  -7.25500 45.44700 40.46100
H  -11.57800 46.37100 42.71900
H  -10.43500 47.23300 43.85200
H  -10.96400 45.54300 44.17500
H  -14.41100 43.11100 42.27200
H  -14.97100 40.80200 44.15600
H  -14.56000 44.34000 44.47900
H  -13.08500 43.45100 44.97700
H  -14.71300 42.83000 45.24800
H  -15.74700 40.33800 41.35500
H  -16.10200 41.91600 41.50800
H  -17.36000 40.93600 43.82800
H  -17.20000 39.46100 42.86200
H  -18.04200 40.91900 42.14400
H  -14.47000 36.01500 43.28100
H  -13.79200 34.61200 42.44100
H  -14.72900 35.85900 41.53500
H  -9.39500 35.60000 39.48000
H  -6.73400 32.69100 41.32000
H  -5.60300 33.98300 40.88700
H  -6.01800 32.60000 39.83100

