158

Mg 16.70500 -1.49700 28.18700
C  15.47700 0.22100 31.01100
C  18.99600 -2.95400 30.32200
C  18.23000 -2.73300 25.48200
C  15.01900 0.87300 26.08600
N  17.09700 -1.31100 30.39700
C  16.49000 -0.60400 31.34500
C  16.96800 -0.95000 32.69800
C  18.15500 -1.92700 32.48900
C  18.05100 -2.10800 30.93200
C  19.54300 -1.47500 33.04500
C  15.85100 -1.50300 33.59100
C  15.63200 -0.94100 34.99400
H  16.86700 -0.29000 35.64400
N  18.30100 -2.77900 27.92600
C  19.09300 -3.31700 28.98600
C  19.86600 -4.37400 28.37600
C  19.65800 -4.35000 26.93000
C  18.70400 -3.26800 26.68800
C  20.68600 -5.28000 29.24300
C  20.27100 -5.22500 25.84500
O  20.01400 -5.18200 24.61700
C  21.31500 -6.22100 26.19300
N  16.61600 -0.97600 25.99900
C  17.34200 -1.68600 25.10600
C  17.35100 -1.02200 23.68800
C  16.10400 -0.06400 23.82100
C  15.90200 0.02400 25.34600
C  18.60100 -0.16900 23.52700
C  14.82800 -0.66900 23.17900
C  13.93200 0.32900 22.43000
N  15.33000 -0.02400 28.40900
C  14.78300 0.85000 27.51300
C  13.83000 1.63900 28.20200
C  14.11500 1.55400 29.54400
C  15.04200 0.48600 29.65100
C  12.83500 2.60200 27.62200
C  13.82400 2.03500 30.85600
O  13.00100 2.92600 31.23700
C  14.73600 1.24200 31.80200
C  15.58400 2.17100 32.52500
O  16.63400 2.52900 32.06400
O  15.18700 2.33300 33.81100
C  16.06100 3.38300 34.45800
H  19.64000 -3.36600 31.10200
H  18.73500 -3.11300 24.59100
H  14.49700 1.70700 25.61100
H  17.47500 -0.05600 33.06100
H  17.87400 -2.92700 32.81700
H  19.44200 -0.79700 33.89200
H  20.14100 -1.07100 32.22800
H  19.89300 -2.42900 33.43900
H  15.97900 -2.58500 33.62400
H  14.87300 -1.40300 33.12000
H  15.30900 -1.75200 35.64700
H  14.81000 -0.23000 35.06900
H  20.14300 -6.20900 29.41500
H  20.94800 -4.89000 30.22600
H  21.65600 -5.44300 28.77300
H  20.87900 -6.93200 26.89500
H  21.98300 -5.49500 26.65600
H  21.50600 -6.78400 25.28000
H  17.30500 -1.82500 22.95200
H  16.29200 0.98600 23.59900
H  19.05300 0.22900 24.43500
H  18.30800 0.76100 23.03900
H  19.34900 -0.70100 22.93900
H  14.30800 -1.15000 24.00800
H  15.12400 -1.42100 22.44800
H  13.64400 -0.01100 21.43500
H  14.44800 1.28600 22.34700
H  13.01700 0.49700 22.99900
H  12.03000 2.11200 27.07400
H  13.31900 3.12900 26.80000
H  12.50800 3.25200 28.43400
H  14.07500 0.70900 32.48500
H  15.97600 3.36200 35.54500
H  15.69300 4.35500 34.12900
H  17.13200 3.30800 34.27300
Mg 34.76900 2.91000 29.92400
C  32.41700 3.71700 32.39100
C  37.26800 3.55300 32.24900
C  36.96700 2.24900 27.68600
C  32.35700 3.45100 27.52900
N  34.85600 3.61500 32.05300
C  33.73200 3.55000 32.87700
C  34.19200 3.59200 34.35300
C  35.71500 3.93900 34.25100
C  35.97600 3.67700 32.75600
C  36.29400 5.34900 34.76900
C  33.73400 2.33300 35.05400
C  33.39700 2.52900 36.54600
H  34.27900 3.37600 37.45900
N  36.86500 2.87300 29.98200
C  37.68800 3.15500 31.00800
C  39.07300 2.89900 30.63700
C  39.07500 2.35600 29.34900
C  37.59200 2.44600 28.94200
C  40.22600 3.07400 31.56600
C  40.16800 1.82600 28.49300
O  39.90700 1.36700 27.37100
C  41.61700 1.76800 28.92900
N  34.70000 2.88400 27.87500
C  35.69400 2.41200 27.14400
C  35.41900 2.56400 25.58100
C  33.91500 3.05800 25.63300
C  33.64700 3.10000 27.09700
C  36.37700 3.51600 24.75500
C  32.94700 2.01200 24.93500
C  31.81200 2.63400 24.12300
N  32.74200 3.28900 29.90700
C  31.88700 3.50500 28.83400
C  30.54100 3.80100 29.36100
C  30.72000 3.87900 30.73400
C  32.07700 3.64300 31.01500
C  29.26800 3.84800 28.47000
C  30.04700 4.01500 32.04000
O  28.85400 4.19600 32.28900
C  31.19900 3.99100 33.18900
C  31.19400 5.31600 33.82500
O  31.15300 6.42400 33.31700
O  31.31300 5.13300 35.17200
C  31.54700 6.31300 35.96000
H  37.99500 3.69200 33.05300
H  37.73500 2.00200 26.94900
H  31.65000 3.76500 26.75800
H  33.70300 4.46000 34.79500
H  36.29400 3.18500 34.78300
H  35.55800 6.06000 35.14500
H  36.75300 5.80700 33.89300
H  37.12600 5.09800 35.42800
H  34.50400 1.56700 34.95600
H  32.76500 2.03900 34.65000
H  33.39800 1.50700 36.92700
H  32.33700 2.78000 36.58700
H  41.12400 3.20900 30.96300
H  40.23700 2.25100 32.28100
H  39.97700 3.92000 32.20600
H  41.64100 1.30100 29.91300
H  42.14500 2.72100 28.97600
H  42.13500 1.21000 28.14900
H  35.50800 1.58600 25.10900
H  33.82500 4.09100 25.29700
H  35.82100 4.19300 24.10700
H  37.17500 3.00700 24.21400
H  36.92600 4.09800 25.49500
H  32.44900 1.46400 25.73400
H  33.45600 1.27100 24.31800
H  32.02700 2.38800 23.08300
H  31.92100 3.70900 23.97900
H  30.87300 2.28200 24.55100
H  29.49000 3.17200 27.64300
H  29.14700 4.91300 28.27500
H  28.48600 3.46500 29.12600
H  30.87500 3.21400 33.88100
H  30.81700 7.11600 35.86400
H  32.52200 6.73000 35.70700
H  31.79100 6.15400 37.01000

