158

Mg 34.57200 3.72500 29.22100
C  32.27800 4.51500 31.87600
C  37.20000 3.94800 31.50000
C  36.71400 3.23800 26.72100
C  31.92100 3.95200 27.03600
N  34.73100 4.23700 31.41500
C  33.57600 4.41900 32.33400
C  34.14300 4.59800 33.74700
C  35.73000 4.66800 33.46800
C  35.92900 4.27000 32.02300
C  36.51800 5.99000 33.86700
C  33.66100 3.47600 34.64400
C  33.62000 3.75600 36.20800
H  34.31700 4.95500 36.77700
N  36.69100 3.44600 29.14900
C  37.56400 3.59700 30.19200
C  38.92700 3.29300 29.69900
C  38.85400 3.19700 28.23900
C  37.40300 3.24800 27.95900
C  40.15100 3.21800 30.60900
C  39.88600 3.12000 27.18900
O  39.64600 3.04400 26.00200
C  41.33800 3.05900 27.56100
N  34.35000 3.68500 27.24600
C  35.36400 3.45800 26.41900
C  34.83400 3.29000 24.96000
C  33.33100 2.99500 25.14400
C  33.16000 3.58000 26.55600
C  35.10700 4.61500 24.21300
C  32.87100 1.53600 25.06400
C  31.80700 1.29000 24.02200
N  32.56100 4.12800 29.33900
C  31.59100 4.24400 28.37900
C  30.29100 4.52000 28.95900
C  30.49100 4.62100 30.33700
C  31.87100 4.37800 30.49600
C  28.96600 4.72700 28.25700
C  29.85600 4.87900 31.58100
O  28.69900 5.17400 31.88500
C  31.00000 4.68400 32.60900
C  30.97900 5.92300 33.44500
O  31.68000 6.88900 33.25700
O  30.18000 5.76100 34.54600
C  30.39300 6.70200 35.65500
H  38.08300 4.09800 32.12500
H  37.42400 2.87600 25.97400
H  31.00900 4.00600 26.43800
H  33.76500 5.49600 34.23600
H  36.27900 3.87400 33.97500
H  36.99500 6.40900 32.98100
H  37.31600 5.82100 34.59000
H  35.92000 6.76300 34.35100
H  34.23800 2.55800 34.52800
H  32.64400 3.31100 34.28900
H  34.05500 2.87600 36.68200
H  32.57300 3.90100 36.47600
H  40.71700 2.34300 30.29000
H  40.00500 3.02200 31.67200
H  40.66000 4.18200 30.61800
H  41.45400 2.37200 28.39900
H  41.61300 4.06200 27.88800
H  42.05600 2.79100 26.78600
H  35.31600 2.46100 24.44100
H  32.83200 3.56400 24.36000
H  35.38500 4.33300 23.19800
H  35.84900 5.21500 24.74100
H  34.20900 5.21900 24.08600
H  32.56700 1.19100 26.05200
H  33.67600 0.86600 24.76100
H  30.97500 0.66800 24.35200
H  32.32600 0.70300 23.26500
H  31.34300 2.20900 23.66200
H  28.43900 3.85200 28.63900
H  29.04100 4.71700 27.17000
H  28.48400 5.66900 28.51700
H  30.77200 3.89000 33.32000
H  31.14900 7.47900 35.54200
H  30.76600 6.11500 36.49400
H  29.46700 7.11300 36.05800
Mg 26.98900 49.66500 26.16700
C  25.16200 50.80800 28.86900
C  29.34000 48.47200 28.37400
C  29.25900 49.42800 23.62900
C  24.80400 51.28900 23.97500
N  27.05600 49.50200 28.37200
C  26.26700 50.08100 29.25800
C  26.70600 49.90000 30.73000
C  28.18100 49.32200 30.47000
C  28.14400 48.93900 28.95600
C  29.34700 50.24400 31.00100
C  25.85300 48.83300 31.54200
C  25.36700 49.27500 32.91400
H  26.44200 49.76200 33.97500
N  28.96600 48.93800 26.01600
C  29.77200 48.45000 27.03900
C  31.06200 48.05600 26.54800
C  31.16300 48.47500 25.18400
C  29.71200 48.92700 24.85300
C  32.10000 47.43900 27.49600
C  32.31400 48.53800 24.18900
O  32.33000 49.07400 23.04000
C  33.65200 47.96700 24.66000
N  27.10000 50.38500 24.11700
C  28.08700 50.04200 23.27500
C  27.75600 50.48500 21.80200
C  26.30700 50.99400 21.91700
C  26.03100 50.93700 23.43200
C  28.72000 51.45600 21.09400
C  25.26300 50.28900 21.00200
C  24.39200 51.15400 19.99800
N  25.15700 50.57400 26.33900
C  24.40600 51.23800 25.36200
C  23.26600 51.87600 26.05000
C  23.56700 51.67800 27.45300
C  24.69600 50.92400 27.54500
C  22.16600 52.69600 25.45100
C  23.07300 51.91200 28.75300
O  22.00000 52.44000 29.06400
C  24.04000 51.35100 29.74900
C  24.35200 52.49900 30.67600
O  25.21800 53.34500 30.52100
O  23.48900 52.51500 31.73600
C  23.73100 53.39900 32.84100
H  30.03200 48.02500 29.09000
H  30.03300 49.22500 22.88600
H  24.12100 51.80300 23.29500
H  26.66000 50.90300 31.15300
H  28.39500 48.39800 31.00500
H  28.92400 50.85700 31.79700
H  29.63500 50.88100 30.16500
H  30.27300 49.75100 31.29500
H  26.20500 47.80200 31.50900
H  25.00000 48.81600 30.86300
H  24.81400 48.49400 33.43600
H  24.70200 50.13400 32.83300
H  31.77600 47.24600 28.51900
H  33.03000 47.99000 27.63900
H  32.47000 46.55200 26.98100
H  34.47100 48.10700 23.95500
H  33.50800 46.88900 24.72100
H  33.90700 48.38400 25.63500
H  27.72100 49.60700 21.15800
H  26.24500 52.03500 21.59800
H  29.58700 51.73200 21.69400
H  28.29800 52.42800 20.84000
H  29.09800 51.01300 20.17300
H  24.68200 49.65600 21.67300
H  25.77000 49.59300 20.33400
H  24.30600 50.69800 19.01100
H  24.79800 52.16000 19.89800
H  23.38100 51.21600 20.40000
H  21.26200 52.79400 26.05200
H  21.84700 52.07200 24.61600
H  22.59600 53.60900 25.03800
H  23.58200 50.52900 30.29800
H  24.63400 53.06300 33.35200
H  22.87500 53.43000 33.51600
H  23.88000 54.43400 32.53300

