158

Mg 2.08400 -2.00200 44.93300
C  5.30900 -1.22300 44.10200
C  0.96200 0.47900 42.72900
C  -1.00800 -3.22700 45.08700
C  3.38300 -5.17100 46.06000
N  3.02800 -0.62200 43.51100
C  4.36900 -0.43500 43.41200
C  4.77500 0.74700 42.56600
C  3.42400 1.40200 42.16800
C  2.38500 0.45100 42.85700
C  3.25700 2.84700 42.57800
C  5.70400 0.35800 41.27700
C  6.97700 1.15200 41.13200
H  7.54400 1.22500 39.65100
N  0.24700 -1.38300 44.16700
C  0.02300 -0.36800 43.30900
C  -1.34400 -0.20300 43.11600
C  -2.06400 -1.22100 43.82900
C  -0.94000 -1.97800 44.39600
C  -1.84300 0.82600 42.18200
C  -3.54600 -1.56100 43.87500
O  -4.27600 -0.89400 43.21800
C  -4.19300 -2.68400 44.69600
N  1.32100 -3.96600 45.26900
C  0.00600 -4.11400 45.45400
C  -0.34100 -5.50000 46.13700
C  1.03900 -6.13000 46.28700
C  2.04300 -5.00800 45.86700
C  -1.25400 -5.33900 47.36500
C  1.20200 -7.48100 45.54000
C  1.58000 -8.73900 46.25100
N  3.98200 -2.98000 45.38000
C  4.36700 -4.22400 45.84400
C  5.79700 -4.32400 45.90000
C  6.14400 -3.06700 45.35200
C  5.05800 -2.34700 45.00000
C  6.63400 -5.46600 46.49100
C  7.34700 -2.26000 44.98300
O  8.51900 -2.55600 45.23100
C  6.82700 -1.01600 44.22500
C  7.32500 0.22600 44.95200
O  6.97600 0.64000 46.04200
O  8.23900 0.87400 44.14800
C  8.59800 2.15600 44.63100
H  0.70200 1.39000 42.18400
H  -1.97500 -3.71300 45.23100
H  3.63300 -6.13600 46.50400
H  5.37700 1.33600 43.25900
H  3.32000 1.41800 41.08300
H  2.72500 2.92400 43.52600
H  2.78000 3.36700 41.74700
H  4.20700 3.37500 42.65700
H  5.25900 0.32100 40.28200
H  6.13800 -0.62600 41.45300
H  7.70600 0.66200 41.77800
H  6.77500 2.09400 41.64100
H  -1.80800 0.41600 41.17200
H  -1.28700 1.76000 42.25600
H  -2.87200 1.11400 42.39600
H  -3.80800 -3.64300 44.34800
H  -5.27600 -2.73800 44.58900
H  -3.93300 -2.55000 45.74500
H  -0.87500 -6.18800 45.48300
H  1.32600 -6.23400 47.33400
H  -0.64400 -5.70800 48.18900
H  -2.21200 -5.85700 47.31300
H  -1.39400 -4.28000 47.58200
H  2.12300 -7.39300 44.96400
H  0.43600 -7.52200 44.76600
H  1.84800 -8.65200 47.30400
H  2.48200 -9.16000 45.80800
H  0.88400 -9.54100 46.00300
H  7.52100 -5.29400 45.88200
H  6.20800 -6.42600 46.20000
H  6.69100 -5.36800 47.57500
H  7.22300 -1.04400 43.21000
H  9.17300 2.68600 43.87100
H  9.19000 2.07300 45.54200
H  7.67400 2.67700 44.87900
Mg 9.88200 47.70200 25.50200
C  8.03600 48.09500 28.27900
C  12.68300 48.87100 27.34700
C  11.86300 47.10600 22.76900
C  7.10500 47.01600 23.63300
N  10.29100 48.25800 27.59500
C  9.34900 48.23100 28.58100
C  9.87900 48.71500 29.90000
C  11.23900 49.44500 29.43900
C  11.44900 48.86500 28.00700
C  11.02900 51.05200 29.35800
C  10.12400 47.57300 30.89600
C  9.67300 47.86300 32.33800
H  9.33500 46.69800 33.36900
N  11.95700 47.88700 25.13000
C  12.93600 48.31300 26.01000
C  14.28500 48.07600 25.44900
C  14.04000 47.55700 24.12900
C  12.57300 47.48700 23.93700
C  15.57200 48.39200 26.26100
C  15.07000 47.09500 23.16800
O  14.71400 46.54200 22.13000
C  16.53400 47.25500 23.48100
N  9.49900 47.10900 23.46600
C  10.48200 46.77100 22.58200
C  9.84700 46.26400 21.25000
C  8.34600 46.23600 21.55800
C  8.31200 46.91400 22.92700
C  10.23600 47.23700 20.14500
C  7.82400 44.84300 21.53500
C  8.05400 43.84600 22.69600
N  7.93900 47.48400 25.86900
C  6.89700 47.29300 24.99000
C  5.66400 47.32400 25.74200
C  6.09300 47.60400 27.04200
C  7.44100 47.76800 27.04300
C  4.19100 47.28200 25.21800
C  5.57200 47.85600 28.39100
O  4.43100 47.87100 28.83300
C  6.83500 48.07000 29.25100
C  6.86200 46.89300 30.17500
O  7.28800 45.77900 29.79200
O  6.23200 47.14100 31.30800
C  6.04800 46.07000 32.26300
H  13.49200 49.24700 27.97600
H  12.42500 46.87500 21.86200
H  6.20100 46.83300 23.04800
H  9.30800 49.52500 30.35200
H  12.17300 49.12700 29.90200
H  10.13700 51.52400 29.77000
H  11.23200 51.40200 28.34600
H  11.88100 51.29900 29.99300
H  11.16200 47.24700 30.82400
H  9.56000 46.68200 30.62200
H  8.73800 48.42300 32.31300
H  10.50600 48.45200 32.72300
H  15.27900 48.44100 27.31000
H  16.23500 49.19800 25.94800
H  16.13200 47.48600 26.02800
H  16.85200 48.14800 24.01900
H  17.11600 47.16400 22.56400
H  16.65300 46.41200 24.16200
H  10.24600 45.28100 20.99900
H  7.87600 46.93500 20.86700
H  9.51500 47.09800 19.33900
H  11.22800 46.97400 19.77700
H  10.30900 48.27300 20.47500
H  8.31700 44.35700 20.69300
H  6.75400 44.94200 21.35400
H  8.54800 44.29300 23.55900
H  8.86200 43.13700 22.51400
H  7.12400 43.45400 23.10600
H  4.08000 46.50400 24.46300
H  4.02100 48.27800 24.80900
H  3.49800 47.06000 26.02900
H  6.66900 48.95900 29.85900
H  5.69100 46.39500 33.24000
H  6.63900 45.15900 32.16200
H  5.13700 45.59700 31.89700

