158

Mg 35.77900 1.63300 29.89900
C  33.52300 2.79400 32.19700
C  38.23600 1.90200 32.36200
C  38.16600 1.13500 27.50700
C  33.39500 2.04100 27.52600
N  35.90900 2.54400 31.98800
C  34.80200 2.69700 32.71100
C  35.08300 2.76000 34.21900
C  36.69900 2.72700 34.24300
C  36.98300 2.31400 32.77900
C  37.32600 4.12100 34.62400
C  34.32500 1.61300 34.97500
C  33.81600 1.94000 36.40400
H  34.36600 3.32800 36.95500
N  37.87600 1.36800 29.92100
C  38.63800 1.42600 31.07400
C  39.93200 0.97800 30.71600
C  39.98200 0.69200 29.30500
C  38.64700 1.04000 28.84600
C  41.11600 0.79600 31.67800
C  41.09400 0.26400 28.39600
O  41.00600 -0.08500 27.27500
C  42.50800 0.27300 28.98100
N  35.83400 1.67900 27.79700
C  36.90600 1.39900 27.00000
C  36.48700 1.41700 25.47100
C  34.92900 1.72200 25.59800
C  34.72300 1.72900 27.09800
C  37.42800 2.26100 24.51300
C  34.00100 0.62700 24.77500
C  33.33100 1.37300 23.53400
N  33.76100 2.20500 29.80400
C  32.92000 2.34100 28.78100
C  31.66900 2.85800 29.17800
C  31.82400 2.98700 30.60100
C  33.11600 2.65900 30.85300
C  30.44700 3.04900 28.34700
C  31.17200 3.42200 31.79600
O  30.06800 3.90600 32.00500
C  32.19800 3.27100 32.91400
C  32.33300 4.69600 33.45900
O  33.09500 5.57800 33.03100
O  31.55500 4.94900 34.52900
C  31.49500 6.35400 35.06300
H  38.97300 1.95700 33.16500
H  38.89800 0.97400 26.71300
H  32.76400 2.19000 26.64800
H  34.79300 3.70300 34.68200
H  37.20200 1.97700 34.85300
H  38.25600 3.93200 35.16000
H  36.70000 4.81700 35.18200
H  37.67700 4.62200 33.72100
H  35.01800 0.77400 35.03400
H  33.51000 1.18900 34.38900
H  34.19200 1.14100 37.04200
H  32.72800 1.94200 36.45100
H  41.90500 1.54700 31.64700
H  41.60400 -0.15600 31.46900
H  40.67600 0.72600 32.67300
H  43.22700 0.04600 28.19400
H  42.70800 -0.58400 29.62400
H  42.64400 1.24400 29.45700
H  36.66300 0.38300 25.17300
H  34.70500 2.71100 25.19800
H  36.84900 3.04700 24.02600
H  37.90100 1.53200 23.85600
H  38.09100 2.81300 25.17900
H  33.20100 0.20200 25.38200
H  34.61000 -0.13200 24.28400
H  32.89400 0.60400 22.89500
H  33.99100 1.94500 22.88200
H  32.50100 1.98900 23.87700
H  30.26300 2.11100 27.82500
H  30.75200 3.77200 27.59100
H  29.65700 3.44600 28.98500
H  31.67100 2.58300 33.57500
H  32.52300 6.70000 35.17400
H  31.15700 6.39100 36.09800
H  30.79800 6.84300 34.38200
Mg -11.17500 16.08100 42.17800
C  -7.82000 16.91700 41.67000
C  -12.00000 19.16100 41.10500
C  -14.23500 14.91900 41.82500
C  -10.10300 12.77600 43.05700
N  -9.98200 17.85700 41.48000
C  -8.68200 18.03000 41.45200
C  -8.36000 19.55700 41.04600
C  -9.66100 20.26100 41.44300
C  -10.60900 19.04500 41.33800
C  -9.60900 20.88900 42.83800
C  -7.92700 19.85900 39.61900
C  -6.98600 21.06900 39.38700
H  -5.74400 20.72200 38.55900
N  -12.87500 16.91700 41.29800
C  -13.02400 18.18000 41.01800
C  -14.34400 18.38100 40.54400
C  -15.03800 17.16500 40.74700
C  -14.06500 16.24500 41.29500
C  -14.83900 19.68100 40.01600
C  -16.44000 16.90200 40.27800
O  -17.19700 17.86100 40.00800
C  -16.84600 15.48700 40.07200
N  -12.09300 14.14600 42.47600
C  -13.41400 13.97600 42.37700
C  -13.80400 12.48300 42.88000
C  -12.38700 11.79700 43.16600
C  -11.50900 12.96700 42.89200
C  -14.81000 12.46400 44.13300
C  -12.16500 10.58000 42.22900
C  -11.77500 9.22800 42.82500
N  -9.35000 14.99100 42.38600
C  -9.08500 13.68500 42.80500
C  -7.60900 13.54500 42.74900
C  -7.09400 14.78700 42.42400
C  -8.21600 15.62900 42.14000
C  -6.94900 12.27100 42.98700
C  -5.81000 15.51700 42.26500
O  -4.64800 15.11500 42.39900
C  -6.26400 16.95000 41.70900
C  -5.70300 17.92500 42.68600
O  -6.07300 17.94800 43.83800
O  -4.92000 18.81500 42.06000
C  -4.28000 19.84100 42.83700
H  -12.33300 20.19500 40.98800
H  -15.26900 14.57700 41.90900
H  -9.95700 11.72600 43.31700
H  -7.54700 19.93800 41.66400
H  -9.98700 20.96100 40.67400
H  -9.78100 21.96200 42.76000
H  -8.70000 20.66800 43.39800
H  -10.39600 20.45400 43.45400
H  -8.81300 20.03700 39.01000
H  -7.39500 18.95800 39.31200
H  -6.59700 21.49600 40.31200
H  -7.40700 21.91400 38.84300
H  -14.39300 20.58400 40.43200
H  -15.84600 19.77000 40.42500
H  -14.86000 19.69800 38.92600
H  -17.63600 15.45500 39.32100
H  -17.22800 14.92700 40.92600
H  -16.01000 14.91200 39.67400
H  -14.28900 11.96300 42.05500
H  -12.32600 11.53900 44.22400
H  -15.10100 13.42000 44.57000
H  -14.62600 11.79800 44.97600
H  -15.77100 12.08300 43.78700
H  -11.56400 10.94300 41.39500
H  -13.10500 10.41000 41.70200
H  -11.88000 9.30000 43.90800
H  -10.74300 8.91200 42.67200
H  -12.33700 8.35200 42.50100
H  -7.15700 11.52900 42.21600
H  -7.22500 11.85000 43.95300
H  -5.87900 12.47300 43.04800
H  -5.94100 17.12200 40.68300
H  -3.85400 19.30500 43.68500
H  -4.86900 20.70100 43.15600
H  -3.50100 20.15200 42.14000

