158

Mg 31.07000 59.21000 40.27900
C  28.46900 57.19500 39.24900
C  33.21300 56.63200 39.46600
C  33.74000 61.52800 40.12400
C  28.96500 61.90000 40.69900
N  30.83600 57.12800 39.44400
C  29.70100 56.50900 39.12600
C  29.95200 55.05700 38.67300
C  31.38800 54.81500 39.11700
C  31.88800 56.26000 39.41300
C  31.67400 53.79300 40.25600
C  29.57000 54.80100 37.23200
C  28.42600 53.74100 36.95800
H  27.79500 53.73700 35.56300
N  33.16700 59.09500 39.90300
C  33.79700 57.91300 39.59200
C  35.26700 58.16600 39.49400
C  35.42600 59.59500 39.39400
C  34.10700 60.18600 39.84300
C  36.25400 57.14200 39.24600
C  36.67700 60.36500 38.97500
O  37.71800 59.75800 38.68300
C  36.61400 61.86100 38.78300
N  31.39800 61.38800 40.48400
C  32.48300 62.10200 40.47000
C  32.35400 63.49400 41.02100
C  30.78200 63.67300 41.14600
C  30.31500 62.22900 40.74800
C  33.15200 63.90900 42.23400
C  30.18400 64.88300 40.32100
C  29.49000 65.85500 41.23400
N  29.07500 59.52700 40.07400
C  28.28400 60.63200 40.41600
C  26.95000 60.24100 40.23900
C  26.96200 58.92300 39.81000
C  28.30300 58.49000 39.67100
C  25.74400 61.08900 40.41400
C  26.11100 57.79800 39.47200
O  24.92100 57.65400 39.38900
C  27.07100 56.63800 39.08400
C  26.66300 55.43100 39.97300
O  27.30800 54.96700 40.93400
O  25.46600 54.98000 39.61600
C  24.91600 53.89600 40.38600
H  33.90700 55.81200 39.27200
H  34.50500 62.30500 40.18600
H  28.17600 62.64600 40.81300
H  29.27900 54.57700 39.38300
H  31.91900 54.54200 38.20500
H  31.86900 52.75700 39.98000
H  30.84600 53.89900 40.95600
H  32.61900 54.05000 40.73500
H  30.46200 54.45200 36.71100
H  29.29300 55.72400 36.72300
H  27.56600 53.77000 37.62700
H  28.98500 52.84200 37.21600
H  36.54200 57.11100 38.19500
H  36.02600 56.15900 39.65800
H  37.13000 57.49700 39.78800
H  36.70000 62.24500 39.79900
H  35.72900 62.15200 38.21600
H  37.40800 62.15400 38.09500
H  32.71400 64.17200 40.24800
H  30.48600 63.70700 42.19400
H  33.37900 62.93900 42.67700
H  32.56400 64.64400 42.78400
H  34.04500 64.40900 41.85700
H  29.47300 64.50800 39.58400
H  30.98300 65.37100 39.76300
H  28.51600 66.23600 40.92700
H  30.10900 66.71000 41.50600
H  29.10800 65.26500 42.06700
H  25.42700 61.12200 39.37200
H  25.97400 62.12000 40.68500
H  25.08500 60.59100 41.12500
H  26.72800 56.32100 38.09900
H  23.84500 53.71100 40.30800
H  25.07800 54.05400 41.45300
H  25.25100 52.88600 40.15400
Mg -2.14500 34.06700 26.64200
C  -3.52400 32.33000 29.33400
C  -0.30700 36.03300 28.92900
C  -0.83000 35.74500 24.09400
C  -4.07800 32.23300 24.48000
N  -2.07500 34.15700 28.81300
C  -2.70800 33.38200 29.77800
C  -2.09900 33.61100 31.19700
C  -1.39200 35.06000 30.98300
C  -1.29400 35.16000 29.46000
C  -2.19100 36.22400 31.47300
C  -1.16900 32.48100 31.65900
C  -1.02700 32.26300 33.19700
H  -1.70600 33.16100 34.21900
N  -0.62700 35.57800 26.54300
C  -0.02200 36.22400 27.59700
C  0.94900 37.17300 26.99800
C  0.69800 37.19600 25.58000
C  -0.33200 36.14100 25.33500
C  1.97400 37.92800 27.93500
C  1.40100 38.00600 24.46300
O  1.13600 37.96400 23.28300
C  2.54900 38.84100 24.96000
N  -2.41400 34.06900 24.57500
C  -1.78400 34.87900 23.68500
C  -2.12400 34.59500 22.21700
C  -3.03200 33.31000 22.43600
C  -3.24600 33.23000 23.94500
C  -2.99000 35.78200 21.60300
C  -2.40100 31.95000 21.87700
C  -1.28600 31.31900 22.69800
N  -3.64300 32.66400 26.76300
C  -4.23300 31.93400 25.80300
C  -5.04300 30.88100 26.42000
C  -4.76200 30.99600 27.77700
C  -3.88800 32.08600 27.94100
C  -5.89700 29.89800 25.70200
C  -5.10900 30.44600 29.01300
O  -5.94100 29.55200 29.27900
C  -4.24400 31.27500 30.09500
C  -5.22800 31.75800 31.10600
O  -6.08900 32.58500 30.88500
O  -5.14000 31.03900 32.22000
C  -6.07600 31.34500 33.26900
H  0.25200 36.66200 29.62500
H  -0.16900 36.10300 23.30200
H  -4.65000 31.71600 23.70600
H  -2.83300 33.63300 32.00200
H  -0.40300 35.04400 31.44100
H  -1.64100 36.79800 32.21900
H  -3.05800 35.77700 31.96000
H  -2.44600 36.90700 30.66300
H  -0.15800 32.78700 31.38900
H  -1.24700 31.49600 31.19800
H  0.04000 32.37400 33.38600
H  -1.19600 31.25100 33.56500
H  3.02700 37.66600 27.83300
H  1.57700 37.96500 28.94900
H  1.91900 38.99600 27.72700
H  3.33600 38.24600 25.42400
H  2.08400 39.54500 25.65000
H  3.07600 39.24200 24.09400
H  -1.27800 34.54300 21.53100
H  -3.98900 33.45100 21.93200
H  -4.05400 35.73000 21.83600
H  -2.77400 35.57400 20.55500
H  -2.54000 36.69100 22.00200
H  -1.91500 32.24100 20.94600
H  -3.12000 31.18000 21.59600
H  -1.47200 30.24700 22.63200
H  -1.28300 31.57500 23.75700
H  -0.28200 31.58100 22.36600
H  -6.83000 29.56900 26.16000
H  -5.28500 29.06500 25.35600
H  -6.11800 30.34300 24.73200
H  -3.52900 30.67500 30.65700
H  -6.98100 31.92400 33.08200
H  -5.55400 31.89900 34.04900
H  -6.50900 30.42700 33.66500

