158

Mg 40.79100 9.64400 29.43000
C  42.80000 10.76600 32.18700
C  38.61300 8.23500 31.47900
C  39.16400 8.50500 26.69200
C  43.46600 10.54500 27.37900
N  40.87300 9.37200 31.64300
C  41.66900 10.01500 32.54800
C  41.01600 9.92400 33.93900
C  39.81400 8.90200 33.68600
C  39.70000 8.85300 32.15700
C  39.90400 7.52200 34.36500
C  40.48000 11.28900 34.54800
C  40.07500 11.30100 36.05800
H  40.99200 12.09300 37.07200
N  39.14700 8.51900 29.09800
C  38.27800 8.05600 30.12700
C  37.11700 7.44800 29.57900
C  37.25500 7.67600 28.20700
C  38.53000 8.21800 27.95200
C  36.05700 6.70800 30.46000
C  36.17300 7.40200 27.12900
O  36.35100 7.47200 25.86800
C  34.85100 7.08900 27.58600
N  41.31600 9.41400 27.42500
C  40.40500 9.07900 26.45400
C  41.05200 9.03300 25.04500
C  42.25700 10.03900 25.27300
C  42.41000 9.91300 26.80600
C  41.33400 7.59400 24.60100
C  42.07100 11.56100 24.80700
C  40.68200 12.21100 25.18500
N  42.62500 10.66400 29.67500
C  43.60500 10.99200 28.69500
C  44.70000 11.79800 29.33600
C  44.40700 11.61700 30.73900
C  43.19100 10.93300 30.86900
C  45.98100 12.24200 28.70800
C  44.90300 11.92400 32.09300
O  45.97100 12.47800 32.37600
C  43.81800 11.41600 33.09400
C  44.31900 10.61900 34.20900
O  44.78000 9.50800 34.06000
O  43.97400 11.22200 35.41900
C  44.26500 10.27600 36.54100
H  37.74200 7.99200 32.09000
H  38.58600 8.41600 25.77000
H  44.10300 11.02000 26.63100
H  41.78700 9.47200 34.56200
H  38.86700 9.28800 34.06100
H  39.94200 6.82100 33.53100
H  39.00200 7.27600 34.92600
H  40.77200 7.47300 35.02100
H  39.69300 11.79900 33.99200
H  41.39400 11.88000 34.48700
H  40.02000 10.29700 36.47900
H  39.10200 11.78700 35.99000
H  36.51300 6.30400 31.36400
H  35.66100 5.84500 29.92400
H  35.28500 7.41000 30.77300
H  34.63900 7.78500 28.39800
H  34.89000 6.09400 28.02800
H  34.15800 7.17200 26.74900
H  40.48100 9.51200 24.25000
H  43.18200 9.59400 24.90600
H  40.90300 6.91200 25.33300
H  42.42100 7.51400 24.59800
H  40.93900 7.30000 23.62800
H  42.45000 11.66100 23.79000
H  42.82500 12.12500 25.35600
H  40.38400 12.67800 24.24600
H  40.90800 13.01300 25.88700
H  39.95000 11.49000 25.55000
H  45.96100 13.24700 28.28600
H  46.24900 11.48000 27.97600
H  46.66900 12.12300 29.54400
H  43.43500 12.29800 33.60700
H  43.85000 10.61400 37.49000
H  45.33400 10.17300 36.72600
H  43.78000 9.32300 36.32700
Mg 47.47100 16.76100 28.43700
C  45.64800 16.28300 31.39300
C  49.55800 18.89700 29.97300
C  48.95600 17.27900 25.34500
C  44.66600 15.30500 26.68000
N  47.57900 17.53600 30.49200
C  46.80600 17.11500 31.55100
C  47.39000 17.65600 32.89800
C  48.58000 18.65000 32.33200
C  48.64700 18.30300 30.85200
C  48.42300 20.16500 32.48800
C  47.99000 16.45900 33.73600
C  48.33200 16.89700 35.19800
H  48.19500 18.40100 35.56100
N  49.06500 17.79400 27.81000
C  49.86300 18.61400 28.57800
C  50.99100 19.05900 27.84700
C  50.95600 18.37900 26.61500
C  49.64100 17.70700 26.51900
C  52.08000 20.03800 28.45100
C  51.97600 18.41300 25.63500
O  51.90500 17.85400 24.50000
C  53.29900 19.10400 25.86100
N  46.88600 16.37800 26.38200
C  47.66400 16.79600 25.26300
C  47.00200 16.48200 23.92700
C  45.79100 15.70500 24.41300
C  45.67700 15.81000 25.93700
C  46.66900 17.72700 23.08400
C  45.68000 14.21800 23.87900
C  44.81300 13.96500 22.60700
N  45.55000 15.79600 28.85200
C  44.46700 15.32400 28.06200
C  43.37900 14.94000 28.88400
C  43.79200 15.20700 30.22000
C  45.11300 15.80500 30.15000
C  42.15300 14.28800 28.38100
C  43.41400 15.15600 31.62700
O  42.34300 14.77700 32.12000
C  44.57700 15.79300 32.38000
C  43.98200 16.90200 33.22000
O  43.22800 17.76000 32.81300
O  44.46200 16.92700 34.45200
C  44.02900 18.02600 35.35000
H  50.28900 19.35800 30.64100
H  49.44300 17.48300 24.38900
H  43.84900 14.90100 26.07800
H  46.65200 18.24600 33.44100
H  49.58000 18.41700 32.70000
H  49.24100 20.66400 33.00700
H  47.47600 20.30000 33.01000
H  48.28100 20.69600 31.54700
H  48.94700 16.17700 33.29500
H  47.37800 15.56500 33.85000
H  49.35400 16.55700 35.36800
H  47.72600 16.31800 35.89600
H  52.56000 20.75800 27.78800
H  52.78500 19.37500 28.95300
H  51.67400 20.57100 29.31000
H  54.02900 18.80000 25.11000
H  53.72500 18.70200 26.78100
H  53.23400 20.18900 25.78600
H  47.76300 15.83300 23.49400
H  44.88500 16.19800 24.05800
H  47.10500 18.57600 23.61000
H  45.62700 17.73800 22.76400
H  47.17000 17.65800 22.11800
H  45.22200 13.57400 24.63000
H  46.69500 13.84700 23.73200
H  44.13100 14.78400 22.37600
H  44.26400 13.02600 22.54300
H  45.57000 13.94200 21.82300
H  41.61500 13.89200 29.24300
H  42.45400 13.56200 27.62600
H  41.42800 14.93900 27.89200
H  44.94500 15.01200 33.04600
H  43.70200 18.93300 34.84100
H  44.80900 18.41100 36.00700
H  43.16900 17.73200 35.95200

