158

Mg 47.37800 16.82500 28.71700
C  45.15600 16.64300 31.41300
C  49.73100 18.56000 30.64100
C  49.19800 17.43000 25.89300
C  44.87500 15.29500 26.75800
N  47.40700 17.55400 30.71000
C  46.39700 17.33300 31.69900
C  47.00000 17.67600 33.14100
C  48.25300 18.55500 32.79400
C  48.57200 18.12400 31.31100
C  48.19500 20.13200 32.95800
C  47.25300 16.38600 34.03700
C  47.02100 16.51000 35.53300
H  46.77000 17.84700 36.24400
N  49.23800 17.79400 28.38000
C  50.05000 18.45400 29.28400
C  51.17000 19.07000 28.66800
C  51.02300 18.76200 27.26500
C  49.76700 18.00900 27.10100
C  52.15900 19.74500 29.47400
C  51.89300 19.18900 26.13900
O  51.64600 18.87300 24.97500
C  53.08900 20.01200 26.37900
N  47.06300 16.47300 26.73900
C  48.00000 16.74600 25.77900
C  47.66800 16.18100 24.37800
C  46.36800 15.40400 24.67100
C  46.08900 15.65700 26.17600
C  47.69600 17.13100 23.15300
C  46.47800 13.83300 24.43300
C  45.74700 13.35300 23.13100
N  45.33300 16.17600 28.95000
C  44.49100 15.50400 28.12600
C  43.35200 15.11800 28.90000
C  43.62800 15.50700 30.20200
C  44.79100 16.16500 30.16600
C  42.08300 14.40200 28.44500
C  43.06300 15.42700 31.49200
O  42.02400 14.89500 31.95100
C  44.07800 16.22200 32.37900
C  43.43100 17.32300 33.08200
O  43.26400 18.42100 32.55500
O  42.87500 17.02600 34.27400
C  42.27300 18.00900 35.14700
H  50.48900 19.05000 31.25600
H  49.70000 17.59700 24.93800
H  44.06700 14.69700 26.33200
H  46.27200 18.24000 33.72400
H  49.01400 18.24200 33.50900
H  48.67600 20.45100 33.88200
H  47.13500 20.36300 33.05600
H  48.59400 20.62900 32.07300
H  48.30900 16.14700 33.91200
H  46.57100 15.61300 33.68100
H  47.85800 16.02000 36.03100
H  46.13200 15.94100 35.80500
H  52.91100 19.02400 29.79400
H  51.80500 20.38700 30.28100
H  52.72900 20.53800 28.98900
H  53.40000 20.11900 25.34000
H  53.80900 19.35600 26.86900
H  52.93800 20.95800 26.90000
H  48.49100 15.51700 24.11300
H  45.57400 15.87500 24.09100
H  48.37300 16.81600 22.35800
H  48.09400 18.07100 23.53600
H  46.73700 17.24700 22.64700
H  45.99400 13.39300 25.30400
H  47.53400 13.58600 24.32800
H  46.45700 13.52000 22.32100
H  44.87500 13.97800 22.94100
H  45.54600 12.28200 23.14200
H  41.34500 14.38000 29.24700
H  42.42300 13.42100 28.11500
H  41.66400 14.99200 27.63000
H  44.61400 15.62900 33.12000
H  41.39300 18.43900 34.66800
H  43.04700 18.75000 35.34800
H  42.04400 17.65100 36.15000
Mg 46.77200 25.66700 28.07100
C  47.90000 27.58900 30.66500
C  46.33400 23.01200 30.30600
C  46.36100 23.63600 25.36700
C  48.03900 28.06400 25.82000
N  47.09800 25.26700 30.25600
C  47.39600 26.29400 31.10000
C  47.15000 25.95800 32.58500
C  46.87800 24.44200 32.46200
C  46.76600 24.23200 30.92900
C  47.99300 23.53600 33.10200
C  45.97800 26.68700 33.31200
C  46.38700 27.58900 34.56300
H  45.39300 27.58100 35.70900
N  46.27300 23.65600 27.87400
C  46.24100 22.69100 28.91700
C  45.80500 21.45400 28.36100
C  45.81200 21.62300 26.90400
C  46.20100 23.03200 26.62300
C  45.52000 20.18000 29.16000
C  45.48000 20.62900 25.77800
O  45.73700 20.83400 24.59400
C  44.96700 19.25500 26.07500
N  47.13400 25.74900 25.89300
C  46.80800 24.86200 24.97200
C  46.92700 25.31300 23.56600
C  47.36800 26.82200 23.73600
C  47.55600 26.90200 25.28800
C  47.82100 24.36800 22.65500
C  46.45900 27.92000 23.11900
C  47.27000 29.06800 22.30600
N  47.85900 27.38700 28.12200
C  48.27900 28.28900 27.16400
C  48.99900 29.40900 27.80100
C  48.81900 29.20800 29.16800
C  48.10800 27.97400 29.30100
C  49.65200 30.56400 27.03100
C  48.98500 29.86200 30.41900
O  49.44600 30.94200 30.67800
C  48.33700 28.82700 31.49200
C  49.38800 28.53600 32.45700
O  50.45300 28.03700 32.21100
O  49.07900 29.12500 33.63800
C  50.02900 29.06000 34.68100
H  46.21900 22.19900 31.02600
H  46.06400 23.03000 24.50800
H  48.39200 28.80500 25.09900
H  48.10700 26.10900 33.08500
H  45.90300 24.19300 32.88100
H  47.55100 22.84900 33.82300
H  48.71600 24.12500 33.66500
H  48.44400 22.94900 32.30200
H  45.23500 25.96600 33.65100
H  45.55300 27.31400 32.52800
H  46.56700 28.63300 34.30500
H  47.36500 27.16300 34.78800
H  45.70800 20.21800 30.23300
H  46.07100 19.36500 28.69100
H  44.46300 19.97400 28.98900
H  45.81700 18.80000 26.58300
H  44.61000 18.73100 25.18800
H  44.07600 19.28000 26.70300
H  45.90500 25.36900 23.19100
H  48.40700 26.84900 23.40600
H  48.80700 24.36100 23.11800
H  47.97800 24.85900 21.69500
H  47.51200 23.33000 22.53000
H  45.99100 28.38000 23.98900
H  45.66700 27.57700 22.45400
H  46.80700 29.39000 21.37300
H  48.32400 28.80100 22.22800
H  47.13700 29.88200 23.01800
H  49.01500 31.40400 26.75600
H  50.34100 30.17100 26.28300
H  50.34900 30.87000 27.81100
H  47.51400 29.39300 31.92900
H  49.62400 28.33200 35.38500
H  50.12200 30.03800 35.15300
H  51.03300 28.67800 34.49500

