158

Mg 49.44100 35.00800 27.98800
C  47.20600 33.89400 30.62100
C  49.70200 37.92500 29.85900
C  50.89900 36.50600 25.31100
C  48.34000 32.49100 26.01400
N  48.40900 35.81900 29.97700
C  47.80800 35.09000 30.98000
C  47.68600 35.87300 32.25200
C  48.19900 37.31800 31.82300
C  48.86200 36.96700 30.48900
C  47.00900 38.38500 31.69300
C  48.29200 35.11000 33.44700
C  49.36900 35.83700 34.18000
H  49.13600 37.00400 35.12700
N  50.38400 36.81700 27.70800
C  50.30900 37.91900 28.51400
C  51.12900 38.97700 27.97100
C  51.54900 38.57100 26.66000
C  50.96900 37.23600 26.50600
C  51.61100 40.21300 28.88700
C  52.37700 39.28200 25.64000
O  52.70400 38.82600 24.53900
C  53.07500 40.70000 26.04200
N  49.71400 34.52300 25.94900
C  50.37400 35.29500 24.98500
C  50.16100 34.65900 23.57900
C  49.50800 33.28500 23.90100
C  49.12500 33.40300 25.35700
C  49.29500 35.58100 22.68100
C  50.40700 32.02400 23.73100
C  49.74000 30.68800 23.19800
N  48.17400 33.47800 28.29600
C  47.83300 32.49800 27.33100
C  47.18200 31.44300 28.04500
C  46.74700 32.00300 29.22300
C  47.42200 33.26600 29.37900
C  46.72100 30.09400 27.47900
C  45.99600 31.85700 30.41800
O  45.28200 30.90300 30.73800
C  46.06700 33.16400 31.26400
C  46.33600 32.70100 32.65400
O  47.30800 32.01300 33.01300
O  45.33600 33.21800 33.46200
C  45.38600 32.61500 34.81100
H  49.85900 38.84300 30.42900
H  51.20000 37.01700 24.39400
H  48.09700 31.61400 25.41000
H  46.65700 35.99000 32.59100
H  48.98400 37.71200 32.47000
H  46.89800 38.79000 30.68800
H  47.25100 39.26100 32.29500
H  46.09900 37.93000 32.08400
H  48.66600 34.21300 32.95500
H  47.50900 34.85000 34.15900
H  50.04700 36.14700 33.38500
H  49.92200 35.03100 34.66100
H  51.44400 40.06200 29.95300
H  51.32300 41.24800 28.70100
H  52.69800 40.21000 28.79900
H  53.78000 40.76400 26.87000
H  52.16800 41.24800 26.29900
H  53.44300 41.14100 25.11500
H  51.09900 34.50700 23.04600
H  48.56000 33.21000 23.36900
H  48.59300 34.97200 22.11300
H  49.97300 36.18200 22.07400
H  48.74500 36.27300 23.31800
H  50.96700 31.95700 24.66300
H  51.23900 32.21200 23.05200
H  50.02400 30.61300 22.14800
H  48.67300 30.59400 23.40300
H  50.22300 29.89600 23.76900
H  46.73500 29.25600 28.17700
H  47.40100 29.78200 26.68600
H  45.73800 30.13700 27.01200
H  45.11500 33.69300 31.19800
H  44.40100 32.76100 35.25500
H  46.13100 33.06400 35.46900
H  45.57800 31.55000 34.68400
Mg 16.94700 51.67300 26.51600
C  18.91900 50.27200 29.16500
C  14.63000 52.45300 28.85500
C  15.25200 53.01400 24.08700
C  19.55400 50.64300 24.34600
N  16.84000 51.41500 28.75700
C  17.78800 50.89700 29.67600
C  17.21700 50.80900 31.08000
C  15.75600 51.43700 30.89400
C  15.71800 51.77600 29.39800
C  14.55700 50.49000 31.25700
C  18.09300 51.43500 32.14000
C  18.09000 50.77200 33.49700
H  17.23300 51.28800 34.67500
N  15.18100 52.54700 26.49200
C  14.33000 52.82800 27.59200
C  13.17000 53.47600 27.15700
C  13.22600 53.69600 25.74800
C  14.63200 53.10700 25.39700
C  12.06900 53.88900 28.09100
C  12.34600 54.31900 24.69900
O  12.71700 54.52700 23.54700
C  10.93100 54.57200 25.23100
N  17.32700 51.71600 24.52600
C  16.44400 52.39600 23.73000
C  16.91200 52.28800 22.25600
C  18.26800 51.66100 22.38600
C  18.41000 51.31300 23.83900
C  15.94100 51.44000 21.48100
C  19.51000 52.37000 21.68100
C  20.24800 53.44300 22.45300
N  18.73600 50.53000 26.62200
C  19.74500 50.29400 25.69100
C  20.83800 49.70800 26.29700
C  20.53600 49.59700 27.57600
C  19.28200 50.16100 27.80600
C  22.07500 49.22300 25.59000
C  21.05200 49.07700 28.82800
O  22.01600 48.39300 29.02600
C  20.06200 49.62900 29.96800
C  19.69300 48.51600 30.88800
O  19.23000 47.48300 30.50700
O  20.23400 48.75200 32.11500
C  20.18900 47.66900 33.04200
H  13.94200 52.71800 29.66000
H  14.70500 53.39400 23.22200
H  20.33400 50.29500 23.66500
H  17.02200 49.76700 31.33500
H  15.72900 52.34700 31.49300
H  13.78400 51.10100 31.72200
H  14.86800 49.75000 31.99500
H  14.19700 49.83600 30.46200
H  17.66700 52.40200 32.40700
H  19.12500 51.57600 31.82100
H  19.13400 50.82200 33.80700
H  17.84400 49.72500 33.32000
H  12.42000 53.93700 29.12200
H  11.32900 53.09800 27.97000
H  11.65100 54.87900 27.90500
H  10.27400 54.60900 24.36200
H  10.88700 55.54500 25.72000
H  10.54400 53.86800 25.96700
H  16.93800 53.25900 21.76100
H  18.27800 50.69900 21.87300
H  15.78700 51.96000 20.53600
H  14.98700 51.25400 21.97400
H  16.40800 50.50200 21.18000
H  19.17200 52.90300 20.79200
H  20.26500 51.65200 21.36300
H  20.09200 54.43400 22.02500
H  21.30900 53.22800 22.32900
H  19.98100 53.45200 23.51000
H  21.85300 48.37800 24.93800
H  22.82200 48.76900 26.24100
H  22.43100 50.05400 24.98000
H  20.52300 50.41600 30.56500
H  21.14100 47.68800 33.57300
H  20.02600 46.68600 32.60000
H  19.42500 47.85000 33.79800

