158

Mg 25.90100 0.86900 29.56400
C  27.80100 0.48200 32.60500
C  23.23500 1.48300 31.68000
C  24.05800 0.81000 26.91900
C  28.72400 -0.27900 27.86300
N  25.51600 0.76300 31.88100
C  26.48300 0.75100 32.86800
C  25.86100 1.14900 34.27300
C  24.43700 1.47000 33.95200
C  24.36600 1.25300 32.39500
C  23.25500 0.69600 34.58800
C  26.58800 2.26000 35.10400
C  25.71600 3.12600 36.05800
H  26.35000 3.50900 37.39000
N  23.94900 1.21600 29.33400
C  23.00000 1.38100 30.27500
C  21.70500 1.55800 29.57100
C  21.91500 1.40700 28.19600
C  23.33500 1.02500 28.07600
C  20.44300 1.72400 30.29600
C  20.95600 1.46900 27.02600
O  21.26800 1.03100 25.88900
C  19.54100 1.91500 27.26000
N  26.35400 0.40900 27.69500
C  25.42100 0.55600 26.73800
C  26.01900 0.34000 25.33800
C  27.58500 -0.11800 25.64200
C  27.58400 0.07600 27.15500
C  25.26000 -0.53600 24.33200
C  28.66800 0.73300 24.91600
C  29.60600 -0.00800 23.92800
N  27.91100 0.25400 30.04100
C  28.95900 -0.13200 29.21600
C  30.14700 -0.30100 30.00100
C  29.76500 -0.09300 31.32500
C  28.39000 0.19300 31.30400
C  31.49600 -0.74100 29.48800
C  30.14800 -0.12300 32.73800
O  31.23300 -0.33900 33.24500
C  28.92100 0.40900 33.57700
C  28.82000 -0.58500 34.70200
O  28.25800 -1.68000 34.64000
O  29.30900 -0.08500 35.92100
C  29.32100 -1.13600 36.99600
H  22.39700 1.88600 32.25200
H  23.53200 0.62900 25.98000
H  29.59400 -0.59400 27.28200
H  25.83400 0.19000 34.79100
H  24.20800 2.53300 34.02700
H  23.58200 0.03600 35.39200
H  22.77200 0.00700 33.89600
H  22.54000 1.41900 34.98100
H  27.25500 2.81200 34.44300
H  27.31600 1.77700 35.75600
H  24.72200 2.70600 36.21600
H  25.51800 4.01600 35.46200
H  20.18700 2.78300 30.31000
H  20.67700 1.58700 31.35100
H  19.61000 1.07700 30.02000
H  19.53300 2.61700 28.09400
H  18.87600 1.11000 27.57000
H  19.27600 2.39200 26.31700
H  26.14600 1.34100 24.92600
H  27.80900 -1.15300 25.38200
H  24.91800 0.06000 23.48600
H  24.40800 -0.83200 24.94400
H  25.80500 -1.38600 23.92000
H  29.25700 1.32200 25.62000
H  28.08500 1.47100 24.36400
H  30.63700 0.32600 24.04700
H  29.39600 0.42400 22.95000
H  29.69700 -1.08900 24.03400
H  31.48000 -1.37100 28.59900
H  32.03600 -1.16200 30.33600
H  32.03000 0.19400 29.31700
H  29.13500 1.39700 33.98600
H  30.08500 -0.90500 37.73900
H  29.48200 -2.16200 36.66400
H  28.39700 -1.00700 37.55900
Mg 54.14100 25.08800 44.76600
C  51.41500 27.17800 43.80300
C  52.22600 22.52600 43.72200
C  57.00900 23.31200 44.78000
C  55.99300 27.97000 45.48800
N  52.09000 24.95400 43.64100
C  51.19800 25.83800 43.39300
C  50.04400 25.29100 42.57400
C  50.01100 23.81100 43.15300
C  51.56000 23.73500 43.52900
C  48.95400 23.53800 44.29200
C  50.39100 25.38000 41.10600
C  49.13900 25.54000 40.18600
H  48.99300 24.72000 38.94700
N  54.50200 23.08000 44.36100
C  53.57200 22.21900 43.94700
C  54.17800 20.90700 43.84600
C  55.62800 21.07600 44.21800
C  55.79400 22.54000 44.48400
C  53.39400 19.70700 43.51000
C  56.66800 19.88200 44.41700
O  56.22300 18.74300 44.37200
C  58.02200 20.14800 44.93600
N  56.21600 25.54700 45.10600
C  57.21800 24.65500 45.09400
C  58.57300 25.27300 45.45100
C  58.19800 26.71300 45.68500
C  56.69100 26.76900 45.39500
C  59.22800 24.65500 46.79400
C  59.03600 27.56100 44.68700
C  60.54000 27.75000 45.12400
N  53.86200 27.10500 44.76800
C  54.57200 28.16500 45.25900
C  53.79900 29.38200 45.25700
C  52.57700 28.94300 44.68700
C  52.58200 27.62200 44.50600
C  54.27400 30.72200 45.59000
C  51.32800 29.48800 44.35800
O  50.93200 30.65300 44.42100
C  50.50700 28.38300 43.73400
C  50.16900 28.73400 42.30400
O  50.95400 29.10900 41.48600
O  48.82800 28.67000 42.19200
C  48.38000 29.29200 40.90100
H  51.54300 21.68100 43.60700
H  57.86100 22.64400 44.63600
H  56.63700 28.81900 45.72400
H  49.07500 25.72600 42.81700
H  49.94100 23.15600 42.28400
H  48.56700 24.54000 44.47700
H  49.36700 23.20800 45.24600
H  48.17400 22.88500 43.90200
H  50.86600 24.44100 40.82100
H  51.09900 26.19400 40.95100
H  49.10600 26.59700 39.92500
H  48.22600 25.36100 40.75500
H  54.10900 19.01200 43.07000
H  52.69900 19.90900 42.69400
H  52.82400 19.30300 44.34600
H  58.01300 20.58700 45.93400
H  58.60900 20.66600 44.17600
H  58.40300 19.15500 45.17100
H  59.39600 25.24100 44.73600
H  58.33600 26.97900 46.73300
H  58.83100 23.67000 47.04100
H  59.21500 25.27500 47.69000
H  60.29300 24.44400 46.69300
H  58.67000 28.58700 44.66800
H  58.96900 27.18100 43.66800
H  60.67100 27.51500 46.18000
H  60.84900 28.78300 44.96200
H  61.16000 27.09300 44.51400
H  53.55500 31.33400 46.13300
H  54.53100 31.16200 44.62600
H  55.19100 30.61100 46.17000
H  49.61700 28.21500 44.34000
H  48.86400 30.26200 40.78700
H  47.30500 29.47300 40.89800
H  48.68300 28.72800 40.01900

