158

Mg 42.87600 41.96300 26.22800
C  41.91500 44.40200 28.81400
C  43.83600 39.87200 28.53200
C  43.74500 40.06800 23.67500
C  41.86800 44.59600 23.92400
N  42.87000 42.24100 28.33000
C  42.51000 43.18300 29.24800
C  42.76100 42.74000 30.69400
C  43.58300 41.34700 30.53200
C  43.44400 41.09600 29.06500
C  45.15400 41.38200 30.92400
C  41.42800 42.49900 31.50300
C  41.34000 43.02700 32.92100
H  42.48500 42.84700 33.85100
N  43.76100 40.25300 26.09400
C  44.08800 39.42400 27.16600
C  44.61400 38.17400 26.62200
C  44.66900 38.28600 25.20500
C  43.99500 39.55600 24.93200
C  45.08000 37.03900 27.48000
C  45.16900 37.25100 24.25000
O  44.84100 37.37600 23.05500
C  45.96100 36.06700 24.59300
N  42.93300 42.39600 24.15400
C  43.26000 41.35400 23.31600
C  43.16100 41.76000 21.82800
C  42.28000 43.02800 21.92400
C  42.38800 43.39300 23.38900
C  44.48900 41.82900 21.02500
C  40.83200 42.93500 21.42800
C  39.81300 42.00600 22.11100
N  41.94100 44.03200 26.30200
C  41.63200 44.91600 25.25500
C  41.09000 46.18600 25.85200
C  41.12900 45.95800 27.21400
C  41.68600 44.67500 27.43600
C  40.77600 47.46800 25.10000
C  40.88700 46.59200 28.50100
O  40.59600 47.74900 28.73700
C  41.28800 45.57800 29.56000
C  42.05000 46.17500 30.68300
O  43.26300 46.44800 30.68700
O  41.26500 46.38000 31.80500
C  41.86800 46.72400 33.13700
H  43.89600 38.99100 29.17300
H  44.04400 39.45800 22.82000
H  41.62900 45.43100 23.26300
H  43.36400 43.45100 31.25900
H  43.22800 40.42000 30.98400
H  45.31600 40.78500 31.82200
H  45.49500 42.40500 31.08000
H  45.73500 41.07100 30.05600
H  41.27200 41.42100 31.52500
H  40.48800 42.83000 31.06100
H  40.48900 42.71000 33.52400
H  41.19600 44.10600 32.86200
H  44.80600 36.01700 27.21700
H  44.62500 37.20300 28.45700
H  46.16700 37.08600 27.55600
H  46.52200 36.17000 25.52200
H  46.76200 35.98800 23.85900
H  45.50900 35.07700 24.52600
H  42.65300 40.86800 21.46100
H  42.70200 43.80100 21.28300
H  44.59800 42.87100 20.72400
H  44.59600 41.19400 20.14600
H  45.37400 41.52400 21.58200
H  40.92600 42.64400 20.38100
H  40.46800 43.95600 21.30800
H  40.40400 41.21700 22.57500
H  39.11500 41.57700 21.39200
H  39.27100 42.60700 22.84100
H  40.39100 47.19100 24.11800
H  41.74100 47.90800 24.84800
H  40.19300 48.23500 25.61000
H  40.37700 45.21300 30.03300
H  41.81000 45.84100 33.77300
H  41.35900 47.55300 33.62800
H  42.94200 46.88400 33.04000
Mg 31.07000 59.21000 40.27900
C  28.46900 57.19500 39.24900
C  33.21300 56.63200 39.46600
C  33.74000 61.52800 40.12400
C  28.96500 61.90000 40.69900
N  30.83600 57.12800 39.44400
C  29.70100 56.50900 39.12600
C  29.95200 55.05700 38.67300
C  31.38800 54.81500 39.11700
C  31.88800 56.26000 39.41300
C  31.67400 53.79300 40.25600
C  29.57000 54.80100 37.23200
C  28.42600 53.74100 36.95800
H  27.79500 53.73700 35.56300
N  33.16700 59.09500 39.90300
C  33.79700 57.91300 39.59200
C  35.26700 58.16600 39.49400
C  35.42600 59.59500 39.39400
C  34.10700 60.18600 39.84300
C  36.25400 57.14200 39.24600
C  36.67700 60.36500 38.97500
O  37.71800 59.75800 38.68300
C  36.61400 61.86100 38.78300
N  31.39800 61.38800 40.48400
C  32.48300 62.10200 40.47000
C  32.35400 63.49400 41.02100
C  30.78200 63.67300 41.14600
C  30.31500 62.22900 40.74800
C  33.15200 63.90900 42.23400
C  30.18400 64.88300 40.32100
C  29.49000 65.85500 41.23400
N  29.07500 59.52700 40.07400
C  28.28400 60.63200 40.41600
C  26.95000 60.24100 40.23900
C  26.96200 58.92300 39.81000
C  28.30300 58.49000 39.67100
C  25.74400 61.08900 40.41400
C  26.11100 57.79800 39.47200
O  24.92100 57.65400 39.38900
C  27.07100 56.63800 39.08400
C  26.66300 55.43100 39.97300
O  27.30800 54.96700 40.93400
O  25.46600 54.98000 39.61600
C  24.91600 53.89600 40.38600
H  33.90700 55.81200 39.27200
H  34.50500 62.30500 40.18600
H  28.17600 62.64600 40.81300
H  29.27900 54.57700 39.38300
H  31.91900 54.54200 38.20500
H  31.86900 52.75700 39.98000
H  30.84600 53.89900 40.95600
H  32.61900 54.05000 40.73500
H  30.46200 54.45200 36.71100
H  29.29300 55.72400 36.72300
H  27.56600 53.77000 37.62700
H  28.98500 52.84200 37.21600
H  36.54200 57.11100 38.19500
H  36.02600 56.15900 39.65800
H  37.13000 57.49700 39.78800
H  36.70000 62.24500 39.79900
H  35.72900 62.15200 38.21600
H  37.40800 62.15400 38.09500
H  32.71400 64.17200 40.24800
H  30.48600 63.70700 42.19400
H  33.37900 62.93900 42.67700
H  32.56400 64.64400 42.78400
H  34.04500 64.40900 41.85700
H  29.47300 64.50800 39.58400
H  30.98300 65.37100 39.76300
H  28.51600 66.23600 40.92700
H  30.10900 66.71000 41.50600
H  29.10800 65.26500 42.06700
H  25.42700 61.12200 39.37200
H  25.97400 62.12000 40.68500
H  25.08500 60.59100 41.12500
H  26.72800 56.32100 38.09900
H  23.84500 53.71100 40.30800
H  25.07800 54.05400 41.45300
H  25.25100 52.88600 40.15400

