158

Mg 47.93000 34.78600 26.50300
C  45.71700 33.67900 29.14400
C  48.52500 37.61000 28.30500
C  49.25500 35.99800 23.77300
C  46.83700 31.88700 24.71200
N  47.00300 35.58800 28.43400
C  46.25600 34.95300 29.37100
C  46.37600 35.70100 30.73500
C  46.98700 37.07800 30.29800
C  47.52600 36.78400 28.91100
C  46.06000 38.28800 30.34200
C  47.40800 34.90300 31.69200
C  47.05300 34.78000 33.24200
H  47.99900 35.37000 34.33000
N  48.91800 36.43900 26.12100
C  49.10000 37.45500 27.07300
C  49.94000 38.41700 26.47900
C  50.08500 38.01200 25.04900
C  49.43300 36.75800 24.94700
C  50.35200 39.76000 27.11000
C  50.83200 38.77500 23.97900
O  50.80800 38.41400 22.79300
C  51.71300 39.98100 24.32200
N  48.14800 33.93000 24.58900
C  48.67900 34.70800 23.59100
C  48.87200 33.91900 22.25900
C  48.40800 32.42700 22.72300
C  47.69600 32.74300 24.02500
C  48.06800 34.45200 21.06300
C  49.54100 31.26600 22.88800
C  50.98700 31.64000 22.58800
N  46.57200 33.04900 26.80600
C  46.27300 32.00500 25.96900
C  45.30900 31.08500 26.62800
C  45.07000 31.68800 27.88600
C  45.89900 32.84100 27.95600
C  44.64200 29.77800 26.19700
C  44.38500 31.58600 29.17800
O  43.58800 30.74700 29.61800
C  44.64500 32.89700 29.93300
C  44.86900 32.60500 31.37000
O  45.79700 31.86600 31.73000
O  43.83700 33.14800 32.14600
C  43.78200 32.76700 33.58100
H  48.80600 38.50900 28.85800
H  49.61400 36.46200 22.85200
H  46.60500 30.96700 24.17200
H  45.38400 35.81800 31.17100
H  47.81100 37.43400 30.91600
H  46.52000 38.94700 29.60700
H  45.90000 38.77700 31.30300
H  45.05800 38.16000 29.93300
H  48.43600 35.25400 31.78900
H  47.47900 33.88200 31.31500
H  46.91500 33.71300 33.42000
H  46.02600 35.07200 33.45800
H  51.41800 39.98100 27.07600
H  50.12600 39.90600 28.16700
H  49.88000 40.56400 26.54500
H  51.14900 40.57800 25.03900
H  51.83400 40.60600 23.43700
H  52.70500 39.68800 24.66700
H  49.93500 34.04800 22.05400
H  47.55900 32.10400 22.12100
H  48.79900 34.34300 20.26200
H  47.97400 35.53400 21.16500
H  47.08800 34.02900 20.84400
H  49.30400 30.44500 22.21100
H  49.44500 30.81800 23.87700
H  51.37600 32.25900 23.39600
H  51.07000 32.27500 21.70600
H  51.63800 30.77200 22.49400
H  43.56100 29.87200 26.30000
H  45.11200 29.10200 26.91200
H  45.00600 29.50000 25.20800
H  43.74300 33.50300 29.85100
H  43.90500 33.62000 34.24800
H  44.51600 32.00600 33.84500
H  42.78500 32.34900 33.72300
Mg 26.09300 50.54300 25.60200
C  24.05100 51.66000 28.09300
C  28.55500 49.91200 27.88200
C  27.99600 49.63000 23.02200
C  23.60100 51.63000 23.14900
N  26.24400 50.69900 27.70900
C  25.21900 51.12700 28.57100
C  25.63400 50.95100 30.05700
C  27.09500 50.64300 30.02000
C  27.30300 50.40800 28.43400
C  28.03900 51.69300 30.63600
C  24.63200 49.94600 30.80400
C  24.12300 50.52900 32.12200
H  23.94400 49.56800 33.25500
N  28.05900 49.90000 25.54300
C  28.91100 49.64500 26.56400
C  30.16600 49.12100 26.02800
C  30.04000 49.09000 24.57000
C  28.61600 49.52000 24.29300
C  31.41200 48.89700 26.87500
C  31.10700 48.80200 23.53700
O  30.84500 48.74200 22.35700
C  32.52000 48.52200 23.90400
N  25.94900 50.77900 23.32700
C  26.82000 50.15100 22.51800
C  26.34100 50.10700 21.12200
C  24.87900 50.59700 21.20100
C  24.82800 51.12400 22.63900
C  27.28900 50.89700 20.19800
C  23.78200 49.44000 20.84800
C  22.59800 49.90100 19.97700
N  24.22500 51.35700 25.53600
C  23.36000 51.76500 24.53300
C  22.14400 52.18000 25.02600
C  22.42000 52.26900 26.34200
C  23.66400 51.77500 26.65600
C  20.96900 52.69000 24.27300
C  21.81700 52.66100 27.64500
O  20.64400 53.00400 27.91000
C  22.82000 52.25500 28.76200
C  23.31900 53.38300 29.70800
O  24.35800 54.07900 29.65300
O  22.31700 53.54100 30.68200
C  22.87900 54.02000 31.94200
H  29.28500 49.73400 28.67500
H  28.57500 49.22300 22.19000
H  22.81200 51.82200 22.42000
H  25.62800 51.97200 30.43800
H  27.28700 49.69200 30.51700
H  27.62400 52.40900 31.34500
H  28.63500 52.23200 29.90000
H  28.75800 51.08300 31.18300
H  25.11500 48.97700 30.92900
H  23.79300 49.78400 30.12600
H  23.16100 51.01400 31.95400
H  24.81300 51.34500 32.33600
H  31.12300 48.59800 27.88300
H  31.96200 49.83400 26.96200
H  32.15800 48.17700 26.53900
H  32.71500 47.50200 24.23400
H  32.75400 49.25400 24.67700
H  33.16900 48.77700 23.06700
H  26.43300 49.07200 20.79300
H  24.73300 51.46800 20.56200
H  27.89600 51.62700 20.73400
H  26.61800 51.55300 19.64300
H  27.93100 50.32900 19.52500
H  23.30600 49.06900 21.75600
H  24.36100 48.67200 20.33400
H  22.83300 50.95800 19.85900
H  21.59500 49.88400 20.40400
H  22.50700 49.38000 19.02400
H  20.84500 52.11700 23.35400
H  21.13600 53.71600 23.94500
H  20.09000 52.64000 24.91600
H  22.42300 51.48800 29.42700
H  22.15100 53.84200 32.73300
H  22.93400 55.10600 31.87200
H  23.87800 53.61300 32.10200

