158

Mg -2.63300 17.24500 27.10100
C  -3.14100 15.04100 29.76000
C  -3.06300 19.84700 29.18500
C  -2.53800 19.20200 24.37100
C  -2.79600 14.36600 24.94500
N  -3.25300 17.40400 29.27600
C  -3.28900 16.41000 30.15100
C  -3.38100 16.93400 31.62600
C  -3.52300 18.46700 31.35300
C  -3.30400 18.65700 29.84100
C  -4.76500 19.22700 31.79400
C  -2.22900 16.63400 32.61000
C  -2.66600 16.13800 33.98200
H  -1.74300 16.16000 35.25600
N  -2.61000 19.24500 26.83900
C  -2.86700 20.11400 27.84100
C  -2.59900 21.41300 27.22800
C  -2.46100 21.32600 25.85300
C  -2.51400 19.89300 25.60300
C  -2.79300 22.68400 27.95200
C  -2.24300 22.33700 24.69400
O  -2.20700 22.01500 23.47500
C  -2.09900 23.81400 25.02400
N  -2.91300 16.83600 24.94300
C  -2.70300 17.85500 24.05400
C  -2.60900 17.34500 22.58000
C  -2.56400 15.74800 22.77300
C  -2.79300 15.62000 24.31400
C  -3.65700 17.86800 21.54100
C  -1.42100 14.99700 22.18800
C  -0.08600 15.31000 22.86100
N  -2.98400 15.15800 27.23400
C  -2.92500 14.11500 26.32500
C  -2.95900 12.84700 26.92300
C  -3.03300 13.18100 28.26700
C  -3.07200 14.53800 28.41100
C  -2.92200 11.59000 26.27400
C  -3.22500 12.59300 29.50400
O  -3.34700 11.45100 29.89200
C  -3.18400 13.80700 30.55900
C  -1.89400 13.57600 31.29900
O  -0.74200 13.64000 30.85800
O  -2.14800 13.22600 32.63300
C  -0.93600 12.92400 33.42400
H  -3.11100 20.71800 29.84100
H  -2.35200 19.66300 23.39900
H  -2.81500 13.53700 24.23500
H  -4.31000 16.48000 31.97100
H  -2.66300 18.96800 31.79800
H  -5.45100 19.44100 30.97500
H  -4.45100 20.14900 32.28200
H  -5.37900 18.58200 32.42400
H  -1.48500 17.43100 32.63200
H  -1.74300 15.82800 32.06100
H  -3.10500 15.14300 33.89900
H  -3.43100 16.77100 34.43000
H  -3.24400 23.52700 27.42800
H  -1.81300 22.89400 28.37900
H  -3.34400 22.46800 28.86700
H  -1.58300 24.34500 24.22300
H  -1.54200 23.91100 25.95600
H  -3.09800 24.17900 25.26000
H  -1.60000 17.59900 22.25700
H  -3.47600 15.34400 22.33200
H  -4.10000 18.78100 21.93800
H  -4.53300 17.22100 21.50700
H  -3.24600 18.02600 20.54400
H  -1.29800 15.30300 21.14900
H  -1.58500 13.92000 22.24000
H  -0.14400 15.67100 23.88700
H  0.56800 16.01400 22.34600
H  0.53700 14.41800 22.79700
H  -2.45900 11.50100 25.29100
H  -3.98600 11.45400 26.08100
H  -2.57400 10.82400 26.96600
H  -4.01900 13.79200 31.25900
H  -0.81900 11.85800 33.23400
H  -1.09900 13.02000 34.49700
H  0.00800 13.40100 33.16100
Mg -6.18700 25.09100 25.95900
C  -4.46200 25.99500 28.88000
C  -8.14200 22.95100 27.72800
C  -7.24300 23.95700 23.06600
C  -3.59600 26.75400 24.22900
N  -6.15900 24.48800 28.03700
C  -5.53600 25.20300 29.05900
C  -6.04900 24.68700 30.38300
C  -7.02400 23.51800 30.02800
C  -7.11500 23.59400 28.50400
C  -6.50800 22.17200 30.56400
C  -6.71200 25.86800 31.16600
C  -6.49500 26.05400 32.73100
H  -5.97500 24.91900 33.57200
N  -7.55900 23.64800 25.44300
C  -8.37200 22.92400 26.32400
C  -9.28200 22.08800 25.54100
C  -8.97300 22.42100 24.14700
C  -7.88200 23.40800 24.16200
C  -10.24400 21.14800 26.18500
C  -9.72800 21.95300 22.95700
O  -9.46800 22.35200 21.83700
C  -10.88300 21.02200 23.13200
N  -5.37300 25.24400 23.93700
C  -6.09600 24.69600 22.90500
C  -5.51100 24.98100 21.57500
C  -4.44100 26.04900 21.99200
C  -4.44400 26.00400 23.50200
C  -4.79200 23.71700 20.94400
C  -4.74000 27.51000 21.47200
C  -4.24500 27.74000 20.00800
N  -4.50200 26.31100 26.40400
C  -3.56900 26.94700 25.60400
C  -2.48300 27.60800 26.34900
C  -2.81500 27.30900 27.66900
C  -4.04100 26.53800 27.65400
C  -1.26500 28.39200 25.81000
C  -2.40300 27.36200 29.07200
O  -1.50100 27.87700 29.65700
C  -3.55200 26.67600 29.85900
C  -2.90800 25.84500 30.92400
O  -2.53500 24.71600 30.83000
O  -2.79100 26.44600 32.12700
C  -1.77800 26.01100 33.01300
H  -8.78400 22.25100 28.26700
H  -7.56100 23.73600 22.04500
H  -2.77600 27.24400 23.70000
H  -5.23400 24.32100 31.00700
H  -8.03400 23.71000 30.38800
H  -5.85400 22.24500 31.43300
H  -5.87300 21.90700 29.71800
H  -7.37800 21.52200 30.65400
H  -7.79700 25.90600 31.07400
H  -6.35400 26.72500 30.59700
H  -7.41600 26.50500 33.09900
H  -5.76900 26.84300 32.92700
H  -11.17500 21.69100 26.02300
H  -10.19200 20.97900 27.26000
H  -10.23700 20.16000 25.72300
H  -11.64700 21.40700 23.80600
H  -10.40200 20.14800 23.57100
H  -11.23900 20.72900 22.14400
H  -6.29100 25.45400 20.97800
H  -3.43300 25.75500 21.69800
H  -3.78600 24.05000 20.68900
H  -5.45100 23.39300 20.13900
H  -4.77100 22.98700 21.75300
H  -4.37400 28.30500 22.12100
H  -5.82100 27.65000 21.49200
H  -3.23600 28.15400 20.02900
H  -5.01300 28.34400 19.52600
H  -4.16500 26.76400 19.52800
H  -1.66600 29.32000 25.40200
H  -0.84100 27.76700 25.02400
H  -0.57000 28.57500 26.63100
H  -4.08700 27.46100 30.39300
H  -2.19000 25.15400 33.54500
H  -1.31600 26.76100 33.65600
H  -0.95600 25.79800 32.32900

