158

Mg 35.37400 2.49400 29.51800
C  33.13100 3.80500 31.85500
C  37.78900 2.36200 32.00800
C  37.66900 1.60400 27.14100
C  32.90700 2.76400 27.00400
N  35.50400 3.10000 31.66000
C  34.44000 3.47500 32.42500
C  34.83300 3.38800 33.93300
C  36.33200 3.10500 33.89200
C  36.57400 2.87000 32.43700
C  37.41200 4.12000 34.54200
C  34.02300 2.35200 34.65900
C  33.51400 2.70300 36.08900
H  34.28900 3.80100 36.88700
N  37.47200 2.14900 29.55200
C  38.22200 1.98300 30.72500
C  39.50200 1.41900 30.33000
C  39.47600 1.28700 28.90400
C  38.19100 1.74600 28.50900
C  40.59100 1.18700 31.33100
C  40.63400 0.90200 27.91100
O  40.48800 0.99500 26.68900
C  41.97400 0.36500 28.41800
N  35.30700 2.26400 27.40000
C  36.35600 1.91800 26.67500
C  35.94800 1.72600 25.20300
C  34.40800 1.69800 25.21400
C  34.13700 2.36700 26.64100
C  36.52500 2.90400 24.40500
C  33.69500 0.26800 24.96200
C  32.59900 0.15900 23.81700
N  33.45800 3.23800 29.41100
C  32.53500 3.21700 28.31500
C  31.24700 3.76000 28.79200
C  31.49400 3.98200 30.20200
C  32.79100 3.71100 30.48100
C  29.98700 3.93500 28.02200
C  30.79300 4.39600 31.39800
O  29.65900 4.88300 31.52000
C  31.82400 4.22700 32.51100
C  31.86700 5.54400 33.20600
O  32.55600 6.48700 32.85200
O  31.08000 5.54300 34.34000
C  31.50800 6.43000 35.36100
H  38.54400 2.23400 32.78600
H  38.29500 1.32100 26.29200
H  32.27600 2.78900 26.11300
H  34.66700 4.37800 34.35700
H  36.62300 2.13000 34.28500
H  36.76600 4.88700 34.96900
H  38.15200 4.62600 33.92200
H  37.94700 3.63900 35.36000
H  34.57000 1.43100 34.85800
H  33.23200 2.06600 33.96600
H  33.45900 1.81600 36.72000
H  32.53100 3.16300 35.98600
H  40.42000 1.54000 32.34800
H  41.53300 1.66700 31.06900
H  40.94400 0.15600 31.32300
H  42.52700 1.23600 28.77200
H  42.53000 -0.14900 27.63400
H  41.69700 -0.35900 29.18400
H  36.40900 0.83400 24.77800
H  34.07500 2.34600 24.40300
H  35.79000 3.40300 23.77400
H  37.37500 2.62200 23.78400
H  36.90400 3.65300 25.10100
H  33.23900 -0.09100 25.88500
H  34.52300 -0.37600 24.66700
H  32.27300 1.10200 23.37700
H  31.75100 -0.34100 24.28600
H  32.93400 -0.48600 23.00500
H  29.85000 4.87200 27.48200
H  29.18300 3.94100 28.75800
H  29.81800 3.01300 27.46700
H  31.33100 3.56300 33.22200
H  30.80600 7.25900 35.26600
H  32.52900 6.79300 35.24300
H  31.41500 6.00300 36.35900
Mg 9.42800 47.84000 25.60900
C  6.94700 48.22100 28.22700
C  11.71200 48.82100 28.14700
C  11.72100 47.87800 23.36200
C  6.88200 47.59400 23.30200
N  9.29500 48.53000 27.92300
C  8.22300 48.44900 28.74800
C  8.62600 48.64800 30.23100
C  10.14500 49.07400 30.15000
C  10.43900 48.71300 28.68800
C  10.37500 50.56500 30.60000
C  8.42700 47.32800 31.05800
C  9.30600 46.87400 32.21000
H  8.55700 46.27800 33.41300
N  11.41200 48.23800 25.74400
C  12.19100 48.61800 26.81300
C  13.56100 48.72700 26.45700
C  13.65700 48.24300 25.11800
C  12.24500 48.09800 24.65800
C  14.57800 49.20700 27.39500
C  14.82200 47.91800 24.25600
O  14.76700 47.63300 23.07600
C  16.21700 48.06400 24.83800
N  9.36700 47.67700 23.63900
C  10.39400 47.74900 22.84300
C  10.12500 47.29100 21.41100
C  8.56500 47.20000 21.38700
C  8.15700 47.50200 22.87800
C  10.71100 48.14900 20.21500
C  8.16000 45.75800 20.97300
C  8.34800 44.64400 22.04300
N  7.38000 47.96600 25.69300
C  6.46600 47.74300 24.65400
C  5.06600 47.58900 25.16300
C  5.24600 47.80600 26.57200
C  6.62000 48.04300 26.83200
C  3.81600 47.38400 24.41100
C  4.51500 47.88000 27.79700
O  3.29300 47.80500 28.00100
C  5.55800 48.13300 28.88700
C  5.49100 46.92200 29.73900
O  5.95700 45.83600 29.51500
O  4.59900 47.23200 30.74000
C  4.40700 46.23900 31.85200
H  12.40900 49.11500 28.93400
H  12.42100 47.82500 22.52500
H  6.07700 47.50000 22.57100
H  8.00500 49.37100 30.75900
H  10.75000 48.36700 30.71800
H  9.40900 51.06300 30.52700
H  10.96600 51.11000 29.86400
H  10.81400 50.51400 31.59600
H  8.55600 46.51000 30.34900
H  7.42900 47.43500 31.48200
H  9.92200 47.71700 32.52500
H  9.96600 46.08600 31.84900
H  15.31600 49.89400 26.98100
H  15.00200 48.48500 28.09300
H  14.10100 49.96000 28.02300
H  17.06800 48.02400 24.15800
H  16.33800 47.24700 25.55100
H  16.55900 48.95500 25.36500
H  10.56600 46.29800 21.32500
H  8.19300 47.93400 20.67300
H  11.31300 48.96500 20.61500
H  9.94000 48.52100 19.54000
H  11.43100 47.52500 19.68500
H  8.76100 45.35100 20.16000
H  7.12300 45.90600 20.67200
H  7.35500 44.28700 22.31700
H  8.82400 45.09400 22.91400
H  8.98300 43.80100 21.76900
H  3.80100 46.40900 23.92500
H  3.76300 48.06800 23.56400
H  2.99000 47.59200 25.09100
H  5.26200 49.03800 29.41600
H  3.53900 45.60400 31.67900
H  4.19600 46.75100 32.79000
H  5.34100 45.69800 32.00700

