158

Mg 44.36600 4.31800 46.77800
C  42.15700 7.06500 46.62700
C  41.39200 2.23700 46.58400
C  46.26000 1.67500 46.47700
C  47.09100 6.45300 46.56600
N  42.14000 4.62000 46.40300
C  41.47900 5.83400 46.43800
C  39.95700 5.66000 46.29700
C  39.78900 4.14200 46.50900
C  41.18000 3.64100 46.50900
C  38.89800 3.80000 47.71500
C  39.52800 6.22700 44.85300
C  38.11100 6.74200 44.55600
H  37.62600 6.79900 43.11000
N  43.95100 2.28600 46.57600
C  42.71300 1.62300 46.56700
C  42.93000 0.23100 46.48800
C  44.35900 0.01200 46.51200
C  44.93600 1.37700 46.53600
C  41.72000 -0.81000 46.60200
C  45.09200 -1.37200 46.44300
O  44.35400 -2.32500 46.45100
C  46.56900 -1.54300 46.21900
N  46.44900 4.14400 46.53300
C  46.97100 2.91700 46.46700
C  48.54000 3.09100 46.45300
C  48.83200 4.63200 46.66800
C  47.42100 5.15500 46.61700
C  49.31900 2.09500 47.40700
C  49.94600 5.33300 45.75800
C  51.29700 4.55400 45.67300
N  44.58700 6.33500 46.69900
C  45.78800 7.07000 46.64600
C  45.47100 8.45600 46.73900
C  44.06700 8.52300 46.74800
C  43.56400 7.17200 46.72900
C  46.45700 9.63900 46.61500
C  42.95400 9.37800 46.84900
O  43.02300 10.58700 46.88500
C  41.70000 8.50100 46.78100
C  40.91700 8.64500 48.04800
O  40.81500 7.74400 48.86200
O  40.10300 9.80300 48.07000
C  39.02200 9.69000 49.06800
H  40.47000 1.65100 46.59200
H  46.99700 0.87000 46.48300
H  47.94600 7.12500 46.47100
H  39.39200 6.21500 47.04700
H  39.33600 3.67300 45.63600
H  38.12500 3.07600 47.45700
H  38.33000 4.67700 48.02500
H  39.47100 3.44900 48.57300
H  39.60600 5.33100 44.23800
H  40.25100 6.97400 44.52600
H  37.87200 7.69800 45.02200
H  37.44700 6.13400 45.17100
H  41.88300 -1.43900 47.47700
H  41.84900 -1.44100 45.72300
H  40.75900 -0.30000 46.53100
H  47.12000 -1.20300 47.09600
H  46.75100 -0.96100 45.31600
H  46.67400 -2.62500 46.14500
H  48.71100 2.77700 45.42400
H  49.25000 4.86600 47.64700
H  50.07100 2.64700 47.97000
H  49.79100 1.24500 46.91300
H  48.60000 1.87100 48.19400
H  50.07600 6.30500 46.23200
H  49.56200 5.55000 44.76100
H  51.34300 3.55400 46.10400
H  52.06900 5.20500 46.08400
H  51.50300 4.63400 44.60500
H  46.91400 9.64600 45.62600
H  47.34400 9.52300 47.23800
H  46.01500 10.62900 46.72900
H  41.11900 8.84800 45.92700
H  39.42500 9.63600 50.07900
H  38.33900 8.89800 48.75900
H  38.40800 10.58200 48.94500
Mg 8.83100 48.28200 26.69700
C  6.74400 47.98800 29.42400
C  11.50500 48.81700 28.85500
C  10.88800 48.46100 23.98800
C  6.11900 47.94400 24.60400
N  9.13700 48.43400 28.95200
C  8.07600 48.24500 29.80600
C  8.66900 48.28500 31.25100
C  10.16900 48.71800 31.08900
C  10.34000 48.60900 29.59100
C  10.60700 50.09700 31.68200
C  8.45500 46.98900 32.17600
C  9.31800 46.65000 33.32400
H  8.70800 45.84100 34.53700
N  10.85400 48.81600 26.47400
C  11.77500 49.00200 27.47400
C  13.07700 49.35800 26.87500
C  12.98500 48.99000 25.51600
C  11.52700 48.76800 25.22600
C  14.24800 49.87300 27.66900
C  14.12800 48.72700 24.56100
O  13.93600 48.37600 23.39100
C  15.53800 48.71800 25.03900
N  8.54800 48.27700 24.59100
C  9.52700 48.33700 23.63300
C  9.08600 47.79800 22.25600
C  7.53000 47.89100 22.43500
C  7.35200 48.00600 23.96900
C  9.71500 48.59300 21.03400
C  6.69900 46.84600 21.67800
C  5.84500 47.37700 20.51900
N  6.77900 48.06500 26.90800
C  5.79500 47.92300 25.98800
C  4.52400 47.80900 26.60700
C  4.85900 47.79600 27.96700
C  6.25500 47.91500 28.09800
C  3.22500 47.83400 25.89700
C  4.25900 47.66500 29.23600
O  3.09600 47.61900 29.60500
C  5.48500 47.64500 30.24300
C  5.55100 46.24200 30.83900
O  6.03400 45.23300 30.29800
O  4.80800 46.28700 31.98300
C  4.58900 44.96200 32.56000
H  12.41800 48.96600 29.43500
H  11.59000 48.40600 23.15300
H  5.30800 47.66800 23.92700
H  8.01800 49.03100 31.70600
H  10.80100 47.98100 31.58500
H  10.65400 50.79400 30.84500
H  11.56700 50.08200 32.19700
H  9.87700 50.46700 32.40200
H  8.54800 46.11200 31.53500
H  7.42600 47.04800 32.53200
H  9.71800 47.60500 33.66400
H  10.13300 46.02200 32.96500
H  14.65900 50.76600 27.19800
H  14.94600 49.09500 27.98000
H  13.86600 50.25600 28.61600
H  16.24400 48.32300 24.30900
H  15.55400 48.00500 25.86400
H  15.82200 49.71400 25.37800
H  9.37800 46.74800 22.28500
H  7.25100 48.91000 22.16800
H  10.58100 49.20900 21.27500
H  8.85200 49.13800 20.65300
H  10.12100 47.82900 20.37100
H  6.13100 46.12900 22.27100
H  7.43800 46.17500 21.24100
H  4.83200 47.20000 20.88100
H  5.99900 46.77500 19.62300
H  5.86100 48.43900 20.27400
H  3.01800 46.78500 25.68400
H  3.19900 48.37100 24.94900
H  2.32400 48.08100 26.45700
H  5.39000 48.36800 31.05300
H  4.97200 44.90900 33.57900
H  5.05200 44.11100 32.06100
H  3.52600 44.73500 32.63800

