158

Mg 9.67300 48.33200 26.21200
C  7.42100 48.68100 28.89500
C  12.15700 49.57400 28.08400
C  11.54100 48.24900 23.44800
C  6.71400 47.95100 24.12000
N  9.70900 49.08300 28.17800
C  8.75800 48.88400 29.14900
C  9.44000 49.29900 30.52900
C  10.70000 50.12900 30.17500
C  10.85500 49.64900 28.66500
C  10.33800 51.59600 30.30200
C  9.76900 47.91800 31.20200
C  9.79600 47.94200 32.72400
H  9.22500 46.75500 33.46900
N  11.65900 48.79700 25.86000
C  12.58300 49.16500 26.80600
C  13.91400 49.05000 26.20700
C  13.70700 48.82800 24.78500
C  12.27500 48.60600 24.65400
C  15.26100 49.24800 26.93400
C  14.70900 48.60700 23.61000
O  14.45300 48.37600 22.43200
C  16.10900 48.82100 23.82200
N  9.12200 48.31600 24.02700
C  10.17100 48.20800 23.14700
C  9.57800 47.87500 21.69200
C  8.06200 47.63300 22.02900
C  7.93900 47.92400 23.50700
C  9.87900 48.93100 20.66000
C  7.51100 46.16300 21.63800
C  8.47900 44.97800 21.84000
N  7.56600 48.02600 26.43600
C  6.47500 47.93400 25.50300
C  5.20800 47.85600 26.16300
C  5.51900 48.17100 27.52800
C  6.93200 48.35800 27.59500
C  3.89200 47.58000 25.58800
C  5.00000 48.28800 28.90000
O  3.86000 48.10100 29.26000
C  6.27500 48.61100 29.86100
C  6.34600 47.42000 30.77800
O  6.97100 46.40400 30.62800
O  5.32900 47.54700 31.72500
C  5.04100 46.29000 32.48700
H  13.01000 49.75500 28.74100
H  12.20000 48.12100 22.58600
H  5.81800 47.91100 23.49700
H  8.65900 49.77600 31.12000
H  11.52400 49.83500 30.82500
H  9.67300 51.85200 29.47700
H  11.11600 52.36000 30.31600
H  9.79600 51.79200 31.22700
H  10.74200 47.59200 30.83700
H  9.10600 47.12400 30.85600
H  9.06200 48.71700 32.94500
H  10.82300 48.11400 33.04300
H  15.00000 49.58700 27.93600
H  15.60300 50.15000 26.42700
H  15.98600 48.43400 26.89500
H  16.54900 47.99000 24.37400
H  16.36700 49.75200 24.32500
H  16.78500 48.70300 22.97400
H  10.10200 46.97900 21.35700
H  7.42200 48.37200 21.54600
H  9.02000 49.53000 20.35600
H  10.28800 48.35400 19.83200
H  10.61500 49.58500 21.12800
H  7.13700 46.22400 20.61500
H  6.54400 46.00300 22.11500
H  8.72500 44.73700 20.80600
H  7.88700 44.16700 22.26400
H  9.27100 45.16600 22.56500
H  3.21600 47.29700 26.39600
H  4.17500 46.74500 24.94700
H  3.45400 48.39900 25.01900
H  5.93500 49.53700 30.32500
H  5.50800 46.26300 33.47100
H  5.51600 45.40200 32.06900
H  3.96200 46.16900 32.58700
Mg -2.25200 35.44700 26.34300
C  -3.85500 33.42700 28.74900
C  -1.30800 37.57100 29.03700
C  -0.73600 37.49200 24.08600
C  -3.45000 33.50400 23.91200
N  -2.70000 35.53200 28.64700
C  -3.16600 34.48500 29.40600
C  -2.90700 34.73500 30.91800
C  -2.32500 36.20800 30.87400
C  -2.17500 36.53900 29.47000
C  -3.04800 37.24700 31.66300
C  -2.05800 33.62600 31.69600
C  -2.65600 33.03700 33.04100
H  -1.73800 33.07900 34.31500
N  -1.06800 37.22100 26.54400
C  -0.77300 37.83300 27.72400
C  0.04300 38.96700 27.36900
C  0.35500 39.04200 25.95800
C  -0.50200 37.86600 25.43100
C  0.45300 39.84200 28.49100
C  1.18300 39.93500 25.12000
O  1.20500 39.92200 23.89000
C  1.99100 40.97800 25.76300
N  -2.01500 35.38600 24.35000
C  -1.37500 36.35800 23.58000
C  -1.85500 36.17500 22.15900
C  -1.97500 34.62600 22.10600
C  -2.53000 34.44100 23.55400
C  -3.03600 36.97300 21.63000
C  -0.65700 33.87200 21.94300
C  -0.52900 33.12000 20.59900
N  -3.56500 33.94200 26.34300
C  -3.97800 33.24500 25.24600
C  -4.89200 32.15800 25.64500
C  -4.80200 32.19900 27.06600
C  -4.04400 33.37800 27.41800
C  -5.61600 31.14500 24.79000
C  -5.21100 31.53200 28.28000
O  -5.98100 30.56700 28.44800
C  -4.57500 32.28300 29.41600
C  -5.54700 32.64400 30.45000
O  -6.42200 33.55200 30.33100
O  -5.34300 31.89300 31.61400
C  -6.19800 32.13400 32.76100
H  -0.91900 38.14900 29.87800
H  -0.35900 38.15700 23.30700
H  -3.71800 32.82900 23.09800
H  -3.89200 34.83700 31.37400
H  -1.37300 36.21000 31.40400
H  -3.69600 37.81100 30.99200
H  -2.31300 37.83500 32.21300
H  -3.80900 36.91400 32.36800
H  -1.06100 33.97600 31.96600
H  -1.88900 32.78000 31.03000
H  -2.89300 31.98100 32.90500
H  -3.58200 33.55000 33.29700
H  0.56100 39.33200 29.44800
H  -0.36100 40.56300 28.56300
H  1.37100 40.42400 28.40600
H  2.63400 41.54500 25.09000
H  2.59300 40.51500 26.54500
H  1.30500 41.74800 26.11800
H  -0.95400 36.49300 21.63500
H  -2.66600 34.25700 21.34900
H  -3.65700 37.34100 22.44700
H  -3.69400 36.43000 20.95200
H  -2.66800 37.82700 21.06200
H  -0.62400 33.18300 22.78700
H  0.16800 34.57200 22.07400
H  -0.74400 32.05800 20.71700
H  0.53600 33.09000 20.36700
H  -1.01700 33.57400 19.73700
H  -6.64800 31.40700 24.55500
H  -5.70900 30.28100 25.44700
H  -5.08600 30.85500 23.88300
H  -3.83000 31.68600 29.94200
H  -6.15700 31.25300 33.40200
H  -7.24700 32.21100 32.47400
H  -5.82200 32.95900 33.36600

