158

Mg 46.90800 16.02600 28.21800
C  45.04100 15.60700 31.01300
C  48.87200 18.25800 29.74900
C  48.70000 16.29200 25.25600
C  44.65800 13.96300 26.46000
N  47.00200 16.79300 30.18300
C  46.07600 16.54100 31.17300
C  46.40600 17.34100 32.46400
C  47.54200 18.24300 31.98000
C  47.85600 17.71500 30.52600
C  47.24700 19.75900 31.94000
C  46.92100 16.33200 33.52200
C  47.15600 16.92200 34.94200
H  48.55700 16.73900 35.53500
N  48.53400 17.13800 27.61200
C  49.24200 17.97200 28.38700
C  50.26400 18.61700 27.63900
C  50.21100 18.14800 26.25300
C  49.13800 17.08800 26.35800
C  51.19400 19.70900 28.08300
C  51.00000 18.51100 24.97900
O  50.81800 18.00200 23.89400
C  52.01900 19.57700 25.04200
N  46.65800 15.33000 26.10300
C  47.55200 15.44500 25.12400
C  47.09200 14.77200 23.84400
C  45.79800 14.00900 24.20000
C  45.70900 14.40300 25.71300
C  46.90100 15.81900 22.72500
C  45.75100 12.53500 23.82700
C  46.46100 11.64600 24.78700
N  45.18800 15.02100 28.54000
C  44.32000 14.36200 27.77200
C  43.19400 13.85800 28.57400
C  43.41900 14.29400 29.85700
C  44.61400 15.00400 29.75400
C  42.12600 12.91200 28.08200
C  42.99800 14.17200 31.20600
O  42.07800 13.57700 31.73800
C  43.98700 15.07700 32.02900
C  43.16200 16.11100 32.70700
O  42.39900 16.81800 32.09100
O  43.41400 16.18600 34.05200
C  42.46900 17.00100 34.86300
H  49.55600 18.92800 30.27400
H  49.32300 16.41200 24.36700
H  44.02000 13.24800 25.93700
H  45.55500 17.88900 32.86700
H  48.46000 18.14100 32.55900
H  47.37900 20.14000 30.92700
H  48.01000 20.25400 32.53900
H  46.21400 19.99300 32.19600
H  47.85100 15.86900 33.19200
H  46.07100 15.66400 33.66200
H  46.56500 16.48500 35.74600
H  46.95900 17.99100 35.02600
H  51.12700 20.03100 29.12200
H  50.94900 20.58000 27.47500
H  52.20400 19.30400 28.02800
H  51.65700 20.58300 25.25500
H  52.64400 19.54300 24.15000
H  52.74100 19.41200 25.84200
H  47.77000 13.93100 23.70300
H  44.93200 14.56000 23.83400
H  45.94300 15.66000 22.23000
H  47.74300 16.00300 22.05800
H  46.78700 16.72600 23.31900
H  46.26200 12.45400 22.86800
H  44.67800 12.34000 23.81800
H  46.91100 12.13200 25.65300
H  47.25300 11.15900 24.21900
H  45.72800 11.00200 25.27300
H  42.55600 12.35400 27.25000
H  41.25700 13.49300 27.77400
H  41.83300 12.19700 28.85000
H  44.40600 14.44600 32.81300
H  42.00600 17.76500 34.23900
H  43.08000 17.48700 35.62500
H  41.70100 16.42300 35.37700
Mg 8.71800 47.70700 25.35000
C  6.55200 47.81000 27.95000
C  11.32700 48.84800 27.44300
C  10.72600 48.51600 22.68000
C  6.00200 47.34300 23.15200
N  8.87200 48.26100 27.52100
C  7.87900 48.07400 28.43100
C  8.40700 48.24600 29.86200
C  9.79900 48.94800 29.62000
C  10.05300 48.69400 28.08300
C  9.86000 50.44200 30.00500
C  8.54400 46.91700 30.70200
C  9.27600 47.15400 32.08400
H  8.90100 46.27300 33.26100
N  10.81200 48.22900 25.10400
C  11.70500 48.64300 26.07200
C  13.06400 48.78200 25.58900
C  12.89500 48.62900 24.15800
C  11.39000 48.46400 23.90300
C  14.21600 49.17100 26.46500
C  13.98900 48.45700 23.11000
O  13.73000 48.15300 21.98900
C  15.39600 48.62100 23.52000
N  8.37700 47.99600 23.22600
C  9.37200 48.26000 22.30700
C  8.80300 48.41600 20.84600
C  7.31100 48.09800 21.07600
C  7.20000 47.78600 22.56800
C  8.95200 49.77500 20.16900
C  6.70100 46.79900 20.30200
C  5.39400 46.94600 19.51700
N  6.69900 47.49500 25.44900
C  5.73200 47.34300 24.53700
C  4.40000 47.11900 25.15200
C  4.70700 47.40300 26.50800
C  6.08800 47.54100 26.64000
C  3.11600 46.80300 24.52600
C  4.16000 47.52300 27.81800
O  3.01000 47.51500 28.27700
C  5.34000 47.71100 28.84300
C  5.43400 46.44900 29.67600
O  5.62300 45.31000 29.24600
O  5.08600 46.66400 31.01300
C  4.82400 45.45600 31.79300
H  12.05000 49.21400 28.17500
H  11.44900 48.90400 21.96000
H  5.10900 47.11700 22.56500
H  7.69800 48.89600 30.37500
H  10.62700 48.44400 30.11700
H  10.39700 50.60200 30.94000
H  8.84800 50.83000 30.11900
H  10.39500 50.97400 29.21900
H  8.92600 46.07200 30.12900
H  7.53900 46.62800 31.00900
H  9.09100 48.21600 32.24300
H  10.32700 46.97900 31.85400
H  13.97500 49.43900 27.49300
H  14.80000 49.98100 26.02800
H  14.91200 48.33500 26.52900
H  15.45500 49.54400 24.09700
H  15.97800 48.77200 22.61100
H  15.68800 47.63900 23.89300
H  9.25400 47.67600 20.18400
H  6.67300 48.95700 20.86800
H  9.81600 49.96100 19.53100
H  8.99500 50.48000 20.99900
H  8.03200 50.00400 19.63100
H  6.61200 45.94800 20.97700
H  7.51600 46.62000 19.60000
H  5.58800 47.66100 18.71700
H  4.72700 47.52900 20.15200
H  4.95100 46.07900 19.02600
H  3.34000 46.26000 23.60800
H  2.40600 47.62600 24.45300
H  2.65100 46.09200 25.20900
H  5.07400 48.57200 29.45600
H  3.97400 45.72900 32.41800
H  5.64400 45.31600 32.49800
H  4.71400 44.45400 31.37800

