158

Mg 40.58200 8.23700 29.42000
C  42.35500 9.77600 32.08400
C  38.28600 6.96900 31.66500
C  39.15500 6.57000 26.83200
C  43.27600 9.00300 27.35400
N  40.39300 8.39300 31.64000
C  41.16900 9.07400 32.47200
C  40.62900 9.03200 33.90400
C  39.26900 8.20900 33.73800
C  39.32900 7.76400 32.29900
C  39.10500 7.04200 34.75300
C  40.47600 10.44100 34.64200
C  39.54300 10.51800 35.86900
H  40.03000 11.38900 37.05400
N  38.92700 6.95200 29.20400
C  38.10900 6.63000 30.24600
C  37.02800 5.91500 29.71500
C  37.24000 5.73300 28.29100
C  38.46900 6.44100 28.05900
C  35.81600 5.52000 30.52900
C  36.31800 5.11800 27.22400
O  36.58200 5.05100 26.01600
C  34.93000 4.62100 27.62900
N  41.21500 7.78200 27.36000
C  40.33400 7.16900 26.49000
C  40.93300 7.17100 25.06900
C  42.33000 7.91200 25.27200
C  42.34500 8.22700 26.73300
C  40.98700 5.71400 24.47300
C  42.44200 9.16900 24.35900
C  42.14800 10.57400 24.98500
N  42.40100 9.28400 29.59400
C  43.37300 9.46200 28.66800
C  44.49600 10.21200 29.32600
C  44.07600 10.40700 30.64700
C  42.81400 9.78200 30.78300
C  45.70900 10.73700 28.55200
C  44.44800 11.03500 31.98600
O  45.33200 11.76400 32.35800
C  43.24200 10.69400 32.92500
C  43.79300 10.16700 34.25100
O  44.17600 9.03500 34.50700
O  43.90200 11.22400 35.17500
C  44.68800 10.89900 36.38600
H  37.60500 6.48800 32.36900
H  38.75600 6.15900 25.90200
H  44.09400 9.35600 26.72200
H  41.37500 8.50600 34.50100
H  38.39700 8.85900 33.80800
H  38.39400 7.35100 35.51800
H  40.01600 6.64900 35.20400
H  38.67700 6.14300 34.31000
H  40.03200 11.07400 33.87400
H  41.45300 10.86700 34.87200
H  39.30900 9.53300 36.27300
H  38.60800 10.98500 35.56100
H  35.86600 6.01500 31.49900
H  35.74700 4.43400 30.58600
H  34.90400 5.80500 30.00500
H  34.28600 5.49200 27.75100
H  35.00600 3.96900 28.49900
H  34.50900 4.05200 26.80000
H  40.22800 7.67700 24.40900
H  43.17500 7.22600 25.23800
H  40.86500 4.92200 25.21100
H  41.97200 5.64800 24.01100
H  40.14400 5.66000 23.78400
H  41.84000 9.08900 23.45300
H  43.50700 9.15000 24.12900
H  41.67100 10.47100 25.96000
H  41.52400 11.12000 24.27800
H  43.07100 11.11400 25.19600
H  45.31000 11.49100 27.87300
H  46.05400 9.86600 27.99500
H  46.45000 11.12900 29.24900
H  42.80300 11.66600 33.14800
H  45.76900 10.83300 36.26300
H  44.39600 9.96400 36.86400
H  44.50700 11.71200 37.08900
Mg 30.04400 58.90700 40.76400
C  27.34100 56.90200 39.67200
C  32.12100 56.36500 39.66600
C  32.81400 60.92100 40.75200
C  27.94400 61.54500 41.16100
N  29.71400 56.92900 39.75000
C  28.56400 56.32400 39.38500
C  28.79700 55.17000 38.42000
C  30.23600 54.78300 38.80200
C  30.73900 56.10600 39.47900
C  30.26000 53.56300 39.70500
C  28.56100 55.54100 36.92500
C  27.36800 55.08100 36.17100
H  26.62000 56.05200 35.30700
N  32.20100 58.56000 40.42500
C  32.83100 57.49200 39.97700
C  34.31200 57.62000 39.90000
C  34.53000 58.97500 40.28800
C  33.12600 59.57100 40.44200
C  35.30700 56.61200 39.26900
C  35.85100 59.74200 40.54600
O  36.90300 59.10600 40.51800
C  35.94400 61.12300 41.17600
N  30.33800 60.94700 40.90700
C  31.55100 61.52900 41.04500
C  31.43700 63.03700 41.34100
C  29.93000 63.18600 41.46300
C  29.33000 61.83700 41.17000
C  32.31500 63.58500 42.44800
C  29.24400 64.31700 40.55900
C  30.00900 65.60000 40.33000
N  28.06300 59.17200 40.71400
C  27.31400 60.29500 40.95100
C  25.86900 59.88800 40.91800
C  25.88000 58.57100 40.41400
C  27.20100 58.20300 40.24500
C  24.69300 60.82600 41.15100
C  25.02200 57.59100 39.93900
O  23.77900 57.63500 39.96700
C  25.93800 56.37700 39.45600
C  25.53300 55.21300 40.21000
O  25.96400 54.92800 41.28500
O  24.55700 54.52300 39.50200
C  24.06100 53.31600 40.17100
H  32.78700 55.57400 39.31600
H  33.60900 61.66900 40.78600
H  27.28400 62.38700 41.37900
H  28.24300 54.28700 38.74200
H  30.92500 54.61000 37.97500
H  29.27600 53.28700 40.08200
H  30.91700 53.74200 40.55600
H  30.54100 52.70000 39.10100
H  29.48300 55.25800 36.41600
H  28.62300 56.62500 36.83400
H  26.71700 54.56400 36.87600
H  27.71100 54.37500 35.41500
H  36.25100 56.99000 38.87700
H  34.88100 56.21100 38.35000
H  35.41100 55.71000 39.87100
H  35.28700 61.15000 42.04500
H  35.50800 61.83100 40.47100
H  37.00000 61.23600 41.42300
H  31.64300 63.50600 40.37900
H  29.63000 63.43300 42.48200
H  32.96700 62.81000 42.85100
H  31.76800 63.99900 43.29600
H  32.88000 64.41000 42.01400
H  28.21000 64.47400 40.86600
H  29.04500 63.85500 39.59200
H  29.26200 66.38600 40.44200
H  30.44100 65.70300 39.33400
H  30.70900 65.72200 41.15700
H  24.51200 61.24400 40.16100
H  25.09800 61.47400 41.92900
H  23.87800 60.22600 41.55700
H  25.61700 56.17400 38.43400
H  24.06400 53.21500 41.25600
H  24.63100 52.42200 39.91500
H  23.05600 53.13300 39.79100

