158

Mg 26.20400 0.71000 29.37200
C  28.11500 0.19500 32.02200
C  23.27400 0.56700 31.33800
C  24.24100 0.95200 26.57900
C  28.91200 0.04900 27.36600
N  25.79800 0.27800 31.45400
C  26.77000 0.31500 32.36300
C  26.21500 0.59900 33.76800
C  24.65700 0.71700 33.51900
C  24.51200 0.42900 32.01400
C  23.70400 -0.07800 34.48200
C  26.77200 1.83800 34.48400
C  26.09200 2.23100 35.83100
H  26.71400 2.85500 37.05200
N  24.02100 0.70100 29.04400
C  23.03900 0.67000 29.97100
C  21.73300 0.81700 29.31800
C  21.92100 0.86900 27.93600
C  23.42800 0.83000 27.78200
C  20.53100 0.91400 30.14700
C  20.94700 1.14400 26.81600
O  21.27200 1.17800 25.63500
C  19.47200 1.38000 27.20300
N  26.53300 0.46700 27.25100
C  25.59200 0.73300 26.33800
C  26.15800 0.66100 24.91300
C  27.65200 0.39200 25.20300
C  27.69300 0.19600 26.69500
C  25.57800 -0.40900 23.92700
C  28.52100 1.65000 24.71100
C  28.62900 2.87000 25.63800
N  28.12000 0.23900 29.58000
C  29.16200 0.02300 28.68700
C  30.39800 -0.24900 29.41000
C  30.05700 -0.15300 30.77800
C  28.69300 0.09600 30.80800
C  31.79300 -0.43100 28.89200
C  30.44500 -0.25900 32.16400
O  31.54400 -0.55300 32.60900
C  29.26400 0.11400 33.03500
C  29.12300 -0.90400 34.14500
O  28.80500 -2.03700 34.01200
O  29.31900 -0.23400 35.35500
C  29.46700 -0.98100 36.60400
H  22.38900 0.73600 31.95400
H  23.60700 1.24400 25.73900
H  29.64700 -0.11100 26.57400
H  26.41600 -0.29400 34.35900
H  24.48900 1.79000 33.61400
H  23.16900 -0.82900 33.90100
H  23.02100 0.55300 35.05100
H  24.30600 -0.53500 35.26800
H  26.69400 2.62100 33.73000
H  27.85400 1.73000 34.57100
H  25.93400 1.21000 36.17700
H  25.13100 2.69700 35.61500
H  19.75100 0.37800 29.60600
H  20.18300 1.94100 30.25300
H  20.59600 0.34600 31.07500
H  18.90000 1.67700 26.32400
H  19.62900 2.20500 27.89800
H  19.00400 0.52000 27.68100
H  25.94800 1.65900 24.52800
H  28.02000 -0.56500 24.83500
H  25.44400 -0.06600 22.90200
H  24.68700 -0.82000 24.40100
H  26.32300 -1.17900 23.72400
H  28.23100 2.06400 23.74600
H  29.51000 1.22500 24.54000
H  28.34200 2.63300 26.66200
H  28.03100 3.67500 25.21200
H  29.64400 3.26000 25.72100
H  32.16300 0.43400 28.34200
H  31.65900 -1.32600 28.28400
H  32.49200 -0.58700 29.71300
H  29.53400 1.10400 33.40200
H  28.92200 -0.43000 37.37100
H  30.51700 -1.11100 36.86600
H  28.99300 -1.96100 36.65500
Mg 46.86200 34.90700 26.21800
C  45.37700 33.77600 29.00400
C  47.59100 37.91400 27.74200
C  48.12400 36.06800 23.25100
C  46.10800 31.85400 24.59000
N  46.46000 35.74600 28.09500
C  46.04500 35.00300 29.13000
C  46.12200 35.80900 30.43300
C  46.65900 37.23000 29.97100
C  46.95900 36.88100 28.53800
C  45.67500 38.46600 30.05400
C  47.10900 35.11000 31.40600
C  46.81400 35.09700 32.89000
H  45.95800 36.21200 33.49000
N  47.77200 36.79400 25.57200
C  47.88100 37.88900 26.33700
C  48.49400 38.92900 25.56600
C  48.72900 38.41200 24.25000
C  48.27700 37.02200 24.33100
C  48.83900 40.24600 26.13600
C  49.34000 39.12000 23.01900
O  49.52400 38.60300 21.87600
C  50.04700 40.41900 23.22200
N  46.94600 34.14300 24.16200
C  47.68700 34.78800 23.18100
C  47.73700 33.93200 21.92400
C  46.95700 32.59000 22.29100
C  46.74700 32.80100 23.78400
C  47.25700 34.57800 20.63200
C  47.87500 31.34100 22.08300
C  48.56700 31.18100 20.71300
N  45.91200 33.14100 26.63800
C  45.66600 31.98200 25.88800
C  44.95100 31.11400 26.69000
C  44.72600 31.75500 27.87700
C  45.39100 32.99700 27.83300
C  44.62100 29.73800 26.27700
C  44.14400 31.58600 29.17500
O  43.46000 30.70800 29.64700
C  44.59900 32.95400 29.97600
C  45.17800 32.37500 31.20100
O  46.26700 31.81300 31.35700
O  44.20900 32.54000 32.16100
C  44.40900 31.69300 33.33800
H  47.89400 38.78600 28.32400
H  48.42500 36.52300 22.30400
H  45.88500 30.92800 24.05600
H  45.13400 35.83100 30.89200
H  47.53700 37.60800 30.49500
H  44.69300 38.25500 30.47700
H  45.51100 38.91200 29.07300
H  46.08000 39.25100 30.69300
H  48.10100 35.56200 31.38100
H  47.18200 34.09100 31.02700
H  47.81200 35.16100 33.32500
H  46.36100 34.15400 33.19400
H  48.38800 41.11700 25.66000
H  49.89700 40.47900 26.25200
H  48.38000 40.34800 27.12000
H  49.31500 41.22500 23.16700
H  50.84700 40.64800 22.51800
H  50.50000 40.48800 24.21100
H  48.80700 33.81100 21.75200
H  46.05300 32.44200 21.70000
H  46.63400 35.42700 20.91100
H  46.62700 33.81400 20.17400
H  48.08300 34.87400 19.98600
H  47.30300 30.44000 22.30600
H  48.64600 31.30900 22.85200
H  49.28900 30.36800 20.78800
H  49.18900 32.03900 20.45900
H  47.79800 31.03700 19.95400
H  43.60000 29.77500 25.89900
H  44.62800 28.97700 27.05800
H  45.35200 29.40500 25.54000
H  43.67400 33.49100 30.18500
H  44.63100 32.48400 34.05400
H  45.12200 30.86800 33.31000
H  43.40500 31.31700 33.53500

