158

Mg 26.12700 0.55300 28.84800
C  28.01100 0.16200 31.67000
C  23.39500 1.18800 30.80700
C  24.16800 0.74300 26.09100
C  28.65400 -0.96900 26.87600
N  25.79400 0.62300 31.00400
C  26.75100 0.61200 31.97500
C  26.10200 0.71900 33.37900
C  24.56400 0.84300 33.08400
C  24.58700 0.91400 31.58000
C  23.72500 -0.31200 33.61600
C  26.64500 1.96700 34.20500
C  26.63800 1.77600 35.68100
H  26.26700 2.97400 36.64000
N  24.09200 1.08700 28.45500
C  23.13100 1.34100 29.44500
C  21.88100 1.71700 28.79400
C  22.05700 1.49400 27.37400
C  23.48000 1.13200 27.25500
C  20.55800 2.11700 29.42600
C  21.08100 1.53500 26.21400
O  21.34600 1.50600 25.05000
C  19.62900 1.83500 26.52800
N  26.23900 -0.29800 26.81200
C  25.37400 0.06800 25.81200
C  25.81000 -0.42200 24.40900
C  27.25200 -0.83700 24.70900
C  27.43000 -0.61000 26.21500
C  24.91200 -1.56000 23.83700
C  28.35300 -0.19800 23.80300
C  28.90200 1.13700 24.22300
N  28.00000 -0.25300 29.12100
C  28.90500 -0.83700 28.29700
C  30.08400 -1.01700 29.07500
C  29.85300 -0.63900 30.40800
C  28.53400 -0.22300 30.41000
C  31.40500 -1.44300 28.54200
C  30.40900 -0.50700 31.69300
O  31.53000 -0.69400 32.10700
C  29.25300 0.06300 32.61100
C  28.89900 -0.98100 33.58900
O  28.08900 -1.89300 33.49200
O  29.70900 -0.69400 34.70600
C  29.40800 -1.47100 35.90300
H  22.50400 1.34700 31.41800
H  23.66200 0.77300 25.12400
H  29.52300 -1.42300 26.39500
H  26.41000 -0.17900 33.91600
H  24.16700 1.82000 33.35700
H  23.29400 -0.89600 32.80300
H  22.83400 -0.02200 34.17200
H  24.23400 -0.99700 34.29400
H  26.00800 2.83300 34.02500
H  27.66800 2.21600 33.92500
H  27.58100 1.31900 35.98400
H  25.78800 1.10000 35.77600
H  19.87100 1.27100 29.41500
H  19.99700 2.90400 28.92200
H  20.68900 2.43300 30.46100
H  18.86600 1.80500 25.75000
H  19.62000 2.86800 26.87800
H  19.31700 1.05900 27.22700
H  25.64800 0.38200 23.69200
H  27.44300 -1.90600 24.61900
H  24.97200 -2.35800 24.57600
H  25.11100 -2.03600 22.87700
H  23.89300 -1.17300 23.84900
H  27.97500 -0.20000 22.78100
H  29.23900 -0.82100 23.92700
H  28.27600 1.58900 24.99200
H  28.93000 1.73900 23.31500
H  29.97000 1.07200 24.42900
H  32.10500 -1.82500 29.28500
H  31.92600 -0.62200 28.05000
H  31.37000 -2.18400 27.74400
H  29.55900 1.02100 33.03300
H  28.52200 -1.04600 36.37400
H  30.27100 -1.41900 36.56600
H  29.21700 -2.54200 35.83400
Mg 42.12400 40.97400 26.37000
C  41.21900 43.28100 28.94000
C  42.89600 38.66700 28.81000
C  43.15400 39.03700 23.99400
C  41.61300 43.63100 24.02200
N  42.07000 41.01000 28.61100
C  41.59200 41.97800 29.45800
C  41.64200 41.54200 30.92300
C  42.25600 40.09500 30.77800
C  42.54800 39.91400 29.32100
C  43.54200 39.93400 31.54300
C  40.21800 41.57900 31.47200
C  40.02600 42.35700 32.83700
H  39.07800 41.81200 33.91900
N  42.87600 39.09700 26.39700
C  43.05600 38.27200 27.47800
C  43.58700 37.01100 27.00100
C  43.73400 37.13200 25.59700
C  43.17300 38.42800 25.20800
C  43.90600 35.84100 27.95600
C  44.27400 36.04300 24.62400
O  44.18700 36.20400 23.40100
C  44.81000 34.74800 25.17300
N  42.19400 41.23100 24.34700
C  42.66500 40.24000 23.53500
C  42.55600 40.64300 22.07000
C  41.68600 41.93900 22.12700
C  41.87000 42.32800 23.56100
C  43.93800 40.78000 21.36900
C  40.17200 41.64600 21.70000
C  39.36800 40.41800 22.38200
N  41.50000 43.02000 26.41700
C  41.45300 43.93000 25.39600
C  40.95800 45.21600 25.90200
C  40.86200 45.05800 27.36500
C  41.22600 43.62900 27.61100
C  40.65200 46.36400 25.05000
C  40.50200 45.64100 28.60700
O  40.21400 46.80100 28.81600
C  40.64900 44.45800 29.63100
C  41.54900 44.91400 30.79400
O  42.79500 44.81100 30.81400
O  40.80800 45.64700 31.66800
C  41.66700 46.14200 32.84600
H  43.00500 37.92000 29.59900
H  43.62300 38.47300 23.18600
H  41.28800 44.34100 23.25700
H  42.25800 42.21700 31.51800
H  41.51900 39.30700 30.92900
H  43.58800 38.92800 31.96100
H  43.62500 40.66300 32.34900
H  44.42900 39.98700 30.91300
H  39.88800 40.58000 31.75700
H  39.48600 41.97600 30.76800
H  39.49700 43.26800 32.55600
H  41.01300 42.44200 33.29100
H  43.22700 35.04800 27.64200
H  43.53900 35.91900 28.97900
H  44.97100 35.62800 27.85400
H  44.00300 34.16700 25.62000
H  45.65300 34.97400 25.82500
H  45.16000 34.27400 24.25600
H  42.00500 39.82100 21.61400
H  42.05900 42.62500 21.36600
H  44.24200 41.82400 21.29200
H  43.80500 40.29600 20.40100
H  44.57400 40.20300 22.04100
H  40.12400 41.55700 20.61400
H  39.53800 42.52300 21.83200
H  38.89800 39.85700 21.57400
H  38.68100 40.91800 23.06500
H  40.04600 39.80900 22.98000
H  41.30500 46.40300 24.17800
H  40.66100 47.27800 25.64300
H  39.62600 46.20700 24.71700
H  39.69900 44.08700 30.01600
H  41.87700 45.32900 33.54100
H  40.90800 46.78900 33.28400
H  42.47800 46.74200 32.43300

