158

Mg 42.84600 41.37800 25.68700
C  42.22400 43.42200 28.51400
C  44.42300 39.15300 27.91300
C  43.74600 39.61300 23.05600
C  41.64900 43.90700 23.63700
N  43.46800 41.37700 27.89300
C  42.91700 42.24000 28.80100
C  43.25500 41.69700 30.21100
C  44.34400 40.60800 29.97300
C  44.00100 40.30300 28.52300
C  45.76800 41.17200 30.10300
C  41.98100 41.35300 31.05300
C  42.16000 41.52000 32.53300
H  41.17700 42.42000 33.28300
N  43.91000 39.56900 25.46800
C  44.41700 38.79800 26.53100
C  44.96600 37.57300 25.95400
C  44.77600 37.66900 24.50100
C  44.10300 38.93100 24.26300
C  45.52200 36.43800 26.82700
C  45.14800 36.65600 23.42100
O  44.88900 36.77700 22.21600
C  45.90800 35.38500 23.76800
N  42.82100 41.77200 23.59400
C  43.16100 40.83600 22.75600
C  43.04100 41.37200 21.29900
C  42.15900 42.61600 21.43800
C  42.18300 42.79900 22.94900
C  44.46900 41.63800 20.64600
C  40.69800 42.44500 20.93300
C  39.88400 41.37000 21.67100
N  42.03400 43.27200 25.94700
C  41.69700 44.23000 25.01400
C  41.29500 45.39000 25.73100
C  41.39200 45.09300 27.09500
C  41.89600 43.79100 27.17000
C  40.85800 46.68400 25.11800
C  41.30500 45.61200 28.46000
O  40.92100 46.71800 28.84400
C  41.74600 44.52800 29.51900
C  42.85000 45.12000 30.30000
O  43.98700 45.22800 29.88700
O  42.31200 45.67900 31.43200
C  43.34900 46.22300 32.35900
H  44.93800 38.44500 28.56500
H  43.88800 39.01200 22.15600
H  41.24500 44.58600 22.88300
H  43.63400 42.60900 30.67200
H  44.29700 39.73800 30.62900
H  46.17900 41.31300 29.10400
H  46.37200 40.57800 30.78900
H  45.73900 42.14600 30.59000
H  41.65500 40.32500 30.89600
H  41.15700 41.99800 30.74800
H  43.14600 41.97500 32.62800
H  42.33100 40.61000 33.10900
H  45.17500 35.45800 26.50000
H  45.44900 36.52500 27.91100
H  46.57400 36.25400 26.60600
H  46.49000 35.00900 22.92700
H  45.15200 34.64000 24.01400
H  46.57800 35.52500 24.61600
H  42.47500 40.61100 20.76100
H  42.66700 43.41000 20.89200
H  44.81700 42.65100 20.44800
H  44.51000 41.13800 19.67800
H  45.11300 41.09200 21.33500
H  40.76900 42.10900 19.89900
H  40.28200 43.45000 21.01200
H  40.34900 40.94100 22.55800
H  39.48800 40.59100 21.02100
H  39.14000 42.02000 22.13100
H  40.74700 46.57200 24.04000
H  41.60400 47.43900 25.36900
H  39.91900 47.02800 25.55100
H  40.91400 44.11100 30.08800
H  43.65500 47.22400 32.05800
H  44.23700 45.60500 32.22900
H  42.97800 46.24700 33.38400
Mg 6.89000 54.47500 41.18300
C  4.59200 51.83800 41.01100
C  9.15900 52.54600 39.82500
C  8.64600 57.26100 40.90000
C  4.02500 56.56200 41.94400
N  6.71100 52.49000 40.25100
C  5.75100 51.50500 40.35200
C  6.22700 50.19500 39.72200
C  7.75300 50.42000 39.58800
C  7.91000 51.93500 39.91200
C  8.61100 49.52500 40.52000
C  5.54700 49.92200 38.34000
C  5.23400 48.47600 38.03200
H  5.71900 47.80800 36.66300
N  8.74400 54.83600 40.53100
C  9.51900 53.89000 40.02000
C  10.81200 54.41400 39.85000
C  10.69200 55.84000 40.04500
C  9.30500 56.08100 40.51100
C  12.05700 53.70600 39.45600
C  11.77100 56.86700 39.72300
O  12.83700 56.46400 39.27000
C  11.50400 58.31900 39.70400
N  6.34000 56.64400 41.36900
C  7.35800 57.56500 41.26900
C  6.87600 59.04300 41.43000
C  5.33900 58.78900 41.49600
C  5.17400 57.21100 41.60200
C  7.53800 59.81500 42.67400
C  4.55400 59.27300 40.26300
C  3.48000 60.39200 40.36500
N  4.75600 54.25000 41.54000
C  3.80000 55.20800 41.86400
C  2.50200 54.53800 42.04800
C  2.82000 53.16500 41.84300
C  4.15700 53.03700 41.45900
C  1.21900 55.10900 42.53300
C  2.26000 51.80500 41.89100
O  1.13400 51.40000 42.19200
C  3.42400 50.90200 41.40500
C  2.84900 49.96100 40.32900
O  2.32600 50.19800 39.26400
O  2.89300 48.68700 40.93900
C  2.44100 47.53400 40.06100
H  9.93200 51.85500 39.48200
H  9.21100 58.19200 40.81800
H  3.21200 57.27800 42.07700
H  6.03700 49.42000 40.46400
H  8.06800 50.22900 38.56200
H  9.34900 48.98700 39.92500
H  7.96100 48.83000 41.05200
H  9.14000 50.17400 41.21800
H  6.18800 50.36500 37.57700
H  4.62300 50.49800 38.39300
H  4.15100 48.58700 37.97900
H  5.50900 47.84200 38.87500
H  12.26300 53.70600 38.38600
H  12.03400 52.68500 39.83900
H  12.89200 54.12700 40.01700
H  10.57900 58.53900 39.17100
H  12.30600 58.80100 39.14500
H  11.54400 58.62700 40.74900
H  7.14100 59.59500 40.52800
H  4.98700 59.23300 42.42700
H  6.79200 60.27400 43.32300
H  8.08700 60.60700 42.16600
H  8.24600 59.18000 43.20700
H  4.15000 58.41100 39.73200
H  5.29700 59.67000 39.57200
H  3.78300 61.25400 39.77100
H  3.30800 60.61800 41.41700
H  2.60200 59.93700 39.90500
H  0.35000 54.71800 42.00200
H  1.34900 56.18700 42.44300
H  1.08200 54.88800 43.59100
H  3.69800 50.28100 42.25800
H  3.26800 46.82900 39.97300
H  2.07700 47.87900 39.09300
H  1.56900 47.14000 40.58400

