158

Mg 8.69000 2.29400 27.70900
C  10.09900 0.60700 30.53900
C  7.27500 4.49300 29.83700
C  6.95100 3.42300 25.15200
C  9.93300 -0.40400 25.68800
N  8.64500 2.44800 29.85000
C  9.32900 1.74500 30.79300
C  9.27100 2.35000 32.15300
C  8.19700 3.37400 31.94800
C  8.07800 3.51100 30.43600
C  6.86000 3.24100 32.78800
C  10.60300 2.93500 32.62600
C  10.92900 2.82700 34.10100
H  9.85300 2.80000 35.23600
N  7.33200 3.76700 27.51200
C  6.93000 4.63300 28.47100
C  6.12000 5.63200 27.95300
C  6.06900 5.44700 26.54300
C  6.74300 4.10200 26.35700
C  5.30200 6.66700 28.78300
C  5.38600 6.32800 25.40200
O  5.27600 5.98900 24.20700
C  4.79300 7.68700 25.83000
N  8.39700 1.53200 25.63600
C  7.68600 2.24600 24.81800
C  7.84300 1.70200 23.35700
C  8.82200 0.54600 23.59000
C  9.18700 0.61800 24.99600
C  6.49800 1.38300 22.67200
C  10.12900 0.69400 22.72000
C  10.50700 -0.44700 21.78200
N  9.75000 0.46500 27.97800
C  10.11400 -0.51500 27.09500
C  10.82100 -1.53700 27.84100
C  10.88800 -1.08200 29.20400
C  10.16900 0.07700 29.23100
C  11.48900 -2.76300 27.24700
C  11.43400 -1.40000 30.51200
O  12.21600 -2.26900 30.82200
C  10.96400 -0.24700 31.41600
C  10.02400 -0.80300 32.45100
O  8.86200 -1.11200 32.17700
O  10.57100 -0.82400 33.74700
C  9.61700 -1.19600 34.79300
H  7.00500 5.29700 30.52500
H  6.41600 3.89300 24.32300
H  10.30000 -1.21800 25.05900
H  8.93700 1.60800 32.87800
H  8.53200 4.33000 32.35300
H  5.97500 2.99200 32.20200
H  6.70900 4.22400 33.23500
H  7.00400 2.41500 33.48400
H  10.66500 4.00900 32.45500
H  11.40200 2.36100 32.15600
H  11.70500 3.54000 34.37800
H  11.34100 1.81800 34.13000
H  5.79000 7.57800 28.43600
H  5.41300 6.50500 29.85500
H  4.26400 6.65200 28.45100
H  5.57100 8.42400 26.02800
H  4.01900 7.50500 26.57600
H  4.24400 8.12200 24.99400
H  8.21200 2.52100 22.73900
H  8.40900 -0.45500 23.46600
H  6.54400 0.39900 22.20500
H  6.24900 2.10400 21.89300
H  5.69200 1.34900 23.40400
H  11.00600 0.75600 23.36500
H  10.21300 1.61200 22.13800
H  9.65600 -1.10700 21.61200
H  11.35100 -1.08900 22.03600
H  10.83000 -0.00700 20.83900
H  12.46700 -2.44400 26.88700
H  10.82300 -3.28500 26.56000
H  11.69100 -3.54100 27.98300
H  11.82500 0.29800 31.80400
H  9.16500 -2.18200 34.69000
H  9.00600 -0.29400 34.83600
H  10.24500 -1.18900 35.68300
Mg 6.45900 56.30900 41.47500
C  5.45800 52.90200 41.79900
C  9.54600 54.95600 40.40900
C  7.53900 59.38700 40.88400
C  3.31100 57.36200 41.94800
N  7.34600 54.10800 41.03700
C  6.72300 52.92600 41.11700
C  7.56000 51.81600 40.61200
C  8.95900 52.44200 40.66600
C  8.60900 53.91400 40.64700
C  9.76000 52.07200 42.02200
C  7.18600 51.32800 39.24100
C  7.72600 49.97000 38.80400
H  8.52500 50.02300 37.52300
N  8.30600 57.08700 40.79900
C  9.44400 56.35400 40.47900
C  10.52500 57.30100 40.25100
C  9.95200 58.64600 40.34800
C  8.58100 58.44700 40.71700
C  11.92200 56.90200 39.76500
C  10.70800 59.91900 40.27300
O  11.86100 59.90200 40.06500
C  9.99200 61.23300 40.38900
N  5.54100 58.14300 41.38000
C  6.15100 59.27800 41.17000
C  5.17400 60.47200 41.29800
C  3.80100 59.88300 41.73700
C  4.23200 58.37500 41.68300
C  5.57100 61.61800 42.30500
C  2.54800 60.33500 40.95500
C  1.60700 61.19900 41.87800
N  4.70500 55.39800 41.80100
C  3.51200 55.96000 42.12900
C  2.65700 54.97100 42.62100
C  3.40500 53.70100 42.56000
C  4.66400 54.04000 42.10200
C  1.32000 55.22300 43.08600
C  3.38300 52.29600 42.75100
O  2.51900 51.56300 43.12900
C  4.79800 51.75300 42.41700
C  4.64000 50.66100 41.38000
O  3.98500 50.79100 40.37900
O  5.14600 49.45300 41.85100
C  4.80400 48.21600 41.12700
H  10.56900 54.60800 40.25400
H  7.75800 60.44200 40.70800
H  2.31000 57.68300 42.24400
H  7.48900 50.94700 41.26600
H  9.54500 52.24900 39.76800
H  10.70600 51.61300 41.73400
H  9.25800 51.29300 42.59600
H  9.97800 52.94300 42.63900
H  7.44200 52.12000 38.53900
H  6.09700 51.32100 39.29600
H  6.94100 49.23600 38.62000
H  8.39900 49.53500 39.54300
H  11.78700 56.48900 38.76500
H  12.31500 56.12900 40.42600
H  12.63400 57.72600 39.73100
H  9.53900 61.27500 41.37900
H  9.24200 61.23600 39.59900
H  10.60100 62.13600 40.34900
H  5.11800 60.87900 40.28800
H  3.72800 60.13700 42.79500
H  5.05900 61.55300 43.26500
H  5.10000 62.53700 41.95500
H  6.65800 61.66700 42.37200
H  1.95700 59.61100 40.39400
H  2.94600 60.91100 40.12000
H  0.60500 60.81000 42.06300
H  1.61200 62.12600 41.30500
H  2.11200 61.51800 42.78900
H  1.14600 55.91200 43.91200
H  0.89200 54.24000 43.28700
H  0.76300 55.61000 42.23300
H  5.28900 51.42700 43.33400
H  3.72600 48.05600 41.10300
H  5.30600 47.33100 41.51800
H  4.98800 48.41200 40.07100

