158

Mg 26.84700 51.51900 26.98100
C  24.54600 52.43600 29.50400
C  28.96100 50.46000 29.39600
C  29.13300 50.79000 24.56200
C  24.71900 53.01500 24.54900
N  26.71800 51.49100 29.20200
C  25.70800 51.95200 30.04000
C  26.04900 51.53600 31.47400
C  27.62200 51.17000 31.41600
C  27.80100 51.05900 29.91700
C  28.68600 52.08100 32.02100
C  25.09000 50.40700 32.04100
C  24.64900 50.49100 33.53000
H  25.63000 51.23000 34.55800
N  28.72900 50.58900 26.95100
C  29.45400 50.24800 28.09800
C  30.67200 49.59000 27.64000
C  30.71500 49.57200 26.27700
C  29.49000 50.26700 25.85700
C  31.68500 48.92400 28.62300
C  31.73100 48.96300 25.29800
O  31.65200 49.06400 24.05900
C  32.83900 48.09300 25.82000
N  26.91200 51.92100 24.85400
C  28.01500 51.43300 24.06000
C  27.71100 51.62400 22.47500
C  26.22600 52.33100 22.56900
C  25.88600 52.44500 24.07200
C  28.68900 52.41100 21.60900
C  25.12000 51.54000 21.87900
C  24.72300 50.17600 22.41000
N  25.12000 52.60800 26.95500
C  24.35900 53.15800 25.94000
C  23.12000 53.71400 26.49800
C  23.18900 53.51600 27.85700
C  24.41300 52.79400 28.10700
C  22.03100 54.40000 25.70800
C  22.49100 53.75400 29.12100
O  21.46600 54.36700 29.36700
C  23.35400 53.12900 30.25700
C  23.77500 54.12800 31.30300
O  24.66600 54.98400 31.20800
O  23.06100 54.01200 32.45600
C  23.33000 54.79300 33.64500
H  29.67600 50.00000 30.08300
H  29.79800 50.57400 23.72400
H  24.02000 53.43900 23.82600
H  26.03300 52.44000 32.08400
H  27.77700 50.17900 31.84300
H  28.26200 52.86000 32.65400
H  29.38700 52.45500 31.27600
H  29.25800 51.49500 32.74200
H  25.46300 49.39100 31.91200
H  24.19400 50.48300 31.42600
H  24.57100 49.45300 33.85500
H  23.66200 50.95000 33.47600
H  31.62900 47.85700 28.40700
H  31.42300 49.04100 29.67400
H  32.68800 49.34900 28.57800
H  33.68300 47.87900 25.16500
H  32.52300 47.09300 26.11700
H  33.26300 48.62900 26.66900
H  27.58800 50.58100 22.18300
H  26.14000 53.33200 22.14600
H  29.47300 52.70800 22.30400
H  28.12600 53.25700 21.21500
H  29.06700 51.75900 20.82100
H  25.35400 51.41000 20.82200
H  24.20200 52.12500 21.82000
H  25.43800 49.84800 23.16500
H  24.84800 49.40600 21.64800
H  23.74300 50.02900 22.86400
H  22.46800 55.24300 25.17200
H  21.18600 54.70900 26.32400
H  21.64300 53.73300 24.93800
H  22.74000 52.38700 30.76700
H  23.36300 54.10100 34.48700
H  22.48400 55.47800 33.70500
H  24.22200 55.41700 33.58500
Mg -10.69800 16.95900 40.17400
C  -7.27700 16.85400 39.91300
C  -10.59800 20.32900 39.64700
C  -14.10600 16.87100 40.03200
C  -10.72100 13.34200 40.00100
N  -9.12300 18.35400 39.65100
C  -7.79000 18.06600 39.60500
C  -7.01600 19.28200 39.14000
C  -8.00300 20.45400 39.50300
C  -9.36700 19.71400 39.66200
C  -7.56900 21.21300 40.77800
C  -6.69000 19.26500 37.66800
C  -5.17900 19.33800 37.24000
H  -4.66500 17.92900 36.71000
N  -12.14400 18.43700 39.80900
C  -11.92900 19.77400 39.53400
C  -13.21700 20.46300 39.39200
C  -14.24700 19.54000 39.63500
C  -13.49300 18.18600 39.77500
C  -13.18700 21.92100 39.13400
C  -15.81400 19.78200 39.78000
O  -16.22900 20.94800 39.76800
C  -16.78700 18.62200 39.76600
N  -12.21800 15.32700 40.02200
C  -13.53100 15.57700 40.13500
C  -14.38800 14.32600 40.18200
C  -13.38000 13.23300 39.87100
C  -12.01400 13.95200 39.94900
C  -15.17900 14.12900 41.44400
C  -13.43600 12.53500 38.38600
C  -13.26700 11.04700 38.41700
N  -9.35300 15.38900 40.12900
C  -9.42800 14.02200 40.10400
C  -8.10200 13.43500 40.22600
C  -7.19700 14.54000 40.20800
C  -8.04600 15.70500 40.09000
C  -7.68400 11.98600 40.01800
C  -5.81800 14.94800 40.18900
O  -4.81100 14.29900 40.38200
C  -5.76300 16.49200 40.04600
C  -5.21300 17.21200 41.23700
O  -5.72900 17.17900 42.32100
O  -4.09400 17.88600 40.88600
C  -3.32000 18.66500 41.92200
H  -10.51400 21.39200 39.41200
H  -15.18500 16.94700 40.18400
H  -10.72200 12.25000 39.99200
H  -6.10600 19.19600 39.73400
H  -8.20200 21.14100 38.68100
H  -7.09000 20.62600 41.56200
H  -8.46400 21.64800 41.22100
H  -6.98100 22.04900 40.39900
H  -7.11500 20.15500 37.20500
H  -7.07500 18.30900 37.31300
H  -4.46500 19.63800 38.00800
H  -4.99100 20.11200 36.49600
H  -14.13000 22.41200 39.36900
H  -12.88700 22.02600 38.09100
H  -12.54200 22.54400 39.75400
H  -16.44100 17.99800 38.94200
H  -17.74600 19.05100 39.47500
H  -17.02500 18.23400 40.75600
H  -15.07000 14.38600 39.33400
H  -13.27400 12.47100 40.64300
H  -16.24500 14.03400 41.23700
H  -15.26000 15.06800 41.99200
H  -14.79900 13.22400 41.91800
H  -12.70100 12.94900 37.69700
H  -14.41600 12.81900 38.00200
H  -14.05800 10.50800 37.89500
H  -12.96900 10.80600 39.43700
H  -12.38300 10.81100 37.82400
H  -7.82900 11.52800 40.99600
H  -6.69100 12.00500 39.56900
H  -8.42300 11.52600 39.36200
H  -5.13000 16.83500 39.22800
H  -3.57500 19.71900 41.81000
H  -2.27900 18.49800 41.64700
H  -3.54900 18.29000 42.91900

