158

Mg 47.24800 16.42100 28.80800
C  45.33400 15.89900 31.58500
C  49.38400 18.51300 30.55400
C  48.79100 17.22600 26.00500
C  44.79200 14.78100 26.83500
N  47.26300 17.24800 30.82900
C  46.42600 16.76600 31.83400
C  46.97400 17.26900 33.21000
C  48.11800 18.35800 32.79500
C  48.30500 18.02800 31.26000
C  47.75300 19.82100 33.03000
C  47.59300 16.09900 34.04200
C  47.41800 16.25700 35.52000
H  47.20700 17.68900 36.12100
N  48.94100 17.58400 28.36200
C  49.78200 18.23400 29.21400
C  50.89000 18.78200 28.51200
C  50.67900 18.50600 27.13300
C  49.40900 17.71800 27.12800
C  52.06800 19.38900 29.22500
C  51.45600 18.89900 25.92500
O  51.13300 18.61000 24.76000
C  52.61600 19.78800 26.07100
N  46.86600 15.98100 26.64300
C  47.69700 16.39600 25.75000
C  47.23100 16.05400 24.35900
C  45.96900 15.09500 24.63400
C  45.93600 15.19300 26.13800
C  47.03400 17.25100 23.45600
C  46.02900 13.57400 24.17000
C  45.25000 13.34900 22.89100
N  45.44200 15.56600 29.08800
C  44.51900 15.00000 28.19400
C  43.28700 14.65100 28.96600
C  43.62200 14.90500 30.28600
C  44.92600 15.48400 30.28300
C  42.03800 14.17700 28.44600
C  43.15600 14.86800 31.66800
O  42.13600 14.43900 32.13800
C  44.26700 15.53600 32.53700
C  43.71700 16.76000 33.10000
O  43.59700 17.82900 32.50800
O  43.34600 16.66900 34.44100
C  42.75500 17.91400 35.09400
H  49.96500 19.15500 31.22000
H  49.22300 17.49900 25.04000
H  43.92400 14.41000 26.28600
H  46.11800 17.73000 33.70200
H  49.00100 18.06200 33.36100
H  46.68300 20.00900 33.11100
H  48.19200 20.47000 32.27200
H  48.16000 20.04200 34.01700
H  48.64200 16.02100 33.75600
H  47.01500 15.20900 33.79100
H  48.14900 15.71600 36.12100
H  46.52400 15.69300 35.78800
H  52.91900 18.75000 28.99200
H  52.00100 19.34400 30.31200
H  52.27800 20.35100 28.75600
H  52.26500 20.72800 26.49700
H  53.14100 19.96800 25.13300
H  53.39400 19.44700 26.75300
H  48.04400 15.43800 23.97600
H  45.05700 15.54800 24.24500
H  47.15900 18.17000 24.02900
H  46.01800 17.19000 23.06700
H  47.67700 17.20100 22.57700
H  45.71400 12.96600 25.01800
H  47.01600 13.18300 23.92300
H  45.83500 12.69100 22.24800
H  44.80500 14.24900 22.46700
H  44.48300 12.61000 23.12300
H  41.17900 14.61300 28.95400
H  42.06200 13.08900 28.37800
H  41.84000 14.48900 27.42100
H  44.45400 14.83700 33.35200
H  41.99100 18.47900 34.55900
H  43.62300 18.54100 35.29900
H  42.34400 17.69000 36.07800
Mg 9.73400 49.07600 26.56200
C  7.95200 48.80400 29.57400
C  12.42300 50.34600 28.31100
C  11.25800 49.83800 23.62600
C  6.72100 48.45900 24.86900
N  10.08700 49.53800 28.66700
C  9.30400 49.22100 29.72600
C  10.00700 49.57700 31.09000
C  11.31100 50.34800 30.59900
C  11.29500 50.10500 29.09400
C  11.27600 51.85300 30.98600
C  10.07200 48.38800 32.11900
C  9.50100 48.65700 33.53200
H  9.41800 47.44400 34.44400
N  11.61300 49.85900 26.04100
C  12.57500 50.19200 26.90000
C  13.82700 50.25300 26.19600
C  13.50800 50.29000 24.81400
C  12.03900 50.02000 24.75100
C  15.16400 50.49700 26.91300
C  14.47100 50.48600 23.66500
O  14.09000 50.58600 22.50800
C  15.94100 50.41300 23.91000
N  8.92700 49.43600 24.57800
C  9.84400 49.48300 23.52100
C  9.19500 48.96800 22.25800
C  7.85500 48.38700 22.70700
C  7.84600 48.79600 24.10600
C  9.08100 49.96500 21.02500
C  7.68700 46.81300 22.49400
C  8.30600 45.84500 23.47900
N  7.70600 48.74900 27.04600
C  6.62300 48.56800 26.26500
C  5.45000 48.35000 27.15800
C  5.91700 48.39600 28.47500
C  7.31100 48.64400 28.36400
C  4.00000 48.21300 26.59800
C  5.52800 48.36700 29.88200
O  4.39400 48.17900 30.39400
C  6.84500 48.34000 30.61600
C  7.13600 46.97600 31.12900
O  7.60600 46.08300 30.46500
O  6.77300 46.90500 32.47200
C  7.16000 45.62000 33.16000
H  13.34900 50.74800 28.72900
H  11.70200 50.19800 22.69600
H  5.82300 48.16800 24.32000
H  9.37000 50.29200 31.61100
H  12.18000 49.88400 31.06600
H  10.36600 52.16200 31.49900
H  11.39000 52.31500 30.00500
H  12.15900 52.07200 31.58700
H  11.14400 48.27400 32.27800
H  9.67400 47.47200 31.68300
H  8.55500 49.19700 33.54300
H  10.26500 49.31100 33.95300
H  15.85600 49.74200 26.53800
H  15.10700 50.50600 28.00100
H  15.62400 51.40300 26.52100
H  16.32900 51.18900 24.57000
H  16.25400 50.62700 22.88800
H  16.29900 49.42200 24.19200
H  9.78300 48.09600 21.97000
H  7.05700 48.93600 22.20800
H  9.88000 50.70200 20.94300
H  8.23900 50.65600 20.99600
H  8.91100 49.38000 20.12100
H  8.28400 46.65300 21.59600
H  6.61800 46.66000 22.34800
H  8.45500 46.38900 24.41200
H  9.23800 45.47100 23.05500
H  7.65500 45.01700 23.76200
H  3.24300 48.36000 27.36800
H  3.81000 47.22300 26.18200
H  3.61800 48.87800 25.82400
H  6.86500 49.00800 31.47700
H  6.67800 44.72300 32.77100
H  6.83300 45.58700 34.20000
H  8.23900 45.48500 33.09700

