158

Mg 36.41900 49.83800 24.75300
C  36.52600 47.72300 27.70100
C  35.03100 52.19600 26.78100
C  35.63300 51.43800 21.89100
C  37.49700 47.03300 22.87800
N  35.84600 49.90500 27.02200
C  36.09600 49.05000 28.01300
C  35.80000 49.67600 29.44500
C  35.08600 51.06100 29.03800
C  35.33400 51.05600 27.54700
C  33.59000 51.26100 29.41400
C  36.96600 49.68100 30.48000
C  36.55200 49.84000 32.00800
H  35.06700 49.85900 32.39000
N  35.53700 51.64400 24.38600
C  35.07900 52.46100 25.40300
C  34.94100 53.76500 24.68900
C  34.96100 53.52400 23.26700
C  35.31500 52.13000 23.11800
C  34.54700 54.90400 25.47300
C  34.54700 54.47000 22.15700
O  34.48200 54.10500 20.97100
C  34.15800 55.86700 22.44700
N  36.45000 49.32600 22.70100
C  36.19200 50.21700 21.69400
C  36.61700 49.65500 20.39200
C  37.49400 48.45100 20.78900
C  37.13100 48.22700 22.21600
C  35.55200 49.29900 19.36100
C  39.05800 48.60800 20.56100
C  39.62100 47.67400 19.40500
N  37.00700 47.87500 25.13300
C  37.35200 46.88000 24.26600
C  37.69800 45.64600 25.03700
C  37.38400 45.97000 26.32700
C  36.95800 47.32600 26.37200
C  38.19600 44.26700 24.46300
C  37.39200 45.43900 27.69800
O  37.76700 44.40400 28.12900
C  36.88900 46.58700 28.64700
C  35.76700 46.03500 29.43100
O  34.99600 45.16400 28.96500
O  35.67800 46.51200 30.71200
C  34.68000 45.84600 31.55300
H  34.55700 52.97100 27.38600
H  35.41900 51.99800 20.97800
H  37.99100 46.33300 22.20100
H  35.08800 48.93000 29.79900
H  35.69000 51.85100 29.48400
H  32.90600 50.94800 28.62400
H  33.46100 52.27100 29.80200
H  33.22900 50.62200 30.22000
H  37.71000 50.45700 30.30500
H  37.55800 48.77300 30.36500
H  37.04500 50.72100 32.41900
H  36.94000 48.94200 32.49000
H  34.86600 55.86100 25.05900
H  35.06300 54.90600 26.43300
H  33.47200 54.92800 25.64900
H  35.00400 56.45800 22.80000
H  33.33000 55.78900 23.15100
H  33.79000 56.28900 21.51200
H  37.22800 50.43000 19.93000
H  37.18000 47.56200 20.24300
H  35.94800 48.57200 18.65200
H  35.27200 50.21700 18.84500
H  34.65800 48.84600 19.78900
H  39.49800 48.20400 21.47200
H  39.40100 49.61200 20.31300
H  40.04300 46.79300 19.88900
H  40.39500 48.18300 18.83100
H  38.79600 47.25700 18.82700
H  38.81800 43.71500 25.16800
H  38.63400 44.43100 23.47900
H  37.34900 43.60300 24.29000
H  37.73300 46.64500 29.33500
H  35.04100 45.99400 32.57100
H  34.51800 44.77200 31.45600
H  33.69600 46.28700 31.40000
Mg 9.83800 48.16600 25.92100
C  8.22500 48.01200 29.04100
C  12.66100 49.19800 27.54200
C  11.43900 48.33700 22.94500
C  6.91200 47.04900 24.35900
N  10.28500 48.76600 28.02500
C  9.50000 48.52600 29.11100
C  10.21200 48.94800 30.37600
C  11.53100 49.54000 29.82100
C  11.51300 49.13800 28.36800
C  11.58100 51.11000 29.86500
C  10.41000 47.89600 31.52900
C  9.75200 48.38900 32.84200
H  9.48300 47.32500 33.94700
N  11.77100 48.66500 25.31000
C  12.88400 49.02600 26.15100
C  14.10600 49.03900 25.38500
C  13.66900 48.82600 24.03200
C  12.19700 48.61200 24.02500
C  15.52500 49.23900 25.94300
C  14.55200 48.86700 22.85300
O  14.09400 48.84200 21.74100
C  16.07400 48.89600 23.03700
N  9.15500 47.93800 23.88000
C  10.07500 48.02200 22.83200
C  9.30000 47.76800 21.49300
C  8.22000 46.81600 22.03700
C  7.99400 47.34400 23.47300
C  8.86400 49.08000 20.83700
C  8.62200 45.34500 22.20500
C  8.66600 44.56900 20.84900
N  7.94600 47.81900 26.47600
C  6.85900 47.35700 25.76800
C  5.68700 47.13100 26.61600
C  6.15800 47.38100 27.94900
C  7.53900 47.78900 27.78400
C  4.37300 46.59300 26.17400
C  5.88300 47.28900 29.37700
O  4.82100 47.10500 29.97600
C  7.23300 47.62700 30.15600
C  7.53400 46.33300 30.83900
O  8.06100 45.34500 30.37700
O  6.94900 46.34300 32.08600
C  7.05500 45.05400 32.81600
H  13.55600 49.44000 28.11800
H  11.76800 48.15500 21.92000
H  6.06400 46.42100 24.08100
H  9.63500 49.77300 30.79300
H  12.40500 49.06900 30.27100
H  10.63500 51.60900 30.07600
H  11.79800 51.53900 28.88700
H  12.38800 51.40800 30.53500
H  11.46500 47.65200 31.65600
H  9.95900 46.91500 31.38200
H  8.74200 48.78500 32.73400
H  10.38100 49.16900 33.27100
H  16.23700 48.47400 25.63400
H  15.42300 49.06800 27.01400
H  15.84900 50.26600 25.77200
H  16.54800 47.98700 23.40700
H  16.32200 49.84000 23.52200
H  16.40400 49.16100 22.03300
H  9.95300 47.17400 20.85500
H  7.23300 46.92000 21.58600
H  9.44500 49.96700 21.09100
H  7.84300 49.38700 21.06600
H  8.97000 48.91500 19.76500
H  7.95400 44.86100 22.91800
H  9.58900 45.22500 22.69200
H  8.05900 43.66400 20.86500
H  9.70000 44.31600 20.61300
H  8.29900 45.09200 19.96600
H  3.79000 46.52400 27.09200
H  4.50300 45.57800 25.79700
H  3.91800 47.33800 25.52200
H  7.12400 48.35600 30.95800
H  6.51600 45.22200 33.74900
H  8.10700 44.86700 33.03500
H  6.56500 44.17200 32.40400

