158

Mg -1.64400 18.04700 27.12100
C  -1.99200 16.06200 30.10700
C  -2.12100 20.79500 29.09100
C  -1.76800 19.91400 24.28000
C  -1.22000 15.21000 25.27800
N  -1.71900 18.40100 29.38900
C  -1.95100 17.41700 30.37900
C  -2.16800 18.08500 31.69900
C  -2.50000 19.56300 31.37700
C  -2.04100 19.63400 29.85900
C  -3.86300 20.18300 31.68700
C  -1.04000 17.86700 32.83800
C  -1.50700 17.73300 34.34200
H  -0.45100 17.59400 35.47700
N  -1.91100 20.04700 26.74900
C  -2.00600 21.01500 27.69400
C  -1.89600 22.33200 27.02800
C  -1.66000 22.09600 25.62800
C  -1.66100 20.62300 25.49300
C  -2.08500 23.62100 27.81900
C  -1.37500 23.06500 24.48600
O  -1.06600 22.68900 23.35800
C  -1.33100 24.57000 24.79000
N  -1.69300 17.67000 25.08800
C  -1.73700 18.55500 24.03000
C  -1.44800 17.88900 22.67600
C  -0.98900 16.46200 23.10600
C  -1.30600 16.44700 24.55600
C  -2.75600 18.09100 21.75600
C  0.47400 16.14800 22.73400
C  1.60100 16.95200 23.35800
N  -1.70700 16.07900 27.57900
C  -1.51100 14.96900 26.67300
C  -1.64000 13.71900 27.38200
C  -1.74700 14.13400 28.73400
C  -1.77100 15.56200 28.80300
C  -1.40000 12.31000 26.88300
C  -1.94200 13.67800 30.10600
O  -2.04000 12.52000 30.46900
C  -2.14800 14.89000 31.00300
C  -1.27600 14.79200 32.21800
O  -0.01300 14.74800 32.18600
O  -2.03700 14.73900 33.30800
C  -1.37900 14.26700 34.53500
H  -2.33300 21.65900 29.72400
H  -1.82700 20.48400 23.35000
H  -0.75200 14.40000 24.71400
H  -3.07900 17.59200 32.03900
H  -1.76700 20.20500 31.86500
H  -4.35000 20.62400 30.81800
H  -3.84300 20.90600 32.50300
H  -4.59300 19.39100 31.85700
H  -0.36900 18.72400 32.77600
H  -0.44200 17.04900 32.43700
H  -2.23700 16.94500 34.52900
H  -2.09000 18.63900 34.50300
H  -2.10500 23.61500 28.90900
H  -2.82000 24.30100 27.38700
H  -1.21100 24.26600 27.73000
H  -0.93400 25.04900 23.89500
H  -0.77000 24.63300 25.72200
H  -2.37800 24.79500 24.99800
H  -0.54300 18.33000 22.26000
H  -1.57700 15.71800 22.56900
H  -3.54300 18.51700 22.37900
H  -3.09600 17.17900 21.26500
H  -2.57000 18.79700 20.94700
H  0.48700 16.34000 21.66100
H  0.62200 15.09100 22.95500
H  2.06600 16.35700 24.14400
H  1.20100 17.93900 23.58900
H  2.24100 17.02200 22.47800
H  -2.29000 11.68300 26.83300
H  -0.59100 11.85900 27.45900
H  -1.04400 12.43400 25.86100
H  -3.19800 14.84300 31.29000
H  -2.03400 14.57400 35.35000
H  -0.39000 14.70300 34.67800
H  -1.34500 13.17700 34.52600
Mg 7.02500 53.92100 40.30900
C  6.63900 50.37100 39.94600
C  10.38800 53.41700 39.86700
C  7.17800 57.10900 39.53900
C  3.51800 54.06300 40.26400
N  8.32700 52.06300 39.76400
C  7.94500 50.77300 39.70200
C  9.17400 49.87900 39.63000
C  10.34400 50.85900 40.05600
C  9.67500 52.18500 39.95200
C  11.05400 50.57900 41.43800
C  9.41900 49.25300 38.17700
C  9.24700 50.34000 36.95100
H  7.98200 50.21500 36.06100
N  8.61900 55.12600 39.91100
C  9.92000 54.75500 39.84000
C  10.72100 55.89100 39.58600
C  9.83900 57.00400 39.36900
C  8.46700 56.49100 39.60500
C  12.16200 55.86600 39.64700
C  10.20200 58.45500 39.00800
O  11.40400 58.80200 39.04100
C  9.17000 59.49700 38.68500
N  5.57400 55.36000 39.81500
C  5.91700 56.66600 39.73900
C  4.68300 57.52400 39.54200
C  3.45700 56.53300 39.70500
C  4.20100 55.23700 39.93700
C  4.54600 58.77200 40.46800
C  2.39700 56.59200 38.45000
C  0.87500 56.59800 38.85500
N  5.43100 52.55600 40.25600
C  4.10800 52.78900 40.43000
C  3.32600 51.52400 40.61800
C  4.29100 50.54200 40.51900
C  5.57100 51.23700 40.18000
C  1.75500 51.37200 40.78300
C  4.60500 49.11700 40.53500
O  3.91400 48.16800 40.88400
C  6.14400 48.93800 40.16900
C  6.11200 48.16500 38.97600
O  5.77400 48.58200 37.87300
O  6.51200 46.83800 39.24000
C  6.16900 45.88300 38.18000
H  11.47300 53.29700 39.87400
H  7.17400 58.19200 39.39800
H  2.42700 54.09600 40.23000
H  9.11200 48.97900 40.24300
H  11.02800 50.83100 39.20800
H  10.75200 51.21800 42.26900
H  12.13500 50.71500 41.45900
H  10.73500 49.58600 41.75400
H  8.69900 48.50500 37.84400
H  10.44600 48.92400 38.02500
H  10.19900 50.28900 36.42300
H  9.29500 51.34600 37.36900
H  12.59100 56.72600 39.13300
H  12.56800 54.93700 39.24700
H  12.57300 55.81300 40.65500
H  9.72100 60.31900 38.22900
H  8.47700 59.81200 39.46600
H  8.56600 59.05700 37.89200
H  4.74200 57.89000 38.51700
H  2.97700 56.72300 40.66500
H  3.65600 58.77700 41.09700
H  4.44700 59.69300 39.89300
H  5.39200 58.92700 41.13700
H  2.65900 55.77500 37.77700
H  2.53400 57.41200 37.74500
H  0.32800 55.93700 38.18300
H  0.53800 57.63400 38.88600
H  0.74600 56.14800 39.83900
H  1.21300 51.67600 39.88700
H  1.27600 52.01300 41.52400
H  1.46200 50.34200 40.98700
H  6.70600 48.41200 40.94100
H  5.10800 45.84200 37.93700
H  6.36000 44.87000 38.53200
H  6.70500 46.13400 37.26400

