158

Mg -2.54000 17.46300 27.54200
C  -3.06700 15.22200 30.17600
C  -2.97200 20.10300 29.74500
C  -2.26900 19.43900 25.07200
C  -2.70800 14.73900 25.39700
N  -2.89100 17.62600 29.77900
C  -3.10600 16.58200 30.67100
C  -3.37100 17.14700 32.10500
C  -3.47200 18.70400 31.86500
C  -3.08900 18.83600 30.36100
C  -4.77800 19.40200 32.17400
C  -2.37500 16.55900 33.13500
C  -1.98900 17.42300 34.38900
H  -1.74900 16.68700 35.63900
N  -2.32000 19.47500 27.44400
C  -2.50100 20.42200 28.48100
C  -2.21400 21.70100 27.92600
C  -2.09700 21.59800 26.51700
C  -2.17200 20.17300 26.28400
C  -2.29900 22.88800 28.87700
C  -1.96300 22.71200 25.46700
O  -1.64300 22.44800 24.31700
C  -2.02800 24.18500 25.86000
N  -2.68800 17.14200 25.52700
C  -2.49900 18.09800 24.71100
C  -2.50600 17.62800 23.21000
C  -2.41600 16.06700 23.32600
C  -2.62700 15.98200 24.82900
C  -3.67000 18.13600 22.35100
C  -1.13600 15.29100 22.84800
C  0.17000 15.67100 23.58900
N  -2.92400 15.40700 27.67000
C  -2.94700 14.41200 26.72700
C  -3.03300 13.06500 27.34700
C  -3.07600 13.40000 28.73500
C  -3.01500 14.79500 28.83700
C  -3.02900 11.71900 26.79300
C  -3.29700 12.79600 30.07900
O  -3.55600 11.69800 30.37400
C  -3.24400 14.00200 31.11500
C  -2.02500 13.55200 31.89100
O  -0.88600 13.95600 31.65400
O  -2.36500 12.78900 32.99400
C  -1.22500 12.55800 33.91700
H  -3.12000 20.90700 30.46900
H  -2.08700 20.08200 24.20800
H  -2.58700 13.90900 24.69800
H  -4.29700 16.73900 32.51000
H  -2.65500 19.11600 32.45800
H  -5.03200 20.16700 31.44000
H  -4.70200 19.79100 33.18900
H  -5.63000 18.72300 32.21000
H  -1.45500 16.25100 32.63800
H  -2.85000 15.67300 33.55600
H  -2.91800 17.99000 34.46100
H  -1.06200 17.97300 34.22700
H  -1.65600 23.61200 28.37700
H  -1.79400 22.64100 29.81000
H  -3.25500 23.35000 29.12300
H  -2.26000 24.85400 25.03000
H  -1.08700 24.48700 26.31900
H  -2.73800 24.28200 26.68100
H  -1.54200 17.97700 22.84100
H  -3.27600 15.56200 22.88600
H  -4.16100 18.99400 22.81000
H  -4.40700 17.39900 22.03200
H  -3.20100 18.55600 21.46100
H  -1.03500 15.45800 21.77600
H  -1.29200 14.21400 22.91600
H  0.74800 16.33800 22.95000
H  0.76300 14.78600 23.82400
H  -0.05300 16.20800 24.51100
H  -2.81200 11.08800 27.65500
H  -2.35300 11.55000 25.95500
H  -4.03800 11.49100 26.45000
H  -4.20100 13.82600 31.60700
H  -1.46000 11.68800 34.53000
H  -0.93000 13.36000 34.59400
H  -0.28100 12.14900 33.55700
Mg 42.77700 42.17500 26.31700
C  41.64500 44.13100 28.90800
C  44.11800 39.96900 28.63100
C  43.92800 40.28700 23.76900
C  42.00000 44.71400 24.01700
N  42.85800 42.06100 28.53200
C  42.21500 42.91300 29.34400
C  42.23300 42.35300 30.82300
C  43.29300 41.22600 30.74300
C  43.50600 41.06000 29.19300
C  44.66900 41.47400 31.37200
C  40.75900 42.07400 31.34900
C  40.19600 43.02500 32.41700
H  39.71200 42.51200 33.75800
N  43.78900 40.34000 26.14500
C  44.25800 39.62300 27.21600
C  44.83300 38.40700 26.68300
C  44.70400 38.40000 25.27000
C  44.12600 39.71900 24.99600
C  45.63400 37.47900 27.59000
C  45.21700 37.47000 24.25100
O  45.34700 37.74300 23.07200
C  45.63500 36.14600 24.70200
N  43.14000 42.54900 24.17100
C  43.46000 41.54400 23.35200
C  43.35900 41.94700 21.81200
C  42.67800 43.37800 22.00700
C  42.62300 43.62100 23.50700
C  44.72200 41.93600 21.10000
C  41.37500 43.49200 21.18500
C  40.01200 43.02800 21.79800
N  42.07600 44.07600 26.36500
C  41.74000 45.03400 25.37600
C  41.03000 46.17400 25.96700
C  41.02500 45.84900 27.32000
C  41.71800 44.58800 27.54500
C  40.49500 47.39200 25.26600
C  40.56000 46.31900 28.62300
O  39.92500 47.32100 28.91000
C  40.89500 45.27800 29.69500
C  41.73900 45.84800 30.75000
O  42.93600 45.85200 30.70200
O  40.89900 46.27400 31.82300
C  41.55800 46.74700 33.07600
H  44.53500 39.30400 29.39000
H  44.27900 39.75200 22.88400
H  41.62900 45.39000 23.24400
H  42.59800 43.20700 31.39400
H  42.94800 40.21900 30.97700
H  45.31400 41.77200 30.54600
H  44.95500 40.59300 31.94700
H  44.46500 42.13200 32.21600
H  40.77300 41.13000 31.89300
H  39.96100 41.99900 30.61100
H  39.34100 43.57000 32.01700
H  40.99100 43.75300 32.58200
H  45.65400 37.82100 28.62500
H  46.61500 37.50900 27.11800
H  45.18500 36.48700 27.54400
H  44.80100 35.63400 25.18200
H  46.52800 36.32000 25.30100
H  45.83200 35.49400 23.85100
H  42.59200 41.33500 21.33700
H  43.40000 44.08900 21.60400
H  45.16400 40.94000 21.11600
H  45.33100 42.67500 21.62100
H  44.52900 42.31300 20.09500
H  41.49600 42.94500 20.25000
H  41.47400 44.53900 20.90000
H  39.35600 43.89700 21.75900
H  40.02700 42.63900 22.81600
H  39.53300 42.29300 21.15100
H  40.02400 46.88500 24.42400
H  41.35400 47.94800 24.89100
H  39.87500 47.96500 25.95600
H  39.96000 44.97700 30.16700
H  42.63400 46.78000 32.90300
H  41.21500 46.08500 33.87100
H  41.22000 47.76900 33.24400

