158

Mg 24.73600 -8.42500 47.39100
C  27.17000 -6.16800 46.40600
C  22.78200 -7.42700 44.78600
C  22.68300 -11.02500 48.05000
C  27.19700 -9.81500 49.58000
N  24.89900 -6.89800 45.81500
C  26.02900 -6.15700 45.56400
C  25.82700 -5.19300 44.38700
C  24.28100 -5.38400 44.13000
C  23.97300 -6.65000 44.94800
C  23.45600 -4.07100 44.47500
C  26.66900 -5.66700 43.17700
C  27.48700 -4.59200 42.34300
H  26.99000 -4.32700 40.94400
N  22.88500 -9.05100 46.61000
C  22.25100 -8.50000 45.53000
C  21.02300 -9.20200 45.27000
C  20.99200 -10.28800 46.19500
C  22.20400 -10.15700 47.05900
C  20.06000 -8.79200 44.17500
C  19.92000 -11.35700 46.15300
O  19.01400 -11.41400 45.32300
C  19.75300 -12.26100 47.39100
N  24.96500 -10.23400 48.57300
C  23.87000 -10.97100 48.83100
C  24.27100 -12.12400 49.79400
C  25.63100 -11.65900 50.45000
C  26.00800 -10.52100 49.48800
C  23.18400 -12.67000 50.77100
C  26.69700 -12.75100 50.56500
C  27.45200 -12.85100 51.91300
N  26.76100 -8.10000 47.93600
C  27.58200 -8.72800 48.82900
C  28.90900 -8.04500 48.90500
C  28.77200 -6.99700 47.96200
C  27.44300 -7.09200 47.42600
C  30.02400 -8.37600 49.69600
C  29.43200 -5.95700 47.23600
O  30.62700 -5.66700 47.23300
C  28.45700 -5.32300 46.27300
C  28.12700 -3.90400 46.51700
O  27.50400 -3.57900 47.50600
O  28.68100 -3.10800 45.51700
C  28.12300 -1.77700 45.48700
H  22.17400 -7.01600 43.97700
H  21.99400 -11.84000 48.28100
H  27.93500 -10.25000 50.25600
H  26.05100 -4.19600 44.76500
H  24.10800 -5.56700 43.07000
H  22.82800 -4.28400 45.34000
H  22.87700 -3.75500 43.60800
H  24.03900 -3.21300 44.81000
H  26.08300 -6.13800 42.38700
H  27.34100 -6.48300 43.44400
H  28.54700 -4.79200 42.50100
H  27.27800 -3.72200 42.96500
H  19.18200 -9.40400 43.97000
H  20.56600 -8.68400 43.21600
H  19.73200 -7.80300 44.49200
H  20.39800 -13.13700 47.32500
H  18.70000 -12.53900 47.44500
H  19.98700 -11.67400 48.27900
H  24.50000 -12.97900 49.16000
H  25.43300 -11.20700 51.42200
H  22.20800 -12.32800 50.42700
H  23.41200 -12.05900 51.64500
H  23.25500 -13.71500 51.07400
H  27.36100 -12.75900 49.70100
H  26.17500 -13.70800 50.55100
H  28.51200 -12.99700 51.70500
H  27.06000 -13.66200 52.52600
H  27.28400 -11.93800 52.48300
H  30.64200 -9.17600 49.28900
H  29.74900 -8.65900 50.71300
H  30.58600 -7.44300 49.73400
H  28.94400 -5.38300 45.29900
H  27.14000 -1.88300 45.94500
H  28.12300 -1.34500 44.48600
H  28.65900 -1.05900 46.10800
Mg 17.45900 -2.49800 27.18800
C  16.57300 -0.51500 30.03100
C  19.13100 -4.44500 29.36000
C  18.32300 -4.04000 24.47600
C  15.80200 -0.06300 25.22200
N  17.93900 -2.38700 29.55900
C  17.39400 -1.60300 30.47000
C  17.64600 -1.98900 31.90100
C  18.59000 -3.25100 31.59700
C  18.57100 -3.39500 30.10900
C  19.97200 -3.19000 32.31700
C  16.37300 -2.23900 32.78700
C  16.28200 -1.44400 34.03800
H  17.57500 -0.93800 34.84700
N  18.51400 -4.11000 26.94600
C  19.14200 -4.80400 27.90000
C  19.95800 -5.80900 27.29300
C  19.63000 -5.75400 25.91100
C  18.71900 -4.65400 25.72700
C  20.87000 -6.65000 28.15100
C  20.09400 -6.65300 24.82200
O  19.75200 -6.59200 23.63100
C  20.85400 -7.89200 25.13800
N  16.96600 -2.14200 25.04100
C  17.54300 -2.94000 24.13700
C  17.21700 -2.41300 22.69900
C  16.31800 -1.16900 23.00600
C  16.37800 -1.09400 24.50900
C  18.53700 -2.11100 21.92700
C  14.79200 -1.39500 22.52400
C  14.39500 -0.63300 21.28200
N  16.32000 -0.70600 27.51700
C  15.74800 0.15600 26.61900
C  15.14100 1.25700 27.26800
C  15.34100 1.05000 28.63400
C  16.05100 -0.18000 28.73800
C  14.54700 2.48800 26.62900
C  15.25400 1.58500 29.97200
O  14.65000 2.62600 30.28300
C  15.90300 0.60500 30.96200
C  16.86100 1.51400 31.71900
O  17.97400 1.79700 31.31300
O  16.21000 2.00700 32.81400
C  16.93300 3.05500 33.51800
H  19.64500 -5.09900 30.06700
H  18.84700 -4.52500 23.65000
H  15.26700 0.66600 24.60800
H  18.10900 -1.09000 32.31000
H  17.98200 -4.08100 31.95800
H  20.73400 -2.88100 31.60300
H  20.29300 -4.17800 32.64800
H  20.03000 -2.50800 33.16500
H  16.15000 -3.29600 32.93300
H  15.54000 -1.86600 32.19200
H  15.59200 -2.00300 34.67000
H  15.70900 -0.54700 33.80600
H  21.87700 -6.80700 27.76300
H  20.59900 -7.70400 28.20700
H  21.09100 -6.42000 29.19300
H  20.28700 -8.56400 25.78300
H  21.80100 -7.62600 25.60700
H  21.06800 -8.39600 24.19500
H  16.75800 -3.22400 22.13400
H  16.66000 -0.21600 22.60300
H  18.62300 -2.69300 21.00900
H  19.38800 -2.35000 22.56500
H  18.63000 -1.05200 21.68600
H  14.08600 -0.98900 23.24800
H  14.49600 -2.43300 22.37400
H  15.27200 -0.34500 20.70200
H  13.95400 0.29600 21.64400
H  13.70900 -1.16900 20.62700
H  13.47400 2.36700 26.48100
H  14.90000 2.67100 25.61400
H  14.77100 3.34300 27.26600
H  15.19300 0.25100 31.70900
H  17.11500 3.85800 32.80400
H  17.87900 2.65100 33.87900
H  16.28900 3.43400 34.31200

