158

Mg 49.07600 35.39300 27.52000
C  47.00700 33.67000 29.65700
C  49.33300 37.99500 29.83800
C  50.52100 37.36500 25.07800
C  48.36900 32.97300 25.13700
N  48.12900 35.81200 29.40300
C  47.47300 34.90700 30.17100
C  47.51000 35.25300 31.70800
C  47.82700 36.81500 31.60200
C  48.47800 36.92200 30.14500
C  46.60300 37.78900 31.84800
C  48.69000 34.40000 32.34800
C  48.55000 34.00700 33.85100
H  47.63500 34.80700 34.69600
N  49.88700 37.34700 27.46500
C  49.87200 38.18900 28.56500
C  50.62600 39.37200 28.22000
C  50.96900 39.31600 26.86300
C  50.46300 37.96800 26.37000
C  50.94100 40.42100 29.26800
C  51.77000 40.28200 25.95600
O  52.07000 40.04000 24.76700
C  52.36000 41.53200 26.57800
N  49.41600 35.13500 25.46300
C  50.08800 36.09700 24.64500
C  50.40100 35.55300 23.33400
C  49.95400 34.00300 23.37100
C  49.16700 34.00000 24.73500
C  49.78300 36.40700 22.17800
C  51.09100 32.92500 23.46100
C  50.95100 31.78200 22.39700
N  48.01100 33.60400 27.40600
C  47.78700 32.73200 26.36600
C  47.07900 31.49400 26.79600
C  46.64400 31.91800 28.04500
C  47.27100 33.12500 28.38300
C  46.62500 30.28100 26.15300
C  45.83800 31.50400 29.21800
O  45.21500 30.45300 29.50400
C  46.05200 32.59300 30.35500
C  46.51500 31.90100 31.55900
O  47.57000 31.27500 31.56700
O  45.69300 32.09200 32.60200
C  46.02200 31.21600 33.72900
H  49.42000 38.63900 30.71500
H  50.94500 37.99400 24.29300
H  48.31000 32.15800 24.41200
H  46.51300 35.06800 32.10900
H  48.55300 37.01100 32.39100
H  46.27000 38.19000 30.89100
H  46.85800 38.68300 32.41700
H  45.70200 37.34000 32.26800
H  49.54900 35.04500 32.16200
H  48.92500 33.53100 31.73400
H  49.56500 34.06900 34.24400
H  48.22500 32.96600 33.84400
H  50.16000 40.45800 30.02800
H  51.08400 41.43800 28.90300
H  51.85900 40.09500 29.75700
H  52.92500 41.37800 27.49700
H  51.57500 42.27100 26.73600
H  52.96900 42.00200 25.80600
H  51.48800 35.58500 23.40000
H  49.23600 33.71500 22.60300
H  49.10500 35.80100 21.57800
H  50.63900 36.64100 21.54400
H  49.36200 37.33100 22.57400
H  51.14900 32.41800 24.42400
H  52.06600 33.39700 23.33800
H  50.33300 32.22200 21.61500
H  50.59700 30.84200 22.82200
H  51.95700 31.54800 22.04900
H  45.66500 30.37100 25.64600
H  46.59300 29.43800 26.84300
H  47.40600 30.05300 25.42700
H  45.15100 33.12900 30.65400
H  45.66200 31.66600 34.65400
H  47.08100 30.98200 33.83800
H  45.53800 30.24500 33.62300
Mg 36.03000 49.60100 26.07400
C  36.39600 47.64800 28.94000
C  34.95300 52.29800 27.94400
C  35.39200 51.31300 23.21200
C  36.42200 46.75200 24.20800
N  35.68100 49.92300 28.13200
C  35.84300 48.96500 29.12700
C  35.45700 49.54300 30.48100
C  34.90300 50.97800 30.21100
C  35.10300 51.08400 28.68100
C  33.33300 51.12900 30.43700
C  36.73000 49.62000 31.47600
C  36.41400 49.34400 32.98400
H  34.96100 49.42200 33.54700
N  35.38400 51.60400 25.63300
C  35.12000 52.59500 26.56300
C  34.94100 53.85700 25.81000
C  35.02700 53.51900 24.44200
C  35.24000 52.12300 24.37500
C  34.67800 55.23000 26.54200
C  34.86100 54.37200 23.17200
O  34.83100 54.00500 22.03600
C  34.55600 55.87900 23.36700
N  35.97500 49.06000 24.00900
C  35.83500 49.96200 22.99700
C  35.69400 49.24300 21.59300
C  36.44200 47.91500 21.99700
C  36.18100 47.87400 23.51700
C  34.22800 49.16700 20.96700
C  37.88600 47.69500 21.54300
C  38.28700 46.34500 20.86200
N  36.41900 47.57200 26.46900
C  36.60000 46.53700 25.62500
C  37.05700 45.35800 26.38900
C  36.93200 45.73300 27.71200
C  36.60500 47.10400 27.69900
C  37.59400 44.07500 25.93500
C  37.05300 45.26300 29.09400
O  37.37000 44.20100 29.56000
C  36.55800 46.55000 29.99000
C  35.32000 46.20200 30.73500
O  34.18400 46.32200 30.28200
O  35.64300 45.66100 31.99900
C  34.41800 45.21900 32.67200
H  34.70200 53.15800 28.56900
H  35.20900 51.82700 22.26600
H  36.70000 45.93300 23.54100
H  34.73200 48.82800 30.87100
H  35.29300 51.77300 30.84600
H  32.92500 51.22900 29.43200
H  33.22000 52.05900 30.99500
H  32.86800 50.32400 31.00600
H  37.11400 50.63800 31.41800
H  37.46700 48.86000 31.21600
H  37.11700 49.89400 33.60900
H  36.73400 48.32500 33.20100
H  35.45300 55.92700 26.22000
H  34.68500 55.21200 27.63200
H  33.69200 55.62600 26.30000
H  35.46000 56.25200 23.85000
H  33.67100 56.12500 23.95400
H  34.64800 56.43900 22.43600
H  36.41000 49.75200 20.94800
H  35.97200 47.10200 21.44500
H  34.11800 48.11200 20.71900
H  34.15800 49.72800 20.03400
H  33.43100 49.56900 21.59200
H  38.45500 47.79200 22.46800
H  38.36500 48.51000 21.00100
H  38.40500 46.66100 19.82500
H  37.48400 45.61000 20.80200
H  39.19400 45.99700 21.35500
H  38.65600 43.97200 26.15800
H  37.39300 43.94000 24.87200
H  37.14400 43.24900 26.48600
H  37.43200 46.78000 30.60000
H  33.78400 46.06600 32.93500
H  34.71700 44.79500 33.63000
H  33.76700 44.56100 32.09700

