158

Mg 26.90000 50.75200 25.93200
C  25.09400 51.97400 28.84400
C  29.40900 49.80100 27.98700
C  28.55800 49.62400 23.24400
C  24.56400 52.28500 23.83400
N  27.11400 50.72900 28.21600
C  26.27700 51.22600 29.18100
C  26.90500 51.17900 30.54100
C  28.37600 50.70800 30.20800
C  28.36300 50.41700 28.66700
C  29.53400 51.59000 30.71500
C  26.06200 50.40400 31.64000
C  25.74700 51.16500 32.94900
H  26.72400 51.07800 34.13500
N  28.65200 49.69500 25.68800
C  29.57800 49.38700 26.67300
C  30.67100 48.62700 26.04300
C  30.28100 48.41700 24.70400
C  29.13200 49.33800 24.49100
C  31.83800 48.09200 26.79000
C  30.88400 47.50500 23.65300
O  30.41700 47.50100 22.49300
C  31.95000 46.48800 23.98200
N  26.64300 51.03400 23.81100
C  27.42400 50.37800 22.89300
C  27.01400 50.61000 21.41100
C  25.63700 51.27400 21.68200
C  25.58200 51.56900 23.22000
C  28.11100 51.41100 20.69400
C  24.40500 50.42100 21.50400
C  23.35400 50.89400 20.36000
N  25.18400 51.85400 26.19300
C  24.31300 52.38000 25.23600
C  23.20000 52.96900 25.95300
C  23.47900 52.84500 27.32300
C  24.70300 52.17600 27.43900
C  21.97000 53.58300 25.33400
C  22.94200 53.04900 28.66600
O  21.81200 53.44000 29.00500
C  24.02300 52.56300 29.67700
C  24.45300 53.68200 30.59200
O  25.36200 54.45100 30.40000
O  23.60600 53.79500 31.68000
C  23.97900 55.04600 32.41400
H  30.22900 49.52700 28.65500
H  29.11000 49.25000 22.38000
H  23.75200 52.74500 23.26700
H  26.98400 52.22400 30.83900
H  28.57800 49.74600 30.67800
H  30.22900 51.84300 29.91400
H  30.02200 51.11700 31.56800
H  29.08400 52.53300 31.02300
H  26.70600 49.54200 31.81400
H  25.14300 49.98100 31.23400
H  24.76500 50.85000 33.30100
H  25.50700 52.20100 32.71000
H  31.76100 48.29600 27.85800
H  32.62400 48.74600 26.41200
H  32.17800 47.08700 26.54200
H  31.68300 45.75100 24.73900
H  32.71900 47.17100 24.34000
H  32.17400 46.06100 23.00400
H  26.91800 49.80200 20.68600
H  25.51800 52.19100 21.10600
H  28.76400 51.95400 21.37800
H  27.51100 52.17600 20.20100
H  28.64800 50.78600 19.98000
H  23.70900 50.37000 22.34100
H  24.69200 49.38100 21.34700
H  23.73100 51.53700 19.56400
H  22.51500 51.35200 20.88400
H  22.90000 50.06900 19.81200
H  22.04600 54.66900 25.38900
H  21.08700 53.27200 25.89100
H  21.76600 53.25300 24.31500
H  23.45300 51.80900 30.22000
H  25.03600 55.14500 32.66100
H  23.55300 54.92300 33.41000
H  23.58200 55.89500 31.85800
Mg -4.89400 26.31900 26.32000
C  -3.70000 27.75100 29.37800
C  -6.80700 24.23200 28.31500
C  -5.65600 24.65300 23.54500
C  -2.52900 28.19900 24.54700
N  -5.07000 25.93600 28.64500
C  -4.60900 26.75800 29.66400
C  -5.03700 26.22400 31.05600
C  -5.89700 24.97400 30.67400
C  -5.98700 25.04700 29.13000
C  -5.28400 23.62300 31.19500
C  -5.85900 27.35200 31.77000
C  -5.88400 27.33600 33.29300
H  -5.50400 26.13100 34.06700
N  -6.08300 24.64500 26.01300
C  -6.90100 24.04500 26.89500
C  -7.68200 23.12000 26.17000
C  -7.40200 23.17100 24.73600
C  -6.35300 24.20700 24.72900
C  -8.77500 22.40900 26.78200
C  -7.98400 22.45800 23.48600
O  -7.41200 22.51700 22.39500
C  -9.21000 21.58700 23.66700
N  -4.29000 26.48400 24.34700
C  -4.82500 25.74300 23.35900
C  -4.35200 26.24600 21.95200
C  -3.36700 27.40300 22.30000
C  -3.45000 27.41100 23.85700
C  -3.63100 25.18300 21.06400
C  -3.69600 28.80600 21.70100
C  -2.87000 29.31800 20.50000
N  -3.40700 27.72800 26.80100
C  -2.49500 28.33300 25.96500
C  -1.58100 29.20700 26.79500
C  -2.09200 29.04100 28.15000
C  -3.15200 28.12000 28.08000
C  -0.40200 29.98100 26.29200
C  -1.81100 29.40200 29.55200
O  -1.03200 30.15800 30.04600
C  -2.85700 28.53900 30.42200
C  -2.00300 27.73200 31.25400
O  -1.39900 26.72500 30.78600
O  -2.02000 28.11000 32.55800
C  -0.96000 27.53300 33.39900
H  -7.55300 23.64600 28.85500
H  -5.88500 24.14500 22.60600
H  -1.82900 28.74700 23.91300
H  -4.21000 25.83800 31.65200
H  -6.94900 25.02900 30.95300
H  -4.82500 23.12800 30.33900
H  -6.08700 22.98400 31.56000
H  -4.57900 23.69900 32.02300
H  -6.92000 27.39000 31.52100
H  -5.42000 28.30100 31.46200
H  -6.94500 27.53000 33.45000
H  -5.31100 28.16400 33.71100
H  -8.79700 22.32400 27.86800
H  -8.78600 21.37100 26.44900
H  -9.67300 22.88300 26.38700
H  -9.89600 22.01400 24.39800
H  -8.79600 20.63200 23.98900
H  -9.82600 21.53400 22.77000
H  -5.17700 26.65400 21.36700
H  -2.39300 27.08300 21.92800
H  -4.19700 25.07000 20.13900
H  -3.64200 24.23800 21.60700
H  -2.58700 25.38300 20.82600
H  -3.70000 29.56800 22.48000
H  -4.72300 28.89700 21.34900
H  -3.47500 29.35800 19.59400
H  -1.89400 28.84200 20.40500
H  -2.71300 30.35500 20.79600
H  -0.74300 30.92800 25.87300
H  0.13500 29.37900 25.55900
H  0.16300 30.20900 27.19600
H  -3.38000 29.27400 31.03500
H  -0.06800 27.48400 32.77400
H  -1.18400 26.48800 33.61400
H  -0.75000 28.18200 34.24800

