158

Mg 35.03800 2.86900 29.11700
C  33.08400 3.93700 31.82700
C  37.86400 3.20100 31.09100
C  36.91400 1.90400 26.52600
C  32.19500 2.84100 27.18700
N  35.41800 3.28200 31.25700
C  34.45800 3.69400 32.17700
C  35.06800 3.63900 33.53500
C  36.57700 3.77300 33.26800
C  36.66000 3.43600 31.74800
C  37.27500 5.16700 33.65900
C  34.55500 2.52600 34.47900
C  34.35100 2.92400 35.93800
H  35.22700 3.98100 36.65900
N  37.14400 2.53500 28.84500
C  38.10500 2.80700 29.79200
C  39.39700 2.59100 29.15800
C  39.18500 2.13400 27.78300
C  37.68900 2.16900 27.64000
C  40.67100 2.97000 29.90500
C  40.11100 1.65000 26.68400
O  39.70200 1.33400 25.58800
C  41.53400 1.42300 26.93200
N  34.59200 2.40900 27.14800
C  35.52500 1.98500 26.29300
C  34.89500 1.49600 24.95400
C  33.37500 1.82200 25.18300
C  33.36500 2.49100 26.59100
C  35.61800 1.90400 23.67100
C  32.54400 0.50800 24.87000
C  32.37600 -0.56100 25.96000
N  33.07200 3.32900 29.32700
C  32.05100 3.27200 28.48000
C  30.85800 3.75800 29.01600
C  31.24100 4.02300 30.37400
C  32.57800 3.75100 30.50400
C  29.52600 3.68500 28.40300
C  30.69600 4.54900 31.66900
O  29.64000 5.02700 31.95600
C  31.87300 4.23300 32.69200
C  32.04700 5.40600 33.52900
O  32.38700 6.54500 33.11400
O  31.67800 5.13800 34.85700
C  31.50900 6.30600 35.75000
H  38.76300 3.27200 31.70700
H  37.47100 1.41600 25.72400
H  31.30600 2.90400 26.55500
H  34.78500 4.56300 34.03900
H  37.04100 2.92900 33.78000
H  37.86200 4.98000 34.55900
H  36.48300 5.83100 34.00600
H  37.84900 5.52200 32.80300
H  35.30100 1.73200 34.45000
H  33.60600 2.15000 34.09500
H  34.35400 2.03900 36.57500
H  33.33400 3.31600 35.95800
H  41.00500 2.18100 30.58000
H  40.65600 3.89100 30.48700
H  41.44400 2.97600 29.13600
H  42.08100 2.36500 26.90300
H  41.89600 0.76600 26.14100
H  41.54700 0.87800 27.87600
H  35.03400 0.43800 25.17900
H  33.14700 2.53900 24.39400
H  36.18000 2.82100 23.84300
H  34.78900 1.97800 22.96800
H  36.25300 1.16300 23.18500
H  32.97600 -0.00600 24.01200
H  31.53100 0.82300 24.62000
H  32.92000 -1.48500 25.76500
H  31.30600 -0.71200 26.10900
H  32.83900 -0.26600 26.90100
H  28.81500 4.21600 29.03600
H  29.17400 2.66500 28.25000
H  29.49000 4.22900 27.46000
H  31.58000 3.45600 33.39900
H  30.48700 6.64600 35.92100
H  31.99700 7.24900 35.50100
H  31.89200 6.02000 36.72900
Mg 37.02600 50.16700 25.17600
C  37.32400 47.96000 27.88900
C  35.40000 52.35100 27.22300
C  36.58700 52.13900 22.54100
C  38.18700 47.58300 23.10600
N  36.19900 50.12500 27.34600
C  36.66900 49.19100 28.23800
C  36.37800 49.74700 29.70100
C  35.53500 51.05100 29.39400
C  35.67800 51.16100 27.91000
C  34.04900 51.03300 29.94400
C  37.68300 50.03800 30.48900
C  37.69100 49.54700 31.91800
H  36.25300 49.56400 32.76300
N  36.26500 52.11100 24.92900
C  35.62200 52.81600 25.87000
C  35.20400 54.06700 25.36800
C  35.52100 54.04900 23.95400
C  36.17000 52.74500 23.70200
C  34.63500 55.21600 26.21200
C  35.32300 55.09600 22.90300
O  35.72700 55.00100 21.76100
C  34.48200 56.33000 23.19200
N  37.28600 49.87600 23.11900
C  37.12600 50.88800 22.18600
C  37.48100 50.42100 20.72200
C  37.90400 48.93800 20.96600
C  37.78200 48.75900 22.47800
C  36.30000 50.51200 19.72500
C  39.32400 48.57700 20.41400
C  40.49500 49.20200 21.19400
N  37.60000 48.21300 25.38000
C  38.07100 47.29400 24.45100
C  38.38700 46.04600 25.08400
C  38.11100 46.25300 26.44300
C  37.64500 47.57600 26.55500
C  38.95200 44.82400 24.38600
C  38.11800 45.62400 27.74000
O  38.49800 44.51200 28.06400
C  37.69900 46.72300 28.75700
C  36.53000 46.28000 29.51600
O  35.46600 45.96200 29.02600
O  36.86500 46.36900 30.85100
C  35.81000 45.87300 31.79200
H  34.93300 53.07700 27.89300
H  36.46900 52.75900 21.65000
H  38.52000 46.74900 22.48500
H  35.76100 48.99900 30.20100
H  36.04000 51.89700 29.86100
H  33.84800 51.98100 30.44400
H  33.88100 50.21000 30.63800
H  33.36600 51.12500 29.09900
H  38.03900 51.06200 30.38000
H  38.48100 49.54600 29.93200
H  38.39000 50.16200 32.48400
H  38.12800 48.55000 31.98300
H  35.12600 56.16600 26.42300
H  34.29900 54.86900 27.18900
H  33.66700 55.50800 25.80600
H  33.51600 56.06900 23.62400
H  34.33500 56.87800 22.26100
H  34.87400 57.03100 23.93000
H  38.37900 50.93500 20.37800
H  37.21700 48.26300 20.45500
H  36.27900 51.56700 19.45200
H  35.37700 50.35800 20.28300
H  36.23600 49.73100 18.96700
H  39.35800 49.02700 19.42200
H  39.43300 47.49400 20.47300
H  40.92300 48.35300 21.72700
H  40.11500 49.78700 22.03100
H  41.16200 49.83500 20.60900
H  39.90600 45.06500 23.91900
H  38.31500 44.42500 23.59700
H  39.05200 43.97800 25.06600
H  38.50900 46.99600 29.43300
H  35.61900 44.84400 31.48700
H  34.90300 46.47100 31.69400
H  36.22200 45.76500 32.79500

