158

Mg 46.83500 17.48900 28.64000
C  45.31500 16.93100 31.74800
C  49.26200 19.40600 30.02800
C  48.02800 17.87700 25.54600
C  44.28000 15.45000 27.20300
N  47.13400 18.11500 30.63000
C  46.45800 17.73700 31.76600
C  47.23400 18.30900 32.99300
C  48.36100 19.25500 32.36500
C  48.24800 18.93400 30.91000
C  48.17900 20.78700 32.70700
C  47.87500 17.16500 33.90000
C  47.67000 17.20800 35.44000
H  47.12700 18.54600 36.00300
N  48.46200 18.60700 27.86300
C  49.35500 19.30100 28.60700
C  50.41000 19.75100 27.71700
C  50.04800 19.33200 26.35800
C  48.81700 18.54000 26.54000
C  51.62600 20.60400 28.23400
C  50.63800 19.60900 25.04900
O  50.22800 19.10100 24.04900
C  51.86500 20.42100 25.05300
N  46.19700 16.77000 26.69500
C  46.81600 17.17600 25.59500
C  45.99900 16.82500 24.33200
C  45.05200 15.74400 24.86000
C  45.20700 15.95900 26.32100
C  45.27600 17.98500 23.59300
C  45.35000 14.31600 24.30200
C  44.16000 13.67000 23.56700
N  45.06200 16.48500 29.29400
C  44.15800 15.75500 28.60000
C  43.15300 15.23200 29.50400
C  43.58000 15.66900 30.86500
C  44.76100 16.38000 30.62600
C  41.92800 14.47800 29.04100
C  43.21600 15.71700 32.22100
O  42.21200 15.37800 32.80100
C  44.40000 16.59000 32.88400
C  43.78900 17.79300 33.55100
O  43.64900 18.92100 33.04000
O  43.35700 17.46500 34.79100
C  42.58700 18.58000 35.44300
H  50.04900 20.03800 30.44400
H  48.30700 18.09400 24.51300
H  43.42900 14.94000 26.74600
H  46.52100 18.85100 33.61400
H  49.31600 18.98300 32.81300
H  47.14000 20.97700 32.97400
H  48.59400 21.39700 31.90500
H  48.79000 20.96000 33.59300
H  48.95400 17.15600 33.74100
H  47.51200 16.20700 33.52600
H  48.57400 16.80200 35.89500
H  46.94000 16.43100 35.66500
H  52.59900 20.48200 27.75900
H  51.81600 20.38400 29.28500
H  51.29500 21.63900 28.15100
H  52.21100 20.66300 24.04700
H  52.66600 19.82600 25.49300
H  51.67800 21.33100 25.62100
H  46.73700 16.38300 23.66200
H  44.00400 16.01600 24.73300
H  45.17600 18.83700 24.26500
H  44.36900 17.58700 23.14000
H  45.83300 18.39100 22.74900
H  45.57500 13.63700 25.12500
H  46.20500 14.26700 23.62700
H  44.59400 13.47300 22.58600
H  43.26800 14.29600 23.52200
H  44.00900 12.65800 23.94100
H  42.19400 13.42400 28.96000
H  41.45800 14.89900 28.15200
H  41.21600 14.57400 29.86000
H  44.83500 15.87400 33.58100
H  41.56300 18.24300 35.28200
H  42.59100 19.58000 35.00900
H  42.93200 18.68500 36.47200
Mg 10.66600 46.55800 25.64700
C  8.64400 46.68500 28.47200
C  13.24000 47.76400 27.48700
C  12.54400 46.14600 22.90500
C  7.75700 46.11700 23.68300
N  10.86800 47.18000 27.70500
C  9.97400 47.06200 28.74100
C  10.52900 47.65900 30.03500
C  11.82600 48.40100 29.54000
C  11.99300 47.74900 28.19300
C  11.62700 49.94300 29.45300
C  10.81600 46.47000 31.05700
C  10.35200 46.59000 32.57800
H  10.44100 45.36900 33.40800
N  12.63800 46.73400 25.24900
C  13.53400 47.21200 26.17900
C  14.88500 47.15800 25.59800
C  14.73300 46.60400 24.27200
C  13.26400 46.41300 24.08200
C  16.14700 47.54800 26.30900
C  15.75400 46.29400 23.22000
O  15.47800 45.88100 22.13600
C  17.22000 46.56100 23.57100
N  10.20800 46.21400 23.57400
C  11.16800 46.09500 22.66600
C  10.62000 45.91000 21.24500
C  9.09000 45.63500 21.57800
C  8.99900 46.07800 22.99200
C  10.90300 47.17400 20.40500
C  8.75300 44.11800 21.29300
C  9.13800 43.06900 22.41600
N  8.68300 46.30300 25.95900
C  7.61400 46.19600 25.06700
C  6.36600 46.19900 25.81800
C  6.71200 46.29900 27.13300
C  8.15100 46.44400 27.20700
C  5.00500 45.98600 25.23700
C  6.13400 46.40500 28.46100
O  4.95700 46.45200 28.79900
C  7.37800 46.84600 29.34100
C  7.28800 45.95800 30.58200
O  7.79100 44.83800 30.67500
O  6.42800 46.56100 31.45800
C  5.99600 45.77800 32.64800
H  14.07700 48.18800 28.04500
H  12.94000 45.81200 21.94400
H  6.91900 46.03000 22.98900
H  9.78800 48.14000 30.67300
H  12.61800 48.18900 30.25800
H  12.27500 50.47000 30.15300
H  10.65400 50.11800 29.91300
H  11.43800 50.31900 28.44700
H  11.89400 46.33200 30.97700
H  10.33200 45.58500 30.64300
H  9.31800 46.91300 32.69900
H  10.91800 47.41600 33.00900
H  16.03800 47.71600 27.38100
H  16.41100 48.47500 25.80000
H  16.88200 46.76000 26.14500
H  17.56500 45.97000 24.42000
H  17.56300 47.59100 23.67300
H  17.81900 46.17000 22.74900
H  11.04000 44.99400 20.82800
H  8.42100 46.22600 20.95200
H  11.65900 47.77300 20.91300
H  9.96300 47.68500 20.20000
H  11.45800 46.78800 19.54900
H  9.41400 43.84500 20.47000
H  7.75600 44.02500 20.86200
H  9.58400 43.51600 23.30500
H  9.92500 42.39100 22.08800
H  8.25400 42.48800 22.68000
H  4.50700 45.08000 25.58400
H  4.87300 46.11900 24.16400
H  4.37100 46.80100 25.58400
H  7.21300 47.89400 29.59200
H  5.15400 45.09700 32.52200
H  5.72200 46.55000 33.36700
H  6.85400 45.41100 33.21000

