158

Mg 25.80900 1.13700 28.79900
C  27.84900 1.10900 31.70200
C  23.16100 1.51300 30.68500
C  24.05400 1.08700 26.02700
C  28.72300 0.35500 26.96200
N  25.56500 1.29100 30.97800
C  26.47200 1.29500 31.92900
C  25.85000 1.57200 33.31600
C  24.33100 1.51800 33.02500
C  24.33900 1.42800 31.48200
C  23.58900 0.29100 33.64900
C  26.15900 2.92500 34.05500
C  26.95400 2.79700 35.35400
H  26.58800 3.85500 36.42600
N  23.85600 1.26000 28.43800
C  22.87500 1.48800 29.33100
C  21.65100 1.65300 28.55700
C  21.92200 1.55100 27.16900
C  23.35300 1.29600 27.17200
C  20.33800 1.82400 29.23500
C  21.01700 1.66100 26.04000
O  21.38300 1.51300 24.85700
C  19.52300 2.03000 26.25300
N  26.38100 0.66200 26.79500
C  25.43600 0.86600 25.80000
C  26.04300 0.79400 24.39500
C  27.62700 0.60500 24.67100
C  27.60600 0.57500 26.25400
C  25.32900 -0.25300 23.54700
C  28.58300 1.76000 24.12500
C  29.49400 1.42700 22.89500
N  27.79500 0.67400 29.22600
C  28.84500 0.39300 28.34300
C  30.12300 0.27100 29.15300
C  29.73500 0.51600 30.44800
C  28.32500 0.76300 30.42900
C  31.44800 -0.04700 28.52800
C  30.33600 0.75700 31.77900
O  31.47500 0.69500 32.20000
C  29.09900 1.18900 32.65700
C  29.05400 0.26500 33.82600
O  28.50700 -0.84000 33.81500
O  29.68100 0.90100 34.87800
C  29.77300 0.21100 36.12800
H  22.33700 1.83700 31.32400
H  23.56500 1.32600 25.08000
H  29.53100 0.06100 26.29000
H  26.03500 0.72000 33.97100
H  23.85400 2.44000 33.35800
H  22.72000 0.74400 34.12500
H  24.16600 -0.27900 34.37800
H  23.17600 -0.40600 32.92000
H  25.26400 3.46400 34.36400
H  26.79600 3.45500 33.34600
H  28.01600 2.88500 35.12500
H  26.75500 1.84700 35.84900
H  19.87100 2.79200 29.05700
H  20.50700 1.76900 30.31100
H  19.56000 1.09500 29.00900
H  19.46900 2.88200 26.92900
H  19.08300 1.09800 26.60800
H  18.92800 2.24700 25.36600
H  25.86600 1.77400 23.95100
H  28.07400 -0.26700 24.19500
H  24.51400 -0.71600 24.10300
H  26.02400 -1.04700 23.27700
H  24.94500 0.10100 22.59000
H  29.31700 2.11000 24.85000
H  27.89400 2.57500 23.90700
H  29.26500 2.18000 22.14200
H  29.32000 0.39600 22.58500
H  30.54800 1.52200 23.15500
H  31.40500 -0.01900 27.43900
H  31.70400 -1.03300 28.91600
H  32.11100 0.73600 28.89700
H  29.21200 2.23800 32.93100
H  28.86700 0.48100 36.67100
H  30.68400 0.52600 36.63500
H  29.84700 -0.87500 36.07800
Mg 26.82200 50.22500 26.32000
C  24.92600 51.38600 28.91800
C  29.47000 49.76500 28.50200
C  28.80400 49.31800 23.71400
C  24.42600 51.37600 24.02200
N  27.17000 50.55400 28.48700
C  26.22500 50.99000 29.37800
C  26.78600 51.04800 30.81000
C  28.28700 50.50900 30.61900
C  28.33000 50.29700 29.14500
C  29.43300 51.38400 31.25900
C  25.89600 50.39700 31.84000
C  26.51400 49.84200 33.17200
H  26.11800 50.41300 34.51700
N  28.88700 49.67200 26.14200
C  29.77000 49.40400 27.13000
C  30.96800 48.80900 26.63700
C  30.81500 48.61500 25.28800
C  29.47400 49.19700 24.99800
C  32.18700 48.50300 27.52100
C  31.78400 48.01500 24.32700
O  31.50900 47.84200 23.17600
C  33.15200 47.43900 24.81900
N  26.68000 50.42300 24.25900
C  27.54300 49.83700 23.37700
C  26.97100 49.73400 21.92500
C  25.50300 50.23400 22.14200
C  25.57400 50.80900 23.54200
C  27.87300 50.62000 20.91700
C  24.33200 49.20400 21.92200
C  24.04900 47.99500 22.88200
N  24.98100 51.08900 26.41500
C  24.15500 51.56800 25.38200
C  23.01900 52.17800 26.03300
C  23.33600 52.11300 27.45900
C  24.48300 51.42600 27.59700
C  21.79200 52.59700 25.33700
C  22.80800 52.44100 28.81600
O  21.81800 53.03300 29.19900
C  23.85600 51.93500 29.80300
C  24.16100 53.17100 30.66300
O  25.03400 53.97200 30.37500
O  23.51500 53.11900 31.90000
C  24.00000 54.04400 32.91700
H  30.20100 49.43500 29.24300
H  29.31300 48.94500 22.82300
H  23.59800 51.67100 23.37400
H  26.75300 52.11400 31.03500
H  28.32100 49.52300 31.08200
H  30.25900 51.49400 30.55700
H  29.80300 50.92000 32.17300
H  29.14000 52.42100 31.42400
H  25.25800 49.63900 31.38500
H  25.21900 51.17400 32.19500
H  27.60400 49.85100 33.16800
H  26.35500 48.77900 33.35300
H  33.04200 49.06000 27.14000
H  32.34800 47.42500 27.53500
H  31.98900 48.77700 28.55800
H  33.83200 48.23000 25.13300
H  33.60600 46.92500 23.97200
H  33.12800 46.77100 25.68000
H  27.06800 48.65800 21.78300
H  25.29800 51.07000 21.47200
H  28.54100 49.84700 20.53800
H  28.47400 51.36000 21.44600
H  27.35000 51.13700 20.11300
H  24.48800 48.60900 21.02200
H  23.36500 49.65400 21.69600
H  24.81800 48.03900 23.65300
H  24.17600 47.07100 22.31600
H  23.09600 47.97400 23.40900
H  22.01100 53.43300 24.67400
H  21.14800 53.06000 26.08600
H  21.23400 51.82700 24.80400
H  23.43300 51.24700 30.53600
H  24.38400 54.97000 32.48900
H  24.71100 53.49100 33.53000
H  23.25900 54.31000 33.67000

