158

Mg 25.81700 1.26400 29.21100
C  27.75700 0.76300 32.10400
C  23.07200 1.82500 31.18200
C  23.82500 1.10800 26.38400
C  28.59800 0.40300 27.37300
N  25.37400 1.09200 31.41800
C  26.37200 1.06200 32.35300
C  25.70300 1.36800 33.79200
C  24.20700 1.67100 33.52100
C  24.25000 1.57700 31.91900
C  23.20900 0.72000 34.09900
C  26.44600 2.45700 34.59300
C  26.87400 2.17800 36.05400
H  26.58500 3.26000 37.10200
N  23.74700 1.57300 28.78800
C  22.80600 1.75900 29.76600
C  21.49200 1.99700 29.09900
C  21.73600 1.80600 27.69100
C  23.14800 1.48400 27.56300
C  20.18600 2.24500 29.76900
C  20.76500 1.99600 26.54800
O  21.09500 1.95000 25.34700
C  19.37900 2.26100 26.81200
N  26.18300 0.76000 27.16800
C  25.17700 0.74400 26.23800
C  25.73400 0.50400 24.85700
C  27.30900 0.55400 25.07600
C  27.43700 0.61400 26.62800
C  25.11700 -0.67900 24.09000
C  27.99700 1.75200 24.28500
C  28.67200 1.46600 22.97400
N  27.76600 0.63200 29.61900
C  28.84100 0.36300 28.73300
C  29.97900 0.05000 29.53500
C  29.60300 0.20100 30.89200
C  28.24400 0.55400 30.85500
C  31.28200 -0.18500 28.92900
C  30.05700 0.13700 32.24200
O  31.07100 -0.26900 32.75600
C  28.87600 0.58100 33.13500
C  28.61900 -0.40700 34.23500
O  27.96700 -1.40200 34.15700
O  29.30100 0.00100 35.38900
C  28.98900 -0.74200 36.56400
H  22.20900 2.16600 31.75800
H  23.30900 1.31100 25.44300
H  29.44200 0.20800 26.70800
H  25.82400 0.40700 34.29200
H  23.92900 2.72100 33.61100
H  22.33000 1.35600 34.20100
H  23.53500 0.23200 35.01700
H  22.83200 -0.06100 33.43900
H  25.94100 3.42000 34.66900
H  27.37500 2.65000 34.05700
H  27.92700 1.91500 36.14800
H  26.32100 1.27600 36.31700
H  19.90300 3.26000 29.49000
H  20.38500 2.25100 30.84100
H  19.34500 1.60400 29.50600
H  18.85800 1.38700 27.20300
H  18.94000 2.52700 25.85100
H  19.11400 3.11700 27.43200
H  25.40700 1.40800 24.34300
H  27.81200 -0.36100 24.76100
H  25.85500 -1.45200 23.87000
H  24.79200 -0.43500 23.07900
H  24.27100 -1.23500 24.49400
H  28.79200 2.06500 24.96200
H  27.33700 2.59700 24.08800
H  28.41700 0.50100 22.53400
H  29.73100 1.62800 23.17700
H  28.26800 2.15100 22.22900
H  31.50300 0.39300 28.03100
H  31.40000 -1.22700 28.63000
H  32.03500 0.07200 29.67300
H  29.21100 1.49500 33.62600
H  29.54000 -0.30800 37.39800
H  29.16400 -1.81600 36.49400
H  27.94900 -0.68800 36.88700
Mg 26.41100 50.38400 26.41600
C  24.15400 51.70300 28.91400
C  28.40200 49.44500 29.01100
C  28.43500 49.48900 24.12100
C  24.21200 51.80700 24.02600
N  26.36800 50.79900 28.63600
C  25.36300 51.16800 29.43200
C  25.61900 50.89200 30.93400
C  26.99100 50.12400 30.96400
C  27.28400 50.04800 29.42000
C  28.19300 50.69200 31.67500
C  24.53000 50.01000 31.67900
C  24.37300 50.45300 33.14800
H  23.70800 49.44700 34.11600
N  28.23500 49.58800 26.52400
C  28.90800 49.22100 27.65500
C  30.10100 48.43500 27.29800
C  30.18000 48.53800 25.82800
C  28.99700 49.26400 25.41800
C  31.09400 47.84100 28.29000
C  31.25200 48.09000 24.82900
O  31.19900 48.32200 23.60900
C  32.43700 47.21000 25.30800
N  26.37200 50.60000 24.37900
C  27.31800 50.08800 23.58100
C  26.92300 50.06300 22.11900
C  25.47600 50.68400 22.09600
C  25.32600 51.10700 23.60400
C  27.94600 50.72200 21.18000
C  24.30800 49.71500 21.55600
C  24.31200 48.26900 21.93200
N  24.56200 51.56700 26.43700
C  23.80600 52.06600 25.40100
C  22.61500 52.71700 25.87100
C  22.66500 52.60100 27.26500
C  23.85700 51.89400 27.55600
C  21.58300 53.38700 24.94900
C  22.04800 52.86200 28.45900
O  20.94400 53.34600 28.62100
C  22.96100 52.29300 29.63900
C  23.37100 53.44200 30.60900
O  24.45700 53.99800 30.54900
O  22.37600 53.71700 31.50800
C  22.85200 54.58700 32.60100
H  29.06200 48.97400 29.74200
H  29.02400 49.00200 23.34100
H  23.59700 52.19200 23.20900
H  25.64800 51.87900 31.39600
H  26.80900 49.10400 31.30000
H  28.67400 51.36300 30.96400
H  28.92500 49.97000 32.03500
H  27.85700 51.22400 32.56600
H  24.83300 48.96400 31.72200
H  23.58200 50.07700 31.14400
H  23.71100 51.31700 33.07900
H  25.29200 50.87700 33.55400
H  31.00400 48.29000 29.27900
H  32.13500 48.01500 28.01800
H  30.96700 46.76100 28.35300
H  32.05100 46.33400 25.82800
H  33.14300 47.80600 25.88600
H  32.99400 46.89300 24.42600
H  26.96700 48.98800 21.94400
H  25.49000 51.64400 21.57900
H  28.86300 51.08400 21.64400
H  27.64700 51.57600 20.57200
H  28.33100 49.90200 20.57300
H  24.33800 49.77500 20.46800
H  23.45500 50.25400 21.96700
H  23.40800 48.03700 22.49600
H  25.19200 47.91000 22.46600
H  24.29300 47.71800 20.99100
H  20.83300 52.61400 24.78400
H  21.95400 53.58200 23.94300
H  21.17200 54.32400 25.32600
H  22.46800 51.55500 30.27300
H  23.34400 55.47100 32.19500
H  23.50000 53.99100 33.24400
H  22.15200 55.02700 33.31200

