158

Mg 24.23700 -7.30400 47.04100
C  26.77300 -5.20900 46.11000
C  22.04400 -5.57300 44.93800
C  22.00300 -9.79000 47.41900
C  26.64400 -9.28600 48.76700
N  24.41800 -5.52100 45.63200
C  25.57700 -4.89000 45.38100
C  25.36000 -3.74400 44.34300
C  23.82200 -3.73100 44.18900
C  23.38000 -5.02200 44.97400
C  23.06300 -2.41700 44.67300
C  26.22300 -3.98200 43.13200
C  26.71700 -2.60900 42.54900
H  25.89400 -2.00900 41.42100
N  22.25600 -7.58600 46.41200
C  21.59600 -6.76300 45.53300
C  20.24800 -7.26000 45.46000
C  20.13700 -8.44000 46.30800
C  21.49100 -8.64700 46.77000
C  19.16400 -6.51400 44.62700
C  18.87800 -9.16600 46.62600
O  17.74400 -8.77300 46.21700
C  18.87600 -10.38100 47.58400
N  24.30800 -9.27300 48.08400
C  23.21300 -10.02900 48.14300
C  23.50700 -11.27000 48.98300
C  24.93000 -11.08000 49.45200
C  25.34200 -9.82000 48.72400
C  22.44000 -11.70400 50.13500
C  25.87800 -12.21000 49.12700
C  26.32500 -13.01600 50.30800
N  26.32200 -7.26700 47.40800
C  27.15400 -8.08600 48.13400
C  28.50100 -7.55800 48.11600
C  28.41400 -6.35800 47.37300
C  27.06200 -6.31400 46.97800
C  29.72200 -8.18200 48.67700
C  29.07400 -5.22500 46.82300
O  30.18800 -4.76900 47.00300
C  28.04200 -4.51200 45.93900
C  28.08800 -3.02800 46.24600
O  27.73800 -2.53400 47.34300
O  28.64000 -2.37600 45.19200
C  28.82300 -0.91500 45.50900
H  21.30300 -4.98200 44.39600
H  21.36900 -10.65500 47.62700
H  27.39100 -9.82100 49.35800
H  25.68700 -2.84200 44.86000
H  23.66600 -3.86100 43.11800
H  23.76900 -1.87400 45.30300
H  22.20600 -2.64200 45.30800
H  22.79500 -1.86900 43.77000
H  25.72500 -4.43400 42.27400
H  27.05100 -4.65200 43.36300
H  27.76800 -2.70300 42.27500
H  26.65100 -1.90900 43.38200
H  18.30300 -7.15200 44.42700
H  19.52800 -6.10200 43.68500
H  18.93000 -5.68500 45.29500
H  17.83100 -10.68600 47.63700
H  19.19100 -10.18700 48.61000
H  19.44600 -11.22200 47.19000
H  23.46600 -12.05300 48.22500
H  25.11000 -10.92000 50.51500
H  22.64300 -11.12300 51.03500
H  22.77100 -12.73300 50.27400
H  21.41500 -11.62400 49.77200
H  26.79500 -11.87100 48.64300
H  25.34300 -12.88300 48.45700
H  27.19700 -12.58700 50.80000
H  26.56800 -14.01400 49.94300
H  25.58900 -13.09800 51.10800
H  29.87200 -9.18500 48.27700
H  29.64500 -8.26900 49.76100
H  30.58700 -7.57900 48.39800
H  28.38800 -4.67600 44.91900
H  27.92900 -0.30300 45.40000
H  29.46000 -0.42900 44.77000
H  29.17800 -0.73800 46.52500
Mg 17.67000 -1.49400 28.15200
C  16.29200 0.52700 30.66200
C  19.38800 -3.12700 30.65300
C  19.32700 -3.29900 25.86000
C  15.97300 0.20500 25.74200
N  17.76500 -1.18000 30.43200
C  17.13300 -0.37500 31.25900
C  17.48500 -0.62000 32.77500
C  18.63400 -1.66700 32.68400
C  18.65200 -2.01400 31.18100
C  20.09200 -1.18100 33.07600
C  16.14500 -0.92500 33.51500
C  16.09100 -0.30700 34.93100
H  17.03400 -0.83600 35.99100
N  19.06600 -3.02100 28.27800
C  19.62900 -3.57300 29.38200
C  20.43900 -4.73100 28.97400
C  20.55300 -4.71000 27.53000
C  19.64000 -3.65900 27.15800
C  21.11400 -5.63000 29.99800
C  21.24600 -5.67900 26.63200
O  21.24500 -5.71800 25.39400
C  22.05800 -6.87500 27.21100
N  17.74300 -1.39500 26.07200
C  18.47800 -2.31900 25.39600
C  18.17600 -2.14900 23.85000
C  17.12400 -1.01000 23.75400
C  16.93000 -0.71600 25.26200
C  19.46200 -1.86000 23.06000
C  15.69400 -1.43900 23.08200
C  14.93000 -0.40700 22.15600
N  16.52800 0.10700 28.08300
C  15.84200 0.73200 27.06100
C  15.04700 1.80500 27.59200
C  15.19900 1.71200 28.93300
C  16.09200 0.67200 29.24900
C  14.00100 2.63600 26.87400
C  14.74500 2.38200 30.20500
O  13.93400 3.26400 30.47600
C  15.56500 1.70800 31.31500
C  16.55100 2.72600 31.87100
O  17.53600 3.08800 31.23200
O  16.22800 3.10600 33.14300
C  17.18400 3.95200 33.86300
H  19.88600 -3.63600 31.48100
H  19.91200 -3.82100 25.10000
H  15.34000 0.77600 25.06000
H  17.93700 0.28700 33.17800
H  18.37600 -2.57300 33.23200
H  20.67000 -2.06300 33.35200
H  20.14100 -0.46300 33.89400
H  20.54500 -0.68500 32.21800
H  16.23800 -2.00200 33.65000
H  15.23700 -0.61600 32.99800
H  15.12600 -0.63900 35.31400
H  16.05300 0.77700 34.82500
H  22.11800 -5.70400 29.58100
H  20.54500 -6.55800 30.06500
H  21.32500 -5.26700 31.00300
H  21.36100 -7.19700 27.98500
H  23.00500 -6.58600 27.66700
H  22.06600 -7.67300 26.46900
H  17.80400 -3.12100 23.52400
H  17.63200 -0.17200 23.27800
H  20.18100 -1.35000 23.70100
H  19.26600 -1.21500 22.20400
H  19.96700 -2.78600 22.78300
H  15.01100 -1.55300 23.92400
H  15.79300 -2.37500 22.53300
H  14.56500 -0.86800 21.23800
H  15.48000 0.51900 21.99000
H  14.10400 -0.00300 22.74100
H  14.46800 3.48900 26.38200
H  13.16200 2.93600 27.50200
H  13.62500 1.95700 26.11000
H  14.93200 1.37000 32.13600
H  16.84600 3.60800 34.84100
H  16.85900 4.99000 33.79000
H  18.18700 3.86600 33.44600

