158

Mg 35.80300 49.35300 24.09900
C  35.93800 47.62000 27.28200
C  34.49500 51.98100 25.71500
C  35.45900 50.63400 21.15200
C  37.01500 46.26200 22.66600
N  35.29700 49.73000 26.26800
C  35.48200 48.98300 27.37800
C  35.14700 49.74200 28.64200
C  34.54700 51.06700 28.09900
C  34.80400 50.94700 26.54100
C  32.97400 51.23600 28.53800
C  36.31100 49.94500 29.68000
C  36.19500 49.13400 31.05600
H  34.75600 49.10400 31.63900
N  35.25400 51.20900 23.52200
C  34.69000 52.15300 24.32600
C  34.45900 53.35400 23.56700
C  34.74500 52.96100 22.23000
C  35.16800 51.53200 22.24800
C  34.10400 54.66200 24.13800
C  34.80300 53.79800 21.01600
O  35.08600 53.37500 19.87200
C  34.59100 55.28600 21.15300
N  36.07300 48.50900 22.25200
C  35.88800 49.29900 21.16400
C  36.28100 48.56100 19.90100
C  37.28100 47.55900 20.53800
C  36.69500 47.34700 21.85300
C  35.08100 48.00600 19.11100
C  38.64200 48.26600 20.84000
C  39.81500 47.38800 20.41100
N  36.32600 47.29800 24.78000
C  36.86000 46.27100 24.04400
C  37.17900 45.23000 24.94900
C  36.84500 45.70500 26.23000
C  36.25200 46.95600 26.05400
C  37.72500 43.86300 24.54800
C  36.95400 45.43900 27.64300
O  37.37700 44.40200 28.12300
C  36.27800 46.64500 28.43500
C  35.12800 46.27200 29.32400
O  33.96300 46.48000 29.08200
O  35.58500 45.66200 30.39100
C  34.60900 44.97900 31.27100
H  34.07400 52.84100 26.24100
H  35.28600 50.97400 20.12900
H  37.44700 45.35300 22.24300
H  34.33700 49.13800 29.05100
H  35.12600 51.92300 28.44300
H  32.85900 52.04300 29.26100
H  32.65400 50.30900 29.01300
H  32.20500 51.52500 27.82100
H  36.44600 50.99100 29.95500
H  37.22000 49.54100 29.23400
H  36.80300 49.72700 31.73900
H  36.70500 48.19300 30.85000
H  34.99700 55.07200 24.61000
H  33.39700 54.48400 24.94900
H  33.60700 55.24900 23.36600
H  34.79900 55.74000 20.18400
H  35.25800 55.68600 21.91700
H  33.54300 55.45800 21.39600
H  36.77800 49.13600 19.12000
H  37.37500 46.59200 20.04400
H  34.10800 48.27300 19.52400
H  35.12400 46.91700 19.11700
H  35.04000 48.30100 18.06300
H  38.89600 48.30000 21.89900
H  38.82600 49.24500 20.39700
H  39.64900 46.78000 19.52100
H  39.96800 46.59800 21.14600
H  40.70700 47.99400 20.25300
H  38.52400 44.06300 23.83300
H  36.92100 43.29500 24.08100
H  38.03800 43.14000 25.30000
H  37.11300 47.05200 29.00600
H  34.23200 45.46800 32.16900
H  34.99100 44.04000 31.67100
H  33.70200 44.71100 30.72900
Mg -4.24400 25.45300 26.31800
C  -3.01900 26.29600 29.35800
C  -6.46400 23.14200 27.93800
C  -5.03500 23.92400 23.34400
C  -1.90900 27.46000 24.82400
N  -4.58800 24.77700 28.45300
C  -3.98100 25.32500 29.48800
C  -4.51900 24.68900 30.83400
C  -5.44300 23.53800 30.25900
C  -5.52400 23.81200 28.76900
C  -4.87800 22.14900 30.68100
C  -5.34700 25.82900 31.57200
C  -5.37200 25.90700 33.10800
H  -4.64600 24.76300 33.83300
N  -5.67700 23.87300 25.75100
C  -6.55400 23.16100 26.52400
C  -7.39300 22.30800 25.67700
C  -6.94800 22.42300 24.34400
C  -5.82500 23.38500 24.44400
C  -8.37700 21.39900 26.34900
C  -7.33600 21.69100 23.10600
O  -6.75400 21.90100 21.99500
C  -8.38000 20.60300 23.18800
N  -3.70000 25.71300 24.40100
C  -4.10600 24.96600 23.31000
C  -3.37500 25.33700 22.05500
C  -2.61100 26.71700 22.54100
C  -2.68900 26.59400 24.02400
C  -2.52800 24.19400 21.43200
C  -3.10700 28.12000 21.97800
C  -1.98400 29.28300 21.69000
N  -2.72200 26.66500 26.85600
C  -1.90800 27.44200 26.20100
C  -1.07600 28.23000 27.11000
C  -1.48300 27.82300 28.33900
C  -2.49500 26.92500 28.18500
C  0.02200 29.19900 26.85600
C  -1.21900 27.98300 29.73000
O  -0.39300 28.64000 30.38700
C  -2.21600 26.99200 30.46300
C  -1.35100 26.19600 31.35900
O  -0.87300 25.13500 30.99500
O  -1.12700 26.77800 32.55900
C  -0.33300 25.83600 33.43100
H  -7.05200 22.37800 28.45100
H  -5.15000 23.69700 22.28200
H  -1.21000 28.20300 24.43400
H  -3.69200 24.28600 31.42000
H  -6.42700 23.73800 30.68400
H  -3.96600 22.13300 31.27800
H  -4.83500 21.58900 29.74700
H  -5.65500 21.72300 31.31500
H  -6.37600 25.76200 31.21900
H  -5.11800 26.83300 31.21700
H  -6.44400 25.95200 33.29700
H  -4.90200 26.86800 33.31800
H  -9.21100 21.38600 25.64800
H  -8.73300 21.66600 27.34400
H  -7.78300 20.49800 26.50200
H  -9.31600 20.92100 23.64800
H  -8.01700 19.74300 23.75100
H  -8.52100 20.18100 22.19300
H  -4.16800 25.37400 21.30800
H  -1.55400 26.55500 22.33200
H  -1.56400 24.68800 21.31900
H  -3.00300 24.00500 20.46900
H  -2.47500 23.23400 21.94600
H  -3.78500 28.54600 22.71800
H  -3.58300 27.85400 21.03300
H  -0.99300 28.84200 21.79800
H  -2.24700 30.07800 22.38800
H  -2.06500 29.77000 20.71800
H  -0.18400 29.68200 25.90000
H  0.96100 28.64600 26.84900
H  0.01100 29.86700 27.71700
H  -2.85300 27.58600 31.11900
H  0.63700 25.64000 32.97300
H  -0.96600 24.95500 33.53900
H  -0.09200 26.26800 34.40200

