158

Mg -2.45100 17.20600 25.66100
C  -3.00500 15.01600 28.30000
C  -2.58300 19.81700 27.69200
C  -2.57100 19.18200 22.90400
C  -3.06600 14.51000 23.48800
N  -2.76100 17.34200 27.81400
C  -2.78700 16.34400 28.73900
C  -2.80100 16.89800 30.15900
C  -2.93300 18.42400 29.87600
C  -2.75900 18.54700 28.33700
C  -4.25400 19.03500 30.33600
C  -1.64800 16.43300 31.07100
C  -1.53400 17.26700 32.32100
H  -1.22700 16.61200 33.69100
N  -2.48800 19.25000 25.33700
C  -2.44000 20.15700 26.32300
C  -2.30600 21.47900 25.77500
C  -2.34500 21.32300 24.46200
C  -2.43700 19.83700 24.18100
C  -2.14500 22.73200 26.70300
C  -2.11600 22.47500 23.40000
O  -2.07900 22.26000 22.22900
C  -2.10200 23.93800 23.85100
N  -2.82200 16.89100 23.45800
C  -2.75300 17.87700 22.51900
C  -2.70900 17.39100 21.04000
C  -2.94800 15.89900 21.31500
C  -2.88600 15.70300 22.84200
C  -3.73200 18.08900 20.02700
C  -1.99900 14.92300 20.49900
C  -2.71100 13.73900 19.85500
N  -2.95200 15.07200 25.79000
C  -3.13400 14.14100 24.83400
C  -3.18700 12.82900 25.46800
C  -3.19600 13.14200 26.80700
C  -3.04300 14.53500 26.95500
C  -3.27600 11.38500 24.75400
C  -3.25400 12.52000 28.08500
O  -3.47000 11.40700 28.36700
C  -3.09700 13.68800 29.06800
C  -1.94500 13.32700 29.96100
O  -0.74300 13.35100 29.63200
O  -2.52100 13.05900 31.20700
C  -1.48900 12.81000 32.25900
H  -2.51000 20.68000 28.35800
H  -2.58900 19.92400 22.10400
H  -3.34400 13.74500 22.76000
H  -3.72900 16.53400 30.60000
H  -2.11500 18.99800 30.31100
H  -4.85300 18.34000 30.92400
H  -4.83400 19.35500 29.47000
H  -4.06900 19.94000 30.91400
H  -0.65800 16.45600 30.61400
H  -1.88600 15.43300 31.43300
H  -2.45500 17.84300 32.41200
H  -0.74600 17.99400 32.12600
H  -3.11300 23.22900 26.63400
H  -1.32800 23.40500 26.44100
H  -1.97400 22.43900 27.73800
H  -2.84800 24.19100 24.60400
H  -2.13200 24.67600 23.04900
H  -1.07800 23.99700 24.22100
H  -1.69500 17.65000 20.73600
H  -3.98800 15.67600 21.07600
H  -3.93000 19.07100 20.45800
H  -4.65400 17.51100 19.96400
H  -3.33000 18.23600 19.02400
H  -1.33800 14.55800 21.28500
H  -1.44700 15.41800 19.69900
H  -2.14700 13.51700 18.94900
H  -3.75900 13.94400 19.63400
H  -2.67600 12.87500 20.51800
H  -2.36000 11.22400 24.18700
H  -4.15500 11.53400 24.12700
H  -3.40200 10.62300 25.52300
H  -4.04700 13.63800 29.59900
H  -0.57200 13.36700 32.06400
H  -1.38900 11.77300 32.58100
H  -1.85600 13.15900 33.22500
Mg 25.87600 2.02000 28.81100
C  27.57100 1.79900 31.93500
C  22.94200 2.37200 30.66100
C  24.22500 1.88200 26.00700
C  28.85700 1.02900 27.13700
N  25.30500 2.02600 31.13300
C  26.21800 2.08700 32.12700
C  25.49800 2.37300 33.48900
C  23.97400 2.50300 33.05400
C  24.01700 2.34300 31.55100
C  22.97200 1.57300 33.74900
C  26.04500 3.60600 34.16600
C  25.36000 4.01500 35.51700
H  26.32600 4.12300 36.67700
N  23.82100 2.16400 28.43100
C  22.76300 2.30300 29.28000
C  21.53000 2.43900 28.51900
C  21.95700 2.22600 27.14200
C  23.37500 2.15500 27.15000
C  20.15500 2.62900 29.19500
C  21.03500 2.21700 25.87500
O  21.40300 2.01000 24.72900
C  19.63400 2.43800 26.09500
N  26.49600 1.38800 26.89900
C  25.59100 1.56400 25.90200
C  26.16500 1.29600 24.52000
C  27.68800 1.30500 24.80800
C  27.72800 1.28900 26.37000
C  25.59600 -0.03100 24.01700
C  28.37300 2.58500 24.17700
C  29.74100 2.46400 23.47000
N  27.91300 1.56900 29.36200
C  28.94300 1.10200 28.59000
C  30.14800 0.94900 29.48500
C  29.70700 1.19400 30.79200
C  28.35100 1.57400 30.64300
C  31.50600 0.65600 29.08200
C  30.04000 1.13800 32.19800
O  31.14000 0.82400 32.69200
C  28.81100 1.63100 32.92000
C  28.44500 0.78500 34.10000
O  27.76800 -0.17400 34.03000
O  28.87700 1.31000 35.32400
C  28.41300 0.67800 36.52800
H  22.10300 2.70800 31.27300
H  23.68400 1.90200 25.05800
H  29.84900 0.92300 26.69300
H  25.60200 1.46800 34.08700
H  23.69700 3.54100 33.24000
H  22.12400 2.09800 34.18800
H  23.47300 1.01700 34.54100
H  22.55600 0.82500 33.07500
H  25.99500 4.37900 33.39900
H  27.10300 3.41500 34.34600
H  24.64000 3.25900 35.83000
H  24.83800 4.96700 35.42500
H  20.25000 2.68100 30.27900
H  19.52600 1.74200 29.11500
H  19.61100 3.47900 28.78100
H  19.10300 1.54400 26.42400
H  19.14000 2.90900 25.24500
H  19.65400 3.29300 26.77100
H  25.74900 1.99800 23.79600
H  28.14200 0.39300 24.42100
H  25.05300 0.15400 23.09100
H  24.95200 -0.34800 24.83800
H  26.44200 -0.71500 23.94900
H  28.56600 3.32600 24.95300
H  27.69400 3.13500 23.52500
H  30.20400 1.47800 23.52100
H  30.46000 3.15100 23.91500
H  29.70900 2.78800 22.42900
H  32.18200 1.28100 29.66700
H  31.59700 0.76200 28.00100
H  31.71600 -0.38600 29.32200
H  29.11800 2.59700 33.32200
H  27.98200 1.49700 37.10300
H  29.33700 0.27500 36.94400
H  27.76600 -0.19700 36.46200

