158

Mg -1.27100 17.32800 25.94800
C  -1.65300 15.19600 28.60400
C  -2.34900 19.95100 27.95300
C  -1.18300 19.45300 23.22700
C  -0.81400 14.43700 23.78800
N  -1.85600 17.59500 28.13100
C  -1.89300 16.52200 29.01000
C  -2.52800 17.03300 30.33400
C  -3.20000 18.35000 29.81600
C  -2.37000 18.72300 28.62000
C  -4.76900 18.34500 29.48000
C  -1.51000 17.27400 31.48000
C  -2.14100 17.14700 32.86400
H  -1.25300 16.41400 33.92000
N  -1.63000 19.32900 25.62800
C  -2.00300 20.24600 26.59500
C  -1.93800 21.58400 26.11100
C  -1.49000 21.47100 24.78900
C  -1.44500 20.03600 24.45300
C  -2.14000 22.82500 26.89900
C  -1.16200 22.56100 23.81000
O  -0.89500 22.41600 22.62800
C  -1.04900 23.99100 24.25300
N  -1.07600 16.97000 23.75500
C  -1.04600 18.04700 22.90400
C  -0.78500 17.48700 21.45800
C  -0.41400 15.96800 21.73300
C  -0.87400 15.71000 23.16100
C  -2.03500 17.71200 20.56800
C  1.04200 15.51600 21.48100
C  2.20400 16.53900 21.78800
N  -1.37300 15.23300 26.09000
C  -1.04700 14.22900 25.17800
C  -1.13100 12.95000 25.95100
C  -1.40300 13.26700 27.25500
C  -1.42500 14.69200 27.30000
C  -1.09800 11.58200 25.40800
C  -1.60800 12.69900 28.52400
O  -1.47700 11.58500 28.85000
C  -1.90500 13.92700 29.44600
C  -1.18600 13.77300 30.76700
O  0.00400 13.89300 30.91400
O  -2.08400 13.42800 31.82000
C  -1.48300 13.01700 33.10600
H  -2.76900 20.74800 28.57100
H  -0.98800 20.02200 22.31600
H  -0.60900 13.50800 23.25100
H  -3.29300 16.31400 30.62700
H  -2.90700 19.18600 30.45100
H  -5.11000 17.41700 29.93800
H  -5.13100 18.53000 28.46800
H  -5.25300 19.22900 29.89600
H  -0.94300 18.19600 31.35300
H  -0.72400 16.53200 31.33800
H  -3.04500 16.55100 32.74100
H  -2.48000 18.10000 33.27100
H  -2.68000 22.50300 27.79000
H  -2.77500 23.57600 26.42900
H  -1.29900 23.49600 27.07700
H  -0.45400 24.09400 25.15900
H  -2.09800 24.23500 24.41900
H  -0.58900 24.64900 23.51600
H  0.00000 18.08400 20.99500
H  -1.07200 15.48700 21.00900
H  -1.78100 17.37800 19.56200
H  -2.33900 18.75900 20.58400
H  -2.82300 17.08500 20.98500
H  1.11300 15.27200 20.42100
H  1.19700 14.52900 21.91700
H  2.71900 16.77100 20.85600
H  2.96300 16.11600 22.44600
H  1.73900 17.46400 22.12900
H  -0.71800 11.04900 26.27900
H  -0.43800 11.54100 24.54100
H  -2.08200 11.23800 25.08800
H  -2.95700 13.95600 29.73000
H  -1.80300 13.60100 33.96900
H  -0.40000 12.89600 33.13000
H  -1.78100 11.97600 33.22800
Mg -4.87700 24.89000 26.59500
C  -3.34800 26.31000 29.38000
C  -6.30500 22.46500 28.60600
C  -6.23900 23.42600 23.88900
C  -3.08200 27.14700 24.58300
N  -4.83000 24.44800 28.72800
C  -4.28200 25.30000 29.63100
C  -4.80600 24.95900 31.06400
C  -5.47500 23.49100 30.91400
C  -5.58700 23.48000 29.31800
C  -4.76900 22.35000 31.73200
C  -5.81600 26.11200 31.48800
C  -6.01000 26.16600 32.99100
H  -5.52200 25.03000 33.88400
N  -6.00600 23.16300 26.28900
C  -6.50300 22.26500 27.26100
C  -7.30100 21.25300 26.59600
C  -7.29100 21.52300 25.22600
C  -6.46700 22.74700 25.05700
C  -8.00800 20.19000 27.41000
C  -8.03400 20.84800 24.01100
O  -7.86500 21.17000 22.86800
C  -8.97900 19.68100 24.32500
N  -4.78000 25.27300 24.56600
C  -5.49900 24.56400 23.66000
C  -5.07000 25.00900 22.26800
C  -4.05700 26.19600 22.44800
C  -3.98100 26.16900 23.97900
C  -4.47000 23.88800 21.27700
C  -4.35300 27.61700 21.86400
C  -3.08800 28.26700 21.10700
N  -3.50300 26.42100 26.94300
C  -2.86300 27.24700 26.01200
C  -2.06800 28.31100 26.70700
C  -2.23200 27.93100 28.10500
C  -3.07700 26.76500 28.08200
C  -1.13200 29.35400 26.09200
C  -1.76100 28.21000 29.48300
O  -1.02200 29.12400 29.88500
C  -2.63800 27.27400 30.35200
C  -1.62900 26.61500 31.26100
O  -0.67900 25.91000 30.95900
O  -1.99700 26.96900 32.56300
C  -1.08500 26.49700 33.59600
H  -6.78400 21.80000 29.32700
H  -6.61200 23.00800 22.95200
H  -2.41000 27.66600 23.89600
H  -3.89000 24.91900 31.65400
H  -6.50100 23.56600 31.27300
H  -5.35100 21.82300 32.48800
H  -3.85500 22.77400 32.14800
H  -4.52700 21.57900 31.00000
H  -6.83500 25.86300 31.19000
H  -5.33500 27.07000 31.29200
H  -7.08300 26.17800 33.18200
H  -5.61800 27.10900 33.37000
H  -9.03700 19.94700 27.14600
H  -8.17200 20.38900 28.46900
H  -7.39100 19.29200 27.45900
H  -8.35700 18.92700 24.80800
H  -9.36600 19.38000 23.35200
H  -9.83200 19.97500 24.93600
H  -5.98400 25.39500 21.81700
H  -3.05800 25.98100 22.07000
H  -3.43700 23.66000 21.53800
H  -4.48300 24.27700 20.25800
H  -5.14600 23.03500 21.33200
H  -4.71200 28.30900 22.62700
H  -5.17300 27.48000 21.15900
H  -3.23300 28.28100 20.02700
H  -2.12900 27.76200 21.23200
H  -2.84100 29.25200 21.50100
H  -0.26200 29.45300 26.74000
H  -1.58700 30.31400 25.85100
H  -0.71700 28.93400 25.17500
H  -3.32000 27.84500 30.98100
H  -1.63400 26.22600 34.49800
H  -0.38500 27.32800 33.68800
H  -0.53300 25.61100 33.28500

