158

Mg 6.56600 57.61400 41.71500
C  5.37800 54.26300 41.47800
C  9.61000 56.25800 40.55300
C  7.67700 60.58100 41.33400
C  3.47800 58.60700 42.61500
N  7.33900 55.59100 40.87500
C  6.65600 54.35700 40.89800
C  7.48300 53.25100 40.26100
C  8.92400 53.90100 40.47400
C  8.63300 55.29700 40.67200
C  9.63700 53.29700 41.71600
C  7.00700 53.19400 38.78000
C  6.99400 51.91000 38.07800
H  7.80900 51.67200 36.82100
N  8.38000 58.39300 40.98600
C  9.49200 57.64600 40.63600
C  10.51100 58.50900 40.28700
C  10.04400 59.87300 40.44300
C  8.64500 59.65500 40.92900
C  11.89700 58.06900 39.77600
C  10.74200 61.13300 40.22600
O  11.88600 61.22300 39.78200
C  10.10500 62.47600 40.67400
N  5.56200 59.38000 41.49600
C  6.30900 60.46600 41.58900
C  5.57400 61.66600 42.22500
C  4.19000 61.01000 42.55600
C  4.40400 59.56500 42.16100
C  6.23000 62.19900 43.49500
C  3.09800 61.77300 41.89400
C  1.79500 61.78400 42.66100
N  4.71300 56.67500 42.04900
C  3.59900 57.18800 42.51700
C  2.61300 56.17500 42.73100
C  3.29100 54.99300 42.39200
C  4.59000 55.35200 41.97600
C  1.22300 56.47400 43.35700
C  3.12600 53.57600 42.34500
O  2.17500 52.83600 42.61800
C  4.52000 52.97800 41.71200
C  4.15400 52.33400 40.49800
O  3.93800 52.91200 39.42300
O  4.11900 50.98900 40.65600
C  3.80000 50.14000 39.44600
H  10.57700 55.75600 40.48200
H  8.08600 61.58600 41.46200
H  2.50900 58.94900 42.98600
H  7.27000 52.30500 40.75800
H  9.53400 53.84100 39.57300
H  9.71200 53.83600 42.66100
H  10.70500 53.12700 41.57900
H  9.27000 52.28700 41.90400
H  7.76100 53.75900 38.23200
H  6.05000 53.68700 38.60900
H  5.99900 51.86900 37.63600
H  7.23000 51.08600 38.75100
H  12.12800 58.36300 38.75200
H  12.16200 57.01600 39.87500
H  12.62700 58.62200 40.36700
H  9.95800 62.32100 41.74300
H  9.23500 62.60000 40.02900
H  10.83800 63.28000 40.60900
H  5.40500 62.40600 41.44300
H  4.02200 60.94400 43.63100
H  7.09900 61.62400 43.81400
H  5.53600 62.29500 44.33100
H  6.65700 63.12400 43.10800
H  2.91000 61.29600 40.93200
H  3.48700 62.78200 41.75900
H  1.50900 62.83300 42.72900
H  2.04600 61.40300 43.65000
H  0.88700 61.23800 42.40400
H  1.34700 57.20700 44.15400
H  0.77200 55.56800 43.76000
H  0.57600 56.74500 42.52300
H  4.99300 52.30200 42.42400
H  2.95500 49.55400 39.80900
H  4.69500 49.61500 39.11200
H  3.42400 50.70900 38.59600
Mg -0.20300 43.46700 24.72800
C  1.98900 43.10100 27.49000
C  -2.77600 42.72600 26.83100
C  -2.20900 43.57400 21.96500
C  2.65000 43.73500 22.59400
N  -0.38900 43.00500 26.87200
C  0.62400 43.04500 27.76100
C  0.06000 42.86600 29.19800
C  -1.43800 42.61900 29.05300
C  -1.56000 42.94100 27.53000
C  -1.88700 41.19200 29.55500
C  0.39100 44.03500 30.15500
C  0.42800 43.76100 31.68700
H  0.32900 42.33900 32.24600
N  -2.19300 43.09500 24.44500
C  -3.10100 42.83300 25.44000
C  -4.47300 42.73500 24.81900
C  -4.25100 42.87300 23.41800
C  -2.84700 43.26800 23.19700
C  -5.60700 42.25900 25.65000
C  -5.21800 42.53600 22.27500
O  -4.87600 42.64100 21.08300
C  -6.58800 42.16600 22.49000
N  0.18500 43.53400 22.59200
C  -0.80700 43.64100 21.64200
C  -0.30800 43.71500 20.13500
C  1.20300 43.93000 20.43400
C  1.39800 43.77500 21.96200
C  -0.67200 42.39000 19.50800
C  1.83400 45.17800 19.81800
C  1.62700 46.49700 20.61000
N  1.86900 43.46400 24.97500
C  2.89500 43.67200 24.05700
C  4.16500 43.61700 24.71900
C  3.84800 43.42400 26.06800
C  2.43500 43.30800 26.16800
C  5.51300 43.81500 24.09300
C  4.44200 43.09900 27.31000
O  5.57300 42.96400 27.62500
C  3.18400 42.91900 28.30500
C  3.41300 41.66400 29.13900
O  3.38800 40.52300 28.74700
O  3.64800 42.08300 30.43300
C  4.22500 41.07200 31.36400
H  -3.62700 42.45200 27.45800
H  -2.84300 43.66400 21.08000
H  3.57300 43.60300 22.02600
H  0.51800 41.98100 29.63900
H  -1.91700 43.42400 29.61200
H  -1.87400 40.37800 28.83100
H  -2.91300 41.24500 29.92100
H  -1.15100 40.78600 30.24900
H  -0.26400 44.87500 29.92400
H  1.36400 44.40100 29.82800
H  -0.42900 44.38200 31.94600
H  1.37600 44.16200 32.04600
H  -6.12000 43.15800 25.98900
H  -5.23500 41.60400 26.43800
H  -6.20700 41.62300 24.99900
H  -6.69500 41.15400 22.88100
H  -7.12500 42.28500 21.54900
H  -7.00100 42.84100 23.24000
H  -0.83000 44.58400 19.73300
H  1.79200 43.12500 19.99400
H  -0.39400 41.54900 20.14300
H  -0.11100 42.33900 18.57400
H  -1.75100 42.34200 19.36200
H  1.37500 45.40300 18.85500
H  2.87900 44.97500 19.58300
H  2.55500 46.81400 21.08500
H  0.90500 46.27100 21.39500
H  1.16900 47.26300 19.98400
H  5.65900 43.44900 23.07700
H  6.18500 43.20900 24.70000
H  5.73700 44.87200 24.23700
H  3.22000 43.77200 28.98300
H  3.57300 40.20700 31.47900
H  4.36400 41.51900 32.34900
H  5.17900 40.73200 30.95900

