158

Mg 35.93000 0.94400 29.77000
C  33.85600 2.34700 32.24700
C  38.48600 0.71900 32.05600
C  37.94000 0.33800 27.24400
C  33.32200 1.62000 27.32700
N  36.11600 1.47800 31.93600
C  35.13600 1.90300 32.81500
C  35.64300 1.98800 34.25900
C  37.23500 1.76000 34.07400
C  37.35100 1.28500 32.60400
C  38.19000 2.79900 34.59100
C  34.86400 0.90800 35.09300
C  34.12100 1.38800 36.30800
H  34.62800 2.65300 36.96900
N  37.89300 0.40600 29.68600
C  38.77600 0.35300 30.72200
C  40.00900 -0.15700 30.23200
C  39.88100 -0.22200 28.80900
C  38.51400 0.25900 28.46800
C  41.27000 -0.33300 31.10000
C  40.96300 -0.69900 27.79800
O  40.66400 -0.66100 26.62000
C  42.40300 -1.01200 28.22300
N  35.59100 0.85900 27.57600
C  36.65600 0.57100 26.78000
C  36.32600 0.77200 25.29800
C  34.72900 0.86100 25.33000
C  34.52700 1.14000 26.80000
C  36.97300 2.06100 24.77300
C  33.92700 -0.41200 24.78600
C  33.28100 -0.23300 23.44700
N  34.06300 1.86600 29.73800
C  33.07100 2.08000 28.64400
C  31.87300 2.51500 29.23800
C  32.10500 2.72100 30.60300
C  33.45300 2.30200 30.88000
C  30.62400 2.91600 28.53900
C  31.40700 3.02200 31.82900
O  30.24600 3.38400 31.94500
C  32.53200 2.85800 32.93300
C  32.66900 4.23100 33.66800
O  33.31700 5.16400 33.24100
O  31.83700 4.25400 34.77100
C  31.74100 5.51900 35.46100
H  39.24700 0.73500 32.83900
H  38.65400 0.16000 26.43700
H  32.44300 1.62600 26.67900
H  35.56500 3.01300 34.62000
H  37.48900 0.81100 34.54700
H  37.61400 3.60900 35.03800
H  38.87500 3.17400 33.83000
H  38.81200 2.36000 35.37200
H  35.62500 0.21300 35.44700
H  34.16900 0.51600 34.35000
H  33.86200 0.60500 37.02100
H  33.15700 1.70800 35.91300
H  41.05200 0.00800 32.11200
H  42.12300 0.24500 30.74600
H  41.59800 -1.37200 31.14300
H  42.88500 -1.08700 27.24800
H  42.44900 -1.90300 28.84800
H  42.86600 -0.16500 28.73000
H  36.77000 -0.04400 24.72900
H  34.39800 1.74500 24.78500
H  37.67300 2.41800 25.52900
H  36.33000 2.89400 24.48900
H  37.50000 1.77000 23.86500
H  33.29800 -0.70500 25.62600
H  34.63800 -1.22300 24.62800
H  33.08600 -1.13800 22.87200
H  33.75000 0.59000 22.90700
H  32.24200 0.02800 23.65100
H  30.57000 2.62900 27.48900
H  30.43200 3.98900 28.57200
H  29.74500 2.41100 28.93800
H  32.12800 2.05200 33.54600
H  32.74200 5.85000 35.73700
H  31.11900 5.31400 36.33300
H  31.33400 6.25000 34.76300
Mg 26.41300 50.13400 26.77700
C  24.49200 51.46800 29.35500
C  28.83700 49.35000 29.01100
C  28.23500 49.09500 24.23900
C  24.21600 51.56000 24.55400
N  26.69500 50.60700 29.01300
C  25.72800 50.96100 29.90300
C  26.18700 50.83000 31.38900
C  27.56300 50.13100 31.16100
C  27.72800 49.98600 29.64000
C  28.80100 50.75000 31.88800
C  25.08000 50.03200 32.23800
C  25.53900 49.01700 33.37500
H  24.62000 49.00600 34.64800
N  28.25300 49.33800 26.65100
C  29.12500 49.13700 27.67700
C  30.34800 48.53200 27.24100
C  30.25800 48.51200 25.81400
C  28.89500 48.97600 25.50700
C  31.43000 48.00400 28.17800
C  31.30200 48.25500 24.76400
O  31.08400 48.41300 23.54700
C  32.69500 47.97300 25.21800
N  26.20000 50.16400 24.65700
C  27.02300 49.57400 23.80500
C  26.48900 49.55300 22.34100
C  25.19900 50.42500 22.50200
C  25.17100 50.71400 23.99300
C  27.54400 50.09700 21.33200
C  23.89700 49.82000 22.02700
C  22.88700 50.81600 21.46200
N  24.59100 51.15200 26.87100
C  23.80600 51.60700 25.88500
C  22.66500 52.37100 26.42700
C  22.88800 52.32000 27.85100
C  24.07300 51.51300 28.00100
C  21.55200 53.11000 25.70600
C  22.34400 52.64100 29.14000
O  21.38100 53.30900 29.49900
C  23.37400 52.11400 30.16300
C  23.74100 53.34100 31.02000
O  24.52100 54.27400 30.79100
O  22.94300 53.19400 32.19800
C  23.30300 54.01700 33.35800
H  29.55000 49.02600 29.77200
H  28.69200 48.50100 23.44500
H  23.55300 51.97200 23.79000
H  26.30200 51.85900 31.73000
H  27.41600 49.08500 31.43100
H  29.20000 51.66700 31.45500
H  29.54300 49.95200 31.87100
H  28.56600 50.98700 32.92600
H  24.51900 49.35800 31.59100
H  24.41100 50.80200 32.62100
H  26.57300 49.24200 33.63800
H  25.45000 48.02300 32.93500
H  32.29200 48.64900 28.00500
H  31.71900 46.98600 27.91800
H  31.15200 48.13200 29.22400
H  33.37200 48.05800 24.36800
H  32.60400 47.03900 25.77300
H  32.97100 48.72900 25.95400
H  26.10300 48.61700 21.93700
H  25.43400 51.38200 22.03700
H  28.50900 50.24500 21.81700
H  27.32400 51.03900 20.82800
H  27.62900 49.19900 20.72100
H  23.40000 49.23400 22.80000
H  24.11100 49.10300 21.23400
H  21.91100 50.86700 21.94300
H  22.67200 50.60000 20.41500
H  23.25900 51.83500 21.56500
H  21.03000 52.60200 24.89500
H  21.96000 54.02200 25.27200
H  20.79200 53.43500 26.41700
H  22.88300 51.37200 30.79100
H  23.49700 55.06500 33.12900
H  24.21600 53.49800 33.65000
H  22.59000 53.95100 34.18000

