158

Mg 40.81300 10.30200 30.42700
C  42.71300 11.65600 33.21800
C  38.60300 9.09500 32.71500
C  39.10100 9.01500 27.93900
C  43.37800 11.16700 28.37700
N  40.74800 10.32300 32.76100
C  41.53100 11.06400 33.67700
C  40.87800 10.97600 35.03800
C  39.58700 10.07700 34.89100
C  39.67500 9.74600 33.35600
C  39.46300 8.73500 35.64800
C  40.63500 12.34200 35.67200
C  39.66800 12.45000 36.91000
H  39.85800 13.44500 37.98800
N  39.14300 9.27500 30.32900
C  38.34300 8.84700 31.37100
C  37.16400 8.17800 30.87000
C  37.18600 8.21500 29.43600
C  38.52400 8.83500 29.17900
C  36.14200 7.56700 31.81300
C  36.16200 7.70600 28.36400
O  36.30100 7.90000 27.16500
C  34.85500 7.03800 28.80500
N  41.25500 9.97200 28.45900
C  40.33000 9.55000 27.52700
C  40.81200 9.55800 26.09900
C  42.27500 10.28100 26.31300
C  42.34000 10.42700 27.86900
C  40.79200 8.20300 25.32400
C  42.32700 11.56400 25.54100
C  41.58000 12.82800 25.95800
N  42.62600 11.23400 30.66200
C  43.62300 11.46800 29.72900
C  44.69200 12.19900 30.30800
C  44.36000 12.29900 31.64200
C  43.11800 11.63300 31.81600
C  45.98000 12.64700 29.67400
C  44.84300 12.78500 32.85600
O  45.92100 13.29100 33.08400
C  43.76600 12.49600 33.99700
C  44.39900 11.71400 35.02000
O  44.77600 10.59200 34.79100
O  44.49100 12.41100 36.22800
C  44.92000 11.55000 37.35700
H  37.77700 8.78000 33.35700
H  38.59500 8.59000 27.06900
H  44.10000 11.47900 27.61900
H  41.54800 10.48900 35.74700
H  38.64500 10.61600 34.99500
H  39.15100 7.91000 35.00900
H  38.57600 8.79000 36.27900
H  40.29100 8.38800 36.26600
H  40.35200 13.03500 34.87900
H  41.53900 12.78100 36.09400
H  39.49100 11.47000 37.35200
H  38.77000 12.66200 36.33000
H  35.84900 8.20900 32.64400
H  36.62300 6.80000 32.42000
H  35.28700 7.16300 31.27100
H  34.26900 7.76000 29.37400
H  35.08900 6.16200 29.40900
H  34.26100 6.80800 27.92000
H  40.22100 10.27000 25.52200
H  43.10700 9.66500 25.97200
H  41.69200 8.00100 24.74300
H  39.86400 8.22200 24.75300
H  40.70800 7.37000 26.02100
H  41.90100 11.36400 24.55700
H  43.40500 11.62200 25.39200
H  41.09400 12.78300 26.93300
H  40.76500 12.99800 25.25600
H  42.17700 13.73400 25.85300
H  46.04200 12.11300 28.72600
H  46.72300 12.33500 30.40700
H  45.85600 13.72000 29.52200
H  43.35600 13.44300 34.34800
H  44.43400 11.85700 38.28300
H  45.99600 11.40000 37.45500
H  44.59700 10.51900 37.21000
Mg 47.91400 25.83100 28.38600
C  48.89800 27.85000 31.11400
C  47.07500 23.37200 30.66600
C  46.90900 23.83000 25.82800
C  49.00100 28.16900 26.26500
N  47.95400 25.69000 30.59700
C  48.31300 26.63400 31.52600
C  47.88200 26.25500 32.89200
C  47.43600 24.78400 32.73900
C  47.50900 24.62000 31.23900
C  48.13400 23.59500 33.46800
C  46.78600 27.25000 33.57800
C  47.16700 27.66300 35.03900
H  46.05000 28.05300 35.95900
N  47.11700 23.90500 28.26300
C  46.93500 23.06800 29.30700
C  46.58500 21.73100 28.81000
C  46.33500 21.88100 27.40400
C  46.72200 23.29600 27.11600
C  46.72300 20.47000 29.69000
C  45.92300 20.93700 26.32900
O  45.56400 21.24200 25.21900
C  45.94900 19.45600 26.60900
N  47.89900 25.98200 26.37400
C  47.37500 25.07400 25.46900
C  47.64900 25.43400 24.00400
C  48.37000 26.77700 24.22600
C  48.43300 27.01200 25.74700
C  48.56300 24.43700 23.21900
C  47.58300 28.03400 23.55000
C  48.40100 28.85400 22.63400
N  48.81000 27.68600 28.50900
C  49.22400 28.51300 27.58900
C  50.02200 29.56000 28.23000
C  49.79800 29.36500 29.59400
C  49.11300 28.21600 29.73100
C  50.74800 30.67900 27.64900
C  50.07800 29.98100 30.88300
O  50.60900 31.06100 31.08400
C  49.35600 29.03300 31.98300
C  50.24200 28.61300 32.97600
O  50.78800 27.52300 32.93700
O  50.43200 29.57700 33.94100
C  51.34500 29.24400 35.00800
H  46.89800 22.53900 31.35000
H  46.56800 23.27900 24.94900
H  49.42700 28.84500 25.52100
H  48.81300 26.07200 33.42900
H  46.39200 24.66300 33.02800
H  48.88400 24.03100 34.12700
H  48.75500 23.04400 32.76100
H  47.45200 22.93000 33.99700
H  45.78600 26.81700 33.55300
H  46.70900 28.08200 32.87800
H  47.86700 28.49900 35.04400
H  47.67100 26.78700 35.44700
H  47.15400 20.73600 30.65500
H  47.30400 19.67600 29.22100
H  45.75200 20.17900 30.09000
H  45.56300 19.34800 27.62200
H  46.98500 19.12500 26.54400
H  45.39700 18.77200 25.96400
H  46.66700 25.56200 23.54900
H  49.37300 26.74200 23.80000
H  48.95800 23.58600 23.77400
H  49.46900 24.83100 22.75900
H  47.94700 23.99100 22.43800
H  47.11500 28.65700 24.31200
H  46.71400 27.61400 23.04300
H  49.35800 28.37000 22.43900
H  48.57500 29.82900 23.08900
H  47.84000 28.97900 21.70700
H  51.73600 30.22600 27.56000
H  50.75900 31.59700 28.23500
H  50.30400 30.97100 26.69700
H  48.57600 29.61700 32.47300
H  50.92200 28.46300 35.64100
H  51.62900 30.05200 35.68200
H  52.26100 28.88100 34.54100

