158

Mg 2.56600 -3.25500 45.51300
C  5.93000 -2.25600 44.86900
C  1.60000 -0.90200 43.41400
C  -0.42800 -4.76100 45.58500
C  3.98000 -6.10900 47.13700
N  3.67700 -1.93700 44.05400
C  5.00500 -1.56600 44.04200
C  5.25100 -0.45800 42.98800
C  3.83400 0.10600 42.74300
C  2.94500 -0.98100 43.44300
C  3.63800 1.48400 43.51800
C  6.02700 -0.96900 41.75500
C  7.32800 -0.30900 41.34000
H  7.58300 0.06100 39.85400
N  0.83100 -2.84800 44.65900
C  0.59700 -1.72700 43.91500
C  -0.85200 -1.72100 43.59200
C  -1.49000 -2.88100 44.09300
C  -0.31900 -3.57000 44.79500
C  -1.46900 -0.63700 42.79400
C  -2.99000 -3.33100 44.02100
O  -3.84800 -2.64700 43.44200
C  -3.41000 -4.71700 44.48800
N  1.74600 -5.19000 46.37900
C  0.53600 -5.50100 46.30700
C  0.33700 -6.91100 46.93400
C  1.75900 -7.24900 47.44300
C  2.55800 -6.11900 46.94700
C  -0.74800 -6.98500 48.09200
C  2.13900 -8.67900 46.94900
C  2.15400 -9.75300 48.02800
N  4.51700 -3.99600 46.00300
C  4.94600 -5.06400 46.77600
C  6.35200 -4.99500 46.95300
C  6.75100 -3.82700 46.19200
C  5.64800 -3.36000 45.61700
C  7.15400 -5.89200 47.83400
C  7.93600 -3.05100 45.90900
O  9.07600 -3.18100 46.32700
C  7.43300 -1.92500 45.01200
C  7.53900 -0.66100 45.81000
O  6.82100 -0.45100 46.78600
O  8.29800 0.26000 45.15500
C  8.32400 1.63600 45.69900
H  1.22000 -0.07500 42.81000
H  -1.39900 -5.23900 45.72900
H  4.40000 -7.02400 47.56000
H  5.82800 0.35500 43.42900
H  3.60200 0.04800 41.68000
H  4.35200 1.57800 44.33600
H  2.65200 1.73200 43.91000
H  4.03200 2.34400 42.97600
H  5.44300 -0.98100 40.83500
H  6.19900 -1.99600 42.07600
H  8.16500 -0.92900 41.65800
H  7.46900 0.63400 41.86800
H  -1.96800 0.13100 43.38500
H  -2.18400 -1.02300 42.06700
H  -0.73400 -0.16100 42.14500
H  -2.78500 -5.39000 43.90200
H  -4.43200 -4.90400 44.15900
H  -3.40800 -4.73800 45.57800
H  -0.09500 -7.58500 46.19400
H  1.77900 -7.19800 48.53100
H  -1.42600 -6.13800 47.99000
H  -0.38100 -7.01500 49.11800
H  -1.38700 -7.85800 47.96200
H  3.11700 -8.66000 46.46800
H  1.55500 -9.00100 46.08600
H  2.98500 -10.43000 47.82800
H  1.24900 -10.35600 47.96600
H  2.27700 -9.30600 49.01400
H  6.55200 -6.01700 48.73400
H  8.15500 -5.52100 48.05200
H  7.13900 -6.87600 47.36600
H  7.98000 -1.90400 44.07000
H  8.34100 2.32600 44.85600
H  9.14800 1.90200 46.36100
H  7.40800 1.91800 46.22000
Mg 36.81700 50.18800 24.59200
C  37.06600 48.38800 27.38800
C  35.56100 52.81900 26.41500
C  35.99500 51.88300 21.60100
C  37.52600 47.42100 22.65000
N  36.40800 50.57600 26.65800
C  36.55300 49.65800 27.64500
C  36.34300 50.32900 29.03300
C  35.57800 51.56600 28.62600
C  35.86300 51.68300 27.14400
C  34.04200 51.62800 28.92300
C  37.79000 50.58500 29.68400
C  38.03300 50.19100 31.13300
H  36.87700 50.34600 32.05900
N  36.01700 52.13100 24.11100
C  35.62200 53.03600 24.98800
C  35.09500 54.25300 24.32000
C  35.25500 53.99900 22.97000
C  35.83600 52.65800 22.81200
C  34.52200 55.47400 25.08400
C  34.71200 54.85900 21.83000
O  34.93500 54.51700 20.60700
C  33.88000 56.06500 22.09000
N  36.70100 49.73400 22.47600
C  36.40100 50.57100 21.47800
C  36.44400 49.90100 20.07100
C  37.22800 48.64400 20.43400
C  37.21300 48.60000 21.96500
C  34.99400 49.78800 19.43700
C  38.59900 48.44700 19.78900
C  39.81000 49.20100 20.35200
N  37.18700 48.21100 24.93100
C  37.60100 47.23700 24.08800
C  37.99700 46.06400 24.82900
C  37.80300 46.44600 26.14600
C  37.37600 47.80100 26.15700
C  38.57400 44.77400 24.19900
C  37.85700 46.03300 27.52700
O  38.11800 44.91600 28.04700
C  37.36500 47.31200 28.38400
C  36.25900 46.89800 29.32900
O  35.14000 46.59200 29.04100
O  36.80900 46.70200 30.57000
C  35.96300 46.23100 31.66500
H  35.11200 53.63000 26.99100
H  35.64100 52.29100 20.65200
H  37.96200 46.62500 22.04300
H  35.74700 49.64800 29.64000
H  35.91600 52.49900 29.07700
H  33.55200 50.90600 29.57700
H  33.45200 51.78100 28.02000
H  33.87100 52.61300 29.35600
H  38.07500 51.63600 29.64800
H  38.60500 50.09700 29.14900
H  38.94700 50.61600 31.54800
H  38.26400 49.12600 31.15700
H  34.90800 55.62400 26.09200
H  33.44100 55.34100 25.11000
H  34.62700 56.38500 24.49400
H  33.48200 56.41300 21.13700
H  34.47300 56.90400 22.45400
H  33.07300 55.89300 22.80200
H  37.04200 50.52700 19.40900
H  36.58100 47.83800 20.08900
H  34.33000 50.62500 19.65000
H  34.50600 48.83400 19.63700
H  35.25000 49.76300 18.37800
H  38.60100 48.50600 18.70100
H  38.74700 47.38600 19.99200
H  39.62100 49.98100 21.08900
H  40.39700 49.61900 19.53400
H  40.46000 48.43300 20.77100
H  39.05300 45.08900 23.27100
H  37.73700 44.13500 23.91800
H  39.40400 44.35400 24.76800
H  38.12500 47.73600 29.04100
H  36.59100 45.61100 32.30500
H  35.17100 45.62200 31.23000
H  35.59500 46.94900 32.39800

