158

Mg 44.92600 4.70900 45.98100
C  43.31400 7.76900 46.04500
C  41.85900 3.17800 45.32800
C  46.63900 1.91200 45.31000
C  48.02000 6.56300 45.82400
N  42.86200 5.43400 45.44800
C  42.36500 6.74900 45.77200
C  40.91200 6.87200 45.51400
C  40.50900 5.32600 45.54000
C  41.82700 4.53100 45.52800
C  39.44700 4.94700 46.64800
C  40.65600 7.60400 44.21100
C  41.49900 7.15200 42.99700
H  40.76700 6.71900 41.72100
N  44.30200 2.79100 45.43400
C  43.01600 2.34000 45.17100
C  43.00600 0.95600 44.79000
C  44.41600 0.54800 44.88200
C  45.18900 1.75600 45.37500
C  41.81100 0.18000 44.46200
C  44.84500 -0.85900 44.52200
O  44.10400 -1.72200 44.07800
C  46.25900 -1.28300 44.64500
N  47.13700 4.33400 45.60500
C  47.50500 2.99300 45.44300
C  49.02600 2.93200 45.23400
C  49.38100 4.43200 45.62800
C  48.09400 5.18000 45.69000
C  49.70700 1.85100 46.19600
C  50.52900 5.09100 44.84400
C  51.57900 5.73900 45.74000
N  45.55800 6.74400 45.90100
C  46.80000 7.34100 45.94900
C  46.71900 8.74000 46.07200
C  45.30000 8.94400 46.16400
C  44.66100 7.70100 46.05100
C  47.71500 9.78700 46.09400
C  44.34800 9.94400 46.47200
O  44.53500 11.15800 46.69600
C  42.97800 9.21100 46.31400
C  42.13200 9.39600 47.52000
O  41.97600 8.54000 48.38600
O  41.38800 10.60300 47.46600
C  40.44400 10.66100 48.59300
H  40.85400 2.78800 45.15600
H  47.12500 0.96600 45.06000
H  48.96600 7.09600 45.93400
H  40.40600 7.27500 46.39100
H  39.96900 5.00200 44.65100
H  38.68200 5.69400 46.86300
H  39.93500 4.58800 47.55400
H  38.97900 4.07700 46.18800
H  40.72400 8.68600 44.32000
H  39.63000 7.30000 44.00300
H  42.20700 6.33700 43.15100
H  42.07600 7.99500 42.61800
H  41.87100 -0.60400 43.70700
H  40.95200 0.77700 44.15400
H  41.64000 -0.28200 45.43400
H  46.22600 -2.29100 44.23300
H  46.54800 -1.34000 45.69500
H  46.81000 -0.56600 44.03600
H  49.33200 2.60500 44.24000
H  49.64400 4.33700 46.68100
H  49.96500 0.97600 45.59900
H  48.98200 1.52100 46.94000
H  50.58100 2.26800 46.69600
H  50.15900 5.87300 44.18000
H  51.07000 4.42600 44.17000
H  51.52300 5.35800 46.75900
H  51.40300 6.81500 45.72200
H  52.54900 5.50600 45.30100
H  48.59100 9.31400 45.65000
H  47.95500 10.08600 47.11500
H  47.31200 10.68200 45.61900
H  42.49500 9.59100 45.41400
H  41.02500 10.77600 49.50800
H  39.73100 9.83700 48.57300
H  39.90800 11.60900 48.53400
Mg -6.27800 24.76900 25.32200
C  -4.58600 26.26200 28.15700
C  -7.63300 22.52200 27.49200
C  -7.09300 23.06800 22.72200
C  -3.90100 26.61100 23.44900
N  -6.11900 24.37200 27.63900
C  -5.49400 25.20800 28.55000
C  -6.06200 24.86700 29.98100
C  -6.79500 23.46900 29.70700
C  -6.90600 23.46400 28.20800
C  -6.09700 22.16500 30.28700
C  -6.90200 26.04800 30.53300
C  -6.98800 26.28300 32.05200
H  -6.42700 25.20500 32.96100
N  -7.36300 23.11400 25.16300
C  -7.90400 22.32800 26.06800
C  -8.78000 21.34500 25.50100
C  -8.67200 21.59000 24.09000
C  -7.65800 22.67900 23.94500
C  -9.77600 20.36300 26.26200
C  -9.30200 20.84300 22.96100
O  -9.08300 21.15700 21.75600
C  -10.21900 19.64300 23.15600
N  -5.49700 24.80300 23.39500
C  -6.14000 24.04500 22.45500
C  -5.43600 24.17600 21.08500
C  -4.77500 25.58500 21.22700
C  -4.67700 25.67300 22.78400
C  -4.46700 23.05100 20.69400
C  -5.63400 26.80900 20.80400
C  -5.29400 27.16000 19.29700
N  -4.69100 26.33700 25.66800
C  -3.77200 26.94500 24.80600
C  -2.85800 27.86300 25.53800
C  -3.18200 27.60200 26.92500
C  -4.22800 26.64000 26.88900
C  -1.81400 28.76800 24.96900
C  -2.77600 27.95000 28.32100
O  -1.85400 28.61900 28.83200
C  -3.76500 27.11000 29.16300
C  -2.98600 26.25000 30.07800
O  -2.32100 25.32700 29.68700
O  -2.97900 26.71900 31.34100
C  -2.24600 26.08700 32.41700
H  -8.12000 21.74900 28.08900
H  -7.42800 22.52200 21.83800
H  -3.28400 27.18300 22.75300
H  -5.15900 24.72300 30.57500
H  -7.82300 23.53500 30.06300
H  -5.80000 21.57000 29.42300
H  -6.85300 21.61300 30.84400
H  -5.16500 22.29900 30.83500
H  -7.93600 25.93100 30.20700
H  -6.55700 27.01200 30.15800
H  -8.05800 26.32000 32.25800
H  -6.63300 27.28500 32.29400
H  -9.41700 19.36100 26.02700
H  -10.80000 20.60200 25.97200
H  -9.62200 20.28800 27.33800
H  -11.13900 20.00600 23.61400
H  -9.67800 18.92100 23.76700
H  -10.49200 19.25500 22.17400
H  -6.25500 24.24100 20.37000
H  -3.77900 25.61300 20.78600
H  -3.45700 23.39800 20.91100
H  -4.57000 22.70300 19.66700
H  -4.66700 22.13600 21.25300
H  -5.37500 27.63600 21.46500
H  -6.71700 26.72200 20.89200
H  -5.02900 26.24500 18.76700
H  -4.41700 27.79700 19.40900
H  -6.15300 27.61700 18.80600
H  -1.28600 29.36300 25.71400
H  -2.26800 29.33800 24.15800
H  -1.15100 28.03100 24.51500
H  -4.40800 27.69900 29.81700
H  -1.40300 26.72200 32.69000
H  -1.85900 25.13300 32.06100
H  -2.90700 25.88100 33.25900

