158

Mg 0.26700 7.93200 26.81100
C  1.20800 9.92900 29.56600
C  -0.26600 5.44100 29.06300
C  -0.46300 6.00600 24.15700
C  0.77900 10.60800 24.67200
N  0.44900 7.74500 29.06700
C  0.75000 8.70100 29.98900
C  0.71500 8.08700 31.42600
C  0.57100 6.52400 31.15900
C  0.12600 6.57500 29.67500
C  1.83500 5.68900 31.40200
C  -0.39600 8.70100 32.40800
C  0.08500 8.59400 33.88200
H  -0.59000 7.46100 34.76800
N  -0.26800 6.02100 26.66300
C  -0.38000 5.11700 27.66900
C  -0.75100 3.84000 27.09800
C  -0.73400 3.94300 25.66500
C  -0.41700 5.38300 25.42300
C  -1.15300 2.74200 27.99200
C  -1.05200 2.93400 24.61700
O  -0.97400 3.21400 23.41900
C  -1.49000 1.53200 24.92800
N  0.33600 8.28300 24.69000
C  -0.17100 7.30700 23.82800
C  -0.34100 7.85600 22.36500
C  -0.13000 9.37000 22.65100
C  0.43900 9.43300 24.09300
C  0.68900 7.30400 21.43600
C  -1.40400 10.18500 22.37600
C  -1.52500 10.66100 20.90100
N  1.03800 9.82000 27.00700
C  1.19600 10.83400 26.03100
C  1.68800 12.02200 26.68700
C  1.84800 11.72600 28.08800
C  1.31300 10.41700 28.21200
C  1.90700 13.46300 26.02800
C  2.12600 12.23200 29.38800
O  2.56500 13.34900 29.70600
C  1.67100 11.17600 30.41700
C  2.75900 10.89400 31.37900
O  3.75200 10.27800 31.15500
O  2.43700 11.40700 32.57900
C  3.25100 11.13700 33.70800
H  -0.49200 4.54800 29.65000
H  -0.72500 5.51000 23.22000
H  0.77500 11.46300 23.99200
H  1.68900 8.34100 31.84500
H  -0.24500 6.11000 31.75100
H  1.51400 4.84200 32.00900
H  2.63100 6.17900 31.96400
H  2.24500 5.31800 30.46300
H  -1.30100 8.10800 32.27500
H  -0.66200 9.72600 32.15100
H  0.01600 9.61600 34.25600
H  1.15600 8.45800 34.03000
H  -2.19500 2.93300 28.25200
H  -0.52900 2.71500 28.88600
H  -1.24700 1.72000 27.62700
H  -1.70600 1.03100 23.98400
H  -2.41800 1.65100 25.48700
H  -0.69100 1.11100 25.53900
H  -1.31300 7.72600 21.88900
H  0.71600 9.65700 22.02600
H  0.94700 8.09700 20.73400
H  0.31000 6.51000 20.79200
H  1.56300 7.04800 22.03500
H  -1.43400 10.98900 23.11200
H  -2.27100 9.53300 22.48800
H  -2.37800 10.12500 20.48400
H  -0.59200 10.52200 20.35500
H  -1.81900 11.70700 20.81900
H  1.01100 14.06700 25.88500
H  2.33100 13.34400 25.03000
H  2.59300 14.06200 26.62600
H  0.82400 11.46700 31.03700
H  3.93400 10.29700 33.57700
H  2.54600 10.80000 34.46800
H  3.79000 12.05200 33.95600
Mg 10.09800 48.26300 26.09700
C  8.02100 48.02700 28.89100
C  12.50300 49.38200 27.90200
C  11.79100 48.74500 23.12400
C  7.21300 47.29900 23.94400
N  10.13800 48.76700 28.16300
C  9.32800 48.37300 29.16000
C  10.02600 48.58100 30.56000
C  11.22500 49.44200 30.12100
C  11.32000 49.20500 28.66100
C  11.23100 50.99300 30.44700
C  10.33500 47.40700 31.38300
C  9.82400 47.40700 32.79800
H  10.34600 46.36000 33.85400
N  11.92500 48.84600 25.62000
C  12.84600 49.26800 26.58500
C  14.07400 49.51200 25.97300
C  13.86600 49.37000 24.56200
C  12.46600 49.03000 24.33500
C  15.34900 49.96000 26.72100
C  14.81300 49.52800 23.42600
O  14.63500 49.42800 22.23700
C  16.19900 49.86000 23.76700
N  9.48600 48.15800 23.89000
C  10.46000 48.50800 22.91100
C  9.76800 48.37800 21.51500
C  8.55800 47.34600 21.81700
C  8.43300 47.59600 23.31600
C  9.28700 49.76500 20.93100
C  8.95100 45.89300 21.38000
C  9.01000 44.79200 22.38900
N  8.00800 47.80800 26.28200
C  7.00500 47.51400 25.35200
C  5.79900 47.36400 26.14200
C  6.17800 47.39200 27.46300
C  7.45600 47.77600 27.52700
C  4.50200 47.04600 25.57800
C  5.68200 47.24800 28.80800
O  4.50000 47.04900 29.14800
C  6.78700 47.63100 29.82300
C  7.13000 46.45800 30.61800
O  7.72800 45.49700 30.17700
O  6.67200 46.44200 31.88900
C  6.81800 45.21400 32.69400
H  13.34600 49.73200 28.50200
H  12.35700 48.76300 22.19000
H  6.38300 46.90600 23.35300
H  9.35900 49.22800 31.13000
H  12.14100 49.09400 30.59800
H  12.24500 51.38300 30.35000
H  10.81900 51.32700 31.39900
H  10.74300 51.44000 29.58100
H  11.41300 47.27700 31.48300
H  9.95700 46.48400 30.94300
H  8.75800 47.29100 32.60200
H  9.85400 48.40900 33.22700
H  15.61300 50.99800 26.52100
H  16.15400 49.25300 26.52000
H  15.26700 49.86500 27.80400
H  16.76000 50.14100 22.87600
H  16.68100 48.93100 24.06900
H  16.42400 50.70500 24.41700
H  10.47400 47.96300 20.79600
H  7.69800 47.79900 21.32300
H  9.33200 50.61400 21.61200
H  8.28300 49.69900 20.51000
H  9.97500 49.94900 20.10700
H  9.96000 45.97100 20.97600
H  8.39200 45.53500 20.51600
H  8.33300 45.09700 23.18700
H  10.00300 44.53000 22.75600
H  8.54600 43.85300 22.08600
H  4.61800 46.43900 24.68000
H  3.98500 47.95500 25.27000
H  3.91300 46.50500 26.31800
H  6.40400 48.45600 30.42400
H  7.59700 45.26200 33.45500
H  6.90200 44.27800 32.14200
H  5.87400 45.18000 33.23700

