158

Mg 9.41200 3.35200 27.83500
C  10.42200 1.57500 30.68600
C  7.45200 5.35600 29.89400
C  8.77100 5.26300 25.18200
C  11.23400 1.08100 25.82400
N  8.92800 3.39600 30.06000
C  9.58100 2.69100 31.05900
C  9.36800 3.21000 32.40800
C  8.28300 4.35100 32.13000
C  8.25300 4.43900 30.59500
C  6.80800 4.26800 32.75200
C  10.66300 3.75100 33.13900
C  10.35100 4.38700 34.49900
H  11.24300 4.10400 35.74700
N  8.26400 5.07400 27.56200
C  7.43400 5.68500 28.53600
C  6.75400 6.79700 27.90100
C  7.16500 6.81000 26.55400
C  7.99100 5.59000 26.33900
C  5.66000 7.60100 28.69300
C  6.83200 7.81500 25.42800
O  7.07700 7.62700 24.24200
C  6.18100 9.11100 25.82300
N  10.00400 3.22900 25.83600
C  9.59200 4.15300 24.86800
C  10.31100 3.88700 23.50500
C  10.85300 2.38400 23.73400
C  10.67100 2.20700 25.22100
C  9.42800 3.99100 22.22300
C  12.34600 2.15700 23.27600
C  12.50000 0.84300 22.50100
N  10.52800 1.68200 28.10000
C  11.19800 0.83700 27.25700
C  11.78000 -0.21700 27.95700
C  11.55900 0.07300 29.31600
C  10.68300 1.17600 29.36700
C  12.52900 -1.37300 27.38800
C  11.84400 -0.44800 30.61200
O  12.39200 -1.44700 30.99500
C  11.15300 0.65400 31.62500
C  10.26300 -0.02200 32.57100
O  9.27900 -0.71900 32.36800
O  10.66100 0.37500 33.82300
C  9.97300 -0.28200 34.95300
H  6.96100 6.16400 30.44200
H  8.66700 5.97200 24.35700
H  11.67900 0.28400 25.22500
H  8.87600 2.52800 33.10100
H  8.63500 5.27500 32.58800
H  6.45300 5.19200 33.20900
H  6.77100 3.43100 33.44900
H  6.09500 3.98100 31.97900
H  11.26400 4.40700 32.50900
H  11.25600 2.87300 33.39200
H  9.35700 4.21900 34.91500
H  10.43900 5.46400 34.35700
H  4.79000 7.66200 28.04000
H  6.00400 8.61000 28.92100
H  5.28000 7.18700 29.62700
H  6.11500 9.77700 24.96300
H  6.82100 9.68600 26.49200
H  5.18200 8.99100 26.24300
H  11.18300 4.53700 23.44000
H  10.17600 1.66500 23.27200
H  9.33800 4.97500 21.76400
H  8.44100 3.87600 22.67100
H  9.66900 3.13900 21.58700
H  13.03200 2.19000 24.12300
H  12.55300 2.96900 22.57800
H  13.26300 0.94600 21.73000
H  11.55400 0.52400 22.06200
H  12.81300 0.14400 23.27700
H  11.82600 -2.00100 26.84100
H  13.05000 -1.89500 28.19000
H  13.28000 -0.94000 26.72700
H  11.88300 1.24000 32.18400
H  9.49400 -1.17800 34.55800
H  9.36300 0.42400 35.51500
H  10.76500 -0.60900 35.62700
Mg -1.94400 35.32100 27.12400
C  -3.98700 34.07600 29.67100
C  -1.02900 37.93900 29.07800
C  -0.34600 36.72500 24.41000
C  -3.15000 32.80400 24.97900
N  -2.46200 35.91400 29.23800
C  -3.27900 35.23100 30.06700
C  -3.30000 35.89400 31.48700
C  -2.40600 37.20700 31.23700
C  -1.95400 37.02100 29.72800
C  -3.13700 38.55900 31.44100
C  -2.68000 35.00000 32.65100
C  -3.30400 35.11300 33.99900
H  -2.70100 36.18700 34.85700
N  -0.93700 37.05400 26.77800
C  -0.67900 38.04100 27.69000
C  0.09500 39.12200 27.12800
C  0.27000 38.80500 25.73500
C  -0.32100 37.46800 25.59000
C  0.43100 40.36200 27.96000
C  0.95800 39.67600 24.66500
O  0.78700 39.46400 23.49400
C  1.82400 40.92700 25.04200
N  -1.76100 34.85600 24.95800
C  -0.97500 35.50600 24.12000
C  -0.86800 34.88200 22.73100
C  -1.91500 33.75300 22.87400
C  -2.28900 33.77700 24.36400
C  -0.93400 35.83800 21.47200
C  -1.42500 32.41700 22.35000
C  -2.14100 32.04600 21.03800
N  -3.14400 33.73100 27.25800
C  -3.59100 32.79100 26.34900
C  -4.54400 31.90400 26.92200
C  -4.64500 32.37800 28.24400
C  -3.81800 33.51200 28.39100
C  -5.28700 30.82100 26.21100
C  -5.23700 31.93700 29.48300
O  -5.92700 31.01200 29.84900
C  -4.75300 33.10000 30.44100
C  -5.95800 33.72700 31.02100
O  -6.53100 34.66900 30.50100
O  -6.28000 33.08300 32.17400
C  -7.46600 33.65800 32.78500
H  -0.81700 38.70400 29.82800
H  0.26700 37.14700 23.61100
H  -3.59300 31.99700 24.39100
H  -4.31200 36.26000 31.65900
H  -1.52700 37.16400 31.88100
H  -2.56900 39.10400 32.19500
H  -4.17300 38.41300 31.74500
H  -3.36900 39.07700 30.51000
H  -1.66200 35.28800 32.91400
H  -2.72200 33.96800 32.30200
H  -3.19800 34.15100 34.50100
H  -4.36600 35.27500 33.81900
H  1.41300 40.33400 28.43100
H  -0.36200 40.52400 28.68900
H  0.52200 41.25000 27.33500
H  2.36900 40.83900 25.98100
H  1.09000 41.72300 25.17100
H  2.55000 41.10700 24.24900
H  0.09900 34.38000 22.72900
H  -2.81300 34.16700 22.41700
H  -1.50000 36.74300 21.69700
H  -1.59600 35.35300 20.75600
H  0.05400 36.04300 21.05900
H  -1.74200 31.63400 23.03900
H  -0.36000 32.18800 22.29700
H  -2.97300 31.39400 21.30600
H  -1.36600 31.55500 20.44900
H  -2.42600 32.95400 20.50600
H  -6.20600 30.58400 26.74600
H  -4.83100 29.85300 26.00000
H  -5.57600 31.32900 25.29100
H  -4.28000 32.61800 31.29700
H  -8.16800 33.80700 31.96500
H  -7.21200 34.53700 33.37700
H  -8.02200 32.99500 33.44700

