158

Mg 2.17000 7.58400 26.34500
C  2.38000 9.80400 29.03800
C  2.31800 4.96000 28.50300
C  2.20400 5.54800 23.59600
C  2.48800 10.37300 24.19300
N  2.46100 7.40200 28.54100
C  2.37500 8.44600 29.43700
C  2.04800 7.89700 30.83600
C  2.44000 6.37100 30.64600
C  2.33600 6.19700 29.16300
C  3.79600 5.87200 31.11300
C  0.60600 8.14200 31.42500
C  0.50100 8.41100 32.95700
H  1.69200 7.89600 33.81900
N  2.23600 5.52700 26.11500
C  2.23500 4.57300 27.12600
C  2.15000 3.27700 26.57300
C  2.09100 3.43300 25.15800
C  2.24800 4.86400 24.88600
C  1.93800 2.01700 27.48900
C  2.04900 2.37100 24.11700
O  2.08900 2.59400 22.92400
C  1.99200 0.86900 24.62500
N  2.29100 7.91800 24.25800
C  2.30900 6.92500 23.31200
C  2.37400 7.41600 21.87000
C  2.46500 8.97700 22.04300
C  2.32700 9.11000 23.61500
C  3.42800 6.71800 21.07100
C  1.28200 9.73500 21.36300
C  1.61600 10.64200 20.23800
N  2.36000 9.66400 26.51700
C  2.52000 10.60200 25.57000
C  2.55600 11.94400 26.15800
C  2.51900 11.69100 27.56900
C  2.46300 10.27900 27.70500
C  2.36400 13.29600 25.52500
C  2.35200 12.25800 28.94400
O  2.30100 13.42800 29.29500
C  2.27000 11.06600 29.88600
C  3.39000 11.02500 30.90900
O  4.58300 11.00600 30.70800
O  2.81200 11.11600 32.14100
C  3.76800 11.22100 33.23500
H  2.39700 4.18400 29.26700
H  2.15900 4.93800 22.69200
H  2.44500 11.24300 23.53300
H  2.80100 8.27100 31.53100
H  1.68000 5.71900 31.07600
H  4.41400 5.59500 30.25900
H  3.53800 5.04300 31.77200
H  4.32900 6.56800 31.75900
H  -0.08900 7.32000 31.25400
H  0.23900 9.10900 31.08100
H  -0.38200 7.88200 33.31600
H  0.47400 9.48700 33.13200
H  2.89200 1.49000 27.44900
H  0.99700 1.58500 27.14800
H  1.78400 2.34600 28.51600
H  2.96900 0.66400 25.06300
H  1.79800 0.22900 23.76500
H  1.08000 0.74800 25.20900
H  1.39800 7.14600 21.46500
H  3.43000 9.37300 21.72600
H  4.10400 6.32900 21.83300
H  3.93200 7.40800 20.39500
H  3.03500 5.97900 20.37300
H  0.74500 10.37200 22.06600
H  0.58600 9.04400 20.88700
H  1.04100 10.44800 19.33200
H  2.68100 10.52300 20.04000
H  1.27100 11.65200 20.45800
H  1.60600 13.95000 25.95700
H  2.18500 13.11200 24.46500
H  3.25200 13.92700 25.56700
H  1.36900 11.09000 30.49900
H  3.98400 12.28900 33.24300
H  4.69100 10.67800 33.03000
H  3.40900 11.04300 34.24900
Mg 9.36300 3.30000 27.70200
C  10.38000 1.67100 30.50100
C  7.73500 5.59600 29.78000
C  8.45100 5.01700 24.89400
C  10.71100 0.70600 25.67300
N  9.00200 3.54600 29.88000
C  9.74400 2.89200 30.75800
C  9.56700 3.48000 32.23500
C  8.43600 4.59400 31.95400
C  8.28600 4.54900 30.42000
C  7.14100 4.22700 32.72000
C  10.84500 4.04100 32.91800
C  10.68500 4.19200 34.44200
H  11.41500 3.19200 35.37500
N  8.19600 5.08200 27.37000
C  7.65900 5.92500 28.36400
C  6.95400 7.02000 27.67000
C  7.08900 6.89400 26.27300
C  7.98300 5.65400 26.12400
C  6.16500 8.08200 28.43100
C  6.55800 7.73100 25.14800
O  6.81700 7.54600 23.94500
C  5.75300 8.92000 25.44400
N  9.43200 2.79400 25.59100
C  9.13200 3.75700 24.69200
C  9.43500 3.24800 23.27000
C  10.27900 1.99600 23.51100
C  10.14100 1.77500 25.01300
C  8.25700 3.05600 22.27700
C  11.75500 2.20900 23.09300
C  11.97000 2.37300 21.61400
N  10.20800 1.37300 28.02600
C  10.86200 0.57700 27.10300
C  11.51500 -0.46900 27.90100
C  11.43900 -0.08300 29.23400
C  10.56500 1.05500 29.24100
C  12.22000 -1.65400 27.22800
C  11.88000 -0.36200 30.61600
O  12.53600 -1.31700 31.05200
C  11.26300 0.77400 31.45600
C  10.50300 0.14700 32.55600
O  9.50300 -0.50800 32.30700
O  11.06100 0.46300 33.78700
C  10.43000 -0.13400 34.99000
H  7.27700 6.37700 30.39200
H  8.22700 5.38000 23.88900
H  11.22800 -0.08500 25.12500
H  9.16700 2.63400 32.79300
H  8.83900 5.56700 32.23800
H  6.38400 3.83900 32.03800
H  6.75900 5.10300 33.24500
H  7.25000 3.50700 33.53100
H  11.03100 5.02200 32.48000
H  11.65100 3.38900 32.58100
H  9.62900 4.05700 34.67800
H  10.97100 5.20800 34.71400
H  6.68200 8.99600 28.72400
H  5.83700 7.58800 29.34600
H  5.30400 8.30100 27.79900
H  4.71300 8.61200 25.55400
H  5.62100 9.52800 24.54900
H  6.04600 9.61100 26.23500
H  10.08700 4.04000 22.89900
H  9.93600 1.06300 23.06600
H  7.32900 3.39800 22.73600
H  8.22100 2.01500 21.95500
H  8.61200 3.73100 21.49900
H  12.24400 1.28300 23.39500
H  12.11200 3.00700 23.74300
H  12.11100 3.39200 21.25200
H  11.04200 1.97300 21.20600
H  12.78900 1.79900 21.18100
H  11.52700 -2.43000 26.90500
H  12.83100 -2.17300 27.96700
H  12.74000 -1.42600 26.29800
H  12.10500 1.41300 31.72100
H  9.39500 -0.35700 34.73400
H  10.46800 0.43500 35.91900
H  10.92700 -1.06800 35.25100

