158

Mg 40.01200 9.71700 30.22200
C  41.69100 11.16000 33.04300
C  37.62600 8.50500 32.27900
C  38.47900 8.50300 27.53700
C  42.75900 10.63600 28.28400
N  39.73800 9.85300 32.44400
C  40.36000 10.61900 33.34000
C  39.89500 10.40100 34.81000
C  38.72200 9.36300 34.53300
C  38.65300 9.15600 33.02500
C  38.77600 8.03000 35.35200
C  39.53000 11.75300 35.63400
C  40.51100 12.19100 36.68800
H  40.02500 12.58500 38.07500
N  38.26900 8.68400 29.93100
C  37.43400 8.25600 30.93700
C  36.26300 7.63800 30.36700
C  36.48500 7.60000 28.98300
C  37.79300 8.22200 28.72700
C  35.20100 7.00200 31.26600
C  35.65500 7.07300 27.86700
O  36.03700 7.20300 26.67600
C  34.34700 6.33500 28.11200
N  40.57200 9.50700 28.21200
C  39.66400 9.09900 27.29500
C  40.10200 9.39000 25.89500
C  41.55400 10.01200 26.12200
C  41.68800 10.05500 27.64800
C  40.11100 8.07700 25.02500
C  41.90900 11.41800 25.47400
C  41.25300 12.69200 26.07900
N  41.88700 10.64200 30.50900
C  42.87900 10.90600 29.66700
C  43.97400 11.54800 30.32600
C  43.53100 11.64600 31.66200
C  42.26800 11.07700 31.71900
C  45.16800 12.30000 29.62000
C  43.93000 12.19200 32.94600
O  44.91000 12.82500 33.27200
C  42.80000 11.70800 33.93400
C  43.39600 10.69300 34.80000
O  43.75800 9.57900 34.47900
O  43.86000 11.47700 35.92000
C  44.96800 10.92200 36.63100
H  36.94600 8.01500 32.97900
H  38.01600 8.22400 26.58800
H  43.52000 10.98800 27.58500
H  40.66400 9.88000 35.38200
H  37.77000 9.80800 34.82400
H  39.75800 7.95500 35.81800
H  38.73300 7.17100 34.68200
H  38.04600 7.77500 36.12000
H  38.52600 11.69800 36.05500
H  39.38000 12.39600 34.76700
H  41.02900 13.04200 36.24600
H  41.24200 11.39500 36.83500
H  35.05100 5.97600 30.93200
H  34.29800 7.60500 31.16200
H  35.42500 6.74200 32.30000
H  34.08200 5.83800 27.17800
H  33.58100 7.05800 28.38900
H  34.71900 5.57400 28.79800
H  39.37800 10.06300 25.43600
H  42.31400 9.34600 25.71400
H  39.91300 7.30200 25.76600
H  41.09300 7.90500 24.58400
H  39.25300 7.95300 24.36500
H  41.52300 11.21100 24.47600
H  42.98400 11.57200 25.38800
H  40.47600 13.13400 25.45500
H  42.04000 13.43500 26.21800
H  40.83400 12.37900 27.03500
H  44.94200 12.88600 28.72900
H  45.95300 11.72500 29.12900
H  45.61400 12.98800 30.33900
H  42.50000 12.66600 34.35600
H  45.54600 10.20200 36.05200
H  44.54300 10.46300 37.52300
H  45.59700 11.70200 37.05900
Mg 54.36000 25.52500 45.85900
C  51.87700 27.72100 44.45500
C  52.81800 22.91400 44.16200
C  57.20300 23.66900 46.25400
C  55.91400 28.19300 47.25300
N  52.68300 25.34800 44.31700
C  51.84400 26.34100 44.00500
C  50.75800 25.77400 42.95500
C  50.84800 24.21000 43.10100
C  52.11300 24.10200 43.90800
C  49.63700 23.62300 43.90400
C  50.96900 26.25200 41.41100
C  52.30700 26.59600 40.93500
H  52.82200 25.69600 39.75500
N  54.92100 23.51000 45.36800
C  54.11700 22.62600 44.69200
C  54.75400 21.30200 44.66900
C  55.95000 21.46000 45.39700
C  56.05900 22.94200 45.76300
C  54.07400 20.04800 44.18000
C  56.95300 20.33300 45.70300
O  56.80700 19.23300 45.22900
C  58.09800 20.45900 46.62300
N  56.39000 25.90800 46.41100
C  57.36300 24.95600 46.64400
C  58.67700 25.66400 47.05800
C  58.13900 27.07400 47.52800
C  56.66600 27.01400 47.16700
C  59.62600 24.93800 48.08000
C  58.89700 28.34500 46.96000
C  59.03800 28.69300 45.52100
N  53.94200 27.58800 45.96400
C  54.66700 28.53200 46.63200
C  53.95100 29.84100 46.57900
C  52.79700 29.54200 45.73600
C  52.92600 28.20400 45.32700
C  54.38600 31.10500 47.22400
C  51.61600 30.10200 45.06600
O  51.08200 31.20600 45.07800
C  50.92000 28.92400 44.30400
C  50.77200 29.24000 42.89200
O  51.71100 29.64400 42.23000
O  49.45500 29.06300 42.49100
C  49.12700 29.65100 41.17600
H  52.31100 21.99400 43.86200
H  58.12900 23.09200 46.21400
H  56.27700 29.13000 47.68000
H  49.83000 26.25000 43.27100
H  50.96200 23.71200 42.13800
H  49.97600 23.19700 44.84900
H  49.14400 22.83400 43.33600
H  48.94000 24.41600 44.17700
H  50.35200 27.13800 41.26500
H  50.51000 25.55300 40.71300
H  53.02600 26.52300 41.75200
H  52.20000 27.60500 40.53800
H  54.78500 19.30300 43.82300
H  53.41800 20.26100 43.33600
H  53.57600 19.48700 44.97000
H  58.52000 19.45900 46.72300
H  57.67100 20.86900 47.53800
H  58.88000 21.09800 46.21400
H  59.27200 25.87000 46.16800
H  58.06500 27.17100 48.61100
H  59.89700 25.46900 48.99300
H  60.57800 24.68400 47.61500
H  59.23800 23.98900 48.44900
H  59.91100 28.05500 47.23700
H  58.61000 29.28000 47.44100
H  58.47600 27.93800 44.97000
H  60.09700 28.57800 45.29000
H  58.71100 29.71600 45.34000
H  53.62000 31.87800 47.15700
H  55.31400 31.43100 46.75500
H  54.53400 30.86700 48.27800
H  49.98500 28.72500 44.82800
H  49.05800 30.73700 41.24000
H  48.14000 29.33200 40.84100
H  49.90600 29.47800 40.43400

