158

Mg 2.95200 -1.58900 45.41200
C  6.34800 -1.14700 44.96900
C  2.34200 0.82100 42.95300
C  -0.42600 -2.40500 45.26000
C  3.58700 -4.60700 47.20100
N  4.14000 -0.52600 44.03000
C  5.56300 -0.50800 44.02600
C  6.09400 0.38200 42.85800
C  4.81600 1.23700 42.53500
C  3.70000 0.52300 43.26100
C  4.94300 2.73900 42.92600
C  6.45000 -0.55100 41.53800
C  7.81000 -0.19400 41.00200
H  8.14200 0.04400 39.52600
N  1.18400 -0.84800 44.42600
C  1.18100 0.18700 43.53800
C  -0.17900 0.51600 43.10900
C  -1.02500 -0.43000 43.78400
C  -0.13400 -1.24500 44.58300
C  -0.52400 1.72400 42.27700
C  -2.55100 -0.58600 43.68600
O  -3.16100 0.11200 42.92100
C  -3.41500 -1.58400 44.44500
N  1.73800 -3.25500 46.20400
C  0.39900 -3.35400 46.01200
C  -0.15800 -4.54700 46.75900
C  1.16200 -5.40500 47.02000
C  2.26000 -4.34600 46.83800
C  -0.93300 -4.21900 48.06900
C  1.20600 -6.64300 45.98900
C  0.52000 -7.91400 46.44700
N  4.62600 -2.58900 46.18000
C  4.72800 -3.76700 46.85600
C  6.09800 -4.03600 47.05100
C  6.78600 -3.00100 46.40700
C  5.86400 -2.16800 45.78200
C  6.66300 -5.22400 47.77800
C  8.07200 -2.51100 46.11600
O  9.15600 -2.89800 46.55600
C  7.90000 -1.23300 45.18200
C  8.58200 -0.02800 45.87800
O  9.52400 -0.03400 46.72800
O  7.89400 1.04200 45.50800
C  8.04300 2.26000 46.35300
H  2.24500 1.53200 42.12900
H  -1.40500 -2.83200 45.03600
H  3.80200 -5.45000 47.86100
H  6.95500 0.93300 43.23400
H  4.61900 1.24300 41.46300
H  5.92900 3.00300 43.30800
H  4.20400 2.99400 43.68500
H  4.81600 3.28400 41.99000
H  5.63900 -0.48700 40.81200
H  6.59000 -1.58300 41.86200
H  8.44300 -1.03000 41.29900
H  8.17500 0.73200 41.44800
H  -0.52800 1.41200 41.23300
H  0.24300 2.47700 42.45900
H  -1.56300 1.98600 42.47700
H  -3.20200 -1.52000 45.51200
H  -3.31500 -2.62200 44.12800
H  -4.46300 -1.29200 44.38900
H  -0.77400 -5.19400 46.13400
H  1.17300 -5.80200 48.03500
H  -1.84500 -4.81500 48.01900
H  -1.15700 -3.18100 47.82000
H  -0.37400 -4.48800 48.96500
H  2.24800 -6.90300 45.80200
H  0.75200 -6.38000 45.03400
H  -0.16100 -8.26300 45.67000
H  0.04800 -7.82400 47.42500
H  1.29700 -8.66300 46.60200
H  7.65800 -5.11200 48.21000
H  6.67700 -6.02100 47.03500
H  5.98800 -5.51400 48.58300
H  8.35300 -1.55600 44.24500
H  8.40200 1.93700 47.33000
H  7.05600 2.67700 46.55700
H  8.78300 2.92900 45.91400
Mg 48.02800 35.09900 27.83900
C  46.30400 33.42700 30.33200
C  48.60500 37.54800 30.08200
C  49.27000 37.01200 25.22200
C  47.59900 32.44700 25.67900
N  47.45400 35.47600 29.90500
C  46.96000 34.55800 30.85200
C  47.11000 35.05000 32.23600
C  47.36200 36.54100 32.03500
C  47.87300 36.54000 30.59200
C  46.09800 37.41100 32.22300
C  48.41200 34.25100 32.78200
C  48.74500 34.44800 34.27600
H  47.67500 35.07900 35.22100
N  48.91100 36.99500 27.67900
C  49.10100 37.82000 28.70900
C  49.75600 39.02200 28.21500
C  49.77000 39.04900 26.79700
C  49.24300 37.64600 26.52000
C  50.37000 40.06500 29.16000
C  50.44400 40.07200 25.81600
O  50.38600 39.93300 24.60800
C  51.18300 41.31100 26.35500
N  48.49100 34.72800 25.77200
C  48.91500 35.65700 24.87400
C  48.97200 35.08400 23.36600
C  48.75800 33.51900 23.64100
C  48.31000 33.53600 25.13300
C  47.97400 35.86100 22.52700
C  49.99300 32.63000 23.41700
C  49.77100 31.18400 23.21100
N  47.16200 33.21300 27.95300
C  46.98500 32.30000 26.99700
C  46.32300 31.20400 27.54300
C  45.84000 31.69800 28.84100
C  46.42300 32.88400 29.02600
C  45.96200 29.92700 26.76600
C  45.11500 31.35500 30.07200
O  44.46000 30.38600 30.38600
C  45.28200 32.50700 31.06400
C  45.61500 31.95700 32.32700
O  46.57500 31.19300 32.55000
O  44.64000 32.29300 33.28200
C  44.93100 31.80700 34.63400
H  48.64400 38.35300 30.81900
H  49.55500 37.57100 24.32800
H  47.27300 31.70900 24.94200
H  46.20600 34.81700 32.80000
H  48.14600 36.84000 32.73000
H  46.28500 37.98000 33.13300
H  45.31300 36.72200 32.53400
H  45.77400 38.09000 31.43400
H  49.29100 34.68100 32.30200
H  48.34400 33.18000 32.58700
H  49.69600 34.97600 34.34100
H  48.90000 33.44400 34.67100
H  50.54900 39.60400 30.13200
H  49.72000 40.92300 29.33100
H  51.39100 40.32200 28.87600
H  50.43500 41.88400 26.90300
H  51.56100 42.04400 25.64300
H  52.04300 40.94700 26.91700
H  49.96300 35.22200 22.93400
H  48.00700 33.03900 23.01300
H  47.30600 35.15000 22.04200
H  48.39000 36.49000 21.74000
H  47.47700 36.44000 23.30600
H  50.64400 32.69600 24.29000
H  50.65100 32.95300 22.61100
H  50.01400 31.16200 22.14800
H  48.77000 30.77900 23.35400
H  50.39900 30.53800 23.82500
H  45.66200 30.27200 25.77600
H  45.19500 29.37500 27.30800
H  46.69000 29.13000 26.61200
H  44.32900 33.03000 31.14900
H  45.98600 31.62800 34.84300
H  44.37100 30.89500 34.84100
H  44.49800 32.52400 35.33100

