158

Mg 16.81000 -3.33500 28.49400
C  16.09400 -1.06100 31.11200
C  18.31500 -5.38000 30.70800
C  18.07700 -5.02100 25.89800
C  15.52000 -0.86400 26.26300
N  17.24200 -3.11900 30.64300
C  16.85900 -2.20200 31.53700
C  17.18400 -2.68200 32.98700
C  18.08100 -3.96100 32.73200
C  17.87800 -4.14800 31.28600
C  19.62600 -3.81300 33.09000
C  15.89800 -3.03100 33.86300
C  15.70200 -2.27400 35.16500
H  16.83300 -1.87800 35.95700
N  17.87300 -5.04200 28.25500
C  18.36500 -5.76300 29.35200
C  18.88800 -7.03600 28.86300
C  18.82800 -6.94200 27.42000
C  18.25500 -5.64700 27.12500
C  19.36200 -8.18800 29.70100
C  19.35200 -7.96000 26.34700
O  19.32000 -7.70200 25.17300
C  19.97000 -9.23900 26.78900
N  16.61400 -3.08800 26.40400
C  17.30500 -3.89300 25.54500
C  17.11500 -3.46600 24.12900
C  16.17900 -2.23200 24.17000
C  16.03400 -2.03300 25.70700
C  18.50700 -3.25100 23.37500
C  14.84300 -2.35100 23.33500
C  13.55800 -2.04600 24.04700
N  15.84500 -1.42200 28.60800
C  15.37200 -0.53100 27.63400
C  14.76300 0.70600 28.29500
C  14.99700 0.45800 29.62600
C  15.67100 -0.81900 29.74500
C  14.15600 1.80900 27.53900
C  14.96200 1.12800 30.96800
O  14.48500 2.22000 31.20600
C  15.55600 0.09400 31.97900
C  16.53300 0.83100 32.75900
O  17.67100 1.09500 32.39700
O  15.93300 1.38700 33.82400
C  16.55000 2.45200 34.59000
H  18.70600 -6.15000 31.37800
H  18.43500 -5.58300 25.03300
H  15.08200 -0.13800 25.57500
H  17.78900 -1.90700 33.45800
H  17.61100 -4.83000 33.19200
H  20.17300 -3.65700 32.16000
H  20.01500 -4.74800 33.49200
H  19.72900 -3.03800 33.85000
H  15.68000 -4.05800 34.15700
H  15.06700 -2.76000 33.21200
H  14.90600 -2.70400 35.77300
H  15.23800 -1.35300 34.80900
H  18.76100 -9.02800 29.35500
H  19.05700 -8.05100 30.73900
H  20.42100 -8.43500 29.62200
H  20.85500 -9.24300 27.42600
H  20.26500 -9.83700 25.92600
H  19.14900 -9.79800 27.23800
H  16.60000 -4.37200 23.81300
H  16.65600 -1.37000 23.70300
H  18.67800 -2.17900 23.27300
H  18.51800 -3.70000 22.38100
H  19.30400 -3.50800 24.07200
H  14.79600 -3.33500 22.86900
H  14.88000 -1.70300 22.45900
H  13.37400 -2.60900 24.96200
H  12.78600 -2.29200 23.31800
H  13.58600 -0.97100 24.22200
H  14.47100 1.64000 26.50900
H  14.51000 2.80600 27.79900
H  13.07100 1.70500 27.53400
H  14.86900 -0.32800 32.71300
H  15.96000 3.36600 34.65800
H  17.58300 2.65700 34.30600
H  16.43900 2.18700 35.64100
Mg 53.07100 23.28700 45.13400
C  50.42700 25.53200 44.10900
C  51.11200 20.68100 43.88800
C  55.91800 21.48700 44.88900
C  54.86500 26.10200 46.30700
N  51.01500 23.23300 44.03100
C  50.13600 24.23700 43.72000
C  48.90400 23.64100 43.01200
C  48.99200 22.14200 43.44400
C  50.43700 21.97000 43.76800
C  48.04100 21.85800 44.62800
C  48.93900 23.67400 41.41100
C  47.61000 23.62800 40.70000
H  47.48100 22.91700 39.30900
N  53.46300 21.34400 44.61300
C  52.53500 20.40400 44.11800
C  53.23400 19.13000 43.93500
C  54.60200 19.28700 44.29500
C  54.72500 20.77100 44.67200
C  52.62300 17.93100 43.28700
C  55.69700 18.25000 44.18000
O  55.46000 17.08100 43.96000
C  57.11200 18.50100 44.63300
N  55.14500 23.75900 45.50500
C  56.08800 22.79100 45.48700
C  57.40000 23.25300 46.12400
C  57.12100 24.71100 46.60700
C  55.68800 24.91900 45.98100
C  57.79800 22.31700 47.29000
C  58.27400 25.74900 46.10600
C  59.13100 26.42100 47.19700
N  52.72600 25.39000 45.31800
C  53.50100 26.35300 45.91200
C  52.76700 27.62100 45.85600
C  51.52700 27.32400 45.17900
C  51.56600 25.97800 44.87200
C  53.23500 29.01600 46.29500
C  50.30800 27.93400 44.75100
O  49.83700 29.05200 44.98600
C  49.47500 26.75600 44.11200
C  48.89000 27.07700 42.76000
O  49.54700 27.36600 41.72500
O  47.55800 27.13200 42.88600
C  46.86300 27.44400 41.64100
H  50.49100 19.85000 43.54700
H  56.84300 20.95200 44.66200
H  55.53700 26.87400 46.68700
H  48.07700 24.23300 43.40300
H  48.71000 21.44000 42.65800
H  47.41300 22.73600 44.77900
H  48.62200 21.72000 45.54000
H  47.41700 21.02000 44.31700
H  49.47500 22.80400 41.03100
H  49.48800 24.56400 41.10400
H  47.34900 24.65200 40.43300
H  46.83600 23.27500 41.38100
H  53.09800 17.61300 42.35900
H  51.63600 18.16100 42.88700
H  52.54900 17.18000 44.07400
H  57.51200 19.03800 43.77300
H  57.58800 17.54300 44.84200
H  57.17300 19.10900 45.53500
H  58.15200 23.09400 45.35100
H  57.08800 24.82500 47.69100
H  58.85600 22.07000 47.20000
H  57.24300 21.38300 47.19900
H  57.61300 22.79400 48.25200
H  57.75500 26.51300 45.52800
H  59.01100 25.24200 45.48300
H  58.95800 25.85400 48.11100
H  58.84100 27.46700 47.29800
H  60.17900 26.37300 46.90300
H  54.10800 28.97600 46.94600
H  52.37900 29.53200 46.73000
H  53.42700 29.69300 45.46300
H  48.66900 26.62200 44.83400
H  46.12300 28.23100 41.78500
H  46.25200 26.62200 41.27000
H  47.45200 27.75500 40.77800

