158

Mg 24.87800 1.32600 30.17500
C  27.07400 0.95900 32.89100
C  22.30500 1.72600 32.32500
C  22.82800 1.43500 27.54700
C  27.57800 0.30700 28.07700
N  24.69400 1.26800 32.36200
C  25.76400 1.30400 33.27500
C  25.19100 1.59000 34.66000
C  23.65100 1.65600 34.45200
C  23.50400 1.47900 32.96400
C  22.71700 0.63400 35.18300
C  25.83900 2.78800 35.45000
C  26.40600 2.50600 36.78800
H  26.20400 3.71300 37.78300
N  22.80400 1.53500 29.97800
C  21.91200 1.64900 30.95500
C  20.54800 1.71700 30.40600
C  20.73000 1.69300 29.03700
C  22.18400 1.58700 28.79100
C  19.29800 1.90800 31.20600
C  19.71500 1.70400 27.89700
O  19.97500 1.82200 26.71500
C  18.32600 1.62600 28.24600
N  25.15100 0.88000 28.11500
C  24.15000 1.08300 27.19900
C  24.74200 0.96800 25.73000
C  26.15900 0.57100 25.97700
C  26.30800 0.48900 27.47700
C  23.87200 0.07300 24.66200
C  27.22500 1.56800 25.43600
C  27.25200 3.07500 25.86200
N  26.95800 0.78600 30.38000
C  27.89100 0.33700 29.44500
C  29.15200 0.09200 30.11400
C  28.91600 0.44000 31.44500
C  27.56500 0.75700 31.56000
C  30.44700 -0.32100 29.49200
C  29.43500 0.50300 32.75100
O  30.54200 0.17600 33.11900
C  28.29300 0.83400 33.73100
C  28.10900 -0.24300 34.71300
O  27.49000 -1.27400 34.63100
O  28.76500 0.19900 35.78500
C  28.47000 -0.26300 37.12400
H  21.45400 1.90900 32.98400
H  22.13800 1.26700 26.71800
H  28.34900 -0.02500 27.37800
H  25.40900 0.67200 35.20600
H  23.17600 2.60600 34.69600
H  22.25900 -0.00900 34.43200
H  21.93000 1.27600 35.57700
H  23.20600 0.03000 35.94800
H  25.17500 3.65300 35.43400
H  26.61800 3.09600 34.75300
H  27.46700 2.33600 36.60200
H  25.94400 1.58600 37.14600
H  18.92700 2.76400 30.64300
H  19.41500 2.17800 32.25600
H  18.62500 1.05100 31.15800
H  17.93100 2.45800 28.83000
H  18.30400 0.79300 28.94900
H  17.68300 1.41300 27.39200
H  24.83000 1.98800 25.35700
H  26.28700 -0.41000 25.51800
H  23.09300 -0.40800 25.25400
H  24.46400 -0.67500 24.13400
H  23.31400 0.62700 23.90700
H  27.15800 1.64400 24.35100
H  28.20900 1.13800 25.62400
H  26.52200 3.30000 26.64000
H  27.02900 3.75800 25.04200
H  28.22200 3.30800 26.29900
H  30.82500 0.34200 28.71400
H  30.31500 -1.28000 28.99100
H  31.22100 -0.21500 30.25200
H  28.40300 1.82500 34.17200
H  28.59600 -1.34100 37.22400
H  27.39400 -0.10700 37.20500
H  29.01600 0.22400 37.93200
Mg 46.03300 17.38100 29.14600
C  43.83700 16.80300 31.94300
C  48.19900 19.04100 31.08200
C  47.56700 18.17400 26.33300
C  43.33800 15.90900 27.15500
N  45.99600 17.88600 31.19200
C  45.03200 17.54700 32.17500
C  45.67900 17.80900 33.53000
C  46.77600 18.84800 33.19100
C  47.01800 18.61000 31.74100
C  46.31700 20.27900 33.61800
C  46.09300 16.50000 34.28700
C  45.54300 16.37200 35.77000
H  45.70400 17.71300 36.45500
N  47.72000 18.31600 28.75600
C  48.58100 18.89300 29.69500
C  49.76900 19.30500 29.05200
C  49.61700 19.19600 27.65000
C  48.29200 18.50900 27.51800
C  50.86600 19.77600 29.84600
C  50.53400 19.49700 26.56100
O  50.41800 19.01400 25.43600
C  51.59700 20.42300 26.78600
N  45.55500 16.98700 27.10300
C  46.30600 17.57000 26.14500
C  45.80700 17.25100 24.70500
C  44.58900 16.34700 25.04200
C  44.45900 16.45200 26.54200
C  45.37100 18.53900 23.87700
C  44.70400 14.83000 24.50000
C  43.72300 14.47700 23.37900
N  44.00300 16.38100 29.45800
C  43.07400 15.79600 28.55100
C  42.00000 15.26100 29.32500
C  42.30100 15.61100 30.67500
C  43.47900 16.31400 30.66100
C  40.75300 14.57400 28.81800
C  41.77100 15.58400 32.06800
O  40.72700 15.10600 32.50200
C  42.86500 16.25800 32.98100
C  42.30800 17.33400 33.71200
O  41.93400 18.41700 33.23200
O  42.16500 16.97700 35.02900
C  41.57600 17.99300 35.92600
H  48.91800 19.56900 31.71300
H  48.06000 18.47000 25.40400
H  42.54200 15.45400 26.56100
H  44.86000 18.22800 34.11400
H  47.68200 18.62500 33.75300
H  46.15400 20.83500 32.69500
H  47.12200 20.77000 34.16500
H  45.36100 20.20100 34.13600
H  47.16600 16.30400 34.27700
H  45.59200 15.72000 33.71300
H  46.25400 15.78700 36.35400
H  44.53000 16.00400 35.93300
H  51.78900 19.29300 29.52600
H  50.73700 19.47700 30.88600
H  50.95000 20.86300 29.86700
H  52.03300 20.79800 25.86000
H  52.36400 19.94900 27.39900
H  51.09500 21.24300 27.29800
H  46.51000 16.69900 24.08200
H  43.70400 16.84400 24.64300
H  45.47100 19.45800 24.45500
H  44.39400 18.59300 23.39700
H  46.09300 18.63400 23.06600
H  44.53900 14.14600 25.33200
H  45.72400 14.72900 24.12900
H  42.98300 13.80900 23.81900
H  44.30900 14.08300 22.54900
H  43.16800 15.36400 23.07000
H  39.88500 14.87500 29.40400
H  40.86300 13.49100 28.87300
H  40.64500 14.75300 27.74800
H  43.21900 15.42300 33.58500
H  42.04900 17.73300 36.87200
H  40.50400 17.88400 36.08800
H  41.69200 19.04700 35.67100

