158

Mg 1.66700 -1.49500 43.80400
C  5.06200 -0.79100 43.17000
C  0.70400 1.04600 41.83600
C  -1.36200 -2.95500 43.63500
C  2.84500 -4.59800 45.48600
N  2.80200 -0.05500 42.69700
C  4.15600 0.06300 42.57200
C  4.49500 1.28400 41.73600
C  3.09100 1.94400 41.36900
C  2.11200 0.92800 41.98700
C  3.02700 3.33000 42.05400
C  5.36700 1.11500 40.46500
C  6.38100 2.25900 40.01400
H  6.09200 3.09800 38.68400
N  -0.11500 -0.91400 43.06200
C  -0.36700 0.21400 42.30700
C  -1.73000 0.41900 42.17400
C  -2.33300 -0.71500 42.75300
C  -1.25000 -1.62000 43.18100
C  -2.23100 1.79000 41.68500
C  -3.80900 -0.86600 42.83200
O  -4.64500 -0.08700 42.28700
C  -4.48900 -1.95800 43.61200
N  0.84500 -3.54000 44.52800
C  -0.42500 -3.80500 44.24000
C  -0.81100 -5.13600 44.84300
C  0.52700 -5.75000 45.52000
C  1.51900 -4.63900 45.08500
C  -2.05600 -5.15900 45.72700
C  1.05400 -7.17200 45.18400
C  1.26400 -8.03800 46.47400
N  3.49800 -2.51000 44.28400
C  3.72800 -3.66000 44.93900
C  5.20500 -3.77300 45.05700
C  5.77000 -2.69700 44.44100
C  4.64300 -1.98600 43.96100
C  5.92600 -4.88600 45.72900
C  6.97300 -1.89500 44.16700
O  8.13100 -2.09800 44.46500
C  6.60300 -0.70400 43.24400
C  6.92700 0.53400 43.99600
O  6.47700 0.91500 45.10200
O  7.75500 1.31900 43.12000
C  8.24600 2.63500 43.66300
H  0.31400 1.86600 41.23000
H  -2.38700 -3.33200 43.63400
H  3.16000 -5.50600 46.00600
H  5.17400 1.84400 42.37900
H  2.89000 2.09800 40.30900
H  3.99300 3.58700 42.49000
H  2.22100 3.39500 42.78500
H  2.71500 4.00000 41.25300
H  4.75100 0.90000 39.59200
H  5.93200 0.19100 40.58600
H  7.34700 1.78500 39.84100
H  6.35300 2.93100 40.87200
H  -3.24800 1.71200 41.30200
H  -1.64800 2.06700 40.80700
H  -2.15200 2.51700 42.49400
H  -3.88800 -2.17100 44.49600
H  -4.44200 -2.81500 42.94000
H  -5.50700 -1.77100 43.95300
H  -0.90200 -5.73300 43.93500
H  0.54100 -5.62400 46.60300
H  -2.63600 -4.23800 45.66800
H  -1.80700 -5.43500 46.75100
H  -2.74900 -5.83800 45.22900
H  1.91300 -7.28400 44.52200
H  0.25600 -7.56200 44.55300
H  2.18400 -8.59100 46.28300
H  0.38300 -8.67400 46.56800
H  1.42000 -7.46700 47.38900
H  5.55300 -5.03800 46.74200
H  7.00600 -4.73900 45.72100
H  5.71900 -5.82400 45.21500
H  7.11700 -0.64400 42.28500
H  9.33200 2.66400 43.75900
H  7.91800 2.89300 44.67000
H  7.91900 3.51800 43.11500
Mg 25.98300 0.86800 29.61100
C  27.98500 0.70200 32.42500
C  23.24500 1.15900 31.65400
C  24.17600 0.93500 26.76800
C  28.79700 0.09000 27.62200
N  25.67500 1.01900 31.84500
C  26.64500 1.03100 32.78200
C  26.15700 1.54300 34.10700
C  24.62000 1.27500 33.97700
C  24.44400 1.26100 32.40300
C  24.01800 0.02000 34.70800
C  26.54400 3.01900 34.50300
C  27.29500 3.11000 35.88000
H  26.59500 3.80100 37.02900
N  23.99900 0.90400 29.27800
C  23.00800 1.03300 30.26900
C  21.76000 1.13200 29.64100
C  22.02900 1.19400 28.23600
C  23.46600 0.98300 28.01300
C  20.40600 1.21000 30.43300
C  20.96300 1.21300 27.10300
O  21.25600 1.04700 25.90500
C  19.54400 1.67400 27.52900
N  26.49900 0.84300 27.39100
C  25.55300 0.74100 26.50200
C  26.15000 0.49300 25.09600
C  27.66000 0.32800 25.38000
C  27.68900 0.46700 26.86900
C  25.42400 -0.65400 24.39400
C  28.73500 1.27100 24.66200
C  29.52700 0.62800 23.49100
N  27.96400 0.42600 29.89900
C  28.96100 0.11300 29.03600
C  30.21600 -0.23500 29.80800
C  29.89300 0.16900 31.08800
C  28.50900 0.39100 31.16000
C  31.60900 -0.59500 29.28700
C  30.42600 0.33400 32.48100
O  31.53800 0.29600 32.93000
C  29.16800 0.71500 33.39500
C  29.01800 -0.21400 34.54000
O  28.68300 -1.38400 34.45500
O  29.36100 0.46300 35.67000
C  29.19700 -0.36700 36.84700
H  22.37700 1.15100 32.31700
H  23.57400 0.87800 25.85900
H  29.63700 -0.03600 26.93600
H  26.54000 0.88600 34.88700
H  23.92400 2.09200 34.16800
H  24.02100 -0.83600 34.03300
H  22.98300 0.07800 35.04700
H  24.66100 -0.04000 35.58600
H  25.69400 3.70000 34.54700
H  27.20800 3.39000 33.72300
H  28.22900 3.65000 35.72400
H  27.62000 2.10300 36.14500
H  19.97000 0.41500 29.82800
H  19.89900 2.17100 30.35800
H  20.48100 0.86200 31.46300
H  19.11200 0.79400 28.00600
H  18.99000 1.87400 26.61200
H  19.72800 2.57000 28.12200
H  26.00900 1.46700 24.62700
H  27.94300 -0.68400 25.09000
H  24.89700 -1.25200 25.13800
H  26.13500 -1.29600 23.87500
H  24.67600 -0.22300 23.72800
H  29.49100 1.51800 25.40700
H  28.24800 2.19100 24.33800
H  29.61400 1.33000 22.66200
H  29.01400 -0.28400 23.18500
H  30.55200 0.38500 23.77000
H  32.27600 -0.07700 29.97600
H  31.80600 -0.37500 28.23800
H  31.72400 -1.67400 29.38900
H  29.28000 1.70100 33.84700
H  28.15100 -0.28200 37.14100
H  29.83500 -0.04300 37.67000
H  29.48600 -1.41600 36.78000

