158

Mg 36.12400 1.96500 29.53400
C  34.04200 2.85300 32.24400
C  38.73200 1.97000 31.81900
C  38.18200 1.70800 26.97500
C  33.47600 2.53000 27.39000
N  36.34400 2.32200 31.86800
C  35.33700 2.60700 32.72500
C  35.83700 2.67000 34.17800
C  37.42000 2.49500 34.05600
C  37.55100 2.27600 32.46200
C  38.24200 3.68800 34.71000
C  35.15000 1.55700 35.14500
C  34.89300 1.92200 36.61000
H  35.68700 3.06900 37.33600
N  38.17500 1.72700 29.39200
C  39.06500 1.58900 30.45600
C  40.39300 1.28500 30.00400
C  40.22600 1.25700 28.59900
C  38.84300 1.61300 28.23700
C  41.64500 0.96400 30.81800
C  41.25000 0.89400 27.52700
O  40.87500 0.70900 26.34000
C  42.76700 0.69500 27.78800
N  35.82200 2.00100 27.54400
C  36.86600 1.88700 26.64800
C  36.50500 2.17800 25.23900
C  34.91900 2.16700 25.32000
C  34.67300 2.22900 26.85400
C  37.22200 3.45000 24.61700
C  34.25000 0.97900 24.55800
C  34.02100 -0.33800 25.35500
N  34.15700 2.56600 29.73600
C  33.20900 2.75700 28.75700
C  31.92900 3.13200 29.40600
C  32.18200 3.20500 30.81600
C  33.59600 2.87500 30.91500
C  30.61000 3.61100 28.72200
C  31.66300 3.40700 32.08600
O  30.48800 3.67300 32.45100
C  32.75200 3.09600 33.08200
C  32.80900 4.22800 34.05000
O  33.40200 5.27000 33.79100
O  32.12500 3.92600 35.20400
C  32.06300 5.19800 36.05900
H  39.52900 1.91100 32.56200
H  38.79200 1.58700 26.07800
H  32.67800 2.83400 26.71000
H  35.68900 3.60400 34.72000
H  37.69300 1.59400 34.60700
H  39.06800 3.28100 35.29400
H  37.72700 4.33100 35.42300
H  38.63800 4.34400 33.93400
H  35.76200 0.65600 35.11000
H  34.23400 1.27000 34.63000
H  34.94700 0.98100 37.15800
H  33.82700 2.14900 36.64100
H  42.15700 0.12100 30.35400
H  41.31000 0.62000 31.79600
H  42.23700 1.87100 30.94400
H  43.19500 0.61700 26.78800
H  42.73700 -0.27500 28.28400
H  43.16700 1.56400 28.31000
H  36.77700 1.30100 24.65200
H  34.65700 3.12500 24.87200
H  37.79500 3.91800 25.41700
H  36.53300 4.22200 24.27600
H  37.83900 3.15200 23.76900
H  34.93300 0.81500 23.72300
H  33.31600 1.31900 24.11000
H  32.97800 -0.34200 25.66900
H  34.59900 -0.44400 26.27300
H  34.25600 -1.22000 24.76000
H  29.90800 2.79300 28.56300
H  30.71600 4.14700 27.77800
H  30.15300 4.24100 29.48400
H  32.51600 2.16000 33.58800
H  31.37100 5.19200 36.90000
H  31.83400 6.00300 35.36000
H  33.04400 5.51300 36.41300
Mg 40.78100 41.08500 26.75500
C  40.47300 43.59100 29.29400
C  41.55900 38.87500 29.27100
C  41.23100 38.89000 24.37700
C  40.14100 43.63300 24.42800
N  41.14400 41.28500 29.00400
C  40.76700 42.36900 29.82100
C  40.98700 41.96500 31.33500
C  41.62300 40.52200 31.22700
C  41.31700 40.17400 29.69600
C  43.04400 40.30400 31.57100
C  39.62500 41.93000 32.02100
C  39.60200 42.73500 33.36800
H  39.01000 41.93600 34.54100
N  41.38800 39.14900 26.74700
C  41.62000 38.46200 27.91300
C  42.03200 37.16600 27.45800
C  41.78600 37.00000 26.03800
C  41.50700 38.40900 25.66300
C  42.55700 36.13100 28.48000
C  41.77600 35.78400 25.16300
O  41.53000 35.88800 23.98100
C  42.34000 34.54600 25.69600
N  40.65800 41.23900 24.72700
C  40.86100 40.17100 23.92600
C  40.54900 40.46700 22.42200
C  39.98400 41.94400 22.47000
C  40.29500 42.29200 23.97200
C  41.82500 40.40700 21.52000
C  38.47400 42.06600 22.16500
C  37.61600 41.15700 23.02500
N  40.31200 43.19500 26.72300
C  40.20600 44.09200 25.70100
C  40.16000 45.37700 26.23200
C  40.17500 45.21700 27.65600
C  40.30000 43.88300 27.88900
C  39.84300 46.50600 25.26200
C  40.10700 45.97200 28.96800
O  40.01700 47.12000 29.15800
C  40.26300 44.93200 30.06100
C  41.46200 45.31700 30.89900
O  42.63400 45.34600 30.52300
O  41.06200 45.67600 32.18700
C  42.10100 46.05900 33.20000
H  41.79900 38.21100 30.10400
H  41.49400 38.20800 23.56500
H  39.88300 44.37200 23.66600
H  41.65600 42.67600 31.82000
H  41.04100 39.84700 31.85400
H  43.67100 40.06500 30.71200
H  43.02000 39.42300 32.21300
H  43.48700 41.13800 32.11500
H  39.29000 40.89300 32.00800
H  38.88200 42.37000 31.35500
H  38.92500 43.57700 33.22300
H  40.54700 43.13600 33.73500
H  41.73800 35.46200 28.74600
H  42.77500 36.60200 29.43800
H  43.50900 35.69500 28.17700
H  41.91400 34.45800 26.69600
H  43.42700 34.62200 25.73800
H  42.18700 33.63600 25.11700
H  39.82500 39.74500 22.04300
H  40.50800 42.66200 21.83900
H  42.62300 39.93700 22.09600
H  42.06400 41.44500 21.28900
H  41.59900 39.95600 20.55400
H  38.26100 41.72900 21.15100
H  38.18000 43.11300 22.24500
H  38.10700 40.51600 23.75600
H  37.07200 40.51600 22.33100
H  36.91800 41.78200 23.58200
H  39.92400 47.47600 25.75300
H  38.79700 46.57800 24.96500
H  40.40400 46.44900 24.32900
H  39.39400 44.87500 30.71700
H  42.40100 45.26100 33.87900
H  41.79600 46.91400 33.80400
H  43.01900 46.32000 32.67400

