158

Mg 5.86700 53.82000 40.62300
C  5.45400 50.33800 40.61800
C  9.08500 53.31700 39.68500
C  6.01700 57.20200 40.14200
C  2.54100 54.17100 41.60500
N  6.98700 52.13000 40.10300
C  6.67600 50.77100 40.15700
C  7.77900 49.89200 39.70900
C  8.99400 50.78700 40.00200
C  8.31200 52.18400 39.84300
C  9.75200 50.62500 41.30000
C  7.70200 49.44200 38.25800
C  6.76100 50.22700 37.29400
H  7.48600 51.23500 36.42500
N  7.29100 55.11900 40.03900
C  8.58800 54.67600 39.71400
C  9.35900 55.89500 39.38800
C  8.51500 57.08000 39.53800
C  7.23600 56.49300 39.97300
C  10.74800 55.77500 38.85800
C  8.92000 58.58700 39.28000
O  10.07600 58.80300 38.87200
C  7.95000 59.74700 39.38300
N  4.46900 55.41600 40.58200
C  4.75900 56.74900 40.52600
C  3.55300 57.70800 40.80000
C  2.43600 56.65700 41.24000
C  3.18100 55.29400 41.15700
C  3.84000 58.69300 41.97700
C  1.21100 56.68800 40.19100
C  -0.14600 56.62800 40.89900
N  4.22100 52.56900 41.03400
C  2.93900 52.81800 41.52300
C  2.33200 51.59700 41.95900
C  3.24700 50.60000 41.56800
C  4.36100 51.26700 41.04000
C  0.95500 51.45900 42.47900
C  3.47500 49.17000 41.48800
O  2.73000 48.19600 41.72200
C  4.91000 48.96500 40.76000
C  4.67600 48.32800 39.42300
O  4.29300 48.83300 38.33500
O  5.27400 47.08700 39.48900
C  5.39700 46.23500 38.23500
H  10.12700 53.01000 39.57000
H  6.01800 58.28600 40.00500
H  1.59000 54.01900 42.12100
H  7.83900 49.05400 40.40500
H  9.73700 50.64300 39.21800
H  9.31600 49.86000 41.94300
H  9.57700 51.47400 41.96200
H  10.80000 50.33800 41.22100
H  7.36100 48.40700 38.23600
H  8.67100 49.45500 37.75900
H  6.03600 50.81600 37.85600
H  6.08400 49.55800 36.76400
H  11.30100 55.18200 39.58500
H  11.21900 56.74700 38.70500
H  10.71300 55.19900 37.93300
H  7.39900 59.85900 40.31600
H  7.25200 59.86800 38.55400
H  8.52500 60.67200 39.34100
H  3.47700 58.30000 39.88700
H  2.17600 56.69100 42.29800
H  3.86400 59.71900 41.60900
H  4.82200 58.49500 42.40600
H  3.18200 58.66300 42.84500
H  1.15100 55.84500 39.50300
H  1.20400 57.67500 39.72700
H  -0.17200 56.94400 41.94200
H  -0.59700 55.63600 40.87100
H  -0.91600 57.22900 40.41500
H  0.30700 51.89900 41.72000
H  0.78700 51.91400 43.45400
H  0.74100 50.39100 42.44300
H  5.50400 48.37100 41.45400
H  6.32700 45.69900 38.42800
H  5.50300 46.76700 37.29000
H  4.60100 45.50000 38.11800
Mg -1.51300 34.17500 27.18700
C  -3.09000 32.43700 29.80700
C  -0.22800 36.33900 29.41900
C  -0.35600 35.95300 24.50900
C  -3.21500 31.88800 24.87500
N  -1.72000 34.39700 29.35700
C  -2.36200 33.62500 30.21400
C  -2.18800 34.03900 31.68900
C  -1.47800 35.41500 31.52400
C  -1.14200 35.42500 30.04000
C  -2.37700 36.59000 31.90600
C  -1.32700 33.03000 32.52400
C  -1.97100 32.44000 33.76800
H  -1.17500 32.52600 35.05100
N  -0.32000 35.85500 26.99000
C  0.15200 36.56200 28.05100
C  0.95900 37.64400 27.57300
C  0.90100 37.58700 26.11500
C  0.06800 36.46900 25.76700
C  1.85200 38.56700 28.35100
C  1.67500 38.55700 25.05800
O  1.52100 38.29100 23.87100
C  2.52000 39.71400 25.48600
N  -1.72900 33.90900 25.11600
C  -1.15700 34.85700 24.21400
C  -1.74600 34.62900 22.82900
C  -2.27900 33.14500 22.92500
C  -2.39200 32.88700 24.37400
C  -2.87000 35.64300 22.28200
C  -1.44300 32.07100 22.33000
C  -0.28500 31.42900 23.17600
N  -2.86600 32.45300 27.28600
C  -3.43500 31.67000 26.28300
C  -4.24900 30.62900 26.89500
C  -4.08000 30.83800 28.25800
C  -3.23200 31.94200 28.48000
C  -5.10600 29.67100 26.12700
C  -4.55200 30.48300 29.58600
O  -5.36200 29.65600 29.89900
C  -3.99500 31.52400 30.59300
C  -5.10000 32.31600 31.13000
O  -6.03400 32.90700 30.57000
O  -5.04700 32.15200 32.43400
C  -6.13100 32.76700 33.19700
H  0.12900 37.11600 30.09800
H  -0.05100 36.49600 23.61200
H  -3.80900 31.33100 24.14700
H  -3.15200 34.34100 32.09800
H  -0.52500 35.50700 32.04600
H  -3.24100 36.23300 32.46800
H  -2.63800 37.12600 30.99400
H  -1.86100 37.35500 32.48600
H  -0.40400 33.44600 32.92800
H  -1.00800 32.22000 31.86800
H  -2.24300 31.39200 33.64600
H  -2.91400 32.92400 34.01800
H  1.56600 38.25700 29.35700
H  1.64900 39.62100 28.16100
H  2.87800 38.43100 28.01100
H  3.41600 39.27600 25.92700
H  1.98100 40.37400 26.16600
H  2.83400 40.15500 24.54000
H  -0.93800 34.56700 22.10000
H  -3.26600 32.98000 22.49400
H  -2.38200 36.07800 21.41000
H  -3.03200 36.46700 22.97600
H  -3.78900 35.08800 22.09700
H  -0.84400 32.51800 21.53700
H  -2.10100 31.36200 21.82700
H  0.58400 31.32500 22.52600
H  -0.49500 30.41400 23.51300
H  -0.04400 31.96800 24.09200
H  -5.87400 30.21400 25.57600
H  -5.41400 28.80400 26.71000
H  -4.44000 29.38400 25.31300
H  -3.51400 30.98200 31.40700
H  -7.13800 32.43900 32.93900
H  -5.93600 33.82800 33.03800
H  -6.00700 32.43400 34.22700

