158

Mg 17.07000 -2.93500 28.25500
C  16.17700 -0.82400 30.92500
C  18.71300 -5.02900 30.41200
C  18.31200 -4.51000 25.55800
C  15.94000 -0.27300 26.04700
N  17.32000 -2.93400 30.44800
C  16.91200 -1.97100 31.35900
C  17.36200 -2.31800 32.79800
C  18.27100 -3.64800 32.55700
C  18.03200 -3.95100 31.05700
C  19.81000 -3.42900 32.97000
C  16.07900 -2.63200 33.62400
C  16.05900 -1.84100 34.96600
H  17.40800 -1.45000 35.59200
N  18.29000 -4.56100 28.03000
C  18.87200 -5.34200 29.04100
C  19.63700 -6.41600 28.49300
C  19.42500 -6.36000 27.09400
C  18.68300 -5.09500 26.79800
C  20.30600 -7.48900 29.36500
C  19.91100 -7.30700 26.02200
O  19.74600 -7.09900 24.84100
C  20.68000 -8.59100 26.46200
N  17.00000 -2.50800 26.07900
C  17.65400 -3.33700 25.21900
C  17.69200 -2.75900 23.77800
C  16.67800 -1.53400 23.88500
C  16.54300 -1.41200 25.45200
C  19.08600 -2.38000 23.30800
C  15.44200 -1.85300 22.98700
C  15.39500 -1.16200 21.65100
N  16.16300 -0.97200 28.41000
C  15.69200 -0.10700 27.41900
C  15.00800 0.97900 28.10200
C  15.21300 0.73200 29.47100
C  15.91900 -0.41100 29.60100
C  14.15500 2.01300 27.41100
C  14.98700 1.28400 30.79500
O  14.54300 2.35700 31.14400
C  15.63700 0.26600 31.80800
C  16.58100 0.95600 32.67600
O  17.72000 1.38100 32.30600
O  15.98000 1.35900 33.84900
C  16.60800 2.43800 34.58800
H  19.28500 -5.59300 31.15100
H  18.66200 -4.90800 24.60400
H  15.71800 0.61100 25.44500
H  17.87600 -1.42400 33.15200
H  17.97400 -4.45700 33.22500
H  19.98300 -4.36500 33.50100
H  19.98400 -2.52400 33.55200
H  20.28800 -3.42200 31.99000
H  15.96900 -3.70100 33.80600
H  15.19000 -2.28100 33.10000
H  15.45700 -2.38700 35.69300
H  15.43300 -0.94900 34.95200
H  19.59800 -8.31800 29.36700
H  20.46800 -7.26600 30.42000
H  21.27700 -7.79500 28.97500
H  20.87300 -9.10600 25.52100
H  20.12700 -9.15400 27.21400
H  21.66900 -8.30900 26.82300
H  17.39100 -3.67100 23.26100
H  17.17300 -0.61500 23.57400
H  18.98600 -1.39600 22.85000
H  19.48300 -3.11700 22.60900
H  19.87200 -2.33400 24.06200
H  14.58300 -1.56100 23.59100
H  15.33300 -2.92800 22.84400
H  14.43800 -0.63900 21.64400
H  15.52400 -1.99700 20.96200
H  16.23000 -0.46200 21.65800
H  14.43100 2.93800 27.91600
H  13.10000 1.77500 27.54800
H  14.50600 2.22100 26.40000
H  14.79400 -0.09900 32.39500
H  16.94000 3.18800 33.87000
H  17.33500 2.14500 35.34600
H  15.86200 3.01900 35.12900
Mg 36.36000 49.67500 24.19800
C  36.38600 48.35500 27.35700
C  35.23200 52.74000 25.69900
C  36.07500 51.18700 21.08700
C  37.52200 46.78900 22.82800
N  35.85400 50.41800 26.28000
C  35.95000 49.69000 27.36000
C  35.58800 50.50000 28.62000
C  35.07600 51.84900 28.06300
C  35.44200 51.63700 26.55500
C  33.53500 52.11200 28.24100
C  36.80300 50.57700 29.61400
C  36.53400 50.09800 31.06300
H  35.07700 49.89500 31.67600
N  35.76600 51.62500 23.46900
C  35.34100 52.73500 24.32300
C  35.08300 53.85600 23.55200
C  35.10200 53.43600 22.17300
C  35.64300 51.99700 22.16100
C  34.63500 55.16900 24.26600
C  34.68600 54.26600 21.04100
O  34.72600 53.77800 19.91700
C  34.11300 55.59900 21.15500
N  36.82000 49.12600 22.26200
C  36.58900 49.91000 21.12900
C  37.04000 49.16000 19.90600
C  37.60300 47.78300 20.44900
C  37.22200 47.88200 21.93000
C  35.96400 49.09400 18.82100
C  39.12700 47.60600 20.19900
C  40.22900 48.25100 21.12800
N  36.80700 47.88500 24.85900
C  37.34700 46.78900 24.20200
C  37.63200 45.74300 25.11500
C  37.31800 46.30700 26.38100
C  36.78500 47.58600 26.18300
C  38.16400 44.33900 24.77900
C  37.31900 46.12900 27.80100
O  37.76300 45.14000 28.44800
C  36.56900 47.28000 28.47000
C  35.28500 46.86100 29.00500
O  34.22100 47.21000 28.57000
O  35.56000 46.14000 30.13100
C  34.42200 45.79700 31.01100
H  34.91100 53.61300 26.27200
H  36.02600 51.65700 20.10300
H  38.04500 45.99700 22.28800
H  34.79000 49.93600 29.10400
H  35.63700 52.72000 28.40400
H  33.08100 51.55200 29.05900
H  33.02200 51.56200 27.45100
H  33.34000 53.18200 28.30000
H  37.23300 51.57000 29.74500
H  37.61800 49.93900 29.27400
H  37.09300 50.82500 31.65300
H  37.06700 49.14800 31.12000
H  35.08800 55.32400 25.24500
H  33.56700 55.09700 24.47100
H  34.77200 55.98800 23.56000
H  34.90200 56.26700 21.50200
H  33.23800 55.66700 21.80100
H  33.78300 55.99800 20.19600
H  37.83000 49.78700 19.49300
H  37.09700 46.90800 20.04200
H  36.15700 49.59500 17.87200
H  34.94500 49.37000 19.09300
H  35.93200 48.09000 18.39900
H  39.21200 47.95300 19.16900
H  39.30200 46.53800 20.06900
H  40.23900 47.63500 22.02700
H  39.83000 49.24100 21.34900
H  41.21000 48.28700 20.65400
H  39.09500 44.47900 24.22900
H  37.41900 43.73000 24.26700
H  38.50000 43.72700 25.61600
H  37.15700 47.78200 29.23900
H  33.78700 45.02500 30.57600
H  33.80200 46.69300 31.04900
H  34.74600 45.52100 32.01400

