158

Mg -2.45900 17.31300 26.59500
C  -2.55200 15.36200 29.43800
C  -2.69500 20.09400 28.57500
C  -2.68800 19.17000 23.81800
C  -2.83700 14.32100 24.66100
N  -2.54500 17.68300 28.76100
C  -2.55400 16.73300 29.76000
C  -2.58600 17.31100 31.13500
C  -2.47400 18.82800 30.86100
C  -2.63000 18.85900 29.32700
C  -3.51600 19.65200 31.59400
C  -1.49000 16.81000 32.16400
C  -0.69300 17.63600 33.24900
H  -0.41700 17.00800 34.60500
N  -2.53700 19.32100 26.22700
C  -2.65000 20.33700 27.14200
C  -2.52700 21.61800 26.50000
C  -2.36700 21.35700 25.08900
C  -2.56000 19.87600 24.97700
C  -2.74800 22.92700 27.26300
C  -2.00900 22.27600 23.98100
O  -2.03700 21.87500 22.83000
C  -1.78300 23.78100 24.18900
N  -2.77200 16.82300 24.55600
C  -2.82300 17.77000 23.61200
C  -2.90100 17.16900 22.20800
C  -3.12000 15.67700 22.48700
C  -2.82200 15.56700 23.99400
C  -4.07200 17.84600 21.35300
C  -2.10900 14.77000 21.72000
C  -0.58800 14.90200 22.17000
N  -2.47300 15.20000 26.84500
C  -2.64600 14.09800 26.02200
C  -2.76200 12.87300 26.73800
C  -2.77700 13.37300 28.09200
C  -2.58000 14.80000 28.12500
C  -2.76800 11.53900 26.15100
C  -2.91900 12.95300 29.48600
O  -3.14300 11.83300 29.89500
C  -2.70100 14.11900 30.42900
C  -1.47100 13.77500 31.22100
O  -0.28300 13.91700 30.83300
O  -1.85200 13.33300 32.43800
C  -0.81600 12.98700 33.44200
H  -2.67900 20.95700 29.24400
H  -2.84200 19.79500 22.93500
H  -3.07300 13.37500 24.16900
H  -3.61300 17.11100 31.43900
H  -1.49200 19.26700 31.03900
H  -4.07800 20.25000 30.87600
H  -2.96600 20.36800 32.20500
H  -4.13800 18.99700 32.20500
H  -0.73600 16.32300 31.54600
H  -1.98900 16.09900 32.82200
H  -1.34300 18.50600 33.34700
H  0.28600 17.86000 32.82700
H  -1.74300 23.32700 27.40000
H  -3.23600 22.87700 28.23700
H  -3.30900 23.59200 26.60700
H  -1.08100 23.90200 25.01400
H  -2.69400 24.18300 24.63100
H  -1.55600 24.36500 23.29600
H  -1.90600 17.28100 21.77800
H  -4.13200 15.35700 22.23800
H  -4.51200 17.16100 20.62900
H  -3.62400 18.54700 20.64900
H  -4.80000 18.42200 21.92500
H  -2.29000 15.12300 20.70400
H  -2.51600 13.76200 21.80100
H  -0.33700 14.08900 22.85100
H  -0.40900 15.84500 22.68700
H  -0.08100 14.88400 21.20500
H  -1.94800 11.39400 25.44800
H  -3.76000 11.48000 25.70300
H  -2.72100 10.85000 26.99400
H  -3.56800 14.24300 31.07800
H  -0.99300 13.60100 34.32500
H  0.20900 13.10200 33.08900
H  -0.85400 11.99000 33.87900
Mg 0.76300 42.96800 25.57000
C  2.54800 42.72700 28.39700
C  -2.09900 41.74700 27.42400
C  -0.87900 42.58400 22.69000
C  3.68100 43.89600 23.85000
N  0.30300 42.36200 27.63500
C  1.21400 42.44600 28.64600
C  0.51500 42.03800 30.03000
C  -0.81400 41.45700 29.61000
C  -0.91500 41.90100 28.10500
C  -1.11600 39.96900 29.89000
C  0.46400 43.31700 30.89400
C  1.34500 43.21500 32.26200
H  0.51800 43.46500 33.61600
N  -1.22800 42.35900 25.05500
C  -2.25300 42.03300 25.98500
C  -3.48800 41.91100 25.22800
C  -3.16200 42.00100 23.87400
C  -1.69200 42.35400 23.79400
C  -4.79000 41.65600 25.97200
C  -4.17000 41.97800 22.66200
O  -3.82700 42.23800 21.50800
C  -5.62000 41.61700 22.88300
N  1.37900 43.05000 23.47000
C  0.44500 42.97000 22.50400
C  1.11700 43.22300 21.18300
C  2.48800 43.92800 21.56500
C  2.55900 43.67000 23.03600
C  1.25400 41.90400 20.32800
C  2.55600 45.41000 21.21300
C  3.83600 45.80600 20.50600
N  2.73200 43.26100 25.98300
C  3.84900 43.63400 25.20000
C  5.08200 43.58200 25.96400
C  4.62600 43.20000 27.22000
C  3.23600 43.06700 27.20600
C  6.46800 43.78600 25.40700
C  5.05000 42.84900 28.54100
O  6.19600 42.73500 28.93800
C  3.75000 42.68000 29.42300
C  3.82200 41.46700 30.30800
O  3.44200 40.32300 30.01400
O  4.42600 41.78600 31.48400
C  4.55100 40.79000 32.51600
H  -2.97600 41.39700 27.97200
H  -1.37600 42.54400 21.71800
H  4.63100 44.23600 23.43200
H  1.02800 41.27700 30.61900
H  -1.61700 41.98100 30.12800
H  -1.94900 39.95800 30.59300
H  -0.29000 39.47300 30.40100
H  -1.23900 39.46500 28.93200
H  -0.57300 43.45400 31.20200
H  0.76700 44.24300 30.40600
H  2.06900 44.02900 32.22000
H  1.90600 42.28400 32.34700
H  -4.64500 42.00200 26.99500
H  -5.12100 40.61900 25.90800
H  -5.62000 42.18400 25.50100
H  -6.18400 41.52500 21.95400
H  -6.16100 42.44700 23.33700
H  -5.78300 40.66700 23.39200
H  0.41600 43.89000 20.68000
H  3.35200 43.43600 21.11700
H  2.28100 41.77700 19.98300
H  0.52800 41.78100 19.52400
H  1.05800 41.05600 20.98300
H  2.54800 45.93700 22.16700
H  1.65500 45.76500 20.71200
H  4.49100 46.56500 20.93300
H  3.42500 46.33500 19.64700
H  4.39500 44.97800 20.07000
H  6.89500 42.91600 24.90700
H  7.09800 43.95700 26.28000
H  6.43200 44.71100 24.83100
H  3.77000 43.58600 30.02700
H  4.09300 39.82500 32.29600
H  4.12900 41.01600 33.49500
H  5.59800 40.68600 32.80400

