158

Mg 2.35800 -1.46800 44.29100
C  5.38200 -0.02700 43.26600
C  0.64200 0.83500 42.40700
C  -0.45600 -3.10200 44.97900
C  4.21300 -4.20200 45.57600
N  2.97500 0.22800 43.14500
C  4.25100 0.64900 42.80400
C  4.18300 1.85500 41.86000
C  2.62900 2.21500 41.76600
C  2.02400 0.97700 42.47800
C  2.16300 3.64700 42.40300
C  4.99100 1.72200 40.58000
C  6.03600 2.82600 40.23000
H  5.93800 3.52900 38.85700
N  0.26200 -1.17000 43.82400
C  -0.17900 -0.16900 42.99300
C  -1.59800 -0.32900 42.79400
C  -1.95100 -1.48600 43.51100
C  -0.70500 -1.97400 44.08900
C  -2.38700 0.64700 41.93000
C  -3.34500 -2.09100 43.49400
O  -4.24700 -1.68300 42.78900
C  -3.65200 -3.32800 44.33200
N  1.92900 -3.46400 45.10700
C  0.72300 -3.68200 45.55500
C  0.71500 -4.97000 46.38500
C  2.24000 -5.41600 46.37400
C  2.81300 -4.28600 45.70000
C  0.05800 -5.00300 47.87000
C  2.43400 -6.83700 45.74200
C  3.36400 -7.66600 46.57200
N  4.33300 -2.08800 44.35400
C  4.91300 -3.20500 44.93000
C  6.36800 -3.16900 44.68900
C  6.57200 -1.91000 44.08900
C  5.32600 -1.26100 43.96400
C  7.27600 -4.19300 45.29400
C  7.55600 -0.97900 43.65200
O  8.79500 -1.10100 43.70500
C  6.84700 0.29300 43.07100
C  7.27700 1.47300 43.85900
O  6.85800 1.68300 44.98100
O  8.27100 2.24500 43.25600
C  8.78500 3.38900 44.04500
H  0.02500 1.54700 41.85400
H  -1.36100 -3.53500 45.41200
H  4.71700 -5.03100 46.07800
H  4.65200 2.67700 42.40000
H  2.31200 2.24300 40.72300
H  1.44700 3.61100 43.22500
H  1.67300 4.17800 41.58800
H  2.99200 4.22400 42.81100
H  4.32700 1.68800 39.71600
H  5.42000 0.72400 40.66400
H  6.99000 2.30100 40.17100
H  5.96200 3.52200 41.06500
H  -2.64000 0.24100 40.95100
H  -1.96200 1.63500 41.75300
H  -3.34600 0.86200 42.40100
H  -4.68300 -3.54600 44.05300
H  -3.59100 -3.01800 45.37500
H  -2.98200 -4.12000 43.99900
H  0.12000 -5.69000 45.82300
H  2.53900 -5.41200 47.42200
H  0.09800 -4.12000 48.50700
H  0.68500 -5.63700 48.49700
H  -0.96100 -5.33200 47.66800
H  3.01500 -6.73500 44.82600
H  1.57300 -7.45800 45.49500
H  3.36300 -8.65300 46.11000
H  3.01700 -7.71800 47.60400
H  4.31800 -7.14000 46.60000
H  7.21900 -5.08900 44.67600
H  7.01700 -4.59100 46.27500
H  8.25900 -3.79700 45.03500
H  7.32100 0.58600 42.13500
H  9.49700 3.10400 44.81900
H  7.96600 3.86600 44.58400
H  9.14200 4.22100 43.43800
Mg 29.98600 58.61200 39.88100
C  27.24700 56.42000 39.20100
C  32.16400 55.98500 39.23400
C  32.46000 60.81200 39.94700
C  27.59300 61.21400 40.09200
N  29.71000 56.56000 38.98800
C  28.52800 55.82400 38.93000
C  28.78900 54.38700 38.56400
C  30.21000 54.25000 39.09600
C  30.76600 55.67400 39.07800
C  30.34700 53.56100 40.45800
C  28.80900 54.22200 36.97700
C  27.63200 53.41300 36.32800
H  26.76000 54.28300 35.38300
N  32.04300 58.49100 39.63300
C  32.76000 57.29400 39.48500
C  34.22100 57.64000 39.54200
C  34.32600 59.05900 39.66300
C  32.87300 59.54500 39.75700
C  35.31800 56.63600 39.39900
C  35.62000 59.83000 39.65300
O  36.70700 59.30000 39.55900
C  35.68400 61.36700 39.75500
N  29.97100 60.79500 39.87400
C  31.11900 61.44800 40.04500
C  30.86000 63.00900 40.09500
C  29.38600 63.14100 40.07200
C  28.91500 61.65000 40.04100
C  31.55900 63.76000 41.21700
C  28.72000 64.00500 38.85300
C  29.42600 65.16000 38.24800
N  27.81900 58.75100 39.96500
C  26.99600 59.92000 40.00400
C  25.65100 59.55800 40.00700
C  25.70200 58.16800 39.71700
C  26.99300 57.74500 39.65900
C  24.50500 60.37800 40.08600
C  24.84600 57.03000 39.39100
O  23.63800 56.88200 39.40700
C  25.84200 55.84000 39.08900
C  25.60100 54.69300 40.02600
O  25.98500 54.61400 41.14500
O  24.69300 53.84300 39.43700
C  24.03900 52.91300 40.38800
H  32.74900 55.06300 39.25300
H  33.15900 61.65100 39.96000
H  26.97800 62.08100 40.34200
H  28.14300 53.60300 38.95900
H  30.83700 53.66200 38.42500
H  29.36500 53.53400 40.92900
H  31.10400 54.07400 41.05100
H  30.64700 52.51500 40.39100
H  29.70700 53.87000 36.47100
H  28.62600 55.25200 36.67100
H  26.94000 52.98400 37.05200
H  28.03800 52.57300 35.76400
H  35.82900 56.80100 38.45100
H  34.99700 55.60400 39.25600
H  35.97800 56.67100 40.26500
H  35.15100 61.81000 38.91300
H  36.72700 61.65500 39.62600
H  35.28400 61.70300 40.71200
H  31.30700 63.30800 39.14700
H  29.09000 63.58500 41.02300
H  32.40400 63.31300 41.74000
H  30.89500 64.20100 41.96000
H  32.14000 64.56100 40.75900
H  27.89500 64.43600 39.42100
H  28.29300 63.46800 38.00500
H  28.97200 65.55100 37.33700
H  30.49500 65.03900 38.07100
H  29.37800 65.91300 39.03400
H  24.44700 60.92800 39.14700
H  24.40900 61.11600 40.88300
H  23.63400 59.72200 40.10100
H  25.70200 55.50700 38.06100
H  24.80000 52.23400 40.77400
H  23.33800 52.37700 39.74900
H  23.47200 53.38700 41.18900

