158

Mg 54.50600 24.32000 45.36400
C  51.98300 26.63900 44.55700
C  52.51800 21.92800 43.89900
C  57.13000 22.41900 45.28600
C  56.50100 27.06800 46.34400
N  52.44400 24.33600 44.50700
C  51.63300 25.33400 44.21600
C  50.26000 24.85200 43.73000
C  50.40600 23.39600 43.98100
C  51.91400 23.18400 44.07800
C  49.70300 22.76700 45.18300
C  50.05900 25.24000 42.20900
C  48.53800 25.28800 42.01000
H  48.09100 24.71600 40.72900
N  54.79900 22.36900 44.76600
C  53.82800 21.52800 44.26900
C  54.42500 20.28900 44.10300
C  55.83000 20.33800 44.37100
C  55.97600 21.73700 44.84100
C  53.59700 19.04600 43.76400
C  56.87000 19.26600 44.28900
O  56.44300 18.18100 43.85200
C  58.31100 19.35100 44.73300
N  56.50400 24.68200 45.70400
C  57.38800 23.68600 45.73400
C  58.82600 24.08500 46.26300
C  58.59700 25.54300 46.69600
C  57.11500 25.79200 46.21900
C  59.26000 23.17800 47.45600
C  59.65000 26.56200 46.11100
C  60.61900 26.90000 47.20400
N  54.27600 26.35700 45.55000
C  55.16500 27.32600 46.04600
C  54.39700 28.57200 46.28100
C  53.15400 28.33000 45.66000
C  53.17900 27.02300 45.14000
C  54.96400 29.76000 46.97500
C  51.85100 28.94800 45.31600
O  51.41100 30.07700 45.57000
C  51.08300 27.87200 44.55100
C  50.85300 28.30900 43.20600
O  51.74500 28.54000 42.40600
O  49.45200 28.36100 42.93200
C  49.01700 28.89000 41.66100
H  51.78500 21.17800 43.59700
H  57.96600 21.73100 45.43400
H  57.03200 27.89100 46.82700
H  49.56800 25.43500 44.33800
H  49.87700 22.77200 43.26100
H  50.39000 22.20400 45.81600
H  48.94800 22.08700 44.78900
H  49.22600 23.53700 45.78900
H  50.69800 24.51500 41.70500
H  50.43700 26.18900 41.82800
H  48.21200 26.31900 42.14500
H  47.98600 24.73700 42.77100
H  52.60700 19.12900 44.21300
H  54.00100 18.11400 44.16000
H  53.62500 19.04500 42.67400
H  58.73200 20.14800 44.12000
H  58.69900 18.35100 44.54200
H  58.33700 19.55300 45.80400
H  59.45500 24.08800 45.37200
H  58.66200 25.57500 47.78400
H  59.68200 23.78100 48.26000
H  60.05200 22.52900 47.08200
H  58.47300 22.48400 47.75200
H  59.05500 27.42300 45.80500
H  60.27400 26.06100 45.37100
H  60.62200 26.23800 48.07000
H  60.29200 27.90700 47.46100
H  61.62500 26.94000 46.78500
H  54.92700 29.50600 48.03500
H  54.30400 30.60500 46.78100
H  56.01000 29.90100 46.70200
H  50.15200 27.77600 45.11100
H  47.97600 28.57800 41.56600
H  49.66700 28.39900 40.93600
H  48.99700 29.97900 41.64300
Mg -5.15900 25.23100 26.87500
C  -4.15300 26.88000 29.87900
C  -7.05900 23.06300 28.89900
C  -5.58100 23.32600 24.11600
C  -2.92400 27.24800 25.19200
N  -5.64700 25.14400 29.08500
C  -5.07900 25.83200 30.13200
C  -5.54300 25.38300 31.53600
C  -6.24900 24.03200 31.16800
C  -6.44900 24.11600 29.63600
C  -5.44700 22.75200 31.55800
C  -6.51200 26.33800 32.17600
C  -6.55500 26.32500 33.71400
H  -5.84500 25.17700 34.53700
N  -6.31300 23.68800 26.59400
C  -7.06200 22.93600 27.45900
C  -7.98500 22.07500 26.66000
C  -7.52500 22.08300 25.32300
C  -6.30900 22.96900 25.32300
C  -9.15500 21.29100 27.26200
C  -8.17200 21.46700 24.09300
O  -7.72200 21.57200 22.91700
C  -9.44400 20.58500 24.18100
N  -4.36900 25.28500 24.95300
C  -4.63700 24.34200 23.99100
C  -4.08800 24.80500 22.60400
C  -3.39000 26.15100 22.94300
C  -3.62000 26.28700 24.42600
C  -3.14800 23.75100 21.98500
C  -3.75400 27.38800 22.02200
C  -2.79600 27.61100 20.77700
N  -3.83300 26.77900 27.37200
C  -3.06600 27.56400 26.54700
C  -2.45000 28.63000 27.31800
C  -2.82800 28.40600 28.67800
C  -3.62200 27.27900 28.65900
C  -1.65200 29.70500 26.78300
C  -2.71100 28.80700 30.10100
O  -2.07900 29.74300 30.58900
C  -3.52000 27.77900 30.89600
C  -2.53000 27.03500 31.71100
O  -1.62400 26.29500 31.34500
O  -2.72000 27.40900 33.01300
C  -1.89000 26.74300 33.95100
H  -7.69700 22.37700 29.46000
H  -5.73700 22.70400 23.23200
H  -2.32900 28.05200 24.75400
H  -4.70900 25.10400 32.18000
H  -7.25400 23.86700 31.55800
H  -5.97900 22.17800 32.31700
H  -4.43000 23.08800 31.76100
H  -5.39300 22.05100 30.72500
H  -7.46200 25.91900 31.84200
H  -6.35600 27.30300 31.69200
H  -7.56200 26.28600 34.12800
H  -6.23000 27.25900 34.17300
H  -8.99600 20.21300 27.26600
H  -10.07200 21.33400 26.67400
H  -9.32000 21.65900 28.27500
H  -9.51100 19.85700 24.99000
H  -9.52400 19.96400 23.28900
H  -10.33800 21.19600 24.30200
H  -4.98000 25.01200 22.01200
H  -2.30500 26.04500 22.94900
H  -2.10300 23.92700 21.73300
H  -3.55300 23.54100 20.99500
H  -3.20700 22.88600 22.64600
H  -3.82300 28.21700 22.72600
H  -4.77400 27.39500 21.63900
H  -2.31500 26.69400 20.43800
H  -2.04100 28.34100 21.06800
H  -3.29700 28.18300 19.99500
H  -1.90800 30.21200 25.85300
H  -0.64000 29.32000 26.65300
H  -1.79100 30.36800 27.63700
H  -4.30400 28.21700 31.51400
H  -0.82500 26.97000 33.89100
H  -2.07000 25.67000 33.89400
H  -2.18900 26.89000 34.98800

