158

Mg 8.98100 3.43200 27.41400
C  10.84900 1.89500 29.97100
C  7.25600 5.09400 29.77400
C  7.24300 4.78300 24.94700
C  10.72000 1.34400 25.19400
N  9.04400 3.41100 29.59400
C  9.95000 2.78700 30.44200
C  9.77500 3.25400 31.85400
C  8.52300 4.17000 31.82300
C  8.27400 4.28200 30.31200
C  7.21200 3.71100 32.55000
C  11.04000 3.91400 32.43600
C  11.48400 3.38500 33.83900
H  11.54200 4.42000 34.96000
N  7.37800 4.64800 27.41700
C  6.75200 5.20400 28.44400
C  5.75700 6.08300 28.00500
C  5.81800 6.13400 26.64000
C  6.80600 5.13500 26.27100
C  4.95700 6.76200 29.03200
C  5.02000 6.93500 25.66100
O  5.24300 6.95300 24.47500
C  3.94600 7.86600 26.09200
N  8.78100 2.99600 25.38100
C  8.12700 3.80700 24.56600
C  8.39600 3.43300 23.14100
C  9.68700 2.54700 23.15200
C  9.81600 2.33800 24.67300
C  7.19600 2.77800 22.38200
C  10.93600 3.26700 22.69400
C  12.10200 2.49200 21.92200
N  10.46800 1.91300 27.49900
C  11.03200 1.14400 26.55000
C  11.97800 0.18100 27.09800
C  11.94500 0.50400 28.46200
C  11.08600 1.56400 28.62000
C  12.65000 -0.82200 26.32500
C  12.52300 0.17600 29.72500
O  13.38600 -0.66300 29.94700
C  11.89200 1.13200 30.79200
C  11.28400 0.28200 31.82900
O  10.26800 -0.33400 31.68700
O  12.04800 0.30400 32.97400
C  11.55000 -0.55100 34.15800
H  6.74400 5.61700 30.58500
H  6.74200 5.24700 24.09500
H  11.37700 0.80300 24.51100
H  9.49100 2.37000 32.42400
H  8.76100 5.15800 32.21600
H  6.40200 3.40000 31.89000
H  6.94700 4.42900 33.32600
H  7.46600 2.80500 33.09900
H  10.87800 4.98900 32.51800
H  11.93100 3.76400 31.82600
H  12.47500 2.99400 33.60500
H  10.92400 2.48500 34.09200
H  4.13000 7.36000 28.65000
H  5.56700 7.49000 29.56600
H  4.55600 6.01200 29.71500
H  4.36300 8.70300 26.65200
H  3.09100 7.28200 26.43200
H  3.54300 8.44000 25.25700
H  8.58700 4.35800 22.59600
H  9.53900 1.66000 22.53600
H  6.38800 3.24200 22.94800
H  7.16700 1.68900 22.38100
H  6.95500 3.16600 21.39200
H  11.40200 3.76000 23.54700
H  10.75800 4.15000 22.08100
H  12.27000 2.84000 20.90300
H  11.90000 1.43100 21.77400
H  13.08100 2.53600 22.40000
H  12.88800 -0.70200 25.26800
H  12.01200 -1.70400 26.27700
H  13.63200 -0.97700 26.77200
H  12.60100 1.83400 31.23000
H  11.40500 -1.62700 34.05600
H  10.52000 -0.23300 34.32200
H  11.95100 -0.27500 35.13300
Mg -5.91300 25.41700 26.32900
C  -3.93000 26.91600 29.00500
C  -7.04900 23.20600 28.60200
C  -7.25000 23.93300 23.64000
C  -4.03900 27.62900 24.12900
N  -5.45500 25.07900 28.57400
C  -4.67400 25.80600 29.43300
C  -5.12900 25.49800 30.88300
C  -5.85800 24.17800 30.70400
C  -6.18600 24.06800 29.20100
C  -4.95000 22.95400 31.14400
C  -6.04800 26.61000 31.55200
C  -5.93900 26.89400 33.04100
H  -5.57700 25.83800 34.02400
N  -7.08500 23.89600 26.11900
C  -7.52900 23.09900 27.20400
C  -8.47000 22.17000 26.61600
C  -8.43700 22.30600 25.13600
C  -7.56000 23.45400 24.87700
C  -9.43800 21.36700 27.56000
C  -9.15800 21.54800 24.12200
O  -9.04500 21.79700 22.91100
C  -10.04900 20.40400 24.54500
N  -5.57200 25.73500 24.19700
C  -6.25500 24.92300 23.33500
C  -5.98400 25.28000 21.90200
C  -5.09800 26.61600 22.02600
C  -4.86000 26.68200 23.54300
C  -5.44900 24.16600 21.01300
C  -5.68300 27.94300 21.43000
C  -5.80500 28.07400 19.88500
N  -4.32900 26.92500 26.45400
C  -3.75000 27.76300 25.51700
C  -2.81700 28.67300 26.09700
C  -2.87400 28.31200 27.41500
C  -3.80300 27.28700 27.65100
C  -1.92700 29.71100 25.47400
C  -2.29000 28.73600 28.63600
O  -1.41900 29.57400 28.85100
C  -3.09300 27.85900 29.78200
C  -2.09000 27.05900 30.58600
O  -1.23200 26.30300 30.14500
O  -2.30300 27.26200 31.90700
C  -1.39200 26.57400 32.88300
H  -7.50600 22.56100 29.35600
H  -7.65700 23.54000 22.70600
H  -3.52000 28.25500 23.40100
H  -4.31500 25.20300 31.54500
H  -6.81500 24.07500 31.21600
H  -5.56200 22.05500 31.22200
H  -4.42500 23.29400 32.03700
H  -4.06200 22.77700 30.53600
H  -7.05400 26.22400 31.39000
H  -5.92100 27.56700 31.04600
H  -6.94400 27.23600 33.28800
H  -5.17900 27.66000 33.19400
H  -8.98600 20.41600 27.84100
H  -10.45900 21.28700 27.18700
H  -9.40300 21.97700 28.46300
H  -9.35200 19.75700 25.07900
H  -10.43700 19.86600 23.68000
H  -10.91200 20.79500 25.08400
H  -6.92000 25.63800 21.47300
H  -4.18200 26.48500 21.44900
H  -6.08600 24.14200 20.12900
H  -5.51000 23.21000 21.53400
H  -4.41600 24.33000 20.70800
H  -5.06400 28.70900 21.89700
H  -6.69900 27.99400 21.82100
H  -6.70900 28.64100 19.66400
H  -5.70000 27.08300 19.44400
H  -4.89800 28.60000 19.58600
H  -0.92600 29.28200 25.52900
H  -1.94800 30.62400 26.06900
H  -2.16700 29.89800 24.42800
H  -3.70100 28.41300 30.49800
H  -1.71800 26.57700 33.92300
H  -0.41500 27.05900 32.88400
H  -1.17300 25.62500 32.39400

