158

Mg 35.85300 1.06100 29.53400
C  33.70200 2.27000 32.19400
C  38.48700 1.50400 31.70600
C  37.97000 0.39000 27.03000
C  33.24600 1.66400 27.31500
N  36.03500 1.88200 31.75100
C  35.05500 2.18700 32.64900
C  35.64900 2.24700 34.04900
C  37.20500 2.31000 33.79000
C  37.25800 1.90500 32.29600
C  37.87100 3.69200 34.08700
C  35.18300 1.04800 34.97100
C  35.23100 1.32000 36.53000
H  36.29100 2.27400 37.11800
N  37.92500 0.86600 29.40300
C  38.82300 1.02500 30.44100
C  40.08500 0.52300 29.95900
C  39.99000 0.18400 28.56000
C  38.60800 0.57700 28.26300
C  41.23100 0.25500 30.92800
C  41.09100 -0.29300 27.50900
O  40.79100 -0.39300 26.31500
C  42.45400 -0.57200 27.98900
N  35.63400 1.07200 27.59200
C  36.58700 0.57400 26.64500
C  36.01600 0.48100 25.18900
C  34.59400 0.56500 25.47800
C  34.47600 1.23000 26.86200
C  36.61200 1.55500 24.22800
C  33.80700 -0.76200 25.33700
C  32.65500 -0.82500 24.36900
N  33.87100 1.62900 29.71900
C  32.97900 1.94900 28.69500
C  31.68200 2.34900 29.26100
C  31.90000 2.44300 30.62500
C  33.23100 2.04600 30.84900
C  30.40600 2.45400 28.50900
C  31.24500 2.67100 31.88800
O  30.10500 3.04400 32.11300
C  32.42000 2.50400 33.00100
C  32.41800 3.68200 33.89200
O  32.36600 4.85700 33.47600
O  32.47600 3.29300 35.18300
C  32.88800 4.35900 36.08200
H  39.27200 1.41000 32.46000
H  38.53500 0.17300 26.12100
H  32.39000 1.69100 26.63800
H  35.25600 3.20600 34.38600
H  37.60600 1.55900 34.47100
H  37.08900 4.45100 34.05700
H  38.53600 3.83200 33.23500
H  38.32600 3.64000 35.07700
H  35.62100 0.09300 34.67800
H  34.12600 0.86900 34.77800
H  35.19700 0.34200 37.01000
H  34.28500 1.82400 36.72800
H  41.37600 -0.82500 30.95100
H  40.85700 0.39400 31.94200
H  42.08400 0.89300 30.69400
H  42.43700 -1.41000 28.68600
H  42.94700 0.33200 28.34700
H  42.91900 -1.01000 27.10700
H  36.25300 -0.49900 24.77400
H  34.19500 1.27500 24.75500
H  37.61000 1.86300 24.53700
H  35.85700 2.33400 24.12000
H  36.72600 1.04400 23.27200
H  33.40100 -0.95800 26.32900
H  34.44300 -1.63700 25.20700
H  31.74600 -0.70400 24.95800
H  32.71400 -1.76900 23.82600
H  32.58400 -0.01400 23.64400
H  30.42500 1.58100 27.85700
H  30.32300 3.32800 27.86300
H  29.59200 2.48200 29.23400
H  32.14400 1.62500 33.58300
H  32.03000 5.01400 36.23300
H  33.62400 5.02500 35.63100
H  33.39100 3.92300 36.94500
Mg 42.50000 41.94600 26.21900
C  41.50300 44.27400 28.70000
C  43.41900 39.77400 28.80000
C  43.50900 39.63300 23.93000
C  41.88700 44.21000 23.80000
N  42.33900 41.98500 28.51900
C  41.91900 43.07300 29.25700
C  41.89600 42.64700 30.76200
C  42.66800 41.22400 30.79500
C  42.75500 40.93600 29.26500
C  43.86600 41.02400 31.69200
C  40.47100 42.57700 31.40900
C  40.33700 43.23600 32.75000
H  41.34600 42.97800 33.84600
N  43.37500 40.07000 26.32600
C  43.66500 39.42000 27.48300
C  44.11300 38.07400 27.12900
C  43.97200 37.91800 25.72600
C  43.67400 39.21000 25.21900
C  44.51000 36.91900 28.17400
C  44.16600 36.70500 24.87400
O  44.04500 36.66800 23.66900
C  44.48100 35.35300 25.50800
N  42.75900 41.89600 24.21400
C  43.26200 40.89700 23.43200
C  43.34400 41.28700 21.92900
C  42.69800 42.71800 21.90200
C  42.39700 42.94100 23.43200
C  44.73000 41.14600 21.15600
C  41.40600 42.69000 21.10700
C  40.18600 42.06400 21.81900
N  41.75000 43.82100 26.20600
C  41.58300 44.66000 25.12200
C  41.18700 46.01900 25.59400
C  41.12700 45.86700 27.00900
C  41.45200 44.51900 27.32200
C  40.93200 47.21100 24.79700
C  40.75100 46.53700 28.23600
O  40.52900 47.76300 28.34600
C  41.01400 45.54200 29.42500
C  42.02300 46.10200 30.24500
O  43.01100 46.59700 29.74200
O  41.79200 45.82100 31.56800
C  42.85200 46.28600 32.43300
H  43.50000 38.99300 29.55900
H  43.87500 38.97000 23.14300
H  41.68700 45.01200 23.08700
H  42.47700 43.35200 31.35500
H  42.10400 40.35400 31.13300
H  44.56000 40.41900 31.10900
H  43.66500 40.58000 32.66800
H  44.44900 41.93000 31.85500
H  40.05800 41.57000 31.37400
H  39.92200 43.16200 30.67100
H  39.40000 42.84800 33.14800
H  40.20500 44.31000 32.61500
H  45.45000 36.44100 27.89900
H  43.68500 36.22200 28.31700
H  44.67600 37.40400 29.13600
H  43.86000 35.21900 26.39400
H  45.56300 35.38400 25.63700
H  44.29400 34.46000 24.91100
H  42.73500 40.57300 21.37300
H  43.38800 43.44500 21.47400
H  45.38200 41.96400 21.46100
H  44.56300 41.24500 20.08300
H  45.09800 40.14400 21.37900
H  41.58000 42.06400 20.23200
H  41.19800 43.73400 20.87300
H  39.83500 41.17400 21.29700
H  39.51900 42.92700 21.83700
H  40.36100 41.69700 22.83000
H  41.40500 46.94300 23.85300
H  41.57600 47.92000 25.31900
H  39.90600 47.52800 24.61100
H  40.14800 45.23300 30.01000
H  43.26000 47.25100 32.13300
H  43.71500 45.62800 32.33900
H  42.51500 46.31600 33.46900

