158

Mg 26.86600 49.31100 26.42800
C  24.80500 50.08600 29.03500
C  29.29400 48.45600 28.76500
C  29.24100 49.20100 23.91000
C  24.59300 50.36600 24.12400
N  27.00200 49.33700 28.71100
C  26.03700 49.61400 29.52700
C  26.27000 49.36700 30.95400
C  27.74400 48.73600 30.83800
C  28.04000 48.84000 29.33000
C  28.87900 49.47100 31.71600
C  25.18700 48.51600 31.76000
C  25.62500 47.92700 33.09700
H  25.77700 48.89100 34.27400
N  28.92900 48.84500 26.38300
C  29.72200 48.40400 27.40900
C  31.06700 48.03100 26.84800
C  31.03700 48.24000 25.42600
C  29.69400 48.82000 25.18100
C  32.22400 47.59200 27.70800
C  32.11600 47.95300 24.43700
O  31.96700 48.06800 23.23200
C  33.40800 47.30900 24.78200
N  26.86800 49.69200 24.32900
C  27.92200 49.50200 23.47300
C  27.52300 49.66500 21.98500
C  26.02700 49.70600 22.06100
C  25.76500 49.90000 23.56700
C  28.16700 50.89200 21.21200
C  25.23700 48.54300 21.58100
C  23.73600 48.55800 21.38600
N  25.08100 50.14000 26.50400
C  24.26400 50.61700 25.49200
C  23.11800 51.16900 26.07800
C  23.25700 50.91700 27.48600
C  24.50200 50.36200 27.66500
C  21.94200 51.82200 25.40800
C  22.61800 51.06300 28.74000
O  21.49100 51.56800 28.87500
C  23.54300 50.53300 29.84100
C  23.88900 51.54600 30.82900
O  24.83900 52.30600 30.80200
O  22.93700 51.60500 31.79700
C  23.29300 52.56600 32.94900
H  30.05700 47.98100 29.38500
H  29.94900 49.09200 23.08700
H  23.79400 50.60000 23.41800
H  26.17900 50.27300 31.55300
H  27.64000 47.67400 31.05800
H  29.58600 48.81100 32.21900
H  28.49700 50.07400 32.54000
H  29.47500 50.16000 31.11800
H  24.83900 47.66900 31.17000
H  24.31200 49.12000 32.00100
H  26.54900 47.34900 33.09000
H  24.88900 47.22000 33.47900
H  32.19400 46.50300 27.72200
H  32.18600 47.99900 28.71800
H  33.12700 47.98800 27.24400
H  34.00700 48.11700 25.20400
H  33.99000 46.94300 23.93600
H  33.28200 46.44700 25.43600
H  27.84100 48.72400 21.53600
H  25.58800 50.58300 21.58500
H  29.01800 51.26600 21.78100
H  27.41400 51.64500 20.97800
H  28.80000 50.52000 20.40600
H  25.52100 47.69000 22.19800
H  25.58500 48.23600 20.59500
H  23.29800 49.55000 21.49300
H  23.33300 47.95700 22.20200
H  23.47800 48.11700 20.42300
H  21.91400 52.81300 25.86100
H  20.99100 51.30300 25.28900
H  22.17000 52.01700 24.36000
H  23.08000 49.66800 30.31600
H  23.10200 53.58200 32.60200
H  24.31000 52.46500 33.32700
H  22.51400 52.52000 33.71000
Mg -11.00900 38.05500 41.99600
C  -9.29500 35.03400 41.49600
C  -8.54000 39.69500 40.27800
C  -12.99900 40.71400 41.90200
C  -13.72900 36.13100 43.25800
N  -9.25100 37.45400 40.99400
C  -8.67800 36.17800 40.92700
C  -7.46200 36.15900 40.00200
C  -7.10700 37.64500 39.84200
C  -8.36700 38.34500 40.40000
C  -5.74100 38.14400 40.44700
C  -7.87400 35.36400 38.70100
C  -7.19200 34.08000 38.34500
H  -6.53900 34.07500 36.99000
N  -10.77300 39.92500 41.25900
C  -9.65500 40.48000 40.69200
C  -9.91900 41.85000 40.29300
C  -11.20800 42.17600 40.71500
C  -11.70200 40.90000 41.31500
C  -8.97000 42.74400 39.53100
C  -11.83600 43.54700 40.53500
O  -11.25900 44.45800 39.93200
C  -13.16700 43.91600 41.08800
N  -13.08200 38.33900 42.58300
C  -13.64200 39.54000 42.37200
C  -15.09300 39.55500 42.76300
C  -15.34400 38.12500 43.25900
C  -13.95100 37.51700 43.03600
C  -15.51100 40.78500 43.60100
C  -16.49800 37.33600 42.66200
C  -17.29300 36.39300 43.57700
N  -11.36800 36.01600 42.50900
C  -12.47000 35.43100 43.17200
C  -12.11400 34.06200 43.47300
C  -10.87600 33.86500 42.80100
C  -10.45900 35.09000 42.30900
C  -12.97600 33.08100 44.32900
C  -9.89200 32.89100 42.53100
O  -9.94900 31.69600 42.78600
C  -8.78400 33.58600 41.59600
C  -7.44000 33.51000 42.17000
O  -6.52700 32.76700 41.74500
O  -7.33700 34.27800 43.31600
C  -6.05200 34.04900 43.98600
H  -7.74000 40.30200 39.85000
H  -13.65800 41.58500 41.90700
H  -14.59800 35.60200 43.65400
H  -6.64000 35.61000 40.46000
H  -7.14700 37.83400 38.76900
H  -5.17400 37.26300 40.74900
H  -5.87400 38.89100 41.22900
H  -5.13700 38.66700 39.70600
H  -7.88200 36.05600 37.85800
H  -8.89600 35.02800 38.87500
H  -7.82500 33.19600 38.26900
H  -6.37700 33.88900 39.04400
H  -9.19400 43.01900 38.50000
H  -8.02900 42.19400 39.54900
H  -8.65500 43.64800 40.05200
H  -13.83000 43.27700 40.50500
H  -13.23600 45.00100 41.01200
H  -13.32100 43.62400 42.12700
H  -15.64600 39.63100 41.82700
H  -15.46500 38.30200 44.32700
H  -14.65700 41.40000 43.88600
H  -16.16400 40.52500 44.43400
H  -16.03500 41.42100 42.88700
H  -16.08700 36.72900 41.85600
H  -17.24100 38.01400 42.24100
H  -18.33800 36.69600 43.65300
H  -16.85700 36.41600 44.57500
H  -17.20900 35.38300 43.17500
H  -12.29100 32.59000 45.02000
H  -13.34000 32.25700 43.71400
H  -13.76300 33.58600 44.88900
H  -8.78800 33.07000 40.63600
H  -5.87600 34.71300 44.83300
H  -5.17200 34.05700 43.34300
H  -6.10200 33.06000 44.44100

