158

Mg 41.79200 41.06200 26.10000
C  40.99700 43.31200 28.67300
C  42.86300 38.74400 28.57100
C  42.84300 39.07800 23.68600
C  41.13800 43.60300 23.76600
N  41.79600 41.03800 28.35000
C  41.39800 42.10000 29.15600
C  41.45600 41.65200 30.65600
C  42.25800 40.23600 30.55000
C  42.21200 39.94200 29.07800
C  43.66600 40.28800 31.10000
C  40.13400 41.45400 31.40200
C  39.67300 42.61300 32.32200
H  39.78000 42.50800 33.84000
N  42.63900 39.13100 26.13200
C  43.12200 38.39100 27.21900
C  43.66000 37.14100 26.68700
C  43.54700 37.18000 25.26800
C  42.97900 38.45600 24.96300
C  44.02000 36.09600 27.60800
C  43.99200 36.16900 24.15400
O  43.97000 36.39500 22.95000
C  44.52800 34.82300 24.61300
N  42.04700 41.31500 24.09700
C  42.39800 40.24400 23.32000
C  42.17100 40.55600 21.80700
C  41.30100 41.83000 21.83200
C  41.56700 42.33500 23.30000
C  43.51900 40.70700 21.06700
C  39.81100 41.75100 21.47600
C  38.96100 40.74000 22.29500
N  41.22600 43.06200 26.11500
C  41.00900 44.01200 25.06000
C  40.51800 45.23700 25.61000
C  40.44300 45.00500 26.97300
C  40.91900 43.72100 27.20100
C  40.08100 46.46900 24.82700
C  40.16900 45.59300 28.22900
O  39.85500 46.74800 28.51100
C  40.57500 44.51000 29.37000
C  41.66300 45.15600 30.18800
O  42.83600 45.26100 29.83300
O  41.18500 45.54300 31.40600
C  42.20400 46.32900 32.21300
H  43.20900 37.95300 29.24000
H  43.10400 38.53100 22.77700
H  40.77200 44.27900 22.99000
H  42.03600 42.44200 31.13300
H  41.73300 39.38200 30.97800
H  43.68600 39.98400 32.14700
H  43.96900 41.33100 31.00600
H  44.32000 39.70700 30.44900
H  40.14800 40.51600 31.95800
H  39.44900 41.28800 30.57100
H  38.66000 42.82300 31.97800
H  40.35200 43.41000 32.01800
H  43.16400 35.42100 27.62400
H  44.31500 36.35300 28.62500
H  44.83800 35.53800 27.15100
H  43.88100 34.24700 25.27500
H  45.44000 35.03100 25.17300
H  44.76800 34.29200 23.69200
H  41.56400 39.75500 21.38600
H  41.73600 42.56500 21.15500
H  43.95300 39.74000 20.81400
H  44.21700 41.34700 21.60700
H  43.26400 41.27300 20.17100
H  39.72400 41.61800 20.39800
H  39.37600 42.74500 21.57800
H  38.04600 41.20300 22.66500
H  39.54000 40.35300 23.13300
H  38.66000 39.90000 21.66900
H  39.13700 46.22700 24.33800
H  40.88000 46.78000 24.15400
H  39.94200 47.23800 25.58600
H  39.84500 44.43100 30.17600
H  42.25400 47.37300 31.90200
H  43.14100 45.77300 32.23100
H  41.81900 46.26700 33.23100
Mg -11.07400 17.45200 42.84300
C  -7.72200 17.72200 43.26400
C  -11.37900 20.98400 42.72100
C  -14.28100 17.26600 41.55700
C  -10.56700 14.03000 42.18700
N  -9.69600 19.13500 43.04300
C  -8.34200 18.99100 43.21800
C  -7.74000 20.40700 43.20100
C  -8.96900 21.33000 43.39400
C  -10.12300 20.51700 43.05300
C  -9.16400 21.89800 44.87500
C  -7.04600 20.66800 41.83700
C  -5.64200 21.24600 41.76600
H  -4.60100 20.32800 40.96100
N  -12.66000 18.93400 42.37800
C  -12.50500 20.26100 42.33200
C  -13.79900 20.87100 42.05300
C  -14.73500 19.79200 41.82900
C  -13.88800 18.60600 41.85500
C  -14.07900 22.35500 41.99100
C  -16.22200 19.91900 41.51500
O  -16.71400 21.01300 41.34900
C  -17.14800 18.76800 41.35700
N  -12.19200 15.95200 41.72200
C  -13.57700 16.04000 41.49700
C  -14.20600 14.64800 41.35700
C  -13.02000 13.69200 41.69600
C  -11.86000 14.55300 41.85000
C  -15.42400 14.51400 42.27000
C  -12.73200 12.52900 40.64600
C  -12.07200 13.09100 39.35700
N  -9.52700 16.07300 42.80500
C  -9.42100 14.72800 42.54700
C  -8.11900 14.24600 42.87000
C  -7.35600 15.38800 43.17800
C  -8.29500 16.46500 43.05900
C  -7.61400 12.85500 42.73700
C  -6.06500 15.87900 43.51400
O  -4.94500 15.38900 43.50500
C  -6.23400 17.43900 43.51300
C  -5.64100 18.06900 44.71500
O  -6.20300 18.26500 45.82100
O  -4.40900 18.63900 44.39800
C  -3.73700 19.33600 45.58500
H  -11.48200 22.05700 42.89700
H  -15.31900 17.02600 41.31800
H  -10.48900 12.94200 42.13300
H  -6.90500 20.59000 43.87800
H  -9.00000 22.17000 42.70000
H  -8.94000 22.96200 44.94700
H  -8.41000 21.42400 45.50200
H  -10.16400 21.79900 45.29700
H  -7.69800 21.20400 41.14700
H  -7.01500 19.69900 41.33900
H  -5.27900 21.52600 42.75500
H  -5.59600 22.10500 41.09800
H  -14.48500 22.72700 41.05000
H  -13.27100 23.00100 42.33600
H  -14.79200 22.56000 42.79000
H  -18.15500 19.18300 41.37200
H  -17.04400 18.10100 42.21300
H  -16.92200 18.38400 40.36200
H  -14.53300 14.63000 40.31700
H  -13.15200 13.24700 42.68200
H  -15.32300 14.93500 43.27000
H  -15.43900 13.42700 42.35000
H  -16.30200 14.91600 41.76400
H  -13.71000 12.14800 40.35400
H  -12.20800 11.67800 41.08000
H  -12.75900 13.15700 38.51400
H  -11.26000 12.48500 38.95400
H  -11.73800 14.12500 39.44900
H  -6.66600 12.69400 43.25000
H  -7.45400 12.59100 41.69100
H  -8.41400 12.28400 43.20800
H  -5.64600 17.76100 42.65400
H  -2.87000 19.93600 45.30900
H  -3.55200 18.67200 46.42900
H  -4.46600 20.01100 46.03200

