158

Mg 41.86700 7.92200 29.48300
C  43.74600 9.46400 31.86600
C  39.61800 6.76100 31.83600
C  40.42800 6.12500 27.05600
C  44.46300 8.87000 27.12100
N  41.63700 8.27500 31.51500
C  42.50800 8.90300 32.29700
C  42.08300 8.91000 33.79300
C  40.95800 7.87800 33.82300
C  40.64800 7.61000 32.31400
C  40.98900 6.62400 34.76200
C  41.71400 10.39600 34.33100
C  41.00600 10.37800 35.67400
H  41.24400 11.46200 36.78300
N  40.14600 6.80000 29.35900
C  39.39400 6.44600 30.48500
C  38.30400 5.65900 30.01200
C  38.43200 5.51600 28.60900
C  39.73800 6.06800 28.27600
C  37.20900 5.06200 30.95600
C  37.50500 4.85100 27.54300
O  37.83700 4.76100 26.40400
C  36.16700 4.43100 27.91600
N  42.46000 7.50200 27.42400
C  41.55900 6.83000 26.60300
C  41.91000 6.89100 25.13200
C  43.04200 7.95100 25.14200
C  43.36500 8.16600 26.65400
C  42.20900 5.56900 24.31500
C  42.74700 9.23100 24.38000
C  41.78400 10.24500 25.05400
N  43.69400 8.90600 29.45700
C  44.63100 9.13800 28.45900
C  45.76800 9.84900 29.00600
C  45.45500 10.01800 30.35400
C  44.23300 9.38900 30.56700
C  46.88900 10.45000 28.23600
C  45.94700 10.59000 31.60700
O  47.03100 11.11900 31.94200
C  44.75100 10.29800 32.67100
C  45.34900 9.69700 33.85900
O  45.98100 8.63300 33.87500
O  44.99500 10.46200 34.87100
C  45.61600 10.24000 36.13800
H  38.86300 6.43800 32.55500
H  40.03800 5.43300 26.30700
H  45.04000 9.37500 26.34300
H  42.84000 8.43100 34.41400
H  40.02800 8.33500 34.16000
H  40.85800 5.69500 34.20700
H  40.05800 6.68000 35.32600
H  41.84200 6.48300 35.42600
H  41.10200 10.75300 33.50200
H  42.60500 11.00500 34.48300
H  41.07500 9.40300 36.15600
H  39.93100 10.46600 35.51800
H  36.19400 5.38200 30.72200
H  37.38600 5.47200 31.95000
H  37.35100 3.98400 31.03900
H  35.67700 4.01400 27.03600
H  35.52600 5.27300 28.17800
H  36.24300 3.83300 28.82300
H  40.99600 7.27700 24.68100
H  43.84300 7.40200 24.64800
H  43.08500 5.57500 23.66700
H  41.32400 5.45900 23.68900
H  42.34500 4.79000 25.06500
H  42.27200 8.95300 23.44000
H  43.61100 9.84500 24.12500
H  41.05300 10.57200 24.31400
H  42.38300 11.11600 25.32100
H  41.11900 9.76200 25.77000
H  47.37100 9.58800 27.77500
H  47.52100 10.86700 29.02000
H  46.43700 11.12700 27.51100
H  44.17500 11.13800 33.05700
H  44.92400 9.62200 36.70900
H  45.96900 11.19000 36.54000
H  46.53800 9.67100 36.01600
Mg 35.51300 48.90400 25.00500
C  35.73100 47.41100 28.31000
C  34.78100 51.82800 26.57000
C  35.64900 50.23600 22.09400
C  36.70500 45.81900 23.75600
N  35.24400 49.54000 27.21900
C  35.45200 48.78300 28.35600
C  35.37100 49.64700 29.59400
C  35.11100 51.05600 29.02500
C  34.95100 50.79700 27.52900
C  33.96600 51.85400 29.77800
C  36.70300 49.65900 30.51400
C  36.56600 49.13400 31.97900
H  35.18000 49.23500 32.64400
N  35.32800 50.83400 24.37600
C  34.91400 51.87300 25.14200
C  34.68400 52.99900 24.29000
C  34.96300 52.58900 22.98700
C  35.27200 51.18000 23.06300
C  34.33100 54.38500 24.84400
C  34.83400 53.40800 21.75700
O  35.20400 52.93600 20.62800
C  34.14200 54.72600 21.76100
N  36.25400 48.17500 23.24300
C  36.12100 48.90300 22.10800
C  36.66500 48.20500 20.84600
C  37.26000 46.94900 21.50700
C  36.64900 46.93500 22.91300
C  35.52000 47.81800 19.73600
C  38.78900 46.96300 21.59700
C  39.53400 45.60900 21.50400
N  35.83300 46.91500 25.78300
C  36.36900 45.79700 25.15200
C  36.59700 44.71600 26.09600
C  36.40800 45.32400 27.35000
C  35.94500 46.65400 27.10900
C  37.01600 43.27000 25.71000
C  36.44200 45.08900 28.76900
O  36.81200 44.16700 29.42300
C  35.90100 46.41700 29.46800
C  34.66000 46.12400 30.25700
O  33.50500 46.24500 29.88800
O  35.01500 45.58100 31.48700
C  33.91300 45.04000 32.33600
H  34.42400 52.69700 27.12600
H  35.67300 50.65200 21.08500
H  37.10400 44.96700 23.20100
H  34.48300 49.41600 30.18400
H  36.01200 51.66600 29.08200
H  34.48200 52.66100 30.29700
H  33.23100 51.35100 30.40700
H  33.37300 52.24700 28.95200
H  37.16400 50.64200 30.60200
H  37.37000 48.89200 30.11900
H  37.31800 49.64100 32.58300
H  36.85900 48.08700 32.05900
H  34.90300 55.15000 24.31900
H  34.68200 54.47600 25.87200
H  33.26700 54.60900 24.76900
H  33.12800 54.56700 22.12800
H  33.94200 55.06400 20.74400
H  34.69900 55.56800 22.17100
H  37.47700 48.70000 20.31300
H  36.97300 46.02100 21.01200
H  36.10500 47.59600 18.84400
H  34.91300 48.70700 19.56600
H  34.83100 47.04000 20.06400
H  39.08500 47.47000 22.51500
H  39.23900 47.55300 20.79900
H  40.24900 45.65400 22.32500
H  40.08100 45.47000 20.57100
H  38.95200 44.69800 21.64500
H  36.27600 42.76900 25.08700
H  37.07000 42.65700 26.61000
H  37.97800 43.37800 25.20900
H  36.66600 46.69500 30.19300
H  33.10800 44.65700 31.70900
H  33.51300 45.91800 32.84200
H  34.18500 44.30300 33.09100

