158

Mg 9.75300 4.32300 27.69400
C  10.96000 2.55700 30.43700
C  7.77900 6.10700 30.05000
C  8.13600 5.84800 25.20300
C  10.92000 1.87600 25.67700
N  9.59400 4.57100 29.98000
C  10.24900 3.68100 30.83600
C  9.91700 3.94900 32.23400
C  8.67800 4.86800 32.12500
C  8.66500 5.26000 30.62600
C  7.32300 4.13300 32.36500
C  11.18300 4.48700 33.02800
C  11.39100 3.85300 34.36700
H  11.76500 4.67700 35.54600
N  8.20800 5.79300 27.63800
C  7.54600 6.44100 28.66500
C  6.68700 7.43800 28.13800
C  6.83400 7.40000 26.70700
C  7.68700 6.28500 26.42800
C  5.75600 8.29700 28.99100
C  6.14100 8.32600 25.66000
O  6.32000 8.16300 24.43400
C  5.26900 9.43500 26.23800
N  9.54800 3.82100 25.74700
C  8.86000 4.66900 24.91300
C  9.18800 4.29500 23.42700
C  9.93000 2.94100 23.55900
C  10.18200 2.86400 25.04800
C  8.11900 4.35500 22.38600
C  11.31900 2.80100 22.85300
C  11.61200 1.42300 22.19600
N  11.07000 2.72300 27.95300
C  11.37500 1.79400 27.01100
C  12.09400 0.73900 27.60900
C  11.97300 0.99100 28.99700
C  11.30100 2.18700 29.11400
C  12.82600 -0.38500 26.92100
C  12.33200 0.42400 30.30800
O  12.97900 -0.57700 30.61500
C  11.67600 1.50300 31.29400
C  10.59600 0.77000 31.95000
O  9.45100 0.62500 31.53100
O  11.09700 0.37200 33.17900
C  10.03900 -0.31600 34.00700
H  7.32200 6.68600 30.85500
H  7.82800 6.39600 24.31000
H  11.17400 1.04900 25.01100
H  9.61300 3.03200 32.73800
H  8.79900 5.77600 32.71700
H  7.22500 3.56600 33.29100
H  7.16600 3.43600 31.54200
H  6.51400 4.86100 32.31300
H  11.04200 5.56600 33.09000
H  12.11100 4.42200 32.46100
H  12.18200 3.13300 34.15900
H  10.50700 3.24600 34.56400
H  6.04500 9.30300 29.29500
H  5.67400 7.77000 29.94100
H  4.70200 8.36700 28.72400
H  4.34000 8.99000 26.59400
H  4.91300 10.08400 25.43800
H  5.85900 10.04100 26.92600
H  9.84500 5.09700 23.08800
H  9.35800 2.03100 23.38000
H  7.31100 4.88700 22.88800
H  7.62400 3.42200 22.11700
H  8.39300 4.96100 21.52200
H  12.13100 2.87500 23.57700
H  11.36200 3.60400 22.11700
H  10.71600 0.80300 22.22300
H  12.38700 0.81900 22.66800
H  11.96800 1.57300 21.17700
H  13.87700 -0.46300 27.19900
H  12.72400 -0.41500 25.83600
H  12.20400 -1.22400 27.23100
H  12.28600 1.99800 32.04900
H  10.59000 -0.80900 34.80800
H  9.43100 -1.04400 33.46900
H  9.34300 0.35800 34.50700
Mg 46.87600 24.61600 29.33700
C  47.49700 27.18300 31.66900
C  45.75800 22.65100 31.93700
C  46.72700 22.05400 27.19400
C  48.37300 26.61900 26.88000
N  46.68900 24.93700 31.59800
C  46.99400 26.07900 32.34300
C  46.37000 25.91800 33.79700
C  45.94000 24.39800 33.84200
C  46.07000 23.96800 32.36800
C  46.91800 23.52400 34.70000
C  45.29800 26.93700 34.29200
C  45.64200 27.61900 35.63400
H  46.35400 26.83300 36.70100
N  46.51000 22.60600 29.58500
C  45.99100 22.00100 30.73200
C  45.49400 20.65900 30.34400
C  45.64000 20.53000 28.98500
C  46.38200 21.71400 28.53400
C  44.78400 19.67900 31.34600
C  45.33700 19.30800 28.03300
O  45.64300 19.26300 26.87100
C  44.62200 18.11500 28.51900
N  47.60100 24.30700 27.29800
C  47.30500 23.17200 26.62800
C  47.89100 23.19600 25.20900
C  48.28700 24.73400 25.02000
C  48.06500 25.28600 26.50400
C  48.95600 22.08900 24.90500
C  47.48000 25.54300 23.91500
C  46.21700 26.22800 24.33500
N  47.67700 26.50900 29.20700
C  48.30500 27.13300 28.15800
C  48.79000 28.47500 28.60700
C  48.39500 28.52500 29.94600
C  47.78900 27.28600 30.27400
C  49.47100 29.47300 27.84300
C  48.56300 29.34500 31.12700
O  48.97400 30.46600 31.27100
C  47.86000 28.51700 32.29800
C  48.77800 28.26100 33.41500
O  49.62900 27.39100 33.40000
O  48.64100 29.17700 34.41600
C  49.58000 29.08800 35.53700
H  45.20100 22.06800 32.67400
H  46.74500 21.20100 26.51200
H  48.67300 27.25500 26.04400
H  47.29100 26.15400 34.33000
H  44.91000 24.25400 34.16800
H  47.52100 24.17900 35.32800
H  47.62400 22.89900 34.15200
H  46.37800 22.84500 35.35900
H  44.41000 26.36800 34.56500
H  45.18400 27.67300 33.49600
H  44.71800 27.82100 36.17500
H  45.98700 28.62200 35.38100
H  45.21300 18.70600 31.10700
H  43.73100 19.85500 31.12800
H  44.93800 19.90800 32.40000
H  45.32200 17.58000 29.16200
H  44.36700 17.45500 27.69000
H  43.66300 18.43300 28.92700
H  46.96800 22.88700 24.71800
H  49.36000 24.82800 24.85800
H  49.23000 21.49200 25.77500
H  49.79900 22.62500 24.47000
H  48.48600 21.34200 24.26600
H  47.37600 24.89800 23.04300
H  48.25000 26.28900 23.72000
H  45.37000 25.66200 23.94800
H  46.14100 27.27800 24.05100
H  46.08900 26.20800 25.41700
H  48.71200 29.75400 27.11300
H  50.31300 29.00400 27.33500
H  49.91500 30.31400 28.37600
H  46.91600 28.98400 32.57600
H  49.15000 28.50700 36.35200
H  49.70900 30.09000 35.94600
H  50.59000 28.74800 35.30800

