158

Mg -1.40500 17.97700 27.87500
C  -2.26500 15.79600 30.49200
C  -1.99700 20.62900 29.90600
C  -1.39200 19.91800 25.13200
C  -1.51400 15.18800 25.68100
N  -2.22500 18.17900 29.95900
C  -2.23200 17.20500 30.87100
C  -2.44400 17.77200 32.30200
C  -2.52700 19.29500 31.99500
C  -2.30400 19.44100 30.49900
C  -3.95400 19.93400 32.24400
C  -1.34000 17.33900 33.28900
C  -1.80300 16.67200 34.59000
H  -1.14000 17.08600 35.90300
N  -1.39300 20.03100 27.61600
C  -1.63200 20.94800 28.56500
C  -1.42200 22.20300 28.00700
C  -1.10000 22.00200 26.64200
C  -1.28900 20.58800 26.39200
C  -1.57300 23.51100 28.77100
C  -0.72000 23.00900 25.62400
O  -0.48600 22.67300 24.48100
C  -0.65700 24.44800 25.82800
N  -1.45800 17.58900 25.78700
C  -1.51600 18.53600 24.83400
C  -1.52800 17.99800 23.41700
C  -1.10600 16.55300 23.64900
C  -1.34500 16.45500 25.15300
C  -2.82000 18.23700 22.67500
C  0.34000 16.21600 23.13800
C  1.53300 16.57000 24.07200
N  -1.73800 15.91400 28.02500
C  -1.66400 14.93800 27.06700
C  -1.82700 13.69600 27.69500
C  -2.06800 13.94800 29.04800
C  -1.92300 15.28800 29.25200
C  -2.15300 12.36100 26.98000
C  -2.46200 13.30000 30.28300
O  -2.70500 12.13300 30.62700
C  -2.51000 14.52000 31.27300
C  -1.43200 14.15900 32.17900
O  -0.30400 14.39800 32.02600
O  -1.98900 13.43100 33.14800
C  -1.11700 12.58200 33.95000
H  -2.09200 21.47800 30.58600
H  -1.37200 20.49600 24.20600
H  -1.60100 14.38100 24.95000
H  -3.39600 17.28600 32.51600
H  -1.75200 19.86000 32.51200
H  -4.63600 19.12300 32.49600
H  -4.27800 20.49800 31.36900
H  -3.73600 20.59900 33.08000
H  -0.75100 18.24300 33.43900
H  -0.60800 16.68400 32.81600
H  -1.63700 15.59500 34.55300
H  -2.88500 16.78500 34.65500
H  -2.43500 23.99500 28.31200
H  -0.68400 24.13000 28.64900
H  -1.69700 23.46800 29.85300
H  -0.07900 25.07700 25.15200
H  -0.09500 24.52100 26.75900
H  -1.66800 24.80000 26.03600
H  -0.65100 18.52800 23.04600
H  -1.71600 15.82900 23.10900
H  -3.62000 18.32700 23.41000
H  -3.12600 17.44500 21.99200
H  -2.65900 19.18700 22.16400
H  0.39900 16.66100 22.14500
H  0.28900 15.15100 22.91200
H  1.29500 16.50400 25.13400
H  1.93000 17.54300 23.78500
H  2.28500 15.78600 23.97400
H  -2.76500 12.46700 26.08400
H  -2.63800 11.67300 27.67300
H  -1.19600 11.86900 26.80600
H  -3.47200 14.60900 31.77700
H  -0.68300 11.82000 33.30200
H  -1.70700 12.09300 34.72500
H  -0.33600 13.12400 34.48300
Mg 41.05800 9.47300 30.20300
C  43.10400 10.42900 32.86800
C  38.84900 8.16100 32.56100
C  39.41300 7.99800 27.71400
C  43.87200 9.97400 28.06300
N  41.02100 9.37800 32.46000
C  41.96500 9.81600 33.34800
C  41.44800 9.74000 34.79900
C  40.12800 8.80900 34.63500
C  39.96800 8.76100 33.08900
C  40.11200 7.43800 35.30500
C  41.29800 11.10800 35.52700
C  40.65200 11.05700 36.84500
H  41.11400 11.95900 37.96200
N  39.28100 8.48900 30.09800
C  38.55400 7.98900 31.16900
C  37.39300 7.25100 30.66500
C  37.46500 7.28600 29.25500
C  38.77500 7.91800 28.95600
C  36.38900 6.58100 31.58100
C  36.56700 6.77300 28.23300
O  36.84000 6.61700 27.02000
C  35.12700 6.37700 28.68600
N  41.66200 8.90900 28.20900
C  40.68200 8.46800 27.37600
C  41.15700 8.36000 25.89500
C  42.63900 8.89100 26.03200
C  42.76900 9.28100 27.52100
C  41.10400 6.87200 25.32900
C  42.96100 10.03700 25.07600
C  42.00700 11.32800 25.13500
N  43.05100 10.09300 30.41000
C  44.02500 10.33900 29.43600
C  45.12500 11.02100 29.98800
C  44.81900 11.07400 31.35600
C  43.54100 10.47700 31.57600
C  46.32800 11.45800 29.30800
C  45.28900 11.53400 32.64600
O  46.27600 12.18100 32.93500
C  44.19800 11.10100 33.69900
C  44.95400 10.17800 34.70800
O  45.85600 9.42600 34.34200
O  44.52600 10.39100 35.98600
C  45.17900 9.60900 37.01100
H  38.07100 7.88200 33.27500
H  38.99100 7.43600 26.87800
H  44.64400 10.25000 27.34200
H  42.24600 9.25200 35.36000
H  39.29000 9.38000 35.03600
H  40.79400 7.35200 36.15100
H  40.35100 6.74400 34.49900
H  39.10100 7.14200 35.58600
H  40.65500 11.79100 34.97400
H  42.30600 11.50100 35.65700
H  40.70100 10.04500 37.24900
H  39.60700 11.33300 36.70800
H  35.49700 7.20200 31.67000
H  36.82900 6.40600 32.56200
H  36.12000 5.62600 31.12800
H  34.70300 7.12100 29.36000
H  35.06000 5.39200 29.14700
H  34.45500 6.31000 27.83000
H  40.51500 9.00400 25.29400
H  43.35300 8.10900 25.77500
H  41.23000 6.15800 26.14300
H  41.74000 6.66300 24.46800
H  40.08000 6.73400 24.98100
H  43.07700 9.62100 24.07500
H  43.94400 10.36400 25.41500
H  42.57300 12.23300 25.35300
H  41.26100 11.33300 25.92900
H  41.42900 11.40500 24.21400
H  46.64800 12.47400 29.54100
H  46.08300 11.57200 28.25200
H  47.13700 10.74400 29.46100
H  43.83000 11.97000 34.24400
H  46.25800 9.73700 37.09400
H  45.01900 8.55300 36.79300
H  44.66700 9.80400 37.95300

