158

Mg 44.39700 3.91500 46.44300
C  42.49100 6.82000 46.35700
C  41.45200 2.02400 46.30400
C  46.34100 1.26900 45.74200
C  47.34500 5.99600 45.75200
N  42.24800 4.32900 46.45400
C  41.66300 5.63300 46.49500
C  40.11500 5.53600 46.58300
C  39.85700 4.00600 46.68800
C  41.27800 3.43000 46.39500
C  39.25000 3.51800 48.03200
C  39.37500 6.17600 45.40600
C  39.69100 5.83400 43.88300
H  40.00100 6.99400 42.92400
N  43.98000 1.87200 46.07300
C  42.73300 1.33200 46.09400
C  42.98300 -0.10700 45.95600
C  44.32500 -0.40400 45.68600
C  44.96600 0.93500 45.87200
C  41.81000 -1.09500 45.84000
C  44.93900 -1.67500 45.44500
O  44.33500 -2.75500 45.53100
C  46.36100 -1.81900 45.03800
N  46.62100 3.68600 45.88500
C  47.14100 2.39900 45.78200
C  48.67400 2.40300 45.59500
C  49.00800 3.95000 45.29200
C  47.60400 4.60500 45.67200
C  49.54200 1.82700 46.79800
C  49.43600 4.32600 43.92700
C  50.92900 4.64600 43.80100
N  44.90700 5.93600 46.15200
C  46.07800 6.64800 45.96600
C  45.80200 8.10100 45.86400
C  44.36400 8.13800 46.02800
C  43.89600 6.82200 46.19800
C  46.70100 9.19500 45.58000
C  43.23300 9.02100 46.24800
O  43.23800 10.28200 46.20500
C  42.00500 8.20100 46.41700
C  41.27900 8.52000 47.67600
O  41.62800 8.15400 48.77300
O  40.11700 9.18100 47.41600
C  39.15700 9.29200 48.53200
H  40.61200 1.32600 46.29100
H  47.04700 0.43800 45.67900
H  48.10200 6.75600 45.54500
H  39.91400 6.02900 47.53400
H  39.26300 3.71300 45.82300
H  39.88000 2.81200 48.57300
H  38.28700 3.06100 47.80600
H  39.08100 4.35800 48.70600
H  39.45500 7.26200 45.45200
H  38.31600 5.91900 45.43800
H  38.91600 5.20000 43.45300
H  40.57300 5.20500 44.00600
H  41.71900 -1.57500 46.81500
H  42.10000 -1.87900 45.14100
H  40.87500 -0.60400 45.57000
H  46.99500 -1.94000 45.91700
H  46.62500 -1.06400 44.29800
H  46.22100 -2.74000 44.47300
H  48.81500 1.75500 44.73000
H  49.71900 4.29500 46.04300
H  50.52300 1.55400 46.40900
H  49.08400 0.95900 47.27200
H  49.48900 2.67200 47.48500
H  48.78000 5.14700 43.64000
H  49.18600 3.41900 43.37600
H  51.46300 4.26200 44.67100
H  51.18000 5.70300 43.71100
H  51.38900 4.21200 42.91400
H  47.35800 9.22000 44.71100
H  47.29500 9.18800 46.49400
H  46.23000 10.17800 45.56100
H  41.28200 8.47900 45.65000
H  39.16600 10.30100 48.94400
H  39.43100 8.59700 49.32500
H  38.19700 8.99800 48.10800
Mg 48.89900 44.65700 43.08700
C  45.43600 45.06900 42.31800
C  48.59400 41.45200 42.25400
C  52.17700 44.64400 43.15700
C  48.98200 48.18200 43.84000
N  47.12100 43.38200 42.23000
C  45.80100 43.73300 42.06200
C  45.03700 42.53600 41.62800
C  46.03300 41.33300 41.95600
C  47.33700 42.06700 42.09300
C  45.65100 40.65800 43.27200
C  44.41700 42.47300 40.21300
C  45.05100 43.24100 39.03500
H  45.02900 42.55300 37.65800
N  50.26500 43.26600 42.58100
C  49.95900 41.94900 42.36200
C  51.25500 41.24600 42.21900
C  52.28500 42.09700 42.53600
C  51.56100 43.38500 42.75800
C  51.36100 39.75100 41.78400
C  53.72700 41.73000 42.63200
O  54.08800 40.56200 42.39600
C  54.71300 42.68500 43.19000
N  50.35600 46.22600 43.46600
C  51.65200 45.87300 43.53900
C  52.60100 47.10800 43.78400
C  51.54300 48.24100 44.13700
C  50.18100 47.52300 43.89800
C  53.74400 46.91900 44.76500
C  51.73700 49.65000 43.49300
C  51.91100 50.71000 44.58000
N  47.50100 46.31000 43.18000
C  47.67600 47.62000 43.47600
C  46.44800 48.33700 43.17900
C  45.55100 47.37900 42.73000
C  46.21800 46.16400 42.73900
C  46.24200 49.81700 43.24000
C  44.23600 47.24400 42.11800
O  43.33300 48.05400 41.83800
C  44.08600 45.66200 41.85800
C  42.77500 45.21900 42.55900
O  41.85800 44.65800 41.94700
O  42.89200 45.47900 43.93500
C  41.68600 45.09200 44.63200
H  48.54300 40.37200 42.09600
H  53.26700 44.59800 43.19200
H  48.99200 49.24700 44.08400
H  44.14200 42.56400 42.25000
H  46.08400 40.51100 41.24200
H  45.63400 39.56800 43.28700
H  44.70700 41.05700 43.64200
H  46.37500 41.01400 44.00500
H  43.42400 42.89200 40.37900
H  44.46900 41.41000 39.98200
H  46.09100 43.47400 39.26200
H  44.50400 44.16600 38.85300
H  50.36700 39.51100 41.40800
H  51.55700 39.20200 42.70500
H  52.12500 39.59400 41.02200
H  55.05000 43.50200 42.55100
H  55.51800 42.05500 43.57000
H  54.27400 43.26000 44.00500
H  52.92100 47.31400 42.76300
H  51.68600 48.37300 45.21000
H  53.59400 46.04300 45.39700
H  53.79100 47.84500 45.33800
H  54.70000 46.73800 44.27500
H  50.95800 49.86300 42.76100
H  52.70200 49.65900 42.98700
H  52.80200 51.31500 44.41200
H  51.91500 50.38200 45.62000
H  51.01800 51.33400 44.57700
H  47.17600 50.18700 42.81700
H  46.00600 50.23400 44.21900
H  45.40200 49.99700 42.56900
H  43.91900 45.48200 40.79600
H  41.91700 45.20400 45.69200
H  41.47600 44.06600 44.32900
H  40.83100 45.71500 44.37100

