158

Mg 25.63400 0.44900 29.16400
C  27.82500 0.04500 31.82300
C  23.10900 0.78000 31.25900
C  23.74100 0.78100 26.50300
C  28.38900 -0.35100 26.97200
N  25.55000 0.41000 31.33400
C  26.53800 0.42600 32.26400
C  25.96400 0.67000 33.68800
C  24.42200 0.53800 33.45300
C  24.32300 0.54800 31.92500
C  23.74200 -0.69100 34.13500
C  26.46300 2.01900 34.38000
C  27.24400 1.79400 35.75900
H  26.93600 2.83900 36.91800
N  23.72900 0.79700 28.92600
C  22.79200 0.93600 29.91100
C  21.43100 1.19900 29.37800
C  21.67700 1.09500 27.99000
C  23.08600 0.92000 27.75600
C  20.16300 1.48100 30.17500
C  20.64700 1.17000 26.90100
O  20.90400 1.16000 25.71100
C  19.13200 1.06500 27.28400
N  26.01700 0.37900 27.08200
C  25.03900 0.57100 26.20000
C  25.57100 0.65400 24.80800
C  27.10400 0.32600 24.97600
C  27.17600 0.09200 26.44100
C  24.84500 -0.30400 23.80300
C  27.94800 1.49000 24.31700
C  27.99500 2.81300 25.09800
N  27.69000 -0.14800 29.28400
C  28.67800 -0.40000 28.38400
C  29.94200 -0.66900 29.05200
C  29.65400 -0.60500 30.41600
C  28.22800 -0.26200 30.49600
C  31.25800 -1.06100 28.41800
C  30.22600 -0.58200 31.75000
O  31.38900 -0.80900 32.09700
C  29.06600 -0.17700 32.70000
C  28.89200 -1.26200 33.67000
O  28.32800 -2.34100 33.48800
O  29.49400 -0.91600 34.86400
C  29.23400 -1.75600 36.01300
H  22.26400 0.82700 31.95000
H  23.10100 0.82800 25.61900
H  29.17700 -0.50000 26.23100
H  26.31700 -0.13600 34.33200
H  24.06900 1.48700 33.85600
H  24.54800 -1.26300 34.59500
H  23.22700 -1.33400 33.42100
H  22.98600 -0.46100 34.88600
H  25.60300 2.67700 34.50900
H  27.05700 2.54600 33.63400
H  28.32500 1.76400 35.62000
H  26.95100 0.79200 36.07300
H  19.75600 2.47900 30.01300
H  20.27300 1.32700 31.24800
H  19.35900 0.80800 29.87500
H  18.52100 1.21400 26.39300
H  18.92100 1.84900 28.01100
H  18.92000 0.14100 27.82300
H  25.32300 1.66200 24.47400
H  27.56200 -0.57200 24.56100
H  24.09700 -0.88300 24.34500
H  25.54200 -0.94300 23.26000
H  24.29700 0.31300 23.09000
H  27.52300 1.80600 23.36400
H  28.91400 1.03200 24.10300
H  28.97500 2.68600 25.55800
H  27.32800 2.79800 25.96000
H  27.94300 3.78600 24.60900
H  31.37800 -1.05000 27.33500
H  31.50300 -2.07800 28.72300
H  31.92100 -0.35000 28.91000
H  29.24700 0.68500 33.34300
H  28.17800 -2.02400 36.01100
H  29.29600 -1.17500 36.93400
H  29.92000 -2.60300 35.98800
Mg 41.87200 40.68700 27.06300
C  41.13200 43.27800 29.25800
C  42.45800 38.67000 29.72700
C  42.97200 38.46200 24.99100
C  41.71500 43.09400 24.38800
N  41.89300 40.98400 29.18100
C  41.54900 42.07700 29.93200
C  41.37600 41.88900 31.42700
C  41.85900 40.38000 31.56600
C  42.16600 39.99400 30.07100
C  43.09400 40.06000 32.43400
C  39.92700 42.14000 32.03700
C  39.61300 41.65700 33.45500
H  39.05300 42.71000 34.47600
N  42.50200 38.84400 27.32100
C  42.67200 38.09900 28.42900
C  43.08800 36.71900 28.10200
C  42.95800 36.62600 26.71800
C  42.82800 38.02700 26.31200
C  43.39800 35.73300 29.23900
C  42.92200 35.45400 25.81900
O  42.66800 35.68100 24.57100
C  43.10000 34.13300 26.41000
N  42.38100 40.85100 24.92500
C  42.81700 39.70400 24.36400
C  42.95500 39.88700 22.85500
C  42.38400 41.33700 22.63800
C  42.17400 41.80900 24.02400
C  44.30300 39.61600 22.14300
C  41.15100 41.49300 21.70900
C  39.81700 41.20600 22.40200
N  41.48100 42.72600 26.81200
C  41.40500 43.56600 25.69700
C  40.89700 44.88700 26.12300
C  40.81100 44.81900 27.53500
C  41.16000 43.51800 27.85700
C  40.59500 46.07400 25.24000
C  40.50400 45.57900 28.72300
O  40.23400 46.75800 28.85000
C  40.67300 44.60800 29.91700
C  41.74500 45.24600 30.71500
O  42.95400 44.92500 30.66800
O  41.16500 46.13900 31.55800
C  42.13700 46.70700 32.48600
H  42.42900 37.95200 30.54900
H  43.34300 37.77100 24.23200
H  41.44800 43.76700 23.57000
H  42.14400 42.42700 31.98400
H  41.05000 39.71900 31.87900
H  43.74800 40.92700 32.52800
H  43.76000 39.26400 32.10100
H  42.74100 39.77700 33.42600
H  39.07400 41.77700 31.46300
H  39.68200 43.20200 32.03500
H  40.60900 41.47400 33.85900
H  39.00500 40.75200 33.46500
H  43.41100 36.02900 30.28800
H  44.37600 35.30000 29.03200
H  42.74100 34.86600 29.30100
H  42.26900 33.84400 27.05400
H  44.08300 34.00100 26.86000
H  43.15200 33.38200 25.62200
H  42.32600 39.14100 22.37000
H  43.16300 41.96000 22.19900
H  44.57300 40.49900 21.56400
H  44.17700 38.73300 21.51600
H  45.09900 39.33600 22.83400
H  41.34600 40.78800 20.90100
H  41.20300 42.52500 21.36300
H  39.83100 40.54400 23.26800
H  39.15800 40.68900 21.70400
H  39.20400 42.10000 22.51800
H  39.55200 45.99600 24.93300
H  41.13900 46.08900 24.29600
H  40.90800 46.94300 25.82000
H  39.68100 44.64300 30.36700
H  42.99200 47.27100 32.11500
H  42.43100 45.83600 33.07100
H  41.63200 47.37900 33.18000

