158

Mg 25.94400 0.12300 29.59500
C  27.70500 -0.51800 32.65700
C  23.01900 0.05900 31.66600
C  24.11100 -0.07200 26.84300
C  28.77200 -0.80500 27.89100
N  25.42600 -0.20600 31.91800
C  26.37200 -0.29500 32.93700
C  25.74300 -0.13700 34.27300
C  24.22400 -0.37300 33.93800
C  24.21600 -0.12900 32.41000
C  23.68200 -1.81600 34.12300
C  26.11600 1.26800 34.90000
C  26.55600 1.27500 36.37400
H  25.88000 0.39700 37.39000
N  23.89300 0.19500 29.27700
C  22.89500 0.21100 30.29100
C  21.59600 0.43100 29.61500
C  21.86200 0.48000 28.22800
C  23.36300 0.11600 28.08100
C  20.30000 0.68300 30.38300
C  20.86900 0.71300 27.10300
O  21.16200 0.57600 25.97400
C  19.33800 0.83200 27.45800
N  26.31500 -0.60500 27.62700
C  25.43000 -0.42700 26.64800
C  26.16900 -0.35900 25.24700
C  27.66000 -0.32400 25.72900
C  27.60900 -0.53800 27.17100
C  25.86900 -1.56100 24.26600
C  28.42900 0.96100 25.36900
C  29.78200 0.69600 24.60800
N  27.82200 -0.44100 30.08800
C  28.90200 -0.74500 29.30400
C  30.08900 -0.85700 30.06200
C  29.65300 -0.81900 31.38500
C  28.25000 -0.63300 31.35600
C  31.52000 -0.98600 29.61700
C  30.13500 -0.90600 32.78200
O  31.25700 -1.03200 33.22100
C  28.83800 -0.75900 33.67300
C  28.74700 -1.96400 34.46000
O  27.97300 -2.87400 34.23300
O  29.57900 -1.87500 35.55200
C  29.11500 -2.60600 36.68300
H  22.14000 0.22200 32.29300
H  23.59500 -0.09200 25.88100
H  29.70200 -1.00400 27.35500
H  26.14400 -0.93800 34.89400
H  23.61100 0.42800 34.35300
H  23.42100 -2.28300 33.17300
H  22.75200 -1.80200 34.69000
H  24.42500 -2.47300 34.57600
H  25.23000 1.89000 34.77100
H  26.86700 1.70400 34.24200
H  26.40400 2.26000 36.81400
H  27.62600 1.06900 36.36800
H  19.83600 1.61800 30.07300
H  20.51700 0.74400 31.44900
H  19.58900 -0.12700 30.21900
H  18.98600 -0.03600 28.01500
H  18.79400 0.61900 26.53800
H  19.00000 1.80200 27.82100
H  25.89200 0.57900 24.76700
H  28.07700 -1.27200 25.39000
H  24.79300 -1.69700 24.15800
H  26.42200 -2.43700 24.60500
H  26.30400 -1.38100 23.28300
H  28.62400 1.43600 26.33100
H  27.80000 1.63300 24.78700
H  30.56400 1.44700 24.71400
H  29.55900 0.73500 23.54200
H  30.07300 -0.33400 24.81400
H  31.58400 -1.25800 28.56300
H  31.89200 -1.84400 30.17700
H  32.25600 -0.26400 29.97200
H  28.91400 0.11200 34.32500
H  30.00400 -2.71200 37.30600
H  28.86800 -3.64800 36.47700
H  28.34000 -2.05000 37.21100
Mg 41.16300 41.76000 26.92400
C  40.38100 44.01800 29.67000
C  41.83200 39.41000 29.34500
C  41.84000 39.82500 24.51600
C  40.41000 44.42600 24.81300
N  41.27200 41.83700 29.32100
C  40.86400 42.82200 30.18400
C  40.93000 42.33000 31.66300
C  41.58500 40.89000 31.46400
C  41.56900 40.67800 29.96300
C  43.00200 40.61100 32.08000
C  39.64300 42.28100 32.49300
C  39.84100 42.32100 33.98500
H  38.83400 42.99700 34.85900
N  41.78100 39.83400 26.91200
C  41.98300 39.01900 27.96700
C  42.38400 37.68200 27.42000
C  42.35100 37.77400 26.02800
C  42.00800 39.16900 25.76200
C  42.72800 36.50600 28.33600
C  42.62700 36.74500 24.94600
O  42.68700 36.90400 23.73100
C  42.77400 35.28800 25.38100
N  41.41200 42.19200 24.84000
C  41.55900 41.13900 24.05300
C  41.38900 41.58900 22.62400
C  40.72300 43.02200 22.75000
C  40.82700 43.23600 24.20100
C  42.67200 41.36600 21.72300
C  39.27300 43.24900 22.19900
C  38.31000 42.04700 22.55400
N  40.77400 43.88700 27.13700
C  40.43400 44.81200 26.16300
C  40.16700 46.03700 26.77600
C  39.96800 45.68000 28.13100
C  40.44000 44.39300 28.31300
C  39.93400 47.29400 26.04600
C  39.46600 46.24300 29.39000
O  38.92900 47.28300 29.67700
C  39.65700 45.11800 30.45400
C  40.56300 45.71700 31.44400
O  41.74100 46.05300 31.25800
O  39.84000 45.85300 32.63200
C  40.64400 46.40100 33.76100
H  41.96600 38.60300 30.06800
H  41.81000 39.13200 23.67300
H  40.02800 45.19900 24.14300
H  41.64300 42.95100 32.20500
H  40.97600 40.11300 31.92600
H  43.35300 41.57000 32.46100
H  43.79200 40.25600 31.41900
H  42.90700 39.88600 32.88800
H  39.21500 41.28000 32.44600
H  38.81900 42.93800 32.21400
H  40.82200 42.76900 34.14800
H  40.00200 41.30300 34.34100
H  42.01800 35.68600 28.23000
H  42.77900 36.77600 29.39100
H  43.68400 36.10000 28.00700
H  42.88600 34.64400 24.50900
H  41.84700 35.00700 25.88100
H  43.64900 35.32400 26.03100
H  40.64100 40.96100 22.14000
H  41.37700 43.80400 22.36600
H  43.55100 41.50200 22.35300
H  42.43700 42.10900 20.96000
H  42.61800 40.34800 21.33700
H  39.25800 43.19400 21.11100
H  38.74000 44.06000 22.69500
H  38.55000 41.25100 21.84900
H  37.27100 42.34900 22.42300
H  38.49700 41.70900 23.57300
H  40.40600 47.39400 25.06800
H  40.25400 48.07600 26.73500
H  38.85200 47.29900 25.91300
H  38.73800 44.73000 30.89400
H  41.39200 45.70500 34.14100
H  39.95300 46.78200 34.51300
H  41.15800 47.27700 33.36500

