158

Mg 49.02500 35.14100 27.08900
C  47.00300 34.01300 29.81000
C  49.61200 37.95100 28.94700
C  50.05700 36.53500 24.33900
C  47.80000 32.39900 25.23000
N  48.46000 35.78200 29.25000
C  47.68700 35.15000 30.15200
C  47.67300 35.92200 31.44900
C  48.08200 37.37100 31.00500
C  48.78600 37.01600 29.65300
C  46.88500 38.46000 30.97100
C  48.60500 35.33800 32.58700
C  47.88700 35.05200 33.93800
H  46.91500 36.07800 34.41300
N  49.94600 36.89300 26.74200
C  50.10800 37.92700 27.59600
C  50.86800 39.01200 26.97700
C  50.87900 38.72600 25.55800
C  50.27400 37.36900 25.46800
C  51.26000 40.21100 27.75200
C  51.47800 39.49000 24.44300
O  51.42000 39.01600 23.31200
C  52.15900 40.78000 24.63900
N  48.98100 34.47700 25.06500
C  49.55900 35.29200 24.13400
C  49.32300 34.68000 22.76100
C  48.82500 33.20100 23.05900
C  48.56300 33.35500 24.58600
C  48.23900 35.43400 21.92700
C  49.83700 32.01500 22.79500
C  49.66300 31.26100 21.46500
N  47.75200 33.46500 27.44000
C  47.43100 32.39500 26.61000
C  46.67400 31.39700 27.34500
C  46.43100 31.98000 28.61700
C  47.07900 33.24900 28.59700
C  46.03300 30.04600 26.88900
C  45.58200 31.88500 29.80300
O  44.69600 30.99200 30.11100
C  46.02700 33.13400 30.62900
C  46.63800 32.57200 31.93100
O  47.75800 32.11200 32.04800
O  45.68000 32.39400 32.93900
C  46.06700 31.52800 34.01000
H  49.74700 38.87500 29.51300
H  50.35400 36.92600 23.36400
H  47.42900 31.60700 24.57500
H  46.62900 35.83900 31.75300
H  48.92300 37.84500 31.51100
H  47.15800 39.39700 31.45500
H  46.05500 37.97900 31.48900
H  46.58800 38.73300 29.95800
H  49.43300 35.93200 32.97200
H  48.96600 34.42100 32.12100
H  48.64500 34.96700 34.71600
H  47.34300 34.10800 33.92000
H  50.43000 40.88400 27.96900
H  51.90700 40.96500 27.30300
H  51.76300 39.81900 28.63500
H  51.43500 41.36400 25.20700
H  52.41900 41.31600 23.72700
H  53.00800 40.49200 25.26000
H  50.24100 34.61500 22.17600
H  47.83300 32.97500 22.66700
H  47.29900 34.90500 21.77100
H  48.56600 35.82000 20.96100
H  47.87600 36.24100 22.56200
H  49.76100 31.33800 23.64600
H  50.83900 32.44400 22.81000
H  50.65200 31.30100 21.01000
H  48.93100 31.67800 20.77200
H  49.40100 30.25500 21.79200
H  46.25200 29.89600 25.83200
H  44.95800 30.04500 27.07000
H  46.58900 29.31600 27.47700
H  45.16000 33.74600 30.87500
H  45.13500 31.23100 34.49100
H  46.70400 32.02900 34.73900
H  46.50000 30.57100 33.72100
Mg 6.03100 54.34200 39.77500
C  5.35500 50.82900 39.95700
C  9.42400 53.39700 39.22800
C  6.84200 57.46700 39.22600
C  2.71000 55.06600 39.76900
N  7.16100 52.24400 39.45100
C  6.77400 50.99300 39.72200
C  7.88800 49.98300 39.59100
C  9.11100 50.91700 39.77400
C  8.56000 52.30100 39.38700
C  9.83400 50.92900 41.16900
C  7.88400 49.27200 38.24700
C  7.60600 49.96100 36.90900
H  6.27000 49.63600 36.21000
N  7.89000 55.34500 39.42800
C  9.10200 54.78700 39.18800
C  10.03000 55.87800 39.02600
C  9.36200 57.08200 39.10200
C  8.00000 56.64100 39.23800
C  11.52400 55.68800 38.83900
C  9.99900 58.48700 39.01000
O  11.22500 58.60400 38.87200
C  9.25500 59.75100 39.19200
N  4.89900 56.01900 39.28000
C  5.44700 57.21400 39.27300
C  4.40100 58.35600 39.50700
C  3.09200 57.52600 39.58900
C  3.55800 56.07200 39.45400
C  4.74000 59.32900 40.70000
C  1.99100 58.07800 38.60100
C  2.07400 57.41900 37.21400
N  4.33000 53.27700 39.77100
C  3.02300 53.69100 39.90600
C  2.20500 52.57400 40.28300
C  3.03600 51.42500 40.23700
C  4.37800 51.92500 39.95900
C  0.70300 52.56700 40.25600
C  3.02500 50.01500 40.44300
O  2.16300 49.14500 40.62500
C  4.55000 49.59000 40.35400
C  4.54100 48.57500 39.29600
O  4.12300 48.67900 38.17900
O  4.92300 47.35200 39.79200
C  4.69400 46.16500 38.94200
H  10.47900 53.11800 39.20700
H  6.91900 58.55400 39.29600
H  1.68600 55.43400 39.85000
H  7.65100 49.29200 40.40000
H  9.84600 50.63200 39.02100
H  10.83700 50.51200 41.08900
H  9.28200 50.34900 41.90900
H  9.81500 51.95800 41.52900
H  7.17400 48.45500 38.38000
H  8.86100 48.78800 38.25100
H  8.40900 49.55700 36.29300
H  7.82500 51.01200 37.09900
H  11.76700 55.52600 37.78900
H  11.94000 54.88200 39.44300
H  12.11000 56.52300 39.22400
H  10.05900 60.48400 39.11700
H  8.79900 59.74300 40.18100
H  8.52700 59.73500 38.38100
H  4.43200 59.01500 38.64000
H  2.63600 57.56300 40.57800
H  3.97000 59.29000 41.47000
H  4.78200 60.35700 40.34000
H  5.67700 59.04300 41.17900
H  2.07200 59.16200 38.52800
H  0.96600 57.97900 38.95900
H  1.07200 56.99600 37.13800
H  2.82800 56.66600 36.98400
H  2.24200 58.19900 36.47200
H  0.38600 53.40300 40.87900
H  0.37900 51.69300 40.82100
H  0.40200 52.58000 39.20800
H  4.87400 49.19400 41.31700
H  5.63500 46.13800 38.39300
H  3.84300 46.30400 38.27600
H  4.49000 45.30900 39.58500

