158

Mg 44.12700 4.97900 47.45600
C  42.03800 7.70900 46.76000
C  41.29000 2.86100 46.99800
C  46.17700 2.43700 47.26100
C  46.86600 7.26600 47.61800
N  41.93800 5.27100 46.85800
C  41.34500 6.51300 46.64300
C  39.84600 6.36400 46.33100
C  39.63300 4.86400 46.85800
C  41.03000 4.28600 46.89100
C  38.97900 4.87100 48.25700
C  39.64000 6.51900 44.80600
C  38.53400 7.52900 44.42200
H  38.47200 8.08900 42.97800
N  43.82000 2.91700 47.07300
C  42.60700 2.22600 47.02300
C  42.90400 0.82200 46.97400
C  44.27400 0.66500 46.90900
C  44.86300 1.98500 47.09000
C  41.84600 -0.20200 46.91400
C  45.02700 -0.66300 46.78600
O  44.39500 -1.69700 46.68400
C  46.50600 -0.77200 46.76800
N  46.26000 4.90100 47.39200
C  46.87600 3.67500 47.43300
C  48.35000 3.75700 47.65400
C  48.59600 5.29100 47.82100
C  47.15900 5.89100 47.59400
C  48.89200 2.78700 48.75900
C  49.60500 5.97200 46.86200
C  50.69300 6.97800 47.32400
N  44.43900 7.03000 47.34600
C  45.59100 7.76600 47.31600
C  45.30300 9.15300 47.15400
C  43.92300 9.21200 46.95100
C  43.43600 7.86700 47.01400
C  46.28800 10.27200 47.05400
C  42.76900 10.05800 46.62800
O  42.65800 11.22300 46.44300
C  41.46500 9.06100 46.54800
C  40.67300 9.50100 47.82600
O  40.60400 8.91000 48.89200
O  39.85200 10.53100 47.53100
C  38.84900 10.94100 48.46800
H  40.33400 2.34500 46.89000
H  46.91500 1.63800 47.36000
H  47.70800 7.92800 47.82700
H  39.28800 7.17800 46.79300
H  39.00500 4.25700 46.20600
H  38.53600 5.84900 48.44200
H  39.69600 4.42700 48.94800
H  38.17900 4.14600 48.10700
H  39.32400 5.59300 44.32700
H  40.52100 6.87500 44.27100
H  38.20500 8.35100 45.05900
H  37.61300 6.94700 44.39700
H  41.87400 -0.76400 45.98000
H  40.92500 0.37700 46.97000
H  41.92100 -0.92500 47.72700
H  46.92000 -0.33000 45.86200
H  46.75100 -1.83200 46.83400
H  46.82200 -0.20400 47.64300
H  48.73900 3.39800 46.70100
H  48.81300 5.44400 48.87800
H  49.36400 1.94800 48.24800
H  48.05100 2.42400 49.34900
H  49.71300 3.20000 49.34600
H  48.98000 6.41800 46.08800
H  50.18900 5.29700 46.23600
H  50.59400 7.92300 46.79100
H  51.69500 6.60100 47.11800
H  50.57000 7.17400 48.38900
H  45.90000 11.00700 46.35000
H  47.25100 9.88100 46.72700
H  46.56600 10.77800 47.97900
H  40.75300 9.14500 45.72700
H  37.94100 10.89500 47.86600
H  39.02000 11.93400 48.88300
H  38.60400 10.20100 49.23000
Mg 37.02700 48.96500 24.97500
C  37.30400 47.04100 27.83900
C  35.18300 51.25800 26.62300
C  36.29000 50.51900 21.97000
C  38.36600 46.27500 23.10600
N  36.19200 48.99300 26.96000
C  36.66900 48.28800 27.97500
C  36.15800 48.84100 29.28100
C  35.24000 50.04900 28.89700
C  35.44700 50.07400 27.39200
C  33.72300 50.02400 29.32400
C  37.39200 49.23200 30.15500
C  37.01500 49.72800 31.52900
H  35.62600 49.64500 32.12300
N  36.08800 50.75700 24.47300
C  35.40800 51.59000 25.30100
C  35.14000 52.80200 24.63300
C  35.21600 52.51500 23.23100
C  35.84200 51.19300 23.17200
C  34.61600 54.05400 25.37200
C  34.92000 53.43900 22.02600
O  34.95500 53.02300 20.89700
C  34.66700 54.87900 22.27500
N  37.09400 48.32800 22.79000
C  36.86400 49.24500 21.80600
C  37.33800 48.65100 20.46300
C  38.20700 47.43900 20.86500
C  37.86100 47.32600 22.38100
C  36.20500 48.30700 19.40800
C  39.71700 47.45700 20.52800
C  40.20400 46.92300 19.19300
N  37.79100 47.12700 25.37300
C  38.24600 46.11400 24.49100
C  38.69600 44.98600 25.33800
C  38.38900 45.33600 26.67700
C  37.70900 46.58900 26.60500
C  39.36200 43.68500 24.82700
C  38.36400 44.82600 28.05800
O  38.70900 43.78200 28.56800
C  37.78400 45.98900 28.87800
C  36.57800 45.50000 29.67000
O  35.41300 45.40600 29.30400
O  36.90000 45.66000 30.97900
C  35.89600 45.08600 31.92800
H  34.64800 52.02700 27.18500
H  36.30500 51.16700 21.09000
H  38.87000 45.60200 22.40800
H  35.64000 47.96500 29.67100
H  35.64500 51.01800 29.19000
H  33.46200 50.90900 29.90400
H  33.67200 49.16900 29.99800
H  33.10600 49.77400 28.46000
H  38.07200 49.97000 29.73000
H  37.95600 48.31600 30.32900
H  37.33500 50.76900 31.47400
H  37.68400 49.14600 32.16300
H  33.77500 54.57300 24.91100
H  35.42700 54.78100 25.39700
H  34.27600 53.80700 26.37800
H  33.70700 55.05200 22.76200
H  34.78600 55.43600 21.34500
H  35.44300 55.14400 22.99400
H  38.02400 49.43100 20.13200
H  37.69000 46.54300 20.52000
H  35.19200 48.28100 19.80800
H  36.63200 47.41300 18.95200
H  36.15100 49.02900 18.59300
H  40.28900 47.02000 21.34600
H  40.19300 48.43600 20.59000
H  39.32500 46.54500 18.67100
H  41.09000 46.29600 19.29500
H  40.47800 47.81600 18.63300
H  39.63600 43.88800 23.79200
H  38.65800 42.85300 24.84300
H  40.33900 43.49000 25.27000
H  38.62100 46.30400 29.50000
H  35.85700 45.56500 32.90700
H  36.24700 44.10100 32.23600
H  34.90400 44.94900 31.49700

