158

Mg -2.43900 17.61100 26.78700
C  -3.09100 15.29700 29.56700
C  -2.87300 20.07200 28.98900
C  -2.48700 19.52200 24.15400
C  -2.56000 14.73900 24.69100
N  -3.00800 17.62700 29.03500
C  -3.02300 16.60900 29.96500
C  -3.00600 17.15000 31.38700
C  -3.11500 18.74300 31.11700
C  -3.02900 18.79500 29.62100
C  -4.23900 19.59200 31.65200
C  -1.66300 16.72100 32.21200
C  -1.17500 17.63000 33.27100
H  -0.70500 16.99000 34.67400
N  -2.64300 19.56100 26.56600
C  -2.79100 20.39800 27.62000
C  -2.86600 21.76100 27.10800
C  -2.75700 21.62300 25.69400
C  -2.69800 20.20900 25.36500
C  -2.93300 23.07300 27.98400
C  -2.89400 22.71700 24.63200
O  -2.95200 22.36300 23.45200
C  -2.85000 24.18700 25.02400
N  -2.54000 17.16500 24.73400
C  -2.43300 18.17200 23.84000
C  -2.27500 17.63200 22.34700
C  -2.02300 16.09200 22.64100
C  -2.29400 16.02300 24.10400
C  -3.53200 18.00300 21.45000
C  -0.61200 15.57500 22.16300
C  0.66000 16.14200 22.85200
N  -2.79200 15.44400 26.95300
C  -2.81500 14.45100 26.06700
C  -2.95400 13.19100 26.72700
C  -3.04800 13.44800 28.08500
C  -2.97300 14.87400 28.18100
C  -2.96500 11.82900 26.06000
C  -3.14700 12.85900 29.34500
O  -3.25400 11.66700 29.65100
C  -3.21700 14.01100 30.42500
C  -2.09700 13.68500 31.35700
O  -0.93500 13.86700 31.17200
O  -2.74800 13.05300 32.33500
C  -1.89600 12.70600 33.46800
H  -2.68000 20.79300 29.78700
H  -2.26000 20.03800 23.21800
H  -2.45200 13.88700 24.01700
H  -3.89000 16.83500 31.94200
H  -2.23600 19.26400 31.49700
H  -3.85400 20.39700 32.27800
H  -4.87000 18.96800 32.28500
H  -4.84200 20.03100 30.85800
H  -0.81900 16.52400 31.55100
H  -1.90700 15.79900 32.74100
H  -1.86800 18.44900 33.46300
H  -0.34100 18.16400 32.81500
H  -2.79800 22.75000 29.01600
H  -3.84500 23.65300 27.83800
H  -2.10500 23.67600 27.61300
H  -3.45100 24.50100 25.87700
H  -3.23800 24.87300 24.27100
H  -1.84300 24.55300 25.22500
H  -1.30200 17.97900 22.00100
H  -2.72700 15.45100 22.11000
H  -3.08400 18.49600 20.58700
H  -4.05500 18.71900 22.08400
H  -4.18600 17.14200 21.31100
H  -0.46300 15.75100 21.09800
H  -0.60100 14.48700 22.22000
H  0.39700 17.00600 23.46200
H  1.33100 16.54100 22.09200
H  1.06400 15.30600 23.42300
H  -3.19200 12.06000 25.01900
H  -3.71100 11.24100 26.59500
H  -2.02600 11.28000 26.12200
H  -4.21100 13.91900 30.86500
H  -1.56000 11.66900 33.45400
H  -2.47800 12.90900 34.36700
H  -1.05200 13.36400 33.67800
Mg -2.23500 34.99100 26.71500
C  -3.88400 33.40100 29.36600
C  -0.89300 37.19400 28.94300
C  -1.17600 36.80600 24.14800
C  -4.27600 33.02700 24.48100
N  -2.34200 35.21000 28.89300
C  -3.07700 34.39200 29.77700
C  -2.83500 34.85800 31.22700
C  -1.97900 36.18300 31.04300
C  -1.73900 36.27300 29.56200
C  -2.67600 37.46700 31.65000
C  -2.07300 33.84400 32.15900
C  -2.78900 33.32200 33.39200
H  -2.03800 33.32000 34.75600
N  -1.06000 36.64700 26.52300
C  -0.60000 37.41700 27.52300
C  0.25300 38.44200 27.02700
C  0.33300 38.24900 25.69500
C  -0.65700 37.22400 25.41900
C  0.96200 39.38700 27.91100
C  1.33200 38.76400 24.59500
O  1.36400 38.25600 23.47300
C  2.31400 39.86600 25.00500
N  -2.70000 34.97700 24.61400
C  -2.08100 35.81500 23.78400
C  -2.66800 35.72300 22.39400
C  -3.41500 34.36300 22.44100
C  -3.50900 34.09400 23.91100
C  -3.60400 36.95800 22.07300
C  -2.87500 33.18300 21.58000
C  -1.74500 32.21300 22.21300
N  -3.66700 33.52900 26.84000
C  -4.29200 32.71300 25.82900
C  -5.14300 31.75500 26.47800
C  -5.06800 32.00200 27.87600
C  -4.11000 33.02100 28.04400
C  -5.99400 30.74800 25.77200
C  -5.55200 31.68800 29.12500
O  -6.40500 30.88500 29.46500
C  -4.79100 32.54300 30.19900
C  -5.90100 33.29100 30.98200
O  -6.80300 33.90500 30.45600
O  -5.76500 32.89200 32.27000
C  -7.02600 33.15700 33.00700
H  -0.41900 37.77700 29.73500
H  -0.70400 37.28200 23.28600
H  -4.85000 32.33500 23.86200
H  -3.80300 35.03200 31.69800
H  -1.01200 36.00100 31.51200
H  -1.92600 37.97500 32.25600
H  -3.52000 37.17900 32.27700
H  -2.95300 38.22800 30.92000
H  -1.07900 34.18800 32.44300
H  -2.00800 32.98000 31.49700
H  -2.95000 32.25300 33.25300
H  -3.78600 33.76100 33.41100
H  1.04100 40.27400 27.28400
H  2.00100 39.11900 28.10500
H  0.50400 39.62100 28.87200
H  3.05900 39.98300 24.21800
H  2.92100 39.57700 25.86300
H  1.69400 40.74100 25.20000
H  -1.87600 35.81700 21.65100
H  -4.46500 34.49100 22.18100
H  -4.65600 36.72900 21.90200
H  -3.09700 37.46500 21.25200
H  -3.71800 37.64500 22.91100
H  -2.56800 33.62000 20.63000
H  -3.75000 32.54600 21.44600
H  -1.23200 32.75800 23.00600
H  -1.15500 31.91100 21.34800
H  -2.14900 31.27600 22.59500
H  -6.98500 31.08900 25.47200
H  -5.98900 29.89400 26.45000
H  -5.58000 30.39500 24.82800
H  -4.23900 31.92300 30.90600
H  -7.88700 32.65600 32.56600
H  -7.15300 34.23500 32.90800
H  -6.82400 32.78700 34.01200

