158

Mg 26.25400 0.42200 28.89300
C  27.99300 -0.11400 31.82000
C  23.34100 0.75500 30.78200
C  24.60300 0.65100 26.07300
C  29.18500 -0.12400 27.06500
N  25.73200 0.23900 31.03500
C  26.63500 0.04900 32.08700
C  25.84700 0.17500 33.46600
C  24.38200 0.40800 33.06800
C  24.53300 0.61800 31.51400
C  23.23200 -0.67200 33.52300
C  26.51400 1.09500 34.51400
C  25.78600 1.40400 35.81000
H  26.71400 1.72500 36.99500
N  24.21400 0.71900 28.50300
C  23.14500 0.76900 29.36700
C  22.01200 1.09800 28.58400
C  22.32000 0.87500 27.21700
C  23.76300 0.72400 27.20200
C  20.71800 1.40100 29.20100
C  21.37200 0.87600 26.11800
O  21.69400 0.58700 24.92600
C  19.95700 1.47000 26.23500
N  26.81300 0.22600 26.81900
C  25.92500 0.42600 25.84800
C  26.52600 0.46000 24.47400
C  28.01600 0.42800 24.86200
C  28.06200 0.21400 26.34300
C  26.00600 -0.70500 23.63600
C  28.81600 1.70100 24.47400
C  30.28400 1.49400 24.03200
N  28.22700 -0.10200 29.37700
C  29.34500 -0.19500 28.48500
C  30.55300 -0.49000 29.32900
C  30.07300 -0.45500 30.67300
C  28.64200 -0.23100 30.56400
C  31.98500 -0.82400 28.83700
C  30.35900 -0.53700 32.08300
O  31.49100 -0.63900 32.61800
C  29.03400 -0.29800 32.86400
C  28.76300 -1.47700 33.83500
O  28.16500 -2.52100 33.66800
O  29.41900 -1.21500 34.99400
C  29.28500 -2.13600 36.14200
H  22.44600 0.99300 31.36000
H  24.11900 0.85000 25.11400
H  30.11700 -0.03200 26.50200
H  25.92500 -0.83200 33.87700
H  24.05500 1.33400 33.54300
H  22.32900 -0.23600 33.95100
H  23.71500 -1.31200 34.26200
H  23.02700 -1.33800 32.68500
H  26.91800 1.99800 34.05600
H  27.44900 0.60600 34.78900
H  25.22000 0.48400 35.95900
H  25.14600 2.27800 35.68300
H  20.72100 1.61300 30.27000
H  20.10700 0.53900 28.93200
H  20.38500 2.35800 28.79800
H  19.26700 0.82200 26.77500
H  19.66500 1.49500 25.18500
H  19.95000 2.53600 26.46400
H  26.12100 1.31900 23.94100
H  28.45500 -0.43100 24.35300
H  26.72300 -1.52600 23.67100
H  25.84300 -0.42800 22.59400
H  25.06400 -1.09300 24.02200
H  28.87600 2.35000 25.34800
H  28.19900 2.17200 23.70900
H  30.32300 2.04700 23.09400
H  30.62400 0.45900 24.06900
H  30.98600 2.00400 24.69300
H  32.84600 -0.26900 29.20700
H  32.06600 -0.76700 27.75100
H  32.16800 -1.88200 29.02300
H  29.21200 0.62300 33.41800
H  28.60100 -1.71600 36.88000
H  30.29300 -2.09700 36.55600
H  28.94300 -3.14700 35.92200
Mg 43.84600 3.46400 47.02800
C  41.94200 6.42400 46.76400
C  40.98500 1.53200 46.66600
C  45.77900 0.69400 47.05800
C  46.72800 5.39800 46.19300
N  41.72500 3.95100 46.64600
C  41.14700 5.26500 46.91700
C  39.61600 5.08900 47.03100
C  39.36100 3.53900 46.83200
C  40.78800 2.94200 46.68700
C  38.60400 2.88100 48.01100
C  38.78200 5.92400 46.01300
C  39.32500 6.29500 44.57800
H  38.76300 5.49200 43.38100
N  43.44500 1.40000 46.92000
C  42.18000 0.80000 46.78100
C  42.31700 -0.58100 46.65100
C  43.66800 -0.96200 46.80500
C  44.38100 0.41200 46.92300
C  41.12800 -1.58000 46.46800
C  44.21800 -2.41200 46.82400
O  43.56100 -3.47100 46.87400
C  45.64200 -2.60300 46.95900
N  45.97200 3.06700 46.62700
C  46.53900 1.87400 46.95000
C  48.10700 1.98500 46.84500
C  48.32600 3.43000 46.37500
C  46.88000 4.00000 46.38700
C  48.64000 1.75800 48.31500
C  49.08400 3.49600 45.03100
C  50.50600 3.92400 45.12400
N  44.33400 5.49000 46.66400
C  45.47800 6.08800 46.25600
C  45.33100 7.51700 46.15500
C  43.96900 7.73300 46.33000
C  43.37400 6.43500 46.65000
C  46.32900 8.60500 45.94200
C  42.93200 8.77000 46.44100
O  42.98900 9.95400 46.30200
C  41.52400 7.94400 46.65500
C  40.82600 8.56800 47.84200
O  41.16100 8.43100 49.02400
O  39.66600 9.18300 47.43500
C  38.72400 9.51800 48.53000
H  40.01200 1.03800 46.63300
H  46.33100 -0.19600 47.36900
H  47.49800 6.04800 45.77300
H  39.38800 5.48200 48.02100
H  38.74500 3.29700 45.96500
H  38.26500 3.47900 48.85700
H  39.31000 2.18700 48.46800
H  37.74300 2.31900 47.64700
H  38.50800 6.81400 46.57900
H  37.85500 5.40200 45.77600
H  40.37600 6.00700 44.55600
H  39.19400 7.36700 44.43300
H  41.20300 -1.87400 45.42100
H  40.20200 -1.06400 46.71900
H  41.16100 -2.51800 47.02200
H  46.13000 -2.21800 47.85500
H  46.17300 -1.95700 46.26100
H  45.89800 -3.62100 46.66700
H  48.22600 1.14700 46.15900
H  48.94200 3.90000 47.14200
H  47.89200 1.67400 49.10400
H  49.37300 2.51800 48.58400
H  49.11100 0.77500 48.33400
H  48.52800 4.16000 44.36800
H  48.98800 2.50300 44.59200
H  50.75700 4.43200 46.05500
H  50.77400 4.63500 44.34200
H  51.03400 2.97700 45.01900
H  46.72200 8.83200 44.95100
H  47.21200 8.29000 46.49900
H  46.08100 9.46000 46.57200
H  40.91000 8.09100 45.76700
H  38.83400 8.68000 49.21900
H  37.69900 9.50500 48.15800
H  39.03600 10.36600 49.13900

