158

Mg -1.15600 18.52300 26.77100
C  -1.75000 16.36700 29.47700
C  -2.05700 21.11800 28.92100
C  -0.78400 20.59400 24.33500
C  -1.08000 15.83500 24.63300
N  -1.44500 18.79800 29.18200
C  -1.66500 17.70000 29.95700
C  -2.10800 18.19200 31.44500
C  -2.50400 19.70000 31.15700
C  -2.01100 19.89600 29.69300
C  -4.01000 20.04000 31.35900
C  -0.96200 18.12500 32.49400
C  -1.46500 17.54800 33.82600
H  -0.38400 17.34300 34.89600
N  -1.27100 20.58500 26.60300
C  -1.66700 21.46500 27.63000
C  -1.77400 22.77600 27.02500
C  -1.28100 22.63700 25.65300
C  -1.11800 21.20000 25.51200
C  -2.27700 24.00900 27.68600
C  -0.94300 23.66200 24.54600
O  -0.26300 23.36800 23.57600
C  -1.28200 25.06100 24.69900
N  -1.16900 18.24900 24.68800
C  -0.83100 19.28100 23.94900
C  -0.35900 18.88900 22.52800
C  -0.45600 17.29700 22.63900
C  -0.88800 17.05500 24.07900
C  -1.32800 19.41800 21.40900
C  0.79100 16.39000 22.28700
C  0.45300 15.21300 21.35800
N  -1.34800 16.51800 26.92100
C  -1.27500 15.53600 25.97600
C  -1.44600 14.27800 26.62200
C  -1.59300 14.53500 28.00900
C  -1.58700 15.93300 28.11300
C  -1.54400 12.98800 25.88400
C  -1.82400 13.95800 29.27100
O  -1.89800 12.79400 29.60600
C  -1.98600 15.19100 30.26100
C  -0.93400 15.01000 31.29800
O  0.21100 15.36300 31.22800
O  -1.48700 14.24900 32.25500
C  -0.62600 13.77900 33.42200
H  -2.52300 21.95300 29.44800
H  -0.65200 21.26000 23.48000
H  -0.87600 14.91600 24.08000
H  -3.04400 17.66400 31.62700
H  -1.89100 20.40600 31.71700
H  -4.60200 19.13900 31.51900
H  -4.49200 20.63500 30.58400
H  -3.96200 20.74200 32.19100
H  -0.50100 19.10100 32.64700
H  -0.13200 17.63900 31.98200
H  -1.96700 16.58400 33.73400
H  -2.16000 18.29100 34.21500
H  -1.88300 24.94400 27.28600
H  -1.95800 24.06100 28.72700
H  -3.35600 23.86300 27.62200
H  -1.20000 25.53000 23.71800
H  -0.70700 25.62400 25.43500
H  -2.35100 24.94600 24.87700
H  0.62800 19.30100 22.31900
H  -1.28200 17.00100 21.99300
H  -1.98400 18.64700 21.00300
H  -0.72900 19.64600 20.52700
H  -1.92800 20.22300 21.83400
H  1.31000 15.93500 23.13000
H  1.45800 17.08600 21.77800
H  0.17600 15.72700 20.43700
H  -0.49500 14.77700 21.67200
H  1.20500 14.42400 21.36100
H  -2.37500 13.16400 25.20000
H  -1.82200 12.20200 26.58600
H  -0.63500 12.75700 25.32900
H  -3.01700 15.12400 30.60800
H  0.15400 14.50200 33.66200
H  -0.18900 12.78100 33.44400
H  -1.22900 13.81100 34.33000
Mg 8.48300 48.10300 26.29300
C  6.15200 48.15700 28.96300
C  10.93800 48.66200 28.60500
C  10.71100 48.38300 23.78100
C  5.84000 47.59500 24.05300
N  8.53500 48.20600 28.58800
C  7.43800 48.16000 29.44500
C  7.94500 48.13100 30.86000
C  9.44300 48.66600 30.71500
C  9.72600 48.49000 29.21800
C  9.62800 50.10800 31.19800
C  7.84000 46.71700 31.62000
C  7.34000 46.90400 33.03200
H  8.02700 46.28800 34.31400
N  10.55700 48.45600 26.16500
C  11.39100 48.77100 27.25800
C  12.68900 49.15800 26.77100
C  12.66700 48.91700 25.38400
C  11.28200 48.53600 25.03200
C  13.77500 49.54800 27.73000
C  13.77300 48.94500 24.33700
O  13.61400 48.65800 23.12500
C  15.18700 49.18200 24.81700
N  8.33200 48.05000 24.19700
C  9.42100 48.13500 23.31200
C  9.01200 47.71800 21.86600
C  7.43400 47.48100 22.02000
C  7.17600 47.67400 23.52600
C  9.44900 48.70200 20.75500
C  6.96300 46.12300 21.46300
C  5.66900 46.12100 20.66300
N  6.46000 48.00600 26.35700
C  5.51500 47.82400 25.35000
C  4.22400 47.84000 25.89300
C  4.36900 47.96100 27.31000
C  5.78600 48.00800 27.56700
C  2.89800 47.65300 25.28100
C  3.63300 47.99500 28.62800
O  2.44700 47.85900 28.89300
C  4.80000 48.46900 29.67200
C  4.46900 47.84700 30.94500
O  4.55800 46.64900 31.18800
O  4.17600 48.69300 31.89700
C  3.77700 48.26300 33.20800
H  11.71200 48.90100 29.33800
H  11.38400 48.32700 22.92300
H  5.07600 47.20000 23.38100
H  7.48100 48.91300 31.46100
H  10.16200 48.16600 31.36400
H  8.72700 50.55500 31.61800
H  9.99500 50.76000 30.40500
H  10.37400 50.15300 31.99200
H  8.84200 46.28900 31.65600
H  7.11600 46.14400 31.04000
H  6.37400 46.40600 32.94300
H  7.27000 47.95300 33.32000
H  13.68700 48.81100 28.52800
H  13.47300 50.55900 28.00200
H  14.78400 49.49200 27.32100
H  15.42900 48.31200 25.42800
H  15.21400 50.16600 25.28400
H  15.92200 49.28100 24.01700
H  9.41100 46.72400 21.66400
H  6.86200 48.24200 21.49000
H  10.33100 49.29400 20.99900
H  8.63600 49.41300 20.60600
H  9.68400 48.21300 19.81000
H  6.69900 45.50800 22.32400
H  7.77800 45.74400 20.84700
H  5.29600 45.17000 20.28200
H  5.84300 46.79300 19.82300
H  4.86600 46.52200 21.28200
H  2.55200 48.66000 25.05000
H  2.19100 47.12700 25.92300
H  3.02400 47.23600 24.28200
H  4.83700 49.55800 29.69100
H  3.24300 49.14900 33.55000
H  4.69900 48.19700 33.78500
H  3.18600 47.35000 33.28700

