158

Mg 31.57400 59.02200 39.92600
C  29.05700 56.87500 38.82900
C  33.85700 56.88200 38.95200
C  33.78100 61.53900 40.36200
C  28.93400 61.51700 40.23100
N  31.48900 57.12800 38.85900
C  30.40200 56.36400 38.72700
C  30.74100 55.05000 38.13800
C  32.25500 54.89300 38.43100
C  32.58000 56.38000 38.77300
C  32.54000 53.95300 39.63100
C  30.29600 54.79000 36.63600
C  29.30100 53.64100 36.23600
H  28.22300 54.09800 35.29700
N  33.60200 59.21200 39.66400
C  34.35400 58.18600 39.22200
C  35.71300 58.64500 39.18100
C  35.72700 60.03900 39.52300
C  34.32700 60.34300 39.86700
C  36.88400 57.82500 38.75200
C  36.88600 60.99900 39.34300
O  37.95400 60.60200 38.81700
C  36.82700 62.46100 39.53900
N  31.38100 61.26300 40.20900
C  32.43000 62.00500 40.50500
C  32.11700 63.48900 40.80700
C  30.52900 63.40600 40.72200
C  30.29400 61.99900 40.27700
C  32.63700 63.88600 42.22500
C  29.80000 64.57400 39.91600
C  30.17900 66.10700 40.13400
N  29.36200 59.20100 39.64900
C  28.47300 60.24100 39.89000
C  27.17000 59.82900 39.60600
C  27.29800 58.47800 39.20100
C  28.64600 58.12500 39.23300
C  25.87700 60.56700 39.84500
C  26.57800 57.30000 38.77300
O  25.37400 57.12600 38.67900
C  27.68300 56.27300 38.40000
C  27.30100 55.01400 39.26700
O  27.65100 54.79100 40.37200
O  26.44000 54.32000 38.45300
C  25.87700 53.06800 38.89600
H  34.64800 56.16200 38.73400
H  34.51500 62.29900 40.63900
H  28.07900 62.18500 40.35300
H  30.18600 54.25900 38.64100
H  32.81000 54.58600 37.54500
H  31.93100 53.05000 39.60300
H  32.36100 54.42900 40.59500
H  33.59000 53.67800 39.52600
H  31.19500 54.71900 36.02500
H  29.87200 55.74400 36.32200
H  28.81500 53.20000 37.10600
H  29.69700 52.76600 35.72200
H  37.23900 58.06100 37.74900
H  36.78900 56.75100 38.59100
H  37.59200 58.03300 39.55500
H  35.88700 62.86900 39.16800
H  37.69400 62.96900 39.11600
H  36.82900 62.65300 40.61200
H  32.59800 64.17800 40.11200
H  30.13300 63.33900 41.73500
H  32.87400 63.01500 42.83600
H  31.92200 64.37700 42.88500
H  33.54600 64.46800 42.07600
H  28.72100 64.47900 40.03800
H  29.91800 64.27400 38.87500
H  29.26200 66.63600 40.39200
H  30.57500 66.59800 39.24500
H  30.92800 66.20400 40.92000
H  25.17400 60.25900 39.07200
H  26.02900 61.64600 39.80300
H  25.48300 60.42400 40.85100
H  27.61400 55.97500 37.35300
H  25.19500 53.37900 39.68800
H  26.65800 52.43100 39.30900
H  25.28700 52.61000 38.10200
Mg -11.40000 38.31700 41.58500
C  -9.00600 35.75900 41.08300
C  -9.51400 40.41700 39.70100
C  -14.08500 40.32900 41.41100
C  -13.56500 35.72000 42.92900
N  -9.53900 38.06400 40.42800
C  -8.74400 36.93000 40.47900
C  -7.44700 37.22100 39.71500
C  -7.59300 38.74400 39.26900
C  -8.97100 39.11700 39.79400
C  -6.42900 39.74500 39.57800
C  -7.01900 36.21300 38.60600
C  -5.71700 35.48200 38.80600
H  -4.62600 35.60300 37.68300
N  -11.68900 40.23300 40.87400
C  -10.83500 40.92500 40.01300
C  -11.42600 42.12900 39.59300
C  -12.67000 42.20800 40.25500
C  -12.88500 40.90600 40.93400
C  -10.63600 43.05900 38.70400
C  -13.59000 43.44600 40.12800
O  -13.10700 44.48700 39.64900
C  -15.00300 43.45200 40.63200
N  -13.53400 38.05200 42.14900
C  -14.37100 39.06100 42.01300
C  -15.79700 38.69500 42.36100
C  -15.63900 37.25200 42.91100
C  -14.14900 36.97400 42.69400
C  -16.58500 39.66700 43.27300
C  -16.50500 36.33500 41.96200
C  -18.07300 36.66600 41.84700
N  -11.25900 36.23300 42.13100
C  -12.18600 35.36600 42.73700
C  -11.54500 34.10100 43.00500
C  -10.29400 34.19500 42.40900
C  -10.18100 35.49700 41.81900
C  -12.22100 32.98200 43.63500
C  -9.10800 33.57000 42.20500
O  -8.81800 32.44800 42.59800
C  -8.12600 34.57600 41.45500
C  -6.88400 34.81000 42.27600
O  -5.91800 34.08200 42.32400
O  -6.87200 36.07000 42.92300
C  -5.71800 36.44400 43.62900
H  -8.79200 41.07200 39.21000
H  -14.99800 40.92300 41.32400
H  -14.21000 34.97000 43.39200
H  -6.68000 37.17000 40.48800
H  -7.75900 38.64100 38.19600
H  -5.48100 39.25300 39.79500
H  -6.56000 40.54200 40.31100
H  -6.15000 40.28400 38.67200
H  -6.96500 36.63500 37.60200
H  -7.80400 35.45700 38.55900
H  -6.03300 34.44400 38.90500
H  -5.19900 35.80500 39.70900
H  -11.08200 43.96900 38.30500
H  -10.33700 42.43600 37.86100
H  -9.83500 43.34700 39.38600
H  -14.94800 43.17800 41.68500
H  -15.63700 42.90800 39.93200
H  -15.33200 44.48800 40.54200
H  -16.25300 38.70000 41.37100
H  -15.99500 37.12200 43.93300
H  -17.12700 39.02200 43.96400
H  -17.30100 40.25000 42.69300
H  -15.84800 40.32600 43.73300
H  -16.35300 35.30800 42.29500
H  -16.14100 36.46300 40.94300
H  -18.30500 37.53900 42.45700
H  -18.71600 35.85700 42.19200
H  -18.37200 36.99300 40.85200
H  -12.59700 33.24100 44.62500
H  -11.61700 32.07500 43.60700
H  -13.07300 32.74000 42.99900
H  -7.84600 34.00100 40.57200
H  -5.61600 37.52800 43.66100
H  -4.80400 36.06900 43.16900
H  -5.82200 36.14200 44.67200

