158

Mg -2.35800 17.52500 26.40000
C  -2.87800 15.05500 29.03600
C  -2.84800 19.91400 28.74800
C  -2.44500 19.73400 23.90600
C  -2.72400 14.85800 24.02900
N  -2.78200 17.36000 28.68200
C  -2.82600 16.34700 29.59500
C  -2.76500 16.87600 30.99900
C  -2.85000 18.42800 30.84800
C  -2.86900 18.59700 29.31800
C  -3.94900 19.21400 31.63900
C  -1.57800 16.18700 31.84000
C  -0.79500 17.01100 32.91000
H  -0.53400 16.37100 34.25300
N  -2.50200 19.52900 26.35200
C  -2.66100 20.41500 27.41400
C  -2.56300 21.78000 26.96800
C  -2.31900 21.69800 25.52200
C  -2.43100 20.28700 25.20800
C  -2.69200 22.98900 27.83400
C  -2.03700 22.74800 24.58800
O  -1.99400 22.68900 23.35200
C  -1.62700 24.10700 25.13000
N  -2.60400 17.34800 24.32300
C  -2.49800 18.37200 23.47600
C  -2.41400 17.98900 22.00100
C  -2.75700 16.48400 22.09200
C  -2.62900 16.18000 23.55700
C  -3.33900 18.69000 20.90400
C  -1.86900 15.54800 21.19600
C  -2.73100 14.34400 20.67700
N  -2.68800 15.44900 26.47200
C  -2.79800 14.53900 25.42000
C  -3.02200 13.24800 25.95900
C  -2.98100 13.36200 27.37600
C  -2.80400 14.76100 27.62400
C  -3.28900 11.97100 25.08600
C  -3.08100 12.62300 28.58300
O  -3.25900 11.43500 28.75200
C  -2.98700 13.68100 29.77300
C  -1.65700 13.35300 30.47000
O  -0.51300 13.52300 29.93900
O  -1.83000 12.78800 31.68000
C  -0.70800 12.37600 32.42700
H  -3.04600 20.76400 29.40400
H  -2.53400 20.46700 23.10100
H  -2.69400 13.99700 23.35800
H  -3.68900 16.51600 31.45300
H  -1.90500 18.84200 31.19900
H  -4.47900 19.93600 31.01800
H  -3.53300 19.76000 32.48500
H  -4.54400 18.49300 32.20000
H  -0.80400 16.03600 31.08800
H  -1.96800 15.26100 32.26400
H  -1.25500 17.99700 32.97700
H  0.20300 17.18600 32.50800
H  -3.11700 22.77200 28.81400
H  -3.41500 23.65100 27.35700
H  -1.80600 23.62300 27.79800
H  -2.53700 24.61900 25.44300
H  -1.26800 24.69100 24.28200
H  -0.90800 24.06300 25.94800
H  -1.36400 18.05300 21.71500
H  -3.84500 16.47400 22.01900
H  -4.09200 18.01200 20.50300
H  -2.67800 19.02200 20.10400
H  -3.83600 19.48000 21.46800
H  -0.99800 15.14300 21.71000
H  -1.54700 16.18000 20.36800
H  -2.62100 14.22400 19.60000
H  -3.78900 14.42400 20.92800
H  -2.40300 13.37900 21.06200
H  -4.08900 12.19200 24.37900
H  -3.50000 11.02300 25.58100
H  -2.40500 11.82900 24.46400
H  -3.72900 13.68000 30.57200
H  -1.13700 11.80800 33.25300
H  -0.21500 13.29900 32.73300
H  -0.03200 11.82000 31.77800
Mg -5.62100 25.71800 25.99400
C  -3.85100 26.83300 28.88400
C  -7.39600 23.71000 27.82300
C  -6.47400 24.16500 23.11500
C  -3.40100 27.78700 24.08700
N  -5.67000 25.34600 28.12800
C  -4.87900 25.87500 29.10000
C  -5.41000 25.51700 30.43000
C  -6.44700 24.30100 30.10400
C  -6.61200 24.53300 28.64000
C  -5.93500 22.87300 30.42400
C  -6.14400 26.78900 31.01800
C  -5.78200 27.11900 32.38300
H  -5.24400 26.03600 33.33400
N  -6.83000 24.25800 25.52900
C  -7.48300 23.50400 26.45300
C  -8.23600 22.40800 25.86600
C  -7.97600 22.48900 24.49900
C  -7.08000 23.67200 24.31900
C  -9.21200 21.51800 26.59200
C  -8.42800 21.58400 23.37100
O  -8.14500 21.83500 22.23700
C  -9.40000 20.35200 23.59200
N  -5.15500 26.07200 23.85200
C  -5.63900 25.29700 22.84200
C  -5.06100 25.69800 21.44300
C  -4.14000 26.91300 21.78400
C  -4.23100 26.93900 23.33100
C  -4.39900 24.46900 20.80700
C  -4.54400 28.30500 21.17000
C  -3.35800 29.25000 20.74400
N  -3.95000 27.01700 26.28000
C  -3.25000 27.84400 25.43900
C  -2.22400 28.51600 26.23100
C  -2.44100 28.06500 27.53500
C  -3.53800 27.23400 27.52600
C  -1.03100 29.36200 25.82100
C  -1.90800 28.20900 28.90500
O  -0.89400 28.88400 29.27500
C  -2.95600 27.52000 29.87900
C  -2.05600 26.60700 30.58000
O  -1.53000 25.59600 30.08300
O  -1.78200 27.23000 31.79100
C  -0.77500 26.40800 32.42900
H  -8.07800 23.28400 28.56200
H  -6.69000 23.58900 22.21400
H  -2.68000 28.41300 23.55800
H  -4.67300 25.00200 31.04700
H  -7.36300 24.35100 30.69300
H  -5.13600 22.80000 31.16200
H  -5.71700 22.33000 29.50400
H  -6.75900 22.25000 30.77200
H  -7.21000 26.58300 30.92200
H  -6.00200 27.66500 30.38600
H  -6.68000 27.41000 32.92700
H  -4.97500 27.83200 32.21000
H  -10.19000 21.57500 26.11400
H  -9.30300 21.83800 27.63000
H  -8.90900 20.47500 26.68200
H  -9.00000 19.77400 24.42500
H  -9.37900 19.79900 22.65300
H  -10.38300 20.71800 23.88900
H  -6.00100 25.98600 20.97200
H  -3.07700 26.77500 21.58500
H  -5.08700 24.16900 20.01600
H  -4.27600 23.63100 21.49300
H  -3.38500 24.66600 20.45800
H  -5.09100 28.75800 21.99700
H  -5.36900 28.15400 20.47400
H  -2.35900 29.04500 21.12900
H  -3.36800 30.28900 21.07600
H  -3.24500 29.29000 19.66100
H  -0.63100 28.92200 24.90700
H  -0.23100 29.37900 26.56100
H  -1.40100 30.33900 25.51200
H  -3.36400 28.16500 30.65700
H  0.19800 26.59800 31.97700
H  -1.08700 25.36800 32.53200
H  -0.71800 26.63300 33.49400

