158

Mg 47.12900 25.58700 28.04700
C  48.20500 27.42000 30.81100
C  46.15300 23.02000 30.20500
C  45.98900 23.90600 25.42300
C  48.48900 28.08000 25.98200
N  47.18000 25.30700 30.25000
C  47.67000 26.15900 31.16000
C  47.43900 25.71800 32.59800
C  47.02300 24.23800 32.37500
C  46.73600 24.16800 30.87600
C  48.03300 23.22200 32.93200
C  46.42100 26.60700 33.36600
C  46.93800 27.32600 34.62800
H  46.02100 27.38800 35.87300
N  46.29100 23.65600 27.83100
C  45.93600 22.75800 28.81900
C  45.19700 21.66600 28.16600
C  45.25100 21.84900 26.76000
C  45.93000 23.18000 26.59800
C  44.64200 20.58700 28.95000
C  44.69800 20.94400 25.60000
O  44.96000 21.21600 24.44900
C  43.81600 19.79900 25.92300
N  47.42600 25.82400 26.01500
C  46.82700 24.97100 25.10700
C  46.99200 25.49100 23.69000
C  47.70900 26.78600 23.89000
C  47.82000 26.96400 25.42500
C  47.53400 24.65700 22.55600
C  47.06200 27.95000 23.10000
C  48.03700 28.71200 22.19100
N  48.04900 27.43200 28.29600
C  48.62400 28.38800 27.31900
C  49.25200 29.47300 28.07000
C  49.11500 29.07100 29.38900
C  48.32900 27.90300 29.46800
C  49.91800 30.54600 27.38800
C  49.46000 29.44600 30.69600
O  50.05100 30.45700 31.14300
C  48.80100 28.52000 31.65200
C  49.86300 27.98200 32.43700
O  50.58300 27.06800 32.16500
O  49.94600 28.61000 33.67800
C  51.01400 28.14400 34.53200
H  45.68200 22.30000 30.87800
H  45.47300 23.44500 24.57800
H  48.83900 28.90700 25.36000
H  48.42100 25.82400 33.05900
H  46.09100 24.13200 32.93100
H  48.59700 22.76700 32.11800
H  47.61300 22.40600 33.52100
H  48.74200 23.60900 33.66400
H  45.45500 26.16400 33.61000
H  46.14900 27.43300 32.71000
H  47.13900 28.36600 34.37200
H  47.85000 26.84100 34.97500
H  45.13600 19.69100 28.57400
H  43.56800 20.45300 28.82200
H  44.93100 20.68200 29.99700
H  44.34800 19.00900 26.45300
H  43.53800 19.31900 24.98500
H  42.86900 20.05500 26.39900
H  45.94400 25.64400 23.43500
H  48.73000 26.75500 23.51100
H  47.80700 23.66600 22.91800
H  48.46200 25.10800 22.20500
H  46.84400 24.66200 21.71200
H  46.60300 28.74900 23.68200
H  46.23000 27.58900 22.49500
H  47.52000 29.04700 21.29300
H  48.80600 28.08600 21.73800
H  48.50300 29.55700 22.69800
H  49.42400 30.74300 26.43700
H  50.95900 30.28000 27.20800
H  49.76200 31.47600 27.93600
H  48.13700 29.14400 32.25100
H  52.00100 28.35300 34.12000
H  50.87800 27.06900 34.65000
H  50.93500 28.54000 35.54400
Mg 36.54200 49.98100 24.20300
C  36.73900 48.24100 27.35200
C  34.87000 52.56100 26.06000
C  36.01700 51.47200 21.41000
C  37.55600 47.18000 22.67500
N  35.85600 50.31700 26.52900
C  36.18500 49.50100 27.55100
C  35.80600 50.19900 28.85800
C  35.18400 51.57200 28.41100
C  35.31600 51.50600 26.87700
C  33.64800 51.70800 28.76000
C  36.97600 50.26500 29.88400
C  36.68600 49.84700 31.34400
H  35.29500 49.51000 31.70700
N  35.55400 51.75800 23.78200
C  35.01100 52.66700 24.65800
C  34.62300 53.83300 23.83400
C  34.85600 53.46800 22.45400
C  35.45600 52.15700 22.49500
C  34.02400 55.06100 24.50700
C  34.37500 54.07600 21.11600
O  34.48700 53.58800 19.98200
C  33.59800 55.40600 21.18500
N  36.62000 49.33800 22.24500
C  36.56100 50.23200 21.23400
C  36.92000 49.55100 19.91700
C  37.44600 48.13500 20.31500
C  37.24500 48.21000 21.79300
C  35.77900 49.63100 18.86900
C  38.94100 47.93200 19.86300
C  39.99700 48.56900 20.77800
N  37.27400 48.24000 24.77200
C  37.62200 47.08000 24.06600
C  37.87200 45.93900 24.92200
C  37.63600 46.40400 26.20300
C  37.17500 47.76500 26.08100
C  38.28900 44.56400 24.50400
C  37.63800 45.94500 27.65300
O  37.98800 44.85300 28.07800
C  37.09100 47.22000 28.38500
C  35.94900 46.65100 29.11700
O  34.83100 46.50300 28.72700
O  36.43600 46.14800 30.32800
C  35.58100 45.14500 31.02100
H  34.59600 53.38100 26.72600
H  35.98700 51.99600 20.45200
H  38.01000 46.30200 22.20900
H  34.89900 49.70600 29.20700
H  35.80400 52.39800 28.76200
H  33.07500 51.66100 27.83400
H  33.49000 52.69800 29.18500
H  33.27900 50.99200 29.49400
H  37.56600 51.18100 29.84500
H  37.79200 49.62500 29.54600
H  37.01700 50.68500 31.95800
H  37.32200 49.00500 31.62100
H  33.06400 55.27200 24.03600
H  34.63800 55.87600 24.12200
H  34.08900 55.21300 25.58400
H  33.49100 55.81400 20.18000
H  34.15700 56.13300 21.77400
H  32.62400 55.16900 21.61300
H  37.66800 50.20700 19.47200
H  36.84300 47.36500 19.83500
H  34.89800 50.03500 19.36800
H  35.52300 48.60800 18.59200
H  36.09500 50.33400 18.09800
H  38.97500 48.41600 18.88700
H  39.14400 46.86800 19.73900
H  40.99700 48.63000 20.35000
H  39.96700 47.99000 21.70100
H  39.82800 49.62400 20.99500
H  37.88800 43.88200 25.25400
H  39.37600 44.49000 24.47700
H  37.96100 44.44900 23.47100
H  37.84200 47.57500 29.09100
H  35.26800 45.67500 31.92000
H  36.09200 44.21000 31.25500
H  34.72600 44.91500 30.38600

