158

Mg 2.39700 -1.65800 44.76600
C  5.63900 -0.41200 44.30300
C  1.19900 0.69700 42.63500
C  -0.64200 -3.33100 44.82500
C  3.87800 -4.47900 46.29300
N  3.34100 -0.01400 43.54800
C  4.61800 0.33500 43.59000
C  4.91100 1.57500 42.75000
C  3.44000 2.08400 42.37800
C  2.60400 0.88500 42.88600
C  2.98900 3.45300 43.01200
C  5.67800 1.19100 41.34100
C  6.84600 2.15800 40.93700
H  6.34900 3.32400 40.05300
N  0.47600 -1.29600 44.03600
C  0.26500 -0.32500 43.08100
C  -1.14600 -0.33600 42.82700
C  -1.74400 -1.45300 43.51000
C  -0.64600 -2.04800 44.22700
C  -1.84500 0.78200 42.07600
C  -3.21700 -1.77000 43.48900
O  -4.01600 -1.22100 42.75400
C  -3.80000 -2.76200 44.30700
N  1.67200 -3.59800 45.61800
C  0.39200 -4.02800 45.48100
C  0.36100 -5.52200 45.97300
C  1.85100 -5.84000 46.34500
C  2.51000 -4.53100 46.09600
C  -0.71900 -6.00000 47.04200
C  2.42200 -7.06900 45.52800
C  1.48300 -8.21700 45.33200
N  4.36200 -2.32700 45.31200
C  4.77100 -3.46600 45.91700
C  6.24600 -3.37600 46.06100
C  6.61900 -2.19200 45.44000
C  5.46100 -1.57000 44.99900
C  7.18600 -4.49100 46.62000
C  7.77500 -1.42100 45.06000
O  8.97200 -1.55000 45.30300
C  7.19300 -0.22900 44.20800
C  7.58200 1.00500 44.84200
O  7.06400 1.47400 45.85900
O  8.42500 1.70600 44.07200
C  8.61700 3.06900 44.54200
H  0.72100 1.52400 42.10700
H  -1.56300 -3.90500 44.70800
H  4.33000 -5.33600 46.79600
H  5.47600 2.34000 43.28400
H  3.40700 2.06300 41.28800
H  3.92800 3.95200 43.25100
H  2.41100 3.33100 43.92800
H  2.43200 4.12400 42.35800
H  5.06900 1.30200 40.44400
H  6.12500 0.20800 41.49300
H  7.80500 1.75800 40.60900
H  7.09600 2.63800 41.88400
H  -2.77300 0.51500 41.57000
H  -1.17300 1.20500 41.32800
H  -2.18400 1.49700 42.82500
H  -4.88300 -2.66100 44.36600
H  -3.32200 -2.46600 45.24100
H  -3.51100 -3.78800 44.08000
H  0.08400 -6.02200 45.04500
H  2.03400 -5.99500 47.40800
H  -1.07500 -5.14300 47.61400
H  -0.22700 -6.75200 47.65800
H  -1.51400 -6.49300 46.48200
H  3.32800 -7.41600 46.02600
H  2.85100 -6.80200 44.56300
H  0.70100 -8.22700 46.09200
H  2.03000 -9.15400 45.43700
H  1.04000 -8.30000 44.34000
H  7.31200 -4.68600 47.68500
H  8.17000 -4.32200 46.18200
H  6.76400 -5.38500 46.16100
H  7.47100 -0.22300 43.15400
H  9.01700 3.13300 45.55400
H  7.69000 3.63500 44.45100
H  9.30200 3.58300 43.86700
Mg 44.78900 4.84000 47.06400
C  42.84500 7.72300 46.96700
C  41.84400 3.00600 46.28800
C  46.61300 1.98500 46.51400
C  47.69500 6.75300 47.21900
N  42.61600 5.36900 46.50000
C  42.03700 6.59700 46.57900
C  40.51100 6.52800 46.61000
C  40.19600 5.02900 46.28100
C  41.63700 4.45000 46.29500
C  39.28600 4.27700 47.32100
C  39.75000 7.58100 45.66400
C  40.40000 8.11300 44.38800
H  40.07200 7.37500 43.07700
N  44.30600 2.76000 46.52700
C  43.05100 2.19500 46.29000
C  43.19100 0.80100 46.13500
C  44.58000 0.48500 46.19500
C  45.26500 1.73900 46.39800
C  42.03100 -0.18500 45.83700
C  45.19400 -0.87700 46.09100
O  44.39000 -1.78300 45.92700
C  46.69000 -1.16300 45.85100
N  46.83500 4.48600 46.61400
C  47.31000 3.20400 46.63600
C  48.84900 3.12700 46.92600
C  49.17600 4.67300 47.22000
C  47.84100 5.36800 47.00400
C  49.27700 2.10500 48.06400
C  50.32000 5.29500 46.36900
C  51.31500 6.17700 47.08500
N  45.24000 6.84000 47.13200
C  46.47400 7.47200 47.15200
C  46.22900 8.90500 47.39900
C  44.82200 8.98200 47.38300
C  44.31200 7.73600 47.18100
C  47.21900 9.98600 47.70300
C  43.71500 9.94600 47.48500
O  43.81100 11.15200 47.73100
C  42.37100 9.15400 47.26900
C  41.52700 9.16600 48.50500
O  41.37400 8.22900 49.28000
O  40.64900 10.21000 48.41800
C  39.58100 10.26900 49.48400
H  40.96400 2.41700 46.02400
H  47.34600 1.17600 46.50600
H  48.57700 7.34200 47.47700
H  40.32900 6.70600 47.67000
H  39.82800 4.70500 45.30800
H  39.95500 3.70500 47.96400
H  38.62500 3.66200 46.71000
H  38.68700 5.00200 47.87100
H  39.49400 8.36300 46.37800
H  38.81300 7.05000 45.49900
H  41.48600 8.02300 44.40400
H  40.33900 9.19500 44.26800
H  42.27200 -0.83300 44.99500
H  41.08900 0.31300 45.60400
H  41.86900 -0.80700 46.71700
H  46.91400 -2.14600 45.43600
H  47.21200 -1.09300 46.80500
H  47.17100 -0.45900 45.17200
H  49.40500 2.81900 46.04100
H  49.40100 4.69400 48.28600
H  48.41400 1.53400 48.40800
H  49.73100 2.70400 48.85300
H  50.03000 1.38200 47.75100
H  49.92400 5.80000 45.48800
H  50.85500 4.41700 46.00700
H  52.30200 5.72000 47.01000
H  51.10800 6.27100 48.15100
H  51.33100 7.19200 46.68800
H  48.02800 9.71500 48.38100
H  46.80400 10.90600 48.11400
H  47.77300 10.20100 46.79000
H  41.72900 9.62300 46.52300
H  39.60700 11.25800 49.94200
H  39.53500 9.49700 50.25200
H  38.72200 10.32800 48.81600

