158

Mg 26.70900 50.19700 26.36800
C  24.61300 51.17500 29.02400
C  29.24500 49.71400 28.66200
C  28.67700 49.51500 23.84200
C  24.26600 51.57300 24.11300
N  26.91500 50.53600 28.58500
C  25.92800 50.81800 29.48600
C  26.39900 50.70800 30.96500
C  27.94500 50.43300 30.81500
C  28.07900 50.14500 29.28700
C  28.86300 51.53800 31.30100
C  25.72900 49.63100 31.91200
C  24.88600 50.15400 33.04000
H  24.54000 49.30000 34.26200
N  28.69300 49.73900 26.29100
C  29.53800 49.54200 27.29200
C  30.81600 49.01700 26.78600
C  30.71600 49.09300 25.36100
C  29.35200 49.47000 25.10000
C  31.91000 48.50700 27.63700
C  31.74400 48.85400 24.34500
O  31.48900 49.01400 23.22000
C  33.21700 48.58100 24.70300
N  26.53400 50.50400 24.29800
C  27.43100 49.91900 23.44600
C  26.89900 50.01700 22.04100
C  25.48800 50.65500 22.13800
C  25.40700 50.96500 23.59900
C  28.04100 50.85000 21.22200
C  24.33700 49.84800 21.52500
C  23.31600 50.62100 20.66600
N  24.85000 51.16800 26.43500
C  23.99200 51.65800 25.47300
C  22.82400 52.16600 26.10400
C  22.98600 52.02300 27.46500
C  24.26500 51.41100 27.68000
C  21.60200 52.72900 25.37200
C  22.44300 52.23600 28.81500
O  21.36800 52.74600 29.16000
C  23.49500 51.69600 29.83600
C  23.92700 52.83000 30.77500
O  24.79300 53.69900 30.47100
O  23.09200 52.84600 31.80700
C  23.34200 53.77200 32.90900
H  30.02900 49.51700 29.39600
H  29.28200 49.28300 22.96400
H  23.52700 51.98100 23.42000
H  26.33000 51.67900 31.45700
H  28.22900 49.45800 31.21100
H  28.30200 52.41100 31.63300
H  29.32400 51.91300 30.38700
H  29.52500 51.10300 32.05000
H  26.46200 48.98800 32.39900
H  25.15800 48.99300 31.23800
H  23.93900 50.32700 32.53000
H  25.10500 51.19400 33.28200
H  31.88100 47.41900 27.68400
H  31.76000 48.77000 28.68500
H  32.93600 48.78200 27.39300
H  33.30300 47.81400 25.47300
H  33.84200 49.39700 25.06400
H  33.59400 48.31100 23.71700
H  26.85700 49.01000 21.62600
H  25.64700 51.66300 21.75400
H  28.53100 50.13700 20.56000
H  28.75500 51.28500 21.92200
H  27.76700 51.77900 20.72300
H  23.94000 49.15400 22.26600
H  24.72400 49.16000 20.77300
H  22.41100 50.49200 21.26000
H  23.16300 50.29000 19.63900
H  23.53700 51.68800 20.64100
H  21.02400 51.91800 24.92900
H  21.88300 53.42300 24.58000
H  20.93800 53.12300 26.14100
H  22.90500 50.95000 30.36800
H  23.73200 54.72700 32.55800
H  24.09200 53.28300 33.53000
H  22.46800 53.98700 33.52300
Mg 1.16900 41.40000 26.52300
C  3.49200 42.16100 29.08400
C  -1.10400 40.85100 28.98400
C  -0.97900 41.04700 24.07300
C  3.72100 42.32600 24.17700
N  1.13800 41.65700 28.70200
C  2.15900 42.04600 29.51700
C  1.70200 42.19100 30.95900
C  0.37300 41.45400 31.01100
C  0.08800 41.26700 29.45700
C  0.42800 40.19700 31.87900
C  1.55800 43.72200 31.22100
C  1.09600 44.19400 32.66500
H  1.03300 43.11000 33.73800
N  -0.74900 40.86400 26.53500
C  -1.54400 40.64700 27.61500
C  -2.75600 40.10100 27.13300
C  -2.84300 40.24100 25.77400
C  -1.51300 40.76700 25.35900
C  -3.78800 39.68000 28.16800
C  -3.99600 40.03600 24.85400
O  -3.91000 40.20400 23.64100
C  -5.31500 39.64500 25.43300
N  1.40100 41.67800 24.44600
C  0.33000 41.35300 23.62100
C  0.69900 41.55500 22.12900
C  2.17200 42.08200 22.20400
C  2.46800 42.02000 23.68300
C  0.42000 40.17700 21.39000
C  2.55200 43.44800 21.59700
C  1.91900 44.70900 22.11600
N  3.18100 42.03400 26.59600
C  4.08500 42.34200 25.53600
C  5.43700 42.49900 26.16700
C  5.22400 42.49100 27.56400
C  3.89400 42.15100 27.75000
C  6.62200 42.90200 25.32000
C  5.88100 42.52700 28.83600
O  7.07000 42.66100 29.08100
C  4.68100 42.38900 29.90700
C  4.98100 41.36900 30.97800
O  4.88100 40.19200 30.85400
O  5.20100 41.95800 32.22400
C  4.95800 41.19200 33.46200
H  -1.77700 40.67200 29.82500
H  -1.67000 40.82300 23.25800
H  4.55000 42.49200 23.48500
H  2.40500 41.72900 31.65300
H  -0.41500 42.06800 31.44700
H  1.27200 40.21700 32.56800
H  0.53000 39.32400 31.23400
H  -0.43200 40.05300 32.53200
H  0.67900 44.01900 30.64900
H  2.33000 44.37100 30.80800
H  0.18100 44.77900 32.56800
H  1.80100 44.89700 33.10900
H  -4.16000 38.70000 27.87200
H  -4.49500 40.51000 28.16400
H  -3.41100 39.63000 29.18900
H  -5.87400 40.54400 25.69200
H  -5.28100 38.99600 26.30900
H  -5.78900 39.09000 24.62400
H  0.05900 42.37100 21.79100
H  2.72700 41.20900 21.85900
H  -0.43400 40.25100 20.71700
H  0.16600 39.37200 22.08000
H  1.29700 39.94400 20.78600
H  2.18800 43.47000 20.56900
H  3.63500 43.55500 21.54600
H  1.06200 44.50300 22.75700
H  1.78100 45.49400 21.37400
H  2.62400 45.23700 22.75900
H  6.28500 43.80900 24.81800
H  6.86100 42.07000 24.65800
H  7.41600 43.18500 26.01100
H  4.60800 43.34600 30.42300
H  3.90700 40.93500 33.59300
H  5.38500 41.65600 34.35100
H  5.51100 40.25300 33.47800

