158

Mg 26.18400 1.11900 29.16200
C  28.02600 0.89100 32.15500
C  23.33700 1.34800 31.12900
C  24.39400 0.91000 26.41100
C  29.07100 -0.03200 27.43800
N  25.83700 0.97900 31.44000
C  26.70700 1.16600 32.42500
C  25.97400 1.44600 33.73000
C  24.48600 1.25200 33.37800
C  24.54600 1.04100 31.85700
C  23.81000 0.04100 34.08300
C  26.38900 2.86100 34.30200
C  25.95700 2.98900 35.76600
H  26.98500 2.81200 36.78900
N  24.14200 1.34500 28.74700
C  23.15600 1.41600 29.70500
C  21.90900 1.70000 28.97100
C  22.22900 1.68300 27.55300
C  23.64700 1.31900 27.51300
C  20.66900 1.95000 29.74400
C  21.36000 1.86900 26.31300
O  21.78100 1.99800 25.16800
C  19.92700 2.12000 26.43600
N  26.66300 0.60900 27.19300
C  25.69900 0.60700 26.17800
C  26.36600 0.40100 24.85100
C  27.87700 0.30400 25.20000
C  27.91600 0.28700 26.71400
C  25.78100 -0.84900 24.11900
C  28.72800 1.46600 24.65200
C  29.45400 1.22200 23.27000
N  28.12200 0.54500 29.65900
C  29.16600 0.04300 28.86300
C  30.29000 -0.30700 29.66400
C  29.92400 0.08300 30.97100
C  28.59700 0.57100 30.89300
C  31.38100 -1.17000 29.21800
C  30.43000 0.12300 32.31200
O  31.53500 -0.10900 32.76600
C  29.17400 0.66800 33.17600
C  28.73900 -0.30600 34.23900
O  28.05600 -1.33900 34.05500
O  29.19400 0.17600 35.45800
C  29.07700 -0.70800 36.60600
H  22.43500 1.56900 31.70300
H  23.67900 0.80800 25.59100
H  29.97000 -0.33500 26.89700
H  26.23700 0.71900 34.49800
H  23.79600 2.06600 33.59900
H  23.50000 -0.68500 33.33100
H  23.05300 0.34300 34.80600
H  24.39300 -0.51600 34.81700
H  26.06600 3.64400 33.61600
H  27.45700 2.81400 34.08700
H  25.16200 2.27000 35.96400
H  25.51300 3.96200 35.97600
H  20.40300 3.00100 29.63000
H  20.67400 1.73200 30.81200
H  19.80100 1.39300 29.39100
H  19.63200 2.88900 25.72200
H  19.69300 2.43000 27.45400
H  19.54000 1.11500 26.27000
H  26.26000 1.36200 24.34700
H  28.33100 -0.56200 24.71900
H  26.35600 -1.13200 23.23700
H  24.73100 -0.67800 23.88200
H  25.81400 -1.71100 24.78600
H  29.62500 1.66200 25.24000
H  28.16900 2.39700 24.55900
H  30.42000 1.70600 23.12700
H  28.70000 1.59000 22.57500
H  29.55700 0.15700 23.06400
H  31.71100 -1.76200 30.07200
H  32.22100 -0.74900 28.66700
H  31.01000 -1.87300 28.47200
H  29.45800 1.60500 33.65500
H  30.05200 -0.69400 37.09500
H  28.87800 -1.76000 36.40000
H  28.31500 -0.23300 37.22300
Mg 52.51500 24.03800 44.68500
C  50.18100 26.39000 44.05000
C  50.46100 21.64700 43.13000
C  55.16200 21.80700 44.72200
C  54.69400 26.45400 45.90300
N  50.64800 24.13000 43.51800
C  49.82100 25.19300 43.42700
C  48.51900 24.94100 42.61100
C  48.52800 23.35500 42.80000
C  50.00100 22.99300 43.15900
C  47.49200 22.89300 43.89200
C  48.64400 25.22700 41.02600
C  50.06100 25.26300 40.40800
H  50.23400 25.94000 39.07900
N  52.64900 21.90200 44.22300
C  51.73600 21.12600 43.54100
C  52.30600 19.79100 43.54200
C  53.63400 19.84300 44.04600
C  53.87900 21.24000 44.34200
C  51.47800 18.56500 43.07500
C  54.51600 18.61400 44.26500
O  54.16600 17.51000 43.86000
C  55.69100 18.69700 45.12100
N  54.67500 24.12400 45.08000
C  55.54200 23.10600 45.08400
C  56.92400 23.38600 45.48500
C  56.76700 24.88200 45.91600
C  55.25500 25.17500 45.63500
C  57.52600 22.39200 46.50300
C  57.72500 25.86400 45.11800
C  57.21800 26.40000 43.71200
N  52.54000 26.00300 44.93100
C  53.45600 26.88200 45.55100
C  52.81500 28.12200 45.72500
C  51.55100 27.96100 45.17600
C  51.44400 26.66600 44.69100
C  53.48500 29.40500 46.35400
C  50.26600 28.64300 44.93500
O  49.86600 29.79700 45.21600
C  49.39800 27.62200 44.21600
C  48.70600 28.11300 42.94600
O  49.30000 28.53200 41.97200
O  47.38100 27.99000 43.12600
C  46.55200 28.49800 42.05000
H  49.79200 20.87100 42.75400
H  55.94700 21.05100 44.65300
H  55.47400 27.14000 46.23800
H  47.60500 25.38600 43.00400
H  48.17600 22.90900 41.87000
H  46.71900 22.20400 43.55000
H  47.06200 23.78600 44.34500
H  48.07600 22.38000 44.65600
H  48.05300 26.12400 40.83900
H  48.11700 24.44900 40.47300
H  50.38300 24.22600 40.30800
H  50.75500 25.79000 41.06200
H  50.55700 18.92400 42.61500
H  51.19600 17.93700 43.92000
H  52.04500 17.87900 42.44600
H  55.67500 19.46000 45.90000
H  56.56800 18.87000 44.49800
H  55.81100 17.74000 45.62700
H  57.41700 23.26600 44.52000
H  56.86600 25.08800 46.98200
H  56.92000 21.52400 46.76400
H  57.73300 22.88100 47.45400
H  58.39800 21.98600 45.98900
H  58.68500 25.37100 44.96900
H  57.85300 26.69900 45.80800
H  57.94700 26.02700 42.99200
H  57.21100 27.48500 43.60600
H  56.25100 26.03300 43.36800
H  52.77700 30.08300 46.83200
H  54.16200 29.97500 45.71800
H  54.10900 29.09900 47.19400
H  48.59100 27.42200 44.92100
H  46.11900 27.68300 41.46900
H  47.07900 29.26000 41.47600
H  45.73200 29.09900 42.44400

