158

Mg 16.92000 -1.96300 27.46000
C  16.04300 0.28300 30.12400
C  18.71200 -3.81200 29.88500
C  17.82300 -3.96500 25.08500
C  15.42100 0.21400 25.20200
N  17.41700 -1.77200 29.80000
C  16.74900 -0.84400 30.60200
C  17.12500 -1.19800 32.05300
C  18.27800 -2.31000 31.96300
C  18.07100 -2.73000 30.48600
C  19.79300 -2.00600 32.32100
C  15.83400 -1.62300 32.77900
C  15.55100 -0.95800 34.12700
H  16.79300 -0.47400 34.79900
N  18.10500 -3.60900 27.45600
C  18.77600 -4.19300 28.50100
C  19.57200 -5.31400 28.00200
C  19.31700 -5.38500 26.58800
C  18.40100 -4.29000 26.34300
C  20.41000 -6.30300 28.87200
C  19.81300 -6.41100 25.52300
O  19.71100 -6.22700 24.29600
C  20.68500 -7.61700 26.01900
N  16.65300 -1.89100 25.37500
C  17.04100 -2.90600 24.62200
C  16.85400 -2.52500 23.18500
C  15.81400 -1.37100 23.24100
C  15.97800 -0.92300 24.62600
C  18.20500 -2.16200 22.57600
C  14.35100 -1.75600 22.90900
C  14.08800 -1.91900 21.36100
N  16.04600 -0.09400 27.59200
C  15.44200 0.68600 26.52900
C  14.80900 1.80900 27.18400
C  14.97300 1.69300 28.59100
C  15.77300 0.56400 28.76100
C  14.04200 2.88800 26.49100
C  14.61700 2.23700 29.85800
O  13.69500 2.99400 30.08000
C  15.38500 1.40600 30.91900
C  16.40500 2.26200 31.44300
O  17.55300 2.30100 30.97500
O  15.95600 2.77700 32.57500
C  16.77700 3.75300 33.36400
H  19.37300 -4.42500 30.50100
H  18.17000 -4.54500 24.22700
H  14.81000 0.79700 24.51000
H  17.62900 -0.34500 32.50800
H  17.89000 -3.20400 32.45000
H  20.39200 -2.13900 31.42100
H  20.14700 -2.64100 33.13300
H  19.93900 -0.99600 32.70500
H  15.80900 -2.69100 32.99500
H  14.89700 -1.46600 32.24400
H  15.03300 -1.71600 34.71500
H  14.79200 -0.17700 34.17500
H  21.46800 -6.34600 28.61500
H  20.00400 -7.31100 28.79200
H  20.30900 -6.04500 29.92700
H  21.61800 -7.35800 26.52000
H  20.93000 -8.33300 25.23400
H  20.10700 -8.25400 26.68900
H  16.39800 -3.32900 22.60700
H  16.08800 -0.48500 22.66800
H  18.65900 -3.06800 22.17400
H  18.89800 -1.69700 23.27700
H  17.98600 -1.45300 21.77700
H  13.65600 -0.97200 23.21100
H  14.01900 -2.57900 23.54100
H  13.66800 -0.99100 20.97400
H  13.45300 -2.78400 21.17000
H  14.99700 -2.22300 20.84200
H  13.18500 2.48400 25.95300
H  14.65400 3.44900 25.78500
H  13.65200 3.57900 27.23900
H  14.75300 0.95500 31.68400
H  17.48200 4.36300 32.80000
H  17.38300 3.18400 34.06900
H  16.11500 4.43800 33.89500
Mg 35.66600 1.39600 29.78200
C  33.48600 2.48000 32.11900
C  38.24200 1.27400 32.23500
C  37.99700 0.41800 27.40700
C  33.18800 1.67300 27.30200
N  35.86800 1.95300 31.80300
C  34.77300 2.26300 32.61600
C  35.10400 2.35400 34.09200
C  36.70200 2.31700 34.03600
C  36.94200 1.78500 32.58700
C  37.49700 3.67100 34.22700
C  34.50600 1.24300 35.03600
C  34.22700 1.52100 36.44700
H  34.73900 2.87900 36.99900
N  37.72400 0.70500 29.85100
C  38.59500 0.70300 30.98400
C  39.92300 0.14400 30.62000
C  39.87100 0.06100 29.20500
C  38.48700 0.32700 28.80200
C  41.08200 -0.07600 31.61300
C  40.97800 -0.31600 28.28000
O  40.81500 -0.57200 27.07200
C  42.45500 -0.23500 28.73800
N  35.55400 1.05600 27.70200
C  36.69700 0.79500 26.95000
C  36.36200 0.63700 25.49200
C  34.77700 0.73600 25.49300
C  34.51700 1.25800 26.88200
C  37.15000 1.62700 24.56000
C  34.09500 -0.65100 25.20500
C  32.98800 -0.66700 24.06700
N  33.72000 2.07000 29.65800
C  32.83100 2.16400 28.61200
C  31.49900 2.59700 29.13900
C  31.72300 2.74100 30.55100
C  33.05700 2.33200 30.80900
C  30.27600 2.93900 28.31700
C  31.12500 3.15000 31.79600
O  29.97100 3.39200 32.19400
C  32.24400 2.98000 32.86100
C  32.46200 4.22400 33.67700
O  33.21500 5.09000 33.40800
O  31.63700 4.23800 34.80100
C  31.79000 5.41500 35.57700
H  38.98200 1.23200 33.03700
H  38.79400 0.45900 26.66100
H  32.38900 1.55600 26.56800
H  34.77600 3.33400 34.44000
H  37.14100 1.66700 34.79400
H  38.11500 3.58500 35.12200
H  36.79000 4.48500 34.38200
H  38.06300 3.91200 33.32700
H  35.18800 0.39700 34.95700
H  33.54300 0.89600 34.66200
H  34.71100 0.74400 37.03800
H  33.14600 1.48100 36.57800
H  40.43100 -0.26600 32.46600
H  41.74900 0.77200 31.77200
H  41.67500 -0.96400 31.39500
H  43.15900 -0.04700 27.92700
H  42.56100 -1.08100 29.41700
H  42.51500 0.64500 29.37800
H  36.79000 -0.34500 25.28900
H  34.33200 1.55000 24.92000
H  37.64000 2.37700 25.18100
H  36.56400 2.07600 23.75800
H  37.90700 1.00200 24.08600
H  33.54300 -0.85600 26.12200
H  34.94900 -1.30500 25.02900
H  33.17100 -1.42500 23.30600
H  32.90100 0.24200 23.47200
H  31.94900 -0.74400 24.38800
H  29.98500 3.97300 28.50100
H  29.46400 2.22800 28.47100
H  30.45700 2.76200 27.25700
H  31.90400 2.15500 33.48700
H  31.02700 6.14300 35.29800
H  32.78100 5.86800 35.54800
H  31.53800 5.12500 36.59700

