158

Mg 35.90900 49.69200 26.01200
C  35.77000 47.96200 29.02200
C  34.74600 52.43400 27.56200
C  35.62800 51.13900 22.95800
C  36.71800 46.66300 24.44300
N  35.33500 50.07900 28.06000
C  35.42400 49.32500 29.22500
C  35.07000 50.04300 30.53200
C  34.59100 51.41000 29.94500
C  34.89800 51.33700 28.37400
C  33.14100 51.84000 30.38000
C  36.19400 50.04100 31.56300
C  35.84300 49.89800 32.96300
H  34.36100 50.10000 33.51100
N  35.31100 51.50300 25.32600
C  34.94800 52.54300 26.20400
C  34.79600 53.71800 25.40500
C  34.89100 53.36500 24.04300
C  35.26800 51.91500 24.05200
C  34.51800 55.14800 25.90900
C  34.45300 54.17700 22.86600
O  34.47600 53.74100 21.68700
C  34.06500 55.59400 23.09300
N  36.08800 48.90300 24.02500
C  35.93700 49.73700 22.89800
C  36.22400 49.01200 21.62500
C  36.72800 47.67000 22.16200
C  36.51900 47.77100 23.66300
C  34.99900 48.95400 20.68100
C  38.19500 47.33800 21.78600
C  39.31600 47.91100 22.72100
N  36.24600 47.67300 26.58400
C  36.59500 46.53300 25.86400
C  36.64000 45.47400 26.73000
C  36.35700 45.95200 27.98500
C  36.06400 47.31000 27.85400
C  37.06900 43.99900 26.39600
C  36.24000 45.57500 29.40600
O  36.47000 44.50200 29.93500
C  35.73900 46.89600 30.09900
C  34.43900 46.53300 30.66100
O  33.42700 46.50800 30.00900
O  34.57300 46.12700 31.99200
C  33.38400 45.69200 32.75600
H  34.40000 53.32900 28.08500
H  35.59600 51.67400 22.00600
H  37.02800 45.78900 23.86700
H  34.24800 49.48100 30.97700
H  35.25100 52.21200 30.27500
H  32.61300 50.93100 30.66700
H  32.69300 52.17000 29.44300
H  33.12700 52.65300 31.10700
H  36.71800 50.98400 31.40600
H  37.00900 49.32700 31.44100
H  36.45800 50.67000 33.42600
H  36.26300 48.95400 33.31000
H  34.75000 55.05700 26.97100
H  33.47400 55.45500 25.83700
H  35.23700 55.89000 25.56300
H  33.81400 56.01200 22.11800
H  34.84400 56.30000 23.37900
H  33.17200 55.61800 23.71800
H  37.06700 49.56000 21.20300
H  36.16200 46.81600 21.78900
H  34.22500 49.55100 21.16300
H  34.60300 47.95200 20.51900
H  35.20800 49.51600 19.77100
H  38.58100 47.67200 20.82300
H  38.34600 46.26400 21.67600
H  40.10600 48.43600 22.18300
H  39.77800 47.13200 23.32800
H  38.90500 48.60700 23.45200
H  36.21200 43.33900 26.26300
H  37.73400 43.62100 27.17200
H  37.39800 43.89500 25.36100
H  36.50300 47.14900 30.83300
H  33.67300 45.69800 33.80700
H  33.05100 44.70000 32.44900
H  32.48600 46.28000 32.56600
Mg 0.24700 43.44200 25.49400
C  2.52600 42.84900 27.99200
C  -2.28800 42.50500 27.73700
C  -2.10600 43.70600 22.91000
C  2.67700 44.07500 23.17500
N  0.21100 42.49800 27.61200
C  1.27000 42.65600 28.45400
C  0.79900 42.40000 29.91600
C  -0.77700 42.12400 29.78300
C  -1.00900 42.33500 28.28100
C  -1.16000 40.69900 30.34900
C  1.13100 43.61100 30.84700
C  1.58700 43.27600 32.29000
H  1.03800 42.01000 32.99300
N  -1.89900 43.11900 25.36500
C  -2.74000 42.73600 26.42900
C  -4.11800 42.84300 25.99100
C  -4.11500 42.99000 24.55000
C  -2.64000 43.28600 24.20700
C  -5.37800 42.78100 26.90200
C  -5.24000 43.22500 23.58900
O  -5.03500 43.58400 22.44300
C  -6.59200 43.10800 24.07700
N  0.19500 43.84100 23.35800
C  -0.83700 44.01400 22.55000
C  -0.44300 44.51100 21.17100
C  1.02900 44.78400 21.32100
C  1.33700 44.27200 22.69200
C  -0.87800 43.54600 20.01200
C  1.35700 46.29000 21.06800
C  1.47700 47.20100 22.25200
N  2.19400 43.45500 25.51900
C  3.11900 43.85800 24.52900
C  4.49000 43.63600 25.04800
C  4.31800 43.24600 26.37900
C  2.89100 43.15500 26.64100
C  5.78600 43.92100 24.28400
C  5.02100 42.87100 27.60200
O  6.17800 42.63700 27.84500
C  3.90500 42.77800 28.74000
C  4.10400 41.44800 29.42700
O  3.93700 40.36200 28.96300
O  4.52100 41.69300 30.73300
C  4.68300 40.48900 31.51800
H  -3.07900 42.30200 28.46300
H  -2.72600 43.73100 22.01200
H  3.39200 44.26600 22.37100
H  1.41400 41.58200 30.29100
H  -1.33300 42.78800 30.44500
H  -1.64200 40.14000 29.54600
H  -1.76400 41.01000 31.20200
H  -0.34800 40.05000 30.67400
H  0.26800 44.27200 30.92700
H  1.82200 44.29600 30.35500
H  1.38500 44.07000 33.00800
H  2.67400 43.24100 32.20600
H  -5.96500 43.67900 26.70900
H  -4.97800 42.88800 27.91100
H  -5.88900 41.82300 26.80400
H  -7.25600 43.20800 23.21900
H  -6.82700 43.78900 24.89500
H  -6.72900 42.11000 24.49400
H  -0.95400 45.44700 20.94300
H  1.58200 44.22600 20.56500
H  -0.17700 43.36500 19.19600
H  -1.75100 43.92200 19.48000
H  -1.03800 42.61500 20.55600
H  0.69600 46.73100 20.32200
H  2.34300 46.35700 20.60900
H  2.32400 47.88100 22.15700
H  1.48400 46.65200 23.19300
H  0.66400 47.92800 22.25400
H  6.47900 44.61300 24.76200
H  5.38400 44.31900 23.35200
H  6.45000 43.08400 24.06600
H  4.02700 43.59400 29.45300
H  5.69500 40.56500 31.91700
H  4.56000 39.48400 31.11600
H  3.97600 40.54600 32.34600

