158

Mg 9.32600 3.45900 28.25800
C  11.00900 2.14200 31.12700
C  7.59700 5.61800 30.42900
C  7.70000 4.71000 25.66300
C  10.66000 0.87400 26.40500
N  9.33800 3.84900 30.54000
C  10.11800 3.19400 31.49800
C  9.84000 3.71500 32.90200
C  8.49200 4.59100 32.62000
C  8.38400 4.61500 31.11800
C  7.21700 4.13000 33.39300
C  11.02800 4.54600 33.41100
C  11.62900 4.07300 34.76100
H  10.64100 4.01200 35.97500
N  7.96900 5.00300 28.06600
C  7.42200 5.82800 29.02900
C  6.77400 6.96700 28.37500
C  6.76700 6.63300 26.99500
C  7.48300 5.41200 26.82200
C  6.05300 8.08400 29.19400
C  6.21500 7.48100 25.74100
O  6.36200 7.20100 24.52100
C  5.51600 8.81600 25.98500
N  9.09400 2.79700 26.27500
C  8.50500 3.55500 25.36200
C  8.52600 2.80900 23.96700
C  9.56000 1.70700 24.19900
C  9.71200 1.72800 25.68400
C  7.10600 2.35700 23.45500
C  10.89900 1.83600 23.26700
C  10.80200 1.20800 21.94900
N  10.55500 1.90000 28.63300
C  11.01700 0.91900 27.79500
C  11.83700 -0.03600 28.51900
C  11.92700 0.52800 29.78600
C  11.09300 1.64700 29.87500
C  12.51900 -1.21900 27.97400
C  12.58700 0.33500 31.10000
O  13.38300 -0.52500 31.48300
C  11.89000 1.31500 32.07800
C  11.13200 0.41700 33.03600
O  10.39900 -0.50200 32.74700
O  11.47800 0.77300 34.31700
C  10.65600 0.09000 35.36800
H  7.03100 6.36200 30.99300
H  7.15900 4.99100 24.75700
H  11.02900 -0.02100 25.90100
H  9.56100 2.86300 33.52200
H  8.86700 5.55700 32.95700
H  7.55900 3.52800 34.23500
H  6.60100 3.44200 32.81500
H  6.59500 4.99100 33.63800
H  10.88000 5.61900 33.29000
H  11.81500 4.31300 32.69400
H  12.36800 4.84600 34.97100
H  12.29300 3.21100 34.72100
H  5.02700 8.03700 28.83000
H  6.48900 9.03100 28.87500
H  6.19000 8.07200 30.27600
H  6.31000 9.44900 26.38200
H  4.77800 8.67200 26.77400
H  5.01200 9.25100 25.12200
H  8.98500 3.49400 23.25500
H  9.15500 0.70000 24.10000
H  6.82600 2.83600 22.51700
H  6.41900 2.70100 24.22800
H  7.02400 1.28000 23.30700
H  11.66600 1.37400 23.88900
H  11.15700 2.87900 23.08200
H  11.26800 0.22400 21.89000
H  11.19900 1.83200 21.14900
H  9.73100 1.08700 21.78800
H  13.29700 -0.80000 27.33500
H  11.83600 -1.82400 27.37800
H  12.91600 -1.85200 28.76800
H  12.68000 1.75600 32.68600
H  11.31400 -0.71300 35.69900
H  9.71900 -0.33700 35.01300
H  10.41600 0.79900 36.16100
Mg 47.60800 15.97700 28.61800
C  45.34800 15.61300 31.30700
C  49.33400 18.16300 30.52000
C  49.50500 16.70800 25.87900
C  45.50000 13.99900 26.59400
N  47.36000 16.67000 30.65500
C  46.40600 16.43400 31.68400
C  46.80200 17.06800 32.97000
C  47.88900 18.07500 32.55300
C  48.19800 17.62800 31.13100
C  47.49500 19.61300 32.69000
C  47.26400 16.16800 34.17100
C  47.57300 16.98300 35.48500
H  48.60600 16.37000 36.47800
N  49.20000 17.24300 28.28300
C  49.81200 18.01500 29.22200
C  50.97000 18.79700 28.63800
C  51.04400 18.35700 27.24800
C  49.88900 17.36900 27.06100
C  51.78000 19.80300 29.42500
C  51.94700 18.81800 26.09900
O  51.96400 18.24000 25.00500
C  52.67000 20.06000 26.22800
N  47.50800 15.38100 26.57800
C  48.43600 15.78700 25.63600
C  48.30700 14.99200 24.29900
C  47.22000 13.91800 24.67800
C  46.74100 14.43600 26.06100
C  47.92000 15.96900 23.10600
C  47.74000 12.47000 24.64000
C  48.88900 12.04300 23.71700
N  45.82600 15.07400 28.85200
C  45.00600 14.38300 27.92700
C  43.77400 13.96800 28.56100
C  43.91900 14.36800 29.87500
C  45.11600 15.03600 30.02600
C  42.62600 13.24300 28.02600
C  43.24800 14.41100 31.15900
O  42.12700 14.00700 31.49500
C  44.19700 15.13700 32.21400
C  43.47000 16.19300 32.86800
O  42.73300 16.99700 32.30300
O  43.86000 16.28800 34.19400
C  43.12200 17.36000 34.92000
H  49.92100 18.89200 31.08300
H  50.13400 16.72100 24.98600
H  44.95100 13.31000 25.94900
H  46.00300 17.67900 33.38900
H  48.81100 17.98200 33.12700
H  46.44800 19.81400 32.91900
H  47.77600 20.24800 31.85100
H  48.05900 19.95400 33.55800
H  48.24600 15.80900 33.86500
H  46.63200 15.32500 34.45200
H  46.61300 17.02700 36.00000
H  47.95400 17.99100 35.32100
H  51.48300 19.97700 30.45900
H  51.82900 20.85300 29.13700
H  52.82400 19.49200 29.46400
H  52.00700 20.90500 26.41300
H  53.09200 20.28100 25.24700
H  53.56100 19.94300 26.84500
H  49.31200 14.62600 24.09000
H  46.36400 14.00000 24.00800
H  46.95900 15.68000 22.67900
H  48.69300 15.93700 22.33900
H  47.87200 17.04200 23.29200
H  46.90400 11.79600 24.45800
H  48.15300 12.25100 25.62400
H  48.58800 11.17200 23.13400
H  49.76000 11.72500 24.28800
H  49.33200 12.78300 23.05000
H  42.96600 12.82000 27.08100
H  41.81500 13.96000 27.89200
H  42.19200 12.52000 28.71700
H  44.58000 14.44500 32.96400
H  43.55600 17.29400 35.91800
H  42.03700 17.32000 35.01600
H  43.36400 18.33900 34.50500

