158

Mg 1.48000 -1.75400 44.79600
C  4.77900 -0.88200 44.30600
C  0.45000 1.35400 43.82300
C  -1.66600 -3.04300 44.55900
C  2.65200 -5.07200 45.40700
N  2.50700 0.06900 44.34200
C  3.85500 0.16200 44.11900
C  4.17300 1.57700 43.52000
C  2.79600 2.36100 43.73900
C  1.83500 1.18400 43.94900
C  2.69100 3.28000 44.93200
C  4.59300 1.41500 42.03600
C  5.97900 1.98500 41.68500
H  6.52000 1.64800 40.27500
N  -0.30300 -0.96700 44.17500
C  -0.55400 0.37800 43.89700
C  -2.01700 0.54200 43.76800
C  -2.59700 -0.74500 43.88600
C  -1.47400 -1.70000 44.16200
C  -2.69100 1.88600 43.33500
C  -4.11200 -1.00900 43.87100
O  -4.89900 -0.07100 43.77400
C  -4.73300 -2.45000 43.87600
N  0.58100 -3.77300 44.99600
C  -0.73700 -4.04900 44.92800
C  -1.10000 -5.50700 45.39400
C  0.33900 -6.06300 45.74100
C  1.27500 -4.88600 45.32800
C  -2.17300 -5.67600 46.51500
C  0.74400 -7.42000 45.11700
C  1.16800 -8.52500 46.12100
N  3.30000 -2.81100 44.96400
C  3.62400 -4.11300 45.28800
C  5.07700 -4.20800 45.40800
C  5.54900 -2.97200 45.00500
C  4.45000 -2.14800 44.72400
C  5.76200 -5.43100 45.86500
C  6.75400 -2.21100 44.86100
O  7.90500 -2.54700 45.05500
C  6.27500 -0.75600 44.30100
C  6.57600 0.36200 45.28800
O  6.01300 0.43800 46.37900
O  7.52500 1.24800 44.87000
C  7.66700 2.49500 45.74000
H  0.05000 2.33800 43.56700
H  -2.70500 -3.37700 44.51500
H  3.02000 -6.07800 45.61700
H  4.88300 2.19400 44.07200
H  2.45800 2.90200 42.85500
H  2.56100 2.69800 45.84400
H  1.94200 4.06400 44.82200
H  3.62300 3.80100 45.15000
H  3.87500 1.93600 41.40300
H  4.52800 0.39000 41.67100
H  6.75100 1.68000 42.39200
H  5.99200 3.07400 41.74200
H  -3.22900 1.82600 42.38900
H  -1.88900 2.62300 43.37500
H  -3.40000 2.12800 44.12700
H  -5.79200 -2.39200 43.62500
H  -4.60800 -2.78800 44.90500
H  -4.19800 -3.00300 43.10400
H  -1.48900 -5.99900 44.50300
H  0.37200 -6.07000 46.83100
H  -3.00200 -6.27200 46.13300
H  -2.67800 -4.74000 46.75400
H  -1.76400 -6.29200 47.31500
H  1.46300 -7.31100 44.30500
H  -0.19300 -7.75900 44.67400
H  2.23500 -8.71900 46.01000
H  0.72000 -9.51500 46.04100
H  1.09600 -8.23800 47.17000
H  5.58000 -5.59600 46.92700
H  6.83600 -5.29500 45.73800
H  5.43700 -6.34800 45.37300
H  6.70800 -0.52500 43.32700
H  8.37400 3.23900 45.37400
H  7.92500 2.29000 46.77900
H  6.66900 2.92900 45.79800
Mg 10.02000 47.99600 25.64500
C  8.02500 48.23900 28.53000
C  12.49000 49.39700 27.29300
C  11.64400 48.23000 22.69100
C  7.14400 46.86800 23.86000
N  10.17100 48.70000 27.70400
C  9.33600 48.61500 28.74500
C  10.04100 49.15100 30.04700
C  11.32100 49.89400 29.45400
C  11.31600 49.33100 28.06000
C  10.99800 51.40200 29.22800
C  10.37600 48.13100 31.08100
C  10.00700 48.50900 32.54300
H  10.19600 47.40600 33.49600
N  11.82800 48.63400 25.07400
C  12.77300 49.11000 25.93300
C  14.04600 49.22000 25.24500
C  13.82200 48.92500 23.89700
C  12.33600 48.61800 23.82500
C  15.34100 49.59900 25.97300
C  14.77100 48.83300 22.65200
O  14.43300 48.83400 21.45100
C  16.19700 48.91400 22.95000
N  9.41100 47.75800 23.49100
C  10.31500 47.87700 22.51400
C  9.72100 47.37100 21.17900
C  8.38100 46.65000 21.66300
C  8.30700 47.06900 23.11800
C  9.56100 48.52900 20.18700
C  8.21600 45.13100 21.36400
C  8.90300 44.02300 22.27000
N  7.92600 47.76300 25.98000
C  6.87300 47.31000 25.14800
C  5.68900 47.19200 25.97500
C  6.10200 47.58800 27.29100
C  7.48400 47.85600 27.21100
C  4.39400 46.58200 25.47900
C  5.61200 47.77700 28.71100
O  4.46400 47.75600 29.20200
C  6.90700 47.96500 29.60000
C  7.14500 46.65100 30.35400
O  7.80700 45.71200 29.93300
O  6.48500 46.74800 31.54600
C  6.65300 45.60600 32.45900
H  13.32100 49.91200 27.78000
H  12.23400 48.12700 21.77800
H  6.28200 46.41100 23.37000
H  9.40400 49.83600 30.60600
H  12.29100 49.67600 29.90000
H  10.01000 51.68100 29.59400
H  10.95100 51.74500 28.19400
H  11.75500 51.98000 29.75800
H  11.45400 47.97100 31.05900
H  9.96500 47.12200 31.03700
H  8.91900 48.56700 32.51400
H  10.57000 49.40100 32.81700
H  15.22200 49.71100 27.05100
H  15.74400 50.57300 25.69400
H  16.11100 48.84200 25.82500
H  16.67000 49.04600 21.97700
H  16.52300 47.98000 23.40600
H  16.33500 49.84100 23.50700
H  10.36800 46.61100 20.74300
H  7.49500 47.13900 21.25900
H  10.20200 49.36200 20.47600
H  8.50000 48.78000 20.22200
H  9.72200 48.32000 19.12900
H  8.47500 45.03700 20.30900
H  7.15000 44.96100 21.51600
H  8.21400 43.19700 22.44400
H  9.32300 44.43100 23.18900
H  9.70300 43.65700 21.62700
H  3.82900 47.32100 24.91100
H  3.71600 46.40300 26.31400
H  4.43000 45.66600 24.89000
H  6.98900 48.85500 30.22500
H  7.59800 45.78000 32.97300
H  6.70100 44.64000 31.95800
H  5.92400 45.52700 33.26500

