158

Mg -2.31500 17.24400 27.28200
C  -2.82900 15.39700 30.15600
C  -2.82600 20.12600 29.22200
C  -2.44200 19.13700 24.53500
C  -2.29700 14.33100 25.39900
N  -2.71800 17.63400 29.50600
C  -2.77700 16.75000 30.51000
C  -2.89300 17.43200 31.79000
C  -3.11900 18.88200 31.46800
C  -2.77200 18.87200 29.99300
C  -4.39800 19.55600 31.98000
C  -1.70200 17.19300 32.76000
C  -1.50600 18.05600 34.07800
H  -1.14100 17.39100 35.42700
N  -2.49900 19.35500 26.98400
C  -2.80800 20.31100 27.84200
C  -2.91700 21.56700 27.16300
C  -2.51400 21.35400 25.77600
C  -2.43000 19.86600 25.70400
C  -3.24100 22.86200 27.98000
C  -2.42100 22.36300 24.63100
O  -2.20500 22.02400 23.50500
C  -2.61800 23.81100 24.92200
N  -2.46400 16.67900 25.24300
C  -2.48600 17.68700 24.34400
C  -2.50800 17.07600 22.89600
C  -2.11200 15.63200 23.21500
C  -2.36000 15.47900 24.65600
C  -3.96800 17.28800 22.26500
C  -0.71500 15.20700 22.83300
C  0.41600 16.11700 23.17200
N  -2.40900 15.20400 27.66300
C  -2.41300 14.18600 26.80600
C  -2.58100 12.92000 27.52500
C  -2.69500 13.35300 28.85300
C  -2.59300 14.72300 28.90400
C  -2.80800 11.50200 26.99200
C  -3.05400 12.90100 30.20000
O  -3.38000 11.83100 30.77900
C  -2.93700 14.16900 31.07900
C  -1.73000 13.86500 31.83800
O  -0.62300 14.24600 31.52300
O  -2.01300 13.43500 33.04800
C  -0.92000 13.41100 34.09900
H  -3.03700 20.99800 29.84400
H  -2.47500 19.68100 23.58900
H  -1.98700 13.45400 24.82700
H  -3.80700 17.14400 32.30900
H  -2.27400 19.42400 31.89300
H  -4.12900 20.32400 32.70600
H  -4.97400 18.83300 32.55800
H  -5.04300 19.91500 31.17900
H  -0.79800 17.29200 32.16000
H  -1.69200 16.21300 33.23700
H  -2.26600 18.82900 34.19300
H  -0.57000 18.56000 33.83800
H  -3.65000 22.68100 28.97400
H  -3.95900 23.47500 27.43500
H  -2.38900 23.52300 28.14100
H  -2.32300 24.33600 24.01300
H  -2.02300 24.09500 25.79000
H  -3.69700 23.89400 25.05200
H  -1.80500 17.61800 22.26300
H  -2.73400 14.84500 22.78800
H  -4.54100 17.97500 22.88700
H  -4.57300 16.39100 22.39200
H  -3.81400 17.50700 21.20800
H  -0.76900 15.16100 21.74600
H  -0.45700 14.17700 23.08100
H  -0.08100 16.64100 23.98800
H  0.77900 16.81100 22.41500
H  1.24300 15.54100 23.58700
H  -3.85000 11.40100 27.29400
H  -2.10400 10.92300 27.58900
H  -2.73100 11.38400 25.91100
H  -3.81700 14.24000 31.71700
H  -0.87600 14.33600 34.67300
H  0.12000 13.32300 33.78300
H  -0.86500 12.64000 34.86700
Mg 35.59800 2.61300 30.31900
C  33.44500 3.86700 32.80700
C  38.12000 2.65800 32.62300
C  37.72000 1.77100 27.88500
C  33.05400 3.19300 27.97800
N  35.77000 3.31500 32.45400
C  34.73700 3.63800 33.34600
C  35.20500 3.75500 34.79200
C  36.77700 3.56000 34.57100
C  36.87200 3.04900 33.11200
C  37.64200 4.87600 34.64800
C  34.59700 2.67500 35.72200
C  34.35100 3.19200 37.12100
H  35.34400 4.28400 37.64800
N  37.58100 2.14400 30.29400
C  38.45000 2.21000 31.36100
C  39.77700 1.78200 30.93800
C  39.74400 1.62200 29.50300
C  38.35800 1.87500 29.16100
C  41.01600 1.68500 31.78600
C  40.82700 1.34200 28.47600
O  40.61600 1.10800 27.31600
C  42.23300 1.15900 28.91500
N  35.50100 2.69300 28.31100
C  36.44300 2.18200 27.52100
C  36.00400 2.16500 26.04200
C  34.45400 2.19300 26.17100
C  34.32700 2.81000 27.59500
C  36.61800 3.37100 25.19200
C  33.75000 0.70600 26.02900
C  32.47500 0.69800 25.18800
N  33.64100 3.29200 30.33300
C  32.72000 3.51400 29.28900
C  31.44000 3.86400 29.89700
C  31.66400 4.10700 31.26000
C  33.04800 3.73100 31.45100
C  30.09800 4.05900 29.17800
C  31.04000 4.51300 32.45500
O  29.90300 4.90600 32.66100
C  32.24600 4.34300 33.56500
C  32.47400 5.65000 34.32400
O  32.91700 6.66000 33.80100
O  32.01100 5.67500 35.59700
C  32.09900 6.95900 36.25700
H  38.97400 2.54800 33.29400
H  38.31200 1.43100 27.03200
H  32.33400 3.19000 27.15700
H  35.10100 4.80100 35.07900
H  37.16000 2.83700 35.29100
H  37.79400 5.23100 33.62900
H  38.61200 4.84800 35.14400
H  37.01700 5.71500 34.95600
H  35.16100 1.74100 35.72600
H  33.64600 2.35700 35.29400
H  34.35100 2.35900 37.82400
H  33.32500 3.55600 37.07500
H  41.52900 0.80700 31.39500
H  40.73100 1.57800 32.83300
H  41.72300 2.51100 31.70500
H  42.30300 0.24800 29.50900
H  42.46800 2.05800 29.48500
H  42.89300 1.06600 28.05200
H  36.36000 1.19200 25.70200
H  34.17200 2.92800 25.41600
H  35.83700 3.98800 24.74900
H  37.21100 3.02000 24.34700
H  37.37900 3.90100 25.76400
H  33.54700 0.25300 27.00000
H  34.56800 0.10200 25.63700
H  32.68900 0.25200 24.21700
H  32.19300 1.74400 25.07200
H  31.75900 0.09200 25.74300
H  30.19200 4.99100 28.62100
H  29.23200 4.32700 29.78200
H  29.94300 3.16400 28.57400
H  31.99300 3.57400 34.29500
H  32.28900 6.73100 37.30600
H  31.15200 7.46800 36.07700
H  33.00100 7.54900 36.09200

