158

Mg -2.21800 34.90000 26.64100
C  -3.96500 33.13600 29.31700
C  -0.97800 37.02400 29.03600
C  -0.70200 36.43500 24.26700
C  -3.84200 32.74800 24.54300
N  -2.55100 35.08600 28.93700
C  -3.24200 34.33900 29.81900
C  -3.05400 34.79800 31.24300
C  -2.14500 36.06800 31.06600
C  -1.97500 36.18600 29.52900
C  -2.58500 37.38400 31.83600
C  -2.47800 33.71000 32.27800
C  -1.99900 34.22600 33.68500
H  -3.07700 34.25300 34.72200
N  -0.91100 36.51600 26.64400
C  -0.52600 37.34500 27.71000
C  0.36600 38.39300 27.27200
C  0.54700 38.19300 25.84700
C  -0.33400 37.00500 25.51100
C  1.02000 39.39500 28.18000
C  1.30000 38.95600 24.86400
O  1.31900 38.70500 23.64500
C  2.03100 40.11200 25.43600
N  -2.29000 34.69300 24.63600
C  -1.52700 35.39700 23.82400
C  -1.64800 34.98400 22.33100
C  -2.75000 33.85400 22.50100
C  -3.05100 33.77500 23.99700
C  -1.78700 36.10700 21.24300
C  -2.32900 32.49700 21.87700
C  -1.37600 31.64300 22.74600
N  -3.85600 33.33700 26.77000
C  -4.23500 32.50400 25.79900
C  -5.07100 31.46400 26.35100
C  -5.00500 31.65900 27.77400
C  -4.19600 32.76800 27.98500
C  -5.94200 30.52600 25.60400
C  -5.43800 31.17200 29.04100
O  -6.12100 30.22400 29.29400
C  -4.69100 32.09000 30.13500
C  -5.72100 32.57800 31.10900
O  -6.47700 33.51300 30.94000
O  -5.76900 31.78600 32.19600
C  -6.82700 31.95700 33.19100
H  -0.47500 37.52500 29.86500
H  -0.04000 36.86500 23.51300
H  -4.34600 32.08600 23.83600
H  -4.04500 35.13700 31.54400
H  -1.14500 35.87200 31.45300
H  -1.96900 37.58900 32.71300
H  -3.63700 37.28400 32.10000
H  -2.61300 38.18500 31.09700
H  -1.66800 33.13500 31.82800
H  -3.27600 32.99500 32.47900
H  -1.74400 35.28400 33.61600
H  -1.13500 33.68600 34.07100
H  2.08600 39.48400 27.97100
H  0.94100 38.93200 29.16400
H  0.54900 40.37500 28.10600
H  1.39500 40.77900 26.01700
H  2.39900 40.72200 24.61100
H  2.93800 39.83600 25.97500
H  -0.72700 34.45400 22.08700
H  -3.65700 34.29400 22.08500
H  -2.58400 35.86600 20.53900
H  -0.84200 36.16400 20.70300
H  -1.93300 37.05900 21.75300
H  -1.80300 32.73300 20.95200
H  -3.20200 31.93000 21.55300
H  -0.90700 32.23600 23.53200
H  -0.57400 31.34900 22.06800
H  -1.75600 30.70000 23.14000
H  -6.85000 30.41000 26.19600
H  -5.37300 29.62300 25.38200
H  -6.21000 31.01700 24.66900
H  -3.97400 31.40700 30.59100
H  -7.70100 32.58800 33.02300
H  -6.30800 32.40000 34.04100
H  -7.20900 30.97700 33.47800
Mg -5.66900 25.41700 26.26000
C  -4.44600 26.86700 29.25000
C  -7.65800 23.36800 28.16600
C  -6.43300 23.93900 23.37300
C  -3.42700 27.59800 24.53100
N  -5.90500 25.12000 28.52700
C  -5.41800 25.91200 29.50100
C  -6.04500 25.57400 30.80200
C  -6.88100 24.29800 30.40000
C  -6.82600 24.23500 28.94700
C  -6.43000 22.93700 31.01700
C  -6.85900 26.79300 31.44200
C  -6.79300 27.03900 32.92900
H  -6.27500 25.83200 33.77900
N  -6.88300 23.87600 25.78400
C  -7.68000 23.17500 26.71500
C  -8.51000 22.21600 26.05000
C  -8.06100 22.28800 24.64300
C  -7.12800 23.42300 24.49500
C  -9.45500 21.28900 26.71700
C  -8.40600 21.35000 23.47900
O  -8.08000 21.50000 22.29700
C  -9.35600 20.22300 23.66000
N  -5.05700 25.76100 24.20100
C  -5.52300 24.95000 23.21900
C  -4.80800 25.28300 21.87500
C  -4.13500 26.63200 22.21300
C  -4.25700 26.74800 23.74200
C  -3.88600 24.06300 21.53800
C  -4.84600 27.84700 21.58400
C  -4.49300 28.28800 20.15000
N  -4.20100 27.00500 26.81600
C  -3.36300 27.64200 25.95900
C  -2.47500 28.49900 26.77200
C  -2.89600 28.25200 28.05800
C  -3.93900 27.27900 28.00800
C  -1.45800 29.44900 26.09700
C  -2.70500 28.61800 29.45900
O  -1.99300 29.48000 29.91000
C  -3.66200 27.73500 30.26500
C  -2.88400 26.92300 31.21700
O  -2.44300 25.80400 31.02500
O  -2.63000 27.65000 32.33000
C  -2.00900 26.89000 33.42400
H  -8.40000 22.85700 28.78300
H  -6.73700 23.53400 22.40500
H  -2.83100 28.31500 23.96200
H  -5.22000 25.33500 31.47400
H  -7.90900 24.61000 30.58700
H  -6.66500 22.95000 32.08100
H  -5.34800 22.84200 30.92600
H  -7.02400 22.16600 30.52600
H  -7.91500 26.63000 31.22800
H  -6.58800 27.74100 30.97700
H  -7.76700 27.39800 33.26200
H  -6.18800 27.93200 33.08800
H  -10.40000 21.11600 26.20200
H  -9.53000 21.43100 27.79500
H  -8.92000 20.34300 26.63300
H  -10.39200 20.56000 23.62500
H  -9.05700 19.54600 24.46000
H  -9.29800 19.55400 22.80200
H  -5.48100 25.49400 21.04400
H  -3.10500 26.58900 21.86000
H  -2.84700 24.38600 21.59200
H  -4.10900 23.71800 20.52800
H  -4.00100 23.17200 22.15600
H  -4.63400 28.72400 22.19500
H  -5.90900 27.63200 21.48300
H  -5.27100 28.80800 19.59100
H  -3.95900 27.55800 19.54300
H  -3.77900 29.10800 20.22700
H  -2.07500 30.32200 25.89000
H  -0.92900 29.13400 25.19700
H  -0.76800 29.70600 26.90000
H  -4.35700 28.37600 30.80800
H  -0.92200 26.95800 33.38300
H  -2.32100 25.85200 33.54100
H  -1.97600 27.40500 34.38500

