158

Mg 8.86600 48.45100 27.14100
C  7.18900 48.16200 30.26800
C  11.82100 49.01700 29.04300
C  10.44900 49.28400 24.30700
C  5.76500 48.55300 25.49200
N  9.38400 48.63000 29.49700
C  8.54200 48.37700 30.55200
C  9.24000 48.50000 31.90700
C  10.73200 49.01700 31.44300
C  10.63400 48.94900 29.93900
C  11.19100 50.38000 31.99600
C  9.35700 47.15800 32.65900
C  10.16100 47.18800 33.97700
H  9.83700 46.26900 35.14400
N  10.83900 48.84900 26.69000
C  11.90000 49.07700 27.57500
C  13.14500 49.38900 26.81100
C  12.78100 49.32100 25.45600
C  11.29600 49.14200 25.40600
C  14.48600 49.63400 27.52600
C  13.68500 49.43000 24.26000
O  13.21800 49.22800 23.11000
C  15.16300 49.56600 24.38400
N  8.23100 48.76300 25.16700
C  9.05800 49.16900 24.19000
C  8.42100 49.47100 22.85200
C  6.89700 49.03600 23.24400
C  6.91900 48.70500 24.74400
C  8.59700 50.89700 22.38200
C  6.31800 47.89600 22.26600
C  5.80400 48.45600 20.89500
N  6.86800 48.29300 27.69300
C  5.71100 48.27900 26.87900
C  4.57400 47.94800 27.74500
C  5.13800 47.90200 29.02900
C  6.50200 48.18000 28.98100
C  3.14200 47.67800 27.25900
C  4.81200 47.64700 30.46400
O  3.71400 47.55100 30.99000
C  6.08400 47.73800 31.30000
C  6.29400 46.40200 31.85500
O  6.85000 45.39500 31.30200
O  5.74000 46.39200 33.13700
C  5.86500 45.16500 33.84300
H  12.79700 49.05900 29.53000
H  10.95600 49.60600 23.39500
H  4.82200 48.26000 25.02500
H  8.65600 49.22700 32.47100
H  11.48900 48.28600 31.72400
H  11.11500 50.25000 33.07500
H  10.51100 51.19100 31.73400
H  12.11600 50.74000 31.54600
H  9.71500 46.44000 31.92200
H  8.37100 46.87900 33.03000
H  10.26500 48.23300 34.26800
H  11.12600 46.77400 33.68500
H  15.18200 48.85400 27.21500
H  14.55500 49.78200 28.60300
H  14.88700 50.58700 27.18000
H  15.66900 48.87000 25.05400
H  15.50400 50.59200 24.52200
H  15.54600 49.25400 23.41300
H  8.87900 48.89300 22.04900
H  6.19600 49.86900 23.18700
H  9.19000 50.86100 21.46800
H  9.15500 51.42400 23.15600
H  7.67800 51.44500 22.17900
H  5.57400 47.31500 22.81000
H  7.10800 47.21100 21.95700
H  5.54100 49.51100 20.81200
H  4.86300 47.91900 20.78000
H  6.35900 48.10400 20.02600
H  2.46100 47.44400 28.07700
H  3.08900 46.93700 26.46000
H  2.65600 48.50600 26.74200
H  6.19600 48.36700 32.18400
H  5.13200 44.40900 33.56000
H  5.69700 45.19200 34.91900
H  6.87500 44.78300 33.69000
Mg -11.27900 17.15900 42.90400
C  -7.67700 17.77600 43.14100
C  -11.51800 20.48700 42.42100
C  -14.40800 16.55800 42.33600
C  -10.45700 13.68500 43.05500
N  -9.65300 18.83300 42.52500
C  -8.41000 18.95500 42.89600
C  -7.79400 20.29500 42.68100
C  -9.09800 21.11700 42.86000
C  -10.19500 20.08500 42.64500
C  -9.26900 21.83000 44.29100
C  -7.12200 20.44800 41.22600
C  -5.85600 21.22500 41.15300
H  -4.71900 20.71400 40.23300
N  -12.81100 18.39200 42.37400
C  -12.69200 19.78400 42.25600
C  -14.02800 20.35000 42.04900
C  -14.93600 19.19300 41.94600
C  -14.08800 17.96300 42.29500
C  -14.26300 21.80000 41.78200
C  -16.35100 19.23300 41.54300
O  -16.88700 20.28300 41.28300
C  -17.23900 18.03300 41.37600
N  -12.22700 15.41800 42.60800
C  -13.58200 15.42000 42.53800
C  -14.13200 14.00500 42.58600
C  -12.86000 13.11400 42.68400
C  -11.75400 14.14900 42.74900
C  -15.28200 13.91200 43.69100
C  -12.74200 12.05200 41.48200
C  -12.79200 10.50000 41.89400
N  -9.43200 15.89900 43.06000
C  -9.31200 14.47200 43.12200
C  -7.92400 14.15000 43.37600
C  -7.28500 15.41300 43.33600
C  -8.24400 16.42000 43.16700
C  -7.27700 12.78300 43.50600
C  -6.00900 16.08800 43.34000
O  -4.85100 15.66400 43.34300
C  -6.20700 17.57500 43.32900
C  -5.80700 18.24200 44.57800
O  -5.94600 17.75600 45.70800
O  -5.01700 19.34800 44.35700
C  -4.42900 19.97100 45.54200
H  -11.72400 21.55500 42.33100
H  -15.42700 16.30400 42.03700
H  -10.40500 12.59400 43.03300
H  -7.08800 20.50900 43.48400
H  -9.02100 21.80900 42.02100
H  -8.32500 21.70700 44.82300
H  -10.00600 21.22800 44.82200
H  -9.67600 22.84000 44.24600
H  -7.83400 20.79500 40.47800
H  -6.85100 19.42600 40.96000
H  -5.47500 21.30300 42.17200
H  -6.16500 22.20600 40.79300
H  -14.03400 22.06200 40.74900
H  -13.46300 22.29500 42.33100
H  -15.28700 22.11700 41.97900
H  -18.24500 18.42100 41.21800
H  -17.23900 17.65700 42.39900
H  -16.93900 17.28100 40.64700
H  -14.47200 13.87700 41.55800
H  -12.80300 12.58200 43.63400
H  -14.90400 13.20400 44.42900
H  -16.21400 13.53400 43.27100
H  -15.40100 14.91600 44.09700
H  -11.82800 12.22400 40.91300
H  -13.46200 12.19100 40.67500
H  -12.63100 10.29800 42.95300
H  -12.02700 9.99600 41.30300
H  -13.78400 10.17900 41.57600
H  -6.56800 12.55500 42.71000
H  -8.05000 12.02000 43.59700
H  -6.63900 12.68200 44.38400
H  -5.63800 17.97500 42.49000
H  -5.18500 20.25100 46.27500
H  -3.92000 20.86400 45.17900
H  -3.75000 19.24400 45.98800

