158

Mg 7.64800 2.73400 28.49000
C  9.45500 1.82000 31.29200
C  5.73400 4.91700 30.42200
C  6.01500 3.68700 25.71100
C  9.26500 0.21400 26.65100
N  7.67100 3.31600 30.65700
C  8.43800 2.76900 31.59100
C  8.09600 3.40900 33.01100
C  6.79700 4.25100 32.67800
C  6.68600 4.19000 31.14300
C  5.52000 3.82400 33.49600
C  9.29700 4.33900 33.34500
C  9.22100 4.73300 34.85400
H  10.02100 3.97700 35.84100
N  6.21800 4.15800 28.14600
C  5.49900 4.86000 29.08100
C  4.43100 5.65700 28.43700
C  4.55600 5.37800 27.02100
C  5.60100 4.37300 26.90500
C  3.44900 6.53800 29.15100
C  3.77900 5.98200 25.91800
O  3.98200 5.74600 24.72800
C  2.70800 6.96200 26.19000
N  7.68800 2.08600 26.48500
C  6.94800 2.70100 25.46500
C  7.29900 2.13800 24.10900
C  8.28500 0.96900 24.43000
C  8.52300 1.11200 25.97800
C  6.06900 1.63600 23.30400
C  9.64400 1.05600 23.63900
C  10.95600 1.82800 24.23400
N  9.06600 1.28000 28.84400
C  9.62900 0.34600 27.99600
C  10.68100 -0.35700 28.65900
C  10.60600 0.12900 29.99000
C  9.63600 1.20100 30.03300
C  11.57900 -1.51000 28.23400
C  11.09500 -0.01500 31.31000
O  11.94000 -0.84800 31.71500
C  10.45900 1.14000 32.24300
C  9.70700 0.29600 33.25900
O  8.74300 -0.43800 33.10600
O  10.45200 0.37700 34.45300
C  10.13900 -0.61200 35.46900
H  5.15300 5.57400 31.07400
H  5.53600 4.01800 24.78700
H  9.91400 -0.44400 26.06900
H  7.94800 2.66700 33.79600
H  7.08500 5.25800 32.98200
H  4.80600 3.25600 32.90000
H  4.93300 4.67300 33.84400
H  5.92300 3.17800 34.27600
H  9.37500 5.12700 32.59600
H  10.20500 3.74200 33.25600
H  8.19100 4.63700 35.19700
H  9.54500 5.76700 34.97000
H  3.73700 7.56600 28.93300
H  3.51700 6.45000 30.23500
H  2.41400 6.33400 28.87600
H  1.92100 6.52700 26.80600
H  2.34800 7.33200 25.23100
H  3.09300 7.87500 26.64600
H  7.69700 2.96300 23.51900
H  7.83800 0.02200 24.12800
H  5.08800 1.74900 23.76500
H  6.19800 0.60400 22.98000
H  6.00400 2.22800 22.39000
H  9.31000 1.52800 22.71600
H  9.99100 0.05500 23.38100
H  11.27200 2.63000 23.56700
H  11.82800 1.17600 24.26700
H  10.78600 2.21500 25.23900
H  10.98700 -2.40700 28.41900
H  12.51600 -1.54800 28.79000
H  11.71800 -1.39600 27.15900
H  11.18300 1.67200 32.86100
H  9.75700 -1.57600 35.13300
H  9.39300 -0.22200 36.16200
H  11.08700 -0.74700 35.99000
Mg 35.18600 2.92600 29.89300
C  33.07300 4.16600 32.32200
C  37.87900 3.30400 32.04700
C  37.14500 1.95400 27.23000
C  32.37000 2.76600 27.74700
N  35.50400 3.78900 31.83800
C  34.45800 3.97700 32.71500
C  35.03600 3.90500 34.23000
C  36.49800 4.09700 33.91800
C  36.65900 3.71900 32.52400
C  37.14400 5.48200 34.20800
C  34.51400 2.72200 35.10100
C  34.13300 3.18200 36.56300
H  35.01600 4.21900 37.34300
N  37.27500 2.59800 29.72500
C  38.22300 2.70100 30.77100
C  39.45900 2.16300 30.20500
C  39.31500 1.87200 28.81100
C  37.85700 2.09800 28.55300
C  40.73700 2.24300 30.98600
C  40.30200 1.31400 27.65700
O  39.89500 1.04100 26.49000
C  41.77100 1.03000 27.91400
N  34.86600 2.50400 27.80300
C  35.79700 2.18800 26.90100
C  35.30200 2.05000 25.52100
C  33.76200 2.07900 25.67800
C  33.60400 2.43800 27.21400
C  35.90000 2.92700 24.41600
C  32.99500 0.83800 25.18600
C  32.64300 -0.27300 26.16200
N  33.09800 3.41900 29.91500
C  32.06000 3.26400 28.98800
C  30.84900 3.78400 29.54000
C  31.11200 4.10900 30.89600
C  32.53000 3.89500 31.04300
C  29.53800 3.90600 28.78700
C  30.65800 4.53000 32.12000
O  29.50400 4.75100 32.51600
C  31.88900 4.51300 33.19100
C  32.02900 5.83500 33.79600
O  32.58400 6.77900 33.24800
O  31.41900 5.72900 35.02800
C  31.57800 6.91900 35.89700
H  38.74600 3.30700 32.71000
H  37.77100 1.74100 26.36000
H  31.53200 2.76200 27.04800
H  34.57500 4.82400 34.59300
H  36.99700 3.37400 34.56400
H  36.48600 6.18200 34.72300
H  37.46200 5.99800 33.30300
H  38.03000 5.45100 34.84100
H  35.27900 1.94700 35.13100
H  33.60300 2.30900 34.66900
H  34.14400 2.31200 37.21900
H  33.07000 3.41700 36.61900
H  41.58100 2.72700 30.49400
H  41.00400 1.20700 31.19300
H  40.66900 2.70200 31.97300
H  42.17200 0.36400 27.15000
H  41.77500 0.60200 28.91600
H  42.25800 2.00500 27.95900
H  35.65400 1.02500 25.40200
H  33.47800 2.94000 25.07400
H  36.51600 3.70600 24.86400
H  35.21000 3.47700 23.77400
H  36.47600 2.22200 23.81700
H  33.62100 0.44600 24.38400
H  32.02600 0.99800 24.71400
H  32.89900 -1.21400 25.67600
H  31.57900 -0.15300 26.36300
H  33.24000 -0.21600 27.07200
H  29.43100 3.28000 27.90100
H  29.34500 4.94900 28.53700
H  28.72300 3.55400 29.41900
H  31.63200 3.78800 33.96400
H  32.30500 6.64800 36.66200
H  30.59600 7.08000 36.34200
H  31.88100 7.85200 35.42100

