158

Mg 8.78400 3.61500 27.48000
C  9.97200 2.13800 30.36000
C  7.15000 6.03700 29.30900
C  7.69200 5.07700 24.60500
C  10.16700 1.01300 25.61800
N  8.47900 3.94100 29.61900
C  9.16800 3.28300 30.59100
C  8.97700 4.03600 31.97100
C  7.94200 5.14300 31.63100
C  7.82000 5.03300 30.05300
C  6.60800 5.08100 32.43800
C  10.32400 4.55500 32.55300
C  10.62100 4.11600 34.02500
H  11.08700 5.15400 35.10900
N  7.52900 5.35800 27.00500
C  7.05900 6.21500 27.91800
C  6.48600 7.30300 27.20900
C  6.53400 7.07500 25.83300
C  7.19600 5.77500 25.75800
C  5.85000 8.46900 27.93600
C  5.99300 7.73900 24.63800
O  6.16100 7.25400 23.53300
C  5.38400 9.03100 24.75100
N  8.76400 2.98000 25.45400
C  8.47800 3.90800 24.52100
C  8.75000 3.40200 23.06200
C  9.48900 2.08000 23.38600
C  9.49800 1.98900 24.90100
C  7.55900 3.30400 22.12800
C  10.82200 1.79300 22.70100
C  10.78200 1.36400 21.21500
N  9.78700 1.82000 27.84600
C  10.32100 0.85400 26.95400
C  11.05500 -0.10700 27.67800
C  10.93600 0.35300 29.05100
C  10.11400 1.48300 29.05800
C  11.71600 -1.36100 27.18900
C  11.37300 0.13400 30.37000
O  12.10400 -0.68300 30.82000
C  10.77600 1.25600 31.31900
C  9.93500 0.61700 32.33200
O  9.08400 -0.27500 32.08300
O  10.38700 0.92000 33.60900
C  9.87000 0.09700 34.69800
H  6.84000 6.85900 29.95800
H  7.46200 5.50700 23.62800
H  10.71800 0.30000 25.00100
H  8.62200 3.28800 32.67900
H  8.35900 6.13900 31.77800
H  5.81500 4.55100 31.91000
H  6.22600 6.09100 32.58500
H  6.84600 4.67600 33.42100
H  10.22500 5.64000 32.57600
H  11.18100 4.27400 31.94100
H  11.40000 3.39600 33.77500
H  9.72400 3.55300 34.28200
H  5.79800 8.31600 29.01400
H  4.78100 8.50700 27.72700
H  6.09600 9.51200 27.73700
H  5.22200 9.51800 23.78900
H  6.04500 9.71900 25.27800
H  4.49500 8.92500 25.37200
H  9.46000 4.12800 22.66600
H  8.74700 1.33600 23.09600
H  6.62900 3.54400 22.64300
H  7.34900 2.26800 21.86300
H  7.77800 3.95700 21.28200
H  11.54400 1.13100 23.17900
H  11.29300 2.77000 22.59900
H  9.72500 1.25800 20.97400
H  11.26400 0.40700 21.01700
H  11.22300 2.08500 20.52700
H  12.26400 -1.12800 26.27600
H  10.97700 -2.13800 26.99200
H  12.35400 -1.78200 27.96600
H  11.56100 1.82600 31.81700
H  10.11900 -0.96000 34.79100
H  8.78800 0.18700 34.79400
H  10.18900 0.48500 35.66500
Mg 53.21800 23.27500 44.47500
C  50.51500 25.54300 43.72700
C  50.96200 20.77000 43.49500
C  55.79600 21.23700 44.54900
C  55.22200 25.94200 45.28000
N  51.19200 23.15500 43.37800
C  50.36900 24.26900 43.14100
C  49.12300 23.83500 42.29300
C  48.99500 22.33300 42.75700
C  50.42900 22.09500 43.29700
C  47.79700 22.11600 43.81300
C  49.45100 24.06800 40.82900
C  48.30300 24.66300 39.99900
H  47.82900 23.86900 38.79100
N  53.35200 21.26900 44.16500
C  52.29600 20.40900 43.82500
C  52.87200 19.02100 43.99400
C  54.25100 19.17900 44.24100
C  54.49100 20.61500 44.35600
C  51.94500 17.81400 43.93300
C  55.22100 18.01000 44.47800
O  54.79900 16.84000 44.39700
C  56.74000 18.14900 44.72400
N  55.34700 23.59200 44.42600
C  56.18100 22.53400 44.64000
C  57.61000 23.02300 44.84500
C  57.42300 24.52100 45.19000
C  55.91000 24.73400 44.92900
C  58.48700 22.21500 45.84800
C  58.43000 25.51100 44.57000
C  59.84900 25.64300 45.20900
N  52.97500 25.34500 44.48900
C  53.84100 26.25300 45.01900
C  53.09700 27.45200 45.23000
C  51.73600 27.27400 44.73600
C  51.76500 25.95600 44.23800
C  53.66200 28.69400 45.91400
C  50.44600 27.83300 44.44000
O  49.90500 28.91800 44.61900
C  49.54300 26.72200 43.78900
C  49.16600 27.21400 42.50900
O  49.91500 27.33900 41.49300
O  47.84700 27.52200 42.56500
C  47.38100 28.36500 41.52400
H  50.28500 19.92500 43.35100
H  56.71000 20.64500 44.46600
H  55.89700 26.72400 45.63300
H  48.24100 24.38200 42.62700
H  48.76500 21.77100 41.85200
H  47.41800 23.06200 44.19800
H  48.15600 21.50400 44.64000
H  46.94200 21.69400 43.28400
H  49.85500 23.19300 40.31800
H  50.33400 24.70300 40.76300
H  48.72200 25.58900 39.60600
H  47.50600 24.90700 40.70100
H  51.66800 17.44500 42.94500
H  51.00900 18.11600 44.40400
H  52.23600 16.99600 44.59100
H  57.16500 18.63600 43.84700
H  57.14900 17.15200 44.88700
H  56.85400 18.76700 45.61500
H  58.01700 22.91300 43.84100
H  57.53600 24.60800 46.27100
H  57.81200 21.78900 46.59000
H  59.22700 22.88700 46.28300
H  59.04000 21.45700 45.29300
H  58.02100 26.52100 44.53600
H  58.55600 25.27300 43.51400
H  60.61900 25.50900 44.44900
H  59.93300 24.95000 46.04600
H  60.06200 26.61400 45.65600
H  53.09000 28.94200 46.80800
H  53.62800 29.54100 45.22900
H  54.66900 28.45600 46.25800
H  48.65300 26.50800 44.38200
H  47.21200 27.73300 40.65300
H  48.04900 29.18300 41.25300
H  46.44200 28.79700 41.87000

