158

Mg 41.47600 41.29700 26.56900
C  40.82300 43.71400 29.11700
C  42.31800 39.27000 29.16700
C  42.46300 39.13700 24.26400
C  40.97900 43.73300 24.15800
N  41.69000 41.51500 28.85100
C  41.24800 42.53100 29.68600
C  41.60200 42.22000 31.15400
C  42.05300 40.76500 31.12000
C  41.98200 40.51400 29.59600
C  43.48100 40.53700 31.84100
C  40.32300 42.32000 32.09200
C  40.22200 41.53600 33.47700
H  39.46700 42.18100 34.66900
N  42.31000 39.47500 26.63400
C  42.51300 38.80000 27.83400
C  42.97900 37.44500 27.52500
C  43.07100 37.39100 26.13700
C  42.64000 38.69100 25.63600
C  43.39800 36.36100 28.61100
C  43.63200 36.24500 25.23000
O  43.71500 36.31300 23.98800
C  44.15200 35.07900 25.91500
N  41.86500 41.43600 24.49300
C  42.17300 40.35400 23.67600
C  42.06200 40.67600 22.14700
C  41.36400 42.07700 22.21900
C  41.44800 42.44600 23.71300
C  43.45800 40.65300 21.42000
C  39.86500 42.08600 21.86900
C  38.84000 41.11100 22.58300
N  41.08600 43.28000 26.56600
C  40.85600 44.10900 25.52800
C  40.65300 45.49800 26.04300
C  40.52600 45.32400 27.43600
C  40.78600 43.97200 27.72100
C  40.47600 46.80300 25.31900
C  40.14100 46.02000 28.64700
O  39.86100 47.18400 28.86700
C  40.38400 44.96400 29.74500
C  41.26600 45.43400 30.83400
O  42.48800 45.50500 30.85200
O  40.47000 45.90700 31.82800
C  41.15900 46.67900 32.96900
H  42.49200 38.59700 30.00900
H  43.01000 38.51000 23.55700
H  40.95400 44.50100 23.38200
H  42.37900 42.91300 31.47800
H  41.30400 40.17400 31.64600
H  44.26900 40.49700 31.08900
H  43.49300 39.75600 32.60100
H  43.71600 41.40100 32.46300
H  39.56000 41.93900 31.41400
H  40.14200 43.38100 32.26600
H  41.23600 41.27600 33.77800
H  39.71900 40.61500 33.17900
H  43.28700 36.78300 29.61000
H  44.44100 36.06100 28.51000
H  42.80400 35.44800 28.57400
H  44.86800 35.42800 26.65900
H  44.71000 34.46500 25.20800
H  43.31700 34.60300 26.42800
H  41.45800 39.94200 21.61400
H  41.88800 42.83500 21.63700
H  44.30900 40.34700 22.02900
H  43.64800 41.67800 21.10300
H  43.28000 39.90800 20.64400
H  39.85400 41.80700 20.81600
H  39.39300 43.06700 21.93300
H  37.79700 41.39500 22.72700
H  39.28100 40.62500 23.45300
H  38.78200 40.26600 21.89600
H  39.51800 47.27900 25.52800
H  40.49000 46.72300 24.23200
H  41.32600 47.42800 25.59100
H  39.37800 44.87200 30.15400
H  42.21000 46.93000 32.82900
H  41.13300 45.95200 33.78100
H  40.57700 47.55500 33.25400
Mg 6.49000 53.67000 41.10400
C  5.62200 50.30000 41.14300
C  9.48900 52.75500 39.97600
C  7.04400 57.00400 40.46400
C  3.15700 54.45500 41.81800
N  7.29900 51.76500 40.33100
C  6.85600 50.49200 40.48700
C  7.77200 49.41100 40.01300
C  9.11000 50.16200 40.15500
C  8.61400 51.66200 40.09000
C  9.93200 49.88400 41.46200
C  7.55500 48.96400 38.58000
C  6.42600 49.56900 37.65200
H  5.91000 48.62500 36.56500
N  8.00600 54.78400 40.48000
C  9.17500 54.19700 40.08800
C  10.09400 55.21800 39.85800
C  9.49800 56.46000 39.93400
C  8.08000 56.12700 40.30500
C  11.66600 54.98200 39.56900
C  10.11400 57.76100 39.63200
O  11.21900 57.73900 39.08600
C  9.52400 59.07500 39.90700
N  5.25100 55.43500 41.00100
C  5.73100 56.69100 40.78500
C  4.64600 57.73700 40.88300
C  3.32800 56.93000 41.29900
C  3.98400 55.50000 41.38600
C  4.95200 58.86200 41.85100
C  2.21100 57.02400 40.22600
C  0.80400 57.28100 40.68900
N  4.65300 52.61100 41.45500
C  3.45900 53.07400 41.90500
C  2.72200 51.90300 42.33600
C  3.57400 50.82700 42.05100
C  4.74000 51.28100 41.54300
C  1.38500 51.88300 43.03900
C  3.59900 49.42100 42.13200
O  2.72200 48.62600 42.49200
C  4.95200 49.01500 41.60400
C  4.82300 47.99000 40.49500
O  4.15900 48.18300 39.48100
O  5.45200 46.77200 40.73400
C  5.19500 45.74700 39.81700
H  10.53300 52.50900 39.76800
H  7.22500 58.03600 40.15800
H  2.13500 54.74700 42.06900
H  7.74600 48.57800 40.71500
H  9.74400 49.92300 39.30200
H  11.00900 49.87400 41.29400
H  9.66200 48.91500 41.88200
H  9.70700 50.66400 42.18900
H  7.36400 47.90000 38.72000
H  8.48700 48.97200 38.01500
H  6.91200 50.44400 37.22000
H  5.58000 49.90600 38.25000
H  12.14000 55.46200 38.71300
H  11.76000 53.89800 39.51000
H  12.20100 55.41100 40.41500
H  9.03700 59.16600 40.87800
H  8.77800 59.24600 39.13100
H  10.26400 59.87500 39.93300
H  4.61800 58.17300 39.88400
H  2.96700 57.22000 42.28600
H  5.71700 58.41400 42.48600
H  4.13500 59.10700 42.52900
H  5.29000 59.69300 41.23200
H  2.11300 56.15200 39.58000
H  2.34300 57.90000 39.59000
H  0.57300 57.30600 41.75400
H  0.21200 56.45400 40.29700
H  0.58400 58.28200 40.31600
H  0.78300 51.05200 42.67200
H  0.92000 52.86000 42.91500
H  1.57300 51.77400 44.10700
H  5.62300 48.59400 42.35300
H  5.70800 44.84200 40.14300
H  5.59800 46.04700 38.84900
H  4.12000 45.59800 39.91400

