158

Mg -0.04400 7.76500 27.17800
C  0.74500 9.58700 29.93800
C  0.08900 4.99600 29.17500
C  -0.24700 5.80600 24.31900
C  0.33400 10.56500 25.10100
N  0.45300 7.30000 29.37800
C  0.57100 8.26600 30.33400
C  0.40700 7.66500 31.78000
C  0.61100 6.11600 31.45800
C  0.31800 6.12400 29.95300
C  1.96900 5.58300 31.67900
C  -0.91600 7.99000 32.47200
C  -0.92800 8.44700 33.93900
H  0.19900 7.88900 34.81000
N  -0.07800 5.66500 26.77500
C  -0.13000 4.68800 27.74700
C  -0.35000 3.36300 27.15200
C  -0.54300 3.65200 25.70700
C  -0.33100 5.08400 25.57300
C  -0.49500 2.04100 27.86300
C  -0.92900 2.77600 24.55500
O  -1.28400 3.28400 23.47700
C  -0.92900 1.28800 24.67800
N  0.04000 8.12400 25.03400
C  -0.21800 7.20200 24.07500
C  -0.53400 7.77300 22.67000
C  -0.30600 9.33000 23.01000
C  0.01100 9.36100 24.44900
C  0.50200 7.25500 21.57400
C  -1.48300 10.20200 22.69100
C  -2.09400 9.85600 21.32100
N  0.41800 9.75000 27.38000
C  0.55300 10.78100 26.47000
C  1.09700 11.91500 27.14100
C  1.06500 11.57100 28.52100
C  0.70000 10.16000 28.60700
C  1.52600 13.12500 26.39100
C  1.39700 12.03000 29.86900
O  1.88200 13.10500 30.25100
C  0.91000 10.81500 30.83000
C  1.86700 10.63800 31.94500
O  2.96700 10.14900 31.82500
O  1.38900 11.32200 33.01100
C  2.38200 11.55900 34.00200
H  0.09500 4.11200 29.81700
H  -0.36600 5.31800 23.35000
H  0.33700 11.52800 24.58700
H  1.26300 8.09000 32.30400
H  0.01000 5.46000 32.08800
H  2.76700 6.30700 31.84500
H  2.22400 4.97600 30.80900
H  2.00100 4.93900 32.55800
H  -1.63400 7.17100 32.44400
H  -1.32800 8.80200 31.87200
H  -1.88600 8.32000 34.44300
H  -0.68600 9.51000 33.93500
H  -0.26200 2.09000 28.92600
H  0.06100 1.16500 27.52700
H  -1.49500 1.62600 27.73500
H  -1.38200 0.87400 23.77700
H  -1.63700 1.13800 25.49200
H  0.07800 0.95500 24.93100
H  -1.56300 7.44800 22.51700
H  0.48000 9.75700 22.38700
H  1.30100 6.71600 22.08200
H  0.89200 7.99600 20.87700
H  0.00800 6.50900 20.95000
H  -1.45100 11.29000 22.75800
H  -2.19100 10.00400 23.49500
H  -1.64800 9.02400 20.77600
H  -1.89000 10.70500 20.66900
H  -3.16300 9.66300 21.41100
H  2.23000 13.70700 26.98600
H  0.63700 13.65500 26.04900
H  1.87600 12.75500 25.42800
H  -0.04300 11.06300 31.29700
H  2.86900 12.53400 33.98700
H  3.19700 10.84300 34.10900
H  1.90700 11.50300 34.98200
Mg 35.45600 49.71400 26.24100
C  35.81600 47.72700 29.05600
C  34.19100 52.23800 28.09400
C  35.34200 51.78700 23.46600
C  36.51400 47.09000 24.22300
N  34.97600 49.89400 28.35100
C  35.23000 48.99500 29.32900
C  34.86200 49.53500 30.65900
C  34.24100 50.90300 30.38700
C  34.44300 51.08200 28.81900
C  32.74000 51.17900 30.89000
C  36.20000 49.67800 31.37500
C  36.30300 49.22400 32.88500
H  35.16200 49.51800 33.85400
N  34.98700 51.77700 25.88200
C  34.46600 52.60000 26.80000
C  34.25300 53.92100 26.22300
C  34.49400 53.80100 24.79000
C  35.02900 52.44800 24.67400
C  33.72300 55.03500 27.10700
C  34.21700 54.82300 23.71500
O  34.22400 54.48100 22.55300
C  33.66300 56.18300 24.02900
N  35.89200 49.44900 24.14700
C  35.64900 50.41000 23.20300
C  36.08400 49.90900 21.78500
C  36.46600 48.38800 22.02300
C  36.27400 48.27900 23.57100
C  35.04300 49.98900 20.62600
C  37.84600 47.98600 21.41000
C  39.14000 48.34300 22.27900
N  35.93700 47.73200 26.54300
C  36.51400 46.86000 25.62000
C  36.93300 45.65300 26.39600
C  36.67300 45.94600 27.73400
C  36.09200 47.25700 27.78000
C  37.55900 44.50100 25.75700
C  36.83600 45.52600 29.12600
O  37.25700 44.49700 29.58700
C  36.14900 46.57400 30.03300
C  34.98900 45.97600 30.70600
O  33.89900 45.65600 30.21300
O  35.38200 45.75000 31.96900
C  34.35800 45.10300 32.83800
H  33.75200 53.02700 28.70700
H  35.29200 52.40500 22.56800
H  37.00300 46.33200 23.60800
H  34.23300 48.95000 31.32900
H  34.80700 51.72000 30.83500
H  32.17000 51.39000 29.98500
H  32.70900 52.06200 31.52800
H  32.25700 50.34100 31.39100
H  36.44200 50.74000 31.41400
H  37.06100 49.24700 30.86500
H  37.20100 49.73100 33.23700
H  36.40200 48.14500 33.00900
H  32.63900 55.10100 27.01900
H  34.09800 56.01300 26.80600
H  34.13000 54.92100 28.11200
H  34.29200 56.96800 24.44700
H  32.75000 56.01500 24.60100
H  33.29400 56.42100 23.03100
H  36.91500 50.47000 21.35800
H  35.70300 47.77400 21.54500
H  34.17500 50.51900 21.01800
H  34.85500 48.98600 20.24200
H  35.43900 50.64600 19.85100
H  37.94800 48.52900 20.47000
H  37.92000 46.90700 21.27500
H  39.92400 48.78300 21.66300
H  39.46300 47.35300 22.60200
H  38.77600 48.88100 23.15400
H  36.78100 43.82900 25.39300
H  38.04700 43.91200 26.53300
H  38.28200 44.79300 24.99600
H  36.82800 47.01600 30.76200
H  34.70200 44.79500 33.82600
H  34.06800 44.20100 32.29900
H  33.54600 45.79600 33.06100

