158

Mg 1.42100 -1.87000 44.36100
C  4.54000 -0.80600 43.60500
C  0.13700 0.72600 42.34900
C  -1.73900 -3.33000 44.42600
C  2.77000 -4.77900 45.82300
N  2.33100 -0.21900 43.15500
C  3.59400 0.03400 42.99800
C  3.82900 1.25400 42.11500
C  2.39800 1.88000 42.02000
C  1.52900 0.72000 42.47900
C  2.13300 3.26800 42.65200
C  4.50700 0.95000 40.71900
C  5.72200 1.77500 40.38300
H  5.91000 2.27000 38.89800
N  -0.53800 -1.23900 43.65100
C  -0.82400 -0.14800 42.89500
C  -2.25700 -0.05400 42.72600
C  -2.83200 -1.15300 43.49600
C  -1.71900 -2.00300 43.91600
C  -2.86800 1.11700 41.83600
C  -4.34600 -1.40100 43.59700
O  -5.14100 -0.61800 43.10000
C  -4.90700 -2.57600 44.27100
N  0.61400 -3.82400 45.13300
C  -0.68500 -4.16100 44.97300
C  -0.93400 -5.61300 45.52200
C  0.52600 -6.10300 45.79800
C  1.35600 -4.88300 45.57100
C  -1.92400 -5.77800 46.67000
C  0.96300 -7.34000 44.93800
C  1.19800 -8.64400 45.64400
N  3.26800 -2.56600 44.91300
C  3.66000 -3.72100 45.56000
C  5.09300 -3.77400 45.58800
C  5.54700 -2.67100 44.83200
C  4.34400 -1.95900 44.43300
C  5.99800 -4.91500 46.01700
C  6.63300 -1.97500 44.20500
O  7.84200 -2.11700 44.18100
C  6.01300 -0.64700 43.56400
C  6.55100 0.57800 44.25400
O  6.29500 1.00300 45.37100
O  7.42100 1.15900 43.42200
C  8.12500 2.33600 43.92700
H  -0.01900 1.67300 41.82900
H  -2.69300 -3.86200 44.42300
H  3.25300 -5.68400 46.19600
H  4.53700 1.82900 42.71200
H  2.18900 2.02000 40.95900
H  3.00800 3.69000 43.14700
H  1.27900 3.23200 43.32800
H  1.92200 3.93800 41.81900
H  3.89600 1.16500 39.84200
H  4.71700 -0.11700 40.64300
H  6.58100 1.12300 40.54300
H  5.72100 2.65300 41.02900
H  -3.35200 0.78000 40.91900
H  -2.12600 1.80900 41.43600
H  -3.66300 1.68600 42.31500
H  -4.98600 -3.43200 43.60000
H  -5.83300 -2.24200 44.73900
H  -4.34400 -2.85700 45.16100
H  -1.34900 -6.13000 44.65700
H  0.52800 -6.48800 46.81800
H  -2.48700 -4.85200 46.78000
H  -1.34700 -5.83100 47.59400
H  -2.60300 -6.62700 46.58500
H  1.92700 -7.12700 44.47700
H  0.22000 -7.51000 44.16000
H  2.25400 -8.91300 45.68100
H  0.76000 -9.33400 44.92200
H  0.68500 -8.66400 46.60500
H  6.26400 -5.41800 45.08700
H  5.34300 -5.60900 46.54500
H  6.89000 -4.49800 46.48400
H  6.41800 -0.65500 42.55200
H  7.42700 3.16700 44.03200
H  8.83200 2.72600 43.19500
H  8.62700 2.18000 44.88200
Mg 25.21200 2.00400 29.65200
C  27.18600 1.35600 32.35100
C  22.42000 2.45600 31.68000
C  23.15100 2.20000 26.83000
C  27.86500 1.37400 27.52200
N  24.86400 1.89500 31.76500
C  25.85100 1.75600 32.66600
C  25.37800 2.04300 34.08900
C  23.84400 2.32600 33.91600
C  23.67400 2.25200 32.35400
C  22.93500 1.27700 34.68100
C  26.13200 3.31300 34.71600
C  26.90000 3.19400 36.08400
H  26.40900 4.08400 37.22700
N  23.11200 2.29500 29.34600
C  22.17200 2.40100 30.33000
C  20.87800 2.42000 29.69700
C  21.08100 2.36600 28.27800
C  22.51900 2.25600 28.11500
C  19.54000 2.32100 30.48300
C  20.00200 2.20600 27.20900
O  20.17500 2.14100 25.98600
C  18.50300 2.16100 27.57700
N  25.43800 1.84400 27.54800
C  24.53100 2.11600 26.62000
C  25.16600 2.40100 25.20200
C  26.65500 2.24900 25.46500
C  26.66400 1.73400 26.89800
C  24.60000 1.55100 24.01900
C  27.48500 3.57600 25.38500
C  27.04700 4.72900 26.31400
N  27.13400 1.36000 29.83100
C  28.13500 1.16200 28.90600
C  29.41800 0.86400 29.55100
C  29.13600 0.92900 30.96600
C  27.72700 1.20900 31.04300
C  30.75900 0.62000 28.82500
C  29.68000 0.91700 32.34100
O  30.82400 0.85500 32.82500
C  28.41000 1.19000 33.21300
C  28.32200 0.10000 34.24500
O  27.80800 -1.00400 34.01400
O  28.82100 0.58000 35.37300
C  28.65700 -0.27000 36.54200
H  21.59200 2.80000 32.30200
H  22.53600 2.41000 25.95200
H  28.65300 1.35800 26.76600
H  25.64500 1.19800 34.72300
H  23.58500 3.33000 34.25300
H  23.56000 0.88700 35.48400
H  22.66700 0.58500 33.88200
H  22.03900 1.74100 35.09300
H  25.44200 4.15500 34.67600
H  26.87400 3.65500 33.99400
H  27.93800 3.51700 36.00000
H  26.75800 2.17300 36.43700
H  19.05500 1.34700 30.41400
H  18.85300 3.15700 30.35300
H  19.54000 2.34100 31.57300
H  18.12800 1.21300 27.96200
H  17.99900 2.18700 26.61100
H  18.20900 2.97700 28.23700
H  25.10800 3.46600 24.97300
H  27.11000 1.54500 24.76800
H  25.39800 0.89600 23.66900
H  24.25900 2.17600 23.19400
H  23.72000 1.02200 24.38700
H  27.41200 3.98400 24.37700
H  28.54700 3.40800 25.56300
H  27.71500 4.96100 27.14400
H  26.08300 4.47700 26.75700
H  26.81900 5.66900 25.81100
H  31.25200 1.58500 28.70400
H  30.48400 0.10300 27.90600
H  31.31800 -0.06500 29.46200
H  28.50800 2.18800 33.64000
H  29.56700 -0.85700 36.66200
H  27.81800 -0.96600 36.55700
H  28.56000 0.41600 37.38300

