158

Mg 17.30200 -2.02700 28.60400
C  16.40100 0.25100 30.98900
C  19.29900 -3.60700 30.91800
C  18.48500 -4.09200 26.09400
C  15.80900 -0.09700 26.17900
N  17.94600 -1.66600 30.65600
C  17.22700 -0.76100 31.49900
C  17.69100 -0.86700 32.94400
C  18.90200 -1.85400 32.81600
C  18.70500 -2.41400 31.37500
C  20.32700 -1.35500 33.10100
C  16.45600 -1.33900 33.78100
C  16.24100 -0.68200 35.11900
H  17.54300 -0.29700 35.85500
N  18.54300 -3.72500 28.59600
C  19.27800 -4.24600 29.65800
C  20.02100 -5.48000 29.23800
C  19.66600 -5.58200 27.81900
C  18.88600 -4.42600 27.46000
C  20.79400 -6.38800 30.10000
C  20.08000 -6.68100 26.80700
O  19.65800 -6.71300 25.68000
C  20.96000 -7.82900 27.41700
N  16.90500 -2.27800 26.46400
C  17.64800 -3.09200 25.65300
C  17.35500 -2.65600 24.20800
C  16.40100 -1.44900 24.26300
C  16.39900 -1.27300 25.73100
C  18.71600 -2.14800 23.49900
C  14.92400 -1.79400 23.64000
C  13.88500 -2.38900 24.63600
N  16.32200 -0.29100 28.53300
C  15.69500 0.29800 27.48700
C  14.97700 1.51700 27.95100
C  15.23500 1.53600 29.30600
C  16.05000 0.38900 29.61200
C  14.21300 2.42700 27.08900
C  14.99500 2.22300 30.59400
O  14.32600 3.20000 30.85400
C  15.80500 1.45800 31.69500
C  16.54100 2.44000 32.61800
O  17.38500 3.17100 32.19600
O  16.01200 2.46200 33.87700
C  16.59100 3.58200 34.64500
H  19.96300 -4.16500 31.58200
H  18.93700 -4.61600 25.24900
H  15.35100 0.48400 25.37600
H  18.01400 0.11200 33.30000
H  18.76300 -2.63700 33.56100
H  20.60100 -2.01400 33.92500
H  20.22900 -0.33000 33.45700
H  21.00500 -1.38500 32.24800
H  16.69800 -2.38800 33.95100
H  15.49300 -1.32400 33.27100
H  15.81900 -1.47300 35.73900
H  15.49100 0.10800 35.08500
H  21.76200 -6.47200 29.60500
H  20.19400 -7.27800 30.29000
H  21.08900 -6.03200 31.08700
H  21.90800 -7.33900 27.63900
H  21.07900 -8.57700 26.63200
H  20.70900 -8.26900 28.38200
H  17.05600 -3.49300 23.57800
H  16.82100 -0.59300 23.73500
H  19.49000 -1.94200 24.23800
H  18.53800 -1.22100 22.95500
H  19.25600 -2.91300 22.94100
H  14.94700 -2.63500 22.94800
H  14.40000 -0.96200 23.16900
H  13.13200 -1.61000 24.75700
H  14.34500 -2.65200 25.58900
H  13.41000 -3.31500 24.31100
H  13.78900 1.86100 26.26000
H  14.80900 3.18200 26.57600
H  13.49000 2.99900 27.67100
H  15.05400 1.06800 32.38200
H  16.78500 4.47900 34.05600
H  17.48300 3.22800 35.16200
H  15.87200 3.75800 35.44400
Mg 6.45200 53.97800 42.69000
C  5.62200 50.69400 42.19600
C  9.31300 53.58600 40.69000
C  6.86400 57.42600 42.53800
C  3.10600 54.55400 43.83400
N  7.39000 52.33100 41.70800
C  6.86100 51.11000 41.54400
C  7.83200 50.19700 40.78500
C  9.16500 51.03800 40.72700
C  8.67000 52.41700 41.14900
C  10.39900 50.49800 41.57500
C  7.32400 49.64900 39.41100
C  6.52900 50.69900 38.50300
H  6.59200 50.54700 36.93400
N  8.01700 55.30000 41.93500
C  9.07000 54.91100 41.15300
C  9.89300 56.09500 40.97300
C  9.30200 57.19200 41.54600
C  7.99300 56.72000 42.08300
C  11.26000 56.03000 40.27200
C  9.92700 58.62300 41.59800
O  11.06200 58.84600 41.19600
C  9.26400 59.79700 42.40900
N  5.16100 55.68800 43.06800
C  5.55800 56.99800 42.96100
C  4.53000 58.01400 43.44000
C  3.25200 57.12600 43.47500
C  3.82500 55.71900 43.48400
C  5.03400 58.75200 44.82700
C  2.16400 57.32500 42.31700
C  0.99500 58.19700 42.64000
N  4.73000 52.92600 43.05300
C  3.53600 53.19400 43.69000
C  2.85200 51.96100 44.01200
C  3.57600 50.98500 43.32400
C  4.74800 51.60900 42.82000
C  1.60000 51.84400 44.80600
C  3.56900 49.52900 43.20600
O  2.88400 48.61000 43.59400
C  5.04600 49.22700 42.42400
C  4.59000 48.63600 41.10600
O  3.79000 49.16100 40.32800
O  5.27300 47.44900 40.82000
C  4.64500 46.61500 39.78900
H  10.19200 53.52200 40.04500
H  7.04400 58.50200 42.51100
H  2.05600 54.45800 44.12100
H  8.01200 49.23300 41.26200
H  9.59700 51.07300 39.72600
H  10.71000 51.29300 42.25200
H  11.18700 50.30200 40.84800
H  10.26900 49.56100 42.11700
H  6.72900 48.77300 39.67000
H  8.19600 49.30800 38.85300
H  6.85700 51.73100 38.62800
H  5.53000 50.73900 38.93700
H  11.42700 56.98500 39.77400
H  11.27000 55.33700 39.43000
H  12.04600 55.77700 40.98400
H  8.58400 60.23300 41.67800
H  10.04900 60.52000 42.63000
H  8.70000 59.42000 43.26300
H  4.43600 58.77400 42.66500
H  2.75500 57.33000 44.42400
H  4.74800 59.79800 44.94100
H  6.12100 58.67400 44.81500
H  4.68300 58.16100 45.67200
H  1.87100 56.29900 42.09600
H  2.70200 57.54600 41.39500
H  1.20400 58.71500 43.57600
H  0.13600 57.52900 42.70000
H  0.82200 58.80800 41.75400
H  1.33100 52.74300 45.36100
H  1.68700 51.09300 45.59100
H  0.78000 51.61000 44.12700
H  5.74000 48.53300 42.89800
H  4.35200 45.76000 40.39800
H  5.37700 46.31000 39.04100
H  3.74500 47.07000 39.37600

