158

Mg 23.77400 -5.75800 45.91600
C  25.88000 -3.38300 44.14400
C  21.16100 -4.78300 43.93400
C  22.08900 -8.60300 46.66500
C  26.72300 -7.05100 47.36300
N  23.53200 -4.20800 44.31000
C  24.53000 -3.36400 43.67800
C  23.92100 -2.60300 42.50000
C  22.40800 -2.83200 42.69700
C  22.34600 -4.02600 43.67000
C  21.70400 -1.60900 43.19800
C  24.46000 -2.97000 41.07500
C  25.13100 -1.79900 40.27700
H  25.94800 -2.19100 38.99100
N  21.84300 -6.46100 45.57200
C  20.91500 -5.83800 44.79600
C  19.60200 -6.51200 45.00600
C  19.92000 -7.81500 45.65200
C  21.34500 -7.65200 45.98500
C  18.35600 -5.96700 44.48600
C  18.86100 -8.86700 46.11200
O  17.66000 -8.65200 45.86700
C  19.20200 -9.97900 46.90700
N  24.29700 -7.48600 46.91400
C  23.43200 -8.52500 47.12400
C  24.07600 -9.62600 47.93900
C  25.39500 -8.95200 48.38000
C  25.52200 -7.75200 47.45200
C  23.13400 -10.20800 49.07300
C  26.64200 -9.95600 48.36900
C  27.16200 -10.19400 46.89900
N  25.84800 -5.26000 45.90900
C  26.92900 -5.88600 46.48700
C  28.07800 -5.16000 46.31700
C  27.76400 -4.19600 45.36500
C  26.34400 -4.29200 45.15300
C  29.39300 -5.43100 46.98000
C  28.24200 -3.11300 44.50300
O  29.32700 -2.71900 44.27400
C  27.08400 -2.57600 43.66800
C  26.98100 -1.11900 43.99400
O  26.35100 -0.61700 44.89300
O  27.67400 -0.38400 43.12400
C  27.79800 1.02200 43.33100
H  20.25100 -4.47500 43.41500
H  21.67000 -9.56700 46.95800
H  27.54600 -7.37300 48.00400
H  24.13000 -1.56800 42.77100
H  21.96100 -3.00800 41.71900
H  21.69100 -1.50700 44.28300
H  20.66800 -1.68000 42.86700
H  22.09300 -0.68300 42.77600
H  23.60900 -3.29500 40.47700
H  25.12600 -3.81300 41.25900
H  25.73900 -1.31900 41.04400
H  24.30500 -1.16400 39.95900
H  18.17900 -6.49900 43.55100
H  18.47300 -4.92400 44.19000
H  17.52500 -6.19700 45.15200
H  18.28000 -10.55700 46.97700
H  19.59900 -9.58300 47.84200
H  19.93900 -10.62600 46.43200
H  24.22700 -10.51100 47.32100
H  25.20600 -8.51500 49.36000
H  22.34500 -9.46700 49.19800
H  23.65200 -10.57200 49.96000
H  22.61600 -11.11200 48.75200
H  26.33600 -10.93800 48.72800
H  27.44500 -9.69600 49.05900
H  26.86000 -11.22600 46.72000
H  28.24900 -10.26300 46.87900
H  26.81300 -9.51900 46.11800
H  29.88700 -6.21600 46.40700
H  29.19800 -5.68300 48.02200
H  29.96800 -4.50600 46.93400
H  27.19500 -2.48100 42.58800
H  28.27800 1.10900 44.30600
H  26.84800 1.55200 43.39300
H  28.56100 1.47200 42.69600
Mg 42.23900 41.51800 27.04700
C  41.19200 43.82300 29.46900
C  43.33400 39.43500 29.55500
C  43.42100 39.48200 24.72700
C  41.76100 44.00400 24.66600
N  42.19900 41.69000 29.31900
C  41.71100 42.66300 30.09500
C  41.89700 42.30300 31.57600
C  42.80400 40.99000 31.53500
C  42.73000 40.58100 30.01800
C  44.32000 40.99600 31.96400
C  40.48100 42.17400 32.17400
C  40.27200 42.95700 33.52300
H  39.70000 42.23400 34.70600
N  43.11400 39.65800 27.12700
C  43.45000 38.94300 28.20200
C  43.87200 37.65100 27.82000
C  44.01200 37.67600 26.39600
C  43.56500 39.03500 26.00300
C  44.29000 36.57400 28.74800
C  44.55700 36.54800 25.36600
O  44.57900 36.71000 24.10700
C  44.93200 35.24900 25.86000
N  42.48600 41.64400 25.06600
C  42.88900 40.66300 24.30000
C  42.70600 40.89600 22.78000
C  42.31900 42.42800 22.71300
C  42.12500 42.72400 24.27100
C  43.84100 40.53400 21.73000
C  41.13800 42.79000 21.73200
C  39.80400 43.04700 22.35500
N  41.53900 43.53000 27.00100
C  41.47700 44.47900 25.98700
C  40.83400 45.65100 26.42100
C  40.70400 45.46200 27.78700
C  41.23600 44.18500 28.10500
C  40.29200 46.76000 25.56700
C  40.31600 46.04300 29.08200
O  39.81000 47.16300 29.29500
C  40.71200 45.07000 30.22700
C  41.65000 45.72600 31.12100
O  42.72600 46.18100 30.81900
O  41.00300 45.82100 32.33500
C  41.58800 46.66900 33.29000
H  43.71100 38.84700 30.39400
H  43.85600 38.87600 23.93000
H  41.67100 44.79600 23.92000
H  42.56400 43.06200 31.98600
H  42.33600 40.19200 32.11200
H  44.39700 42.01400 32.34600
H  45.05100 40.98400 31.15500
H  44.52700 40.16700 32.64000
H  40.35400 41.11600 32.40500
H  39.73000 42.37500 31.41000
H  39.47200 43.67600 33.34200
H  41.14900 43.48500 33.90000
H  45.37500 36.61200 28.84900
H  43.86800 35.63500 28.39200
H  43.85700 36.66000 29.74400
H  45.31400 34.69700 25.00100
H  43.98500 34.75800 26.08300
H  45.54700 35.20400 26.75900
H  41.81100 40.36600 22.45300
H  43.20600 42.94700 22.35100
H  43.38600 40.33300 20.76000
H  44.15900 39.53500 22.02900
H  44.65500 41.24400 21.58500
H  40.92600 42.02600 20.98400
H  41.42300 43.69400 21.19400
H  39.56600 42.48200 23.25600
H  39.05800 42.84800 21.58500
H  39.60600 44.10800 22.50200
H  40.02600 46.43800 24.56100
H  41.03500 47.55600 25.51500
H  39.41100 47.15900 26.06900
H  39.74600 45.07600 30.73300
H  42.00200 46.05800 34.09200
H  40.74000 47.21200 33.70700
H  42.29500 47.42600 32.95200

