158

Mg 0.27800 7.22000 26.36700
C  0.77000 9.66900 28.90700
C  0.42300 4.93500 28.93700
C  -0.04400 5.04700 24.04600
C  0.49900 9.81700 24.06300
N  0.68400 7.29000 28.65600
C  0.61900 8.41100 29.50400
C  0.42000 7.96700 31.08500
C  0.53300 6.43400 31.00200
C  0.50500 6.24300 29.43900
C  1.79000 5.76100 31.69900
C  -0.99400 8.45900 31.65100
C  -1.10900 8.66400 33.12500
H  -0.01300 8.00400 34.04100
N  0.04700 5.27200 26.43800
C  0.21200 4.45300 27.58500
C  -0.05100 3.07900 27.17400
C  -0.15500 3.06400 25.67900
C  0.00000 4.47700 25.33600
C  -0.30600 1.91800 28.09700
C  -0.46400 1.90900 24.77800
O  -0.58600 2.02800 23.56700
C  -0.42200 0.52800 25.32500
N  0.06100 7.40700 24.36800
C  -0.11700 6.36300 23.59800
C  -0.14800 6.75000 22.10900
C  -0.11400 8.28400 22.19000
C  0.09500 8.55400 23.60300
C  0.85300 6.05500 21.14300
C  -1.24600 9.06900 21.55200
C  -2.50500 9.44100 22.32100
N  0.70100 9.32700 26.41900
C  0.67600 10.27200 25.37500
C  1.04400 11.52900 25.89700
C  1.02900 11.36900 27.26000
C  0.89500 9.97600 27.55900
C  0.99500 12.75900 25.05500
C  1.08100 12.07200 28.43700
O  1.34000 13.28400 28.60400
C  0.84500 11.03200 29.62300
C  2.03500 11.10100 30.48700
O  3.20100 10.95200 30.08300
O  1.74000 11.26800 31.84200
C  2.83200 11.28300 32.85300
H  0.49800 4.15800 29.70000
H  0.04000 4.29300 23.26200
H  0.48700 10.68800 23.40500
H  1.22800 8.45100 31.63400
H  -0.33400 5.96400 31.46600
H  2.35500 6.46800 32.30600
H  2.47700 5.28600 30.99800
H  1.50300 4.95300 32.37200
H  -1.76200 7.71200 31.44900
H  -1.31000 9.38600 31.17300
H  -2.00100 8.14000 33.46700
H  -1.20900 9.74300 33.24700
H  -0.38600 2.17100 29.15400
H  0.57700 1.28300 28.01600
H  -1.17400 1.31100 27.83900
H  -1.39700 0.35600 25.78200
H  0.40000 0.43100 26.03400
H  -0.35000 -0.13800 24.46500
H  -1.14500 6.39200 21.85400
H  0.80100 8.72500 21.79300
H  0.29700 5.17500 20.82200
H  1.81800 5.95200 21.64100
H  1.12000 6.65100 20.27000
H  -1.46400 8.54800 20.62000
H  -0.84900 10.03200 21.22900
H  -3.33400 9.22700 21.64600
H  -2.42400 10.51800 22.46200
H  -2.60500 8.90900 23.26700
H  1.19400 13.71200 25.54500
H  -0.03300 12.85900 24.70600
H  1.71400 12.67100 24.24100
H  -0.00600 11.27000 30.26100
H  3.36300 12.23400 32.82300
H  3.48800 10.43700 32.64500
H  2.42200 11.22000 33.86000
Mg 16.29900 -2.28100 27.72700
C  15.27600 -0.24100 30.26700
C  18.45100 -3.98000 29.97600
C  17.63700 -4.07600 25.20400
C  14.39200 -0.44300 25.39700
N  16.95800 -1.96100 29.88100
C  16.22700 -1.20600 30.73700
C  16.62600 -1.52400 32.25900
C  17.77300 -2.55000 32.05600
C  17.64900 -2.90900 30.58600
C  19.18800 -2.16900 32.48700
C  15.47500 -2.03100 33.15500
C  15.51400 -1.43500 34.52100
H  16.73700 -0.68400 35.03300
N  17.71100 -3.90700 27.60200
C  18.46100 -4.45300 28.64500
C  19.36700 -5.41600 28.08500
C  19.03300 -5.54600 26.72400
C  18.12100 -4.45400 26.43500
C  20.31300 -6.16400 29.01900
C  19.55700 -6.53400 25.70400
O  19.31700 -6.43300 24.54000
C  20.40600 -7.72300 26.08200
N  16.16500 -2.13100 25.59400
C  16.64900 -3.15700 24.83700
C  16.20000 -3.00100 23.36000
C  14.89500 -2.09900 23.54200
C  15.13600 -1.56200 24.95500
C  17.36000 -2.44200 22.46400
C  13.59200 -3.02900 23.43200
C  13.05500 -3.23200 21.98700
N  15.22000 -0.58700 27.74900
C  14.45800 0.03900 26.74300
C  13.64900 0.99400 27.37400
C  13.97200 0.96900 28.71800
C  14.88500 -0.02700 28.91900
C  12.64300 1.81800 26.71500
C  13.57600 1.50100 29.99100
O  12.70100 2.33800 30.23500
C  14.35000 0.63100 31.08300
C  15.13400 1.56700 31.90100
O  16.26100 1.95700 31.67600
O  14.28400 1.86800 32.99600
C  14.79100 2.86200 34.01100
H  19.18800 -4.49800 30.59200
H  17.85000 -4.76800 24.38700
H  13.62900 -0.04700 24.72400
H  17.05900 -0.57700 32.58100
H  17.69500 -3.50500 32.57600
H  19.21900 -1.51400 33.35700
H  19.57200 -1.63000 31.62100
H  19.82000 -3.04200 32.65100
H  15.59500 -3.11000 33.25400
H  14.54900 -1.98800 32.58100
H  15.31000 -2.24300 35.22300
H  14.64200 -0.82400 34.75500
H  19.84500 -7.11300 29.28100
H  20.76300 -5.59900 29.83600
H  21.21100 -6.47300 28.48400
H  20.08800 -8.11200 27.05000
H  21.45200 -7.41900 26.06800
H  20.24300 -8.46600 25.30100
H  15.90600 -3.97700 22.97600
H  14.85700 -1.33400 22.76600
H  17.50000 -3.05900 21.57600
H  18.28700 -2.30700 23.02000
H  17.13000 -1.42200 22.15400
H  12.90900 -2.52100 24.11300
H  13.83300 -3.98300 23.90100
H  12.19600 -2.58300 21.81800
H  12.78000 -4.28400 22.05500
H  13.83800 -2.93900 21.28800
H  11.78800 1.57300 27.34500
H  12.34700 1.40200 25.75300
H  12.81900 2.85500 26.42800
H  13.67800 0.14200 31.78900
H  14.96800 3.76300 33.42300
H  15.69600 2.42400 34.43100
H  14.02300 3.06900 34.75600

