158

Mg 24.16400 -5.36000 44.97000
C  26.34300 -2.96300 43.49300
C  21.63300 -4.11700 42.92600
C  22.56400 -8.22400 45.40300
C  27.08400 -6.94800 46.35100
N  24.03700 -3.69200 43.47200
C  25.01700 -2.92100 42.99000
C  24.52900 -2.00200 41.90500
C  22.90600 -2.04800 42.01400
C  22.82900 -3.37600 42.81300
C  22.23300 -0.99000 42.91600
C  25.08300 -2.59800 40.53900
C  25.57400 -1.64700 39.48300
H  25.05000 -1.79500 38.03800
N  22.36700 -6.02600 44.39400
C  21.43100 -5.36800 43.59200
C  20.25700 -6.22300 43.46000
C  20.50000 -7.45500 44.15800
C  21.89400 -7.28300 44.65300
C  19.00200 -5.81600 42.65100
C  19.46700 -8.51000 44.39600
O  18.35600 -8.38000 43.85800
C  19.64000 -9.60200 45.36300
N  24.72000 -7.25900 45.88200
C  23.83500 -8.28600 45.91300
C  24.46800 -9.46100 46.60000
C  25.75200 -8.92300 47.18600
C  25.91100 -7.64800 46.42200
C  23.46100 -10.17000 47.64400
C  27.02600 -9.84600 46.94900
C  27.84600 -10.22900 48.19500
N  26.25100 -4.98300 45.08300
C  27.29400 -5.74300 45.65300
C  28.52000 -4.99600 45.50600
C  28.17500 -3.86900 44.69400
C  26.78500 -3.96400 44.40200
C  29.85000 -5.35100 46.00900
C  28.67100 -2.67800 44.04700
O  29.78500 -2.17600 44.09400
C  27.53500 -2.08200 43.14700
C  27.18900 -0.67700 43.59500
O  26.64600 -0.24600 44.56500
O  27.61500 0.11000 42.59500
C  27.38500 1.57000 42.69500
H  20.78300 -3.68800 42.39200
H  22.01700 -9.13100 45.66500
H  27.97400 -7.42300 46.76900
H  24.92200 -0.99100 42.01200
H  22.41000 -2.04700 41.04400
H  21.45400 -0.43600 42.39200
H  23.01600 -0.30500 43.24100
H  21.73500 -1.43100 43.78000
H  24.34800 -3.27300 40.10000
H  25.97300 -3.09600 40.92300
H  26.65200 -1.78100 39.57700
H  25.38000 -0.62800 39.81900
H  18.78100 -6.53600 41.86300
H  19.10700 -4.85200 42.15400
H  18.04300 -5.76200 43.16700
H  20.11800 -9.25700 46.28100
H  20.20200 -10.36200 44.82000
H  18.65500 -10.00800 45.59200
H  24.77800 -10.24900 45.91400
H  25.79700 -8.67900 48.24700
H  22.51700 -9.64700 47.79600
H  23.80400 -10.40100 48.65200
H  23.21600 -11.13800 47.20500
H  27.70400 -9.48300 46.17700
H  26.69200 -10.77700 46.49100
H  28.81000 -9.72700 48.28600
H  27.95500 -11.31400 48.22000
H  27.23300 -9.96400 49.05600
H  29.83600 -5.33100 47.09900
H  30.63700 -4.70600 45.61600
H  30.08900 -6.31700 45.56500
H  27.70900 -2.05000 42.07200
H  27.90900 2.00100 41.84200
H  27.75400 1.87100 43.67600
H  26.30200 1.67200 42.63000
Mg 30.22400 59.83200 40.01700
C  27.60100 57.94000 38.70700
C  32.44300 57.39400 38.87700
C  32.81700 61.93500 40.75800
C  27.91500 62.34100 40.72700
N  30.02400 57.93600 38.83700
C  28.87500 57.39100 38.46400
C  29.06600 56.06800 37.73700
C  30.54500 55.68100 38.16700
C  31.09300 57.07600 38.69600
C  30.63100 54.60300 39.25200
C  28.97300 56.27300 36.18800
C  28.47900 54.99400 35.30800
H  27.62800 55.32400 34.11400
N  32.36300 59.65400 39.95800
C  33.06400 58.55000 39.44300
C  34.47000 58.80500 39.61000
C  34.59200 60.07400 40.15700
C  33.20800 60.66400 40.28300
C  35.57500 57.88000 39.10100
C  35.90700 60.66400 40.58100
O  36.88300 59.93200 40.71300
C  36.10100 62.16200 40.80200
N  30.37600 61.83100 40.50100
C  31.50300 62.43300 40.90600
C  31.22500 63.87700 41.35900
C  29.64800 64.07600 41.35900
C  29.21000 62.63800 40.85800
C  31.91000 64.21500 42.65100
C  29.14700 65.19600 40.44100
C  28.05700 66.08400 41.09900
N  28.14900 60.11800 39.89500
C  27.34100 61.17200 40.20100
C  25.96000 60.80000 39.87000
C  26.03900 59.48900 39.38000
C  27.40000 59.18400 39.29800
C  24.78100 61.64400 40.27500
C  25.27200 58.34400 38.86000
O  24.03700 58.27200 38.71500
C  26.28200 57.35200 38.34600
C  25.94900 55.99900 38.97300
O  26.09400 55.67700 40.12100
O  25.56200 55.14200 37.98200
C  25.26700 53.78700 38.36100
H  33.02400 56.51100 38.60100
H  33.53900 62.71400 41.01000
H  27.22200 63.11100 41.07100
H  28.34600 55.27400 37.93400
H  31.11600 55.22400 37.35900
H  31.17000 53.74000 38.86100
H  29.61700 54.32000 39.53500
H  31.22500 54.85200 40.13100
H  29.99400 56.53200 35.90800
H  28.43800 57.19600 35.96700
H  27.93100 54.23700 35.86900
H  29.33600 54.44500 34.91800
H  36.09200 57.42900 39.94800
H  36.38800 58.35200 38.54900
H  35.18000 57.09700 38.45300
H  35.67000 62.79200 40.02400
H  37.18500 62.25600 40.85800
H  35.62700 62.40500 41.75300
H  31.74800 64.44300 40.58800
H  29.40200 64.17800 42.41600
H  32.93600 64.51900 42.44200
H  31.92700 63.36000 43.32600
H  31.42200 65.02200 43.19700
H  28.72300 64.80700 39.51500
H  30.06800 65.76800 40.32700
H  27.89000 66.00300 42.17300
H  27.18500 65.84800 40.48900
H  28.29700 67.13900 40.96800
H  23.93200 60.96800 40.37100
H  24.61400 62.38200 39.49200
H  25.03100 62.04800 41.25600
H  26.27900 57.33500 37.25600
H  24.20900 53.73500 38.62000
H  25.94000 53.44300 39.14600
H  25.34500 53.13000 37.49500

