158

Mg 36.18500 1.13500 29.23900
C  33.96000 2.31300 31.84100
C  38.72300 1.51100 31.56400
C  38.12400 0.54300 26.80900
C  33.33200 1.54000 27.02900
N  36.35400 1.86600 31.48400
C  35.27100 2.10600 32.31100
C  35.68500 2.13700 33.82600
C  37.23700 2.16200 33.57300
C  37.48600 1.75800 32.16000
C  37.92300 3.42800 34.21700
C  35.26500 0.87700 34.61100
C  34.71400 1.08200 36.04800
H  35.03600 2.29700 36.92700
N  38.17500 0.83200 29.16300
C  39.05100 1.00500 30.21800
C  40.40300 0.61200 29.79500
C  40.30000 0.37300 28.34000
C  38.83500 0.55500 28.04000
C  41.57500 0.38700 30.70700
C  41.35400 0.08800 27.25200
O  41.14000 0.09600 26.05400
C  42.73300 -0.13100 27.65800
N  35.74600 1.19300 27.13000
C  36.79300 0.87700 26.41200
C  36.39000 0.56400 24.97600
C  34.84100 0.64500 25.01600
C  34.55000 1.17200 26.42700
C  37.02000 1.51200 23.88000
C  33.96800 -0.69200 24.71800
C  32.85500 -0.52400 23.62800
N  34.12200 1.87300 29.32100
C  33.08900 1.89100 28.40900
C  31.84400 2.47000 28.97600
C  32.08400 2.58200 30.34900
C  33.47200 2.19200 30.54300
C  30.63100 2.79800 28.17100
C  31.58200 3.00400 31.55900
O  30.54500 3.52800 31.78400
C  32.68800 2.66200 32.64500
C  32.77200 3.90500 33.48400
O  33.59100 4.73100 33.27000
O  31.89300 3.84800 34.52400
C  32.25600 4.83200 35.55000
H  39.56700 1.46500 32.25600
H  38.67800 0.11900 25.96900
H  32.51500 1.52800 26.30400
H  35.27000 3.04700 34.25800
H  37.68500 1.39500 34.20500
H  38.51500 3.19700 35.10300
H  37.10900 4.04900 34.59200
H  38.52000 3.97000 33.48400
H  35.99500 0.06800 34.65100
H  34.36600 0.58100 34.07100
H  35.10700 0.21400 36.57800
H  33.62800 1.01700 35.98400
H  42.17500 1.29200 30.80500
H  42.18600 -0.47500 30.43900
H  41.21300 0.14900 31.70700
H  43.52300 -0.21500 26.91200
H  42.81100 -1.10700 28.13800
H  43.08200 0.70700 28.26200
H  36.68000 -0.45700 24.73000
H  34.43900 1.42200 24.36600
H  38.09100 1.66900 24.01400
H  36.55000 2.49400 23.94800
H  37.01400 1.03000 22.90200
H  33.51800 -1.05200 25.64400
H  34.60500 -1.49700 24.35200
H  31.90500 -0.93300 23.97300
H  33.11800 -1.06600 22.71900
H  32.72600 0.54400 23.45000
H  30.23800 3.77800 28.44200
H  29.90200 2.00200 28.32700
H  30.95900 2.98000 27.14800
H  32.37900 1.70200 33.05800
H  31.74200 5.78800 35.45500
H  33.31000 5.05000 35.72500
H  31.97900 4.18100 36.37900
Mg -12.01000 38.44500 41.94800
C  -10.09900 35.57600 40.91700
C  -9.60600 40.48700 40.46600
C  -13.98100 41.07800 42.47400
C  -14.46500 36.15800 43.06400
N  -10.07900 38.01600 40.78500
C  -9.45400 36.84700 40.52300
C  -8.10500 37.01600 39.69200
C  -7.91800 38.55500 39.88500
C  -9.32000 39.09100 40.37500
C  -6.75300 38.89400 40.86000
C  -8.37400 36.51300 38.24500
C  -7.31500 35.61000 37.65200
H  -6.35300 36.31000 36.72100
N  -11.89300 40.53500 41.51900
C  -10.77800 41.18300 40.93800
C  -11.02400 42.56600 40.95900
C  -12.32600 42.81600 41.46100
C  -12.82500 41.47100 41.89200
C  -10.04400 43.47000 40.25100
C  -12.89400 44.13600 41.55200
O  -12.38800 45.16300 41.20200
C  -14.34900 44.31100 42.15600
N  -13.92000 38.58200 42.55700
C  -14.54000 39.82500 42.78600
C  -15.96100 39.69600 43.25900
C  -16.18300 38.09300 43.11200
C  -14.75700 37.57700 42.97000
C  -16.19400 40.12400 44.78700
C  -16.98800 37.80400 41.82000
C  -18.39800 37.43800 41.97800
N  -12.27600 36.19500 42.09500
C  -13.26000 35.46100 42.67000
C  -12.92100 34.05700 42.65700
C  -11.63700 34.02000 41.97200
C  -11.40100 35.38700 41.61600
C  -13.66100 32.89000 43.22500
C  -10.58600 33.17000 41.47100
O  -10.35300 31.96400 41.42900
C  -9.56700 34.18100 40.85200
C  -8.28900 33.90500 41.55200
O  -7.82100 34.51600 42.48600
O  -7.55900 33.24600 40.65300
C  -6.07400 33.20200 40.96200
H  -8.83900 40.96800 39.85600
H  -14.54900 41.92000 42.87600
H  -15.29900 35.52100 43.36700
H  -7.34500 36.41300 40.18700
H  -7.60000 39.04600 38.96600
H  -7.03400 39.72800 41.50300
H  -5.87800 39.26900 40.33000
H  -6.47000 38.06000 41.50200
H  -8.41800 37.40400 37.61900
H  -9.33800 36.01400 38.34300
H  -8.00100 34.89200 37.20200
H  -6.66500 35.06200 38.33500
H  -9.30800 43.84400 40.96200
H  -10.63300 44.33500 39.94600
H  -9.52600 43.03100 39.39800
H  -15.03700 43.60600 41.68800
H  -14.56700 45.36200 41.96700
H  -14.17000 44.07600 43.20500
H  -16.68000 40.28300 42.68800
H  -16.64500 37.62400 43.98100
H  -16.67600 41.09700 44.69200
H  -15.23700 40.28400 45.28300
H  -16.84100 39.41400 45.30300
H  -16.46800 37.08700 41.18500
H  -16.91500 38.76200 41.30600
H  -18.64100 36.68900 41.22400
H  -19.10000 38.26400 41.86800
H  -18.61600 36.89100 42.89600
H  -14.13900 32.41300 42.36900
H  -14.33300 33.27500 43.99200
H  -12.98100 32.15900 43.66200
H  -9.59700 33.78200 39.83800
H  -5.77400 34.05700 41.56900
H  -5.54700 33.07200 40.01700
H  -5.75000 32.29800 41.47700

