158

Mg -2.22800 17.41000 26.42900
C  -2.27200 15.12800 29.09600
C  -2.76600 19.93300 28.70600
C  -2.50900 19.64800 23.85400
C  -1.94100 14.89500 24.18800
N  -2.68900 17.59300 28.62300
C  -2.35100 16.51000 29.49300
C  -2.38600 16.94200 30.97800
C  -2.74300 18.46200 30.84600
C  -2.69200 18.75400 29.31900
C  -4.08800 18.84900 31.50800
C  -1.14300 16.56800 31.80300
C  -1.00000 17.28500 33.18100
H  -0.92100 16.37700 34.48300
N  -2.61200 19.44500 26.34100
C  -2.79600 20.35800 27.39700
C  -2.92400 21.68400 26.89500
C  -2.96500 21.63200 25.46200
C  -2.70600 20.16800 25.15800
C  -3.15300 22.87400 27.68400
C  -3.20400 22.66300 24.38800
O  -3.10800 22.44800 23.15100
C  -3.42300 24.11900 24.71300
N  -2.16600 17.34500 24.30900
C  -2.27700 18.31600 23.42300
C  -2.27400 17.90500 21.94400
C  -2.02000 16.43100 22.10000
C  -1.96400 16.21300 23.60000
C  -3.55500 18.25500 21.17000
C  -0.86200 15.77600 21.33300
C  -0.96200 14.38500 20.81400
N  -2.23300 15.39500 26.51100
C  -1.93200 14.48700 25.52400
C  -1.93700 13.13600 26.06400
C  -1.98200 13.39200 27.44800
C  -2.20000 14.75200 27.69100
C  -1.92700 11.88300 25.27500
C  -2.09100 12.71700 28.68000
O  -2.11100 11.48600 28.91900
C  -2.22700 13.78500 29.85000
C  -1.06600 13.49100 30.77700
O  0.11900 13.82300 30.69200
O  -1.62100 12.76600 31.81100
C  -0.75900 12.39900 32.98300
H  -2.57500 20.70200 29.45800
H  -2.70500 20.28300 22.98800
H  -1.73200 14.14500 23.42200
H  -3.22300 16.40800 31.42700
H  -1.93600 18.98500 31.35900
H  -4.06600 18.82400 32.59700
H  -4.99500 18.38700 31.11600
H  -4.29000 19.90200 31.30900
H  -0.25200 16.70700 31.19100
H  -1.14200 15.49500 31.99200
H  -1.82400 17.98800 33.30300
H  -0.08200 17.86800 33.25200
H  -3.10400 22.70000 28.75900
H  -4.12700 23.30400 27.44900
H  -2.35700 23.58300 27.45900
H  -3.81600 24.72100 23.89300
H  -2.49000 24.62700 24.95600
H  -4.04900 24.25700 25.59500
H  -1.39800 18.37000 21.49300
H  -2.93800 15.91900 21.81200
H  -4.14100 17.42300 20.77800
H  -3.25400 18.78000 20.26300
H  -4.20800 18.79300 21.85700
H  0.04500 15.86600 21.93100
H  -0.67900 16.39700 20.45600
H  -0.30100 13.69600 21.33900
H  -0.84900 14.38200 19.72900
H  -1.99900 14.06100 20.90700
H  -1.60100 11.96900 24.23800
H  -2.93600 11.47500 25.22700
H  -1.33000 11.09000 25.72400
H  -3.19100 13.55300 30.30300
H  -0.38300 11.38100 32.87500
H  -1.34900 12.43400 33.89900
H  0.07900 13.06600 33.18100
Mg 16.25000 52.38100 26.67900
C  17.79600 50.88200 29.46000
C  14.10600 53.86000 28.92100
C  14.78500 53.56800 23.95200
C  18.54900 50.67300 24.64500
N  16.03400 52.46600 28.90000
C  16.80400 51.78600 29.82600
C  16.38200 52.07800 31.25800
C  14.95500 52.71300 30.99700
C  15.01200 53.04500 29.52000
C  13.69300 51.88400 31.49300
C  17.36000 53.07100 32.01000
C  17.61100 52.76000 33.52700
H  16.63100 51.89800 34.31100
N  14.68500 53.53300 26.45800
C  13.98900 54.15800 27.48600
C  13.00300 55.00500 26.88100
C  13.20900 54.96700 25.47200
C  14.22900 53.98900 25.23400
C  11.88700 55.74000 27.66000
C  12.50400 55.76100 24.35200
O  12.68400 55.66300 23.18200
C  11.30500 56.64800 24.79700
N  16.66900 52.16400 24.51800
C  15.78400 52.71200 23.60700
C  16.22900 52.42500 22.21700
C  17.57500 51.62100 22.39900
C  17.63200 51.42900 23.94700
C  15.12000 51.71600 21.42800
C  18.89600 52.37600 21.91600
C  19.76600 51.52000 20.91600
N  17.79700 51.03300 26.92300
C  18.72600 50.56200 26.04000
C  19.74200 49.72000 26.74600
C  19.51700 49.97700 28.08500
C  18.28900 50.62700 28.17200
C  20.81400 48.94200 26.07000
C  19.96500 49.63700 29.39400
O  20.95000 49.04500 29.75800
C  18.78300 50.16000 30.38500
C  18.25200 48.90800 31.04200
O  17.62400 48.01500 30.52500
O  18.59400 48.78100 32.41300
C  18.36700 47.51300 33.05200
H  13.41600 54.30400 29.64200
H  14.36300 53.95000 23.02100
H  19.28800 50.15900 24.02600
H  16.24500 51.09600 31.70900
H  14.79200 53.71100 31.40400
H  13.11300 51.60300 30.61400
H  13.00100 52.55300 32.00400
H  13.98800 51.10300 32.19400
H  17.04400 54.11300 31.96400
H  18.37300 53.03400 31.60900
H  17.76800 53.64200 34.14700
H  18.55800 52.22300 33.59100
H  11.86600 56.82700 27.57500
H  11.76600 55.40200 28.68900
H  10.94300 55.39100 27.24200
H  10.38900 56.14200 25.10400
H  11.05900 57.08300 23.82800
H  11.75600 57.36800 25.48000
H  16.42300 53.40900 21.79000
H  17.43600 50.62700 21.97400
H  14.20500 51.75000 22.01900
H  15.31900 50.65600 21.26700
H  15.07500 52.32000 20.52200
H  19.54600 52.61800 22.75600
H  18.72400 53.30900 21.37900
H  19.17600 50.68800 20.53300
H  20.59900 51.20200 21.54300
H  20.21300 52.12000 20.12300
H  20.55500 48.19000 25.32500
H  21.34500 48.43000 26.87300
H  21.47600 49.68600 25.62800
H  19.20700 50.75000 31.19800
H  18.99800 47.32600 33.92200
H  18.60400 46.69900 32.36700
H  17.34500 47.36200 33.40100

