158

Mg 24.39000 -7.78400 46.68300
C  27.06700 -5.63700 45.44800
C  22.50700 -6.45900 44.09500
C  22.13600 -10.12100 47.46800
C  26.86300 -9.34600 48.73600
N  24.78400 -6.36400 44.99500
C  25.82200 -5.53500 44.74200
C  25.66100 -4.56100 43.60700
C  24.11300 -4.75100 43.24500
C  23.77100 -5.90600 44.19900
C  23.26100 -3.43700 43.44900
C  26.56900 -4.87200 42.33200
C  27.46200 -3.72200 42.02500
H  27.43000 -3.06100 40.71500
N  22.52100 -8.05300 46.03400
C  21.95500 -7.48200 44.95700
C  20.61000 -8.01600 44.77800
C  20.39200 -9.06300 45.76800
C  21.76600 -9.16500 46.48300
C  19.57600 -7.39700 43.84800
C  19.13900 -9.85200 45.95600
O  18.20300 -9.68400 45.17000
C  18.89300 -10.93200 46.94600
N  24.48500 -9.51900 47.78500
C  23.42300 -10.28400 48.07000
C  23.74000 -11.48000 48.97600
C  25.24000 -11.28100 49.28900
C  25.57400 -9.99300 48.54900
C  22.84600 -11.64900 50.17900
C  26.10200 -12.43700 48.87300
C  27.22800 -12.85600 49.89300
N  26.49600 -7.47700 47.16500
C  27.31000 -8.17100 48.01900
C  28.68000 -7.51900 48.06400
C  28.54800 -6.48600 47.07900
C  27.28900 -6.65200 46.51000
C  29.76400 -7.93000 48.94900
C  29.24200 -5.33100 46.45300
O  30.30800 -4.81200 46.71000
C  28.29800 -4.79400 45.33600
C  28.07300 -3.43300 45.53600
O  27.31500 -3.02300 46.37800
O  28.83000 -2.68300 44.65100
C  28.74200 -1.25200 44.87600
H  21.86900 -6.03000 43.32000
H  21.38200 -10.87400 47.70800
H  27.64300 -9.87000 49.29000
H  25.94600 -3.55300 43.90700
H  23.93400 -5.04600 42.21100
H  22.59100 -3.16500 42.63400
H  24.00500 -2.64000 43.46300
H  22.67600 -3.41500 44.36800
H  25.97900 -5.11400 41.44700
H  27.14900 -5.76000 42.58500
H  28.46600 -4.09600 42.22600
H  27.32900 -2.85700 42.67400
H  18.55700 -7.35500 44.23100
H  19.71300 -7.96700 42.92900
H  19.83700 -6.35800 43.64600
H  19.44000 -11.83000 46.65700
H  17.86300 -11.26500 46.81300
H  19.09800 -10.44100 47.89700
H  23.48000 -12.39200 48.43900
H  25.22000 -11.07000 50.35800
H  22.35200 -12.60600 50.01000
H  22.14300 -10.81700 50.21600
H  23.40700 -11.68000 51.11300
H  26.53300 -12.31600 47.87900
H  25.49800 -13.33500 48.74300
H  26.97000 -13.87700 50.17500
H  27.20800 -12.27200 50.81300
H  28.19200 -12.95300 49.39400
H  30.47400 -7.14000 49.19300
H  30.27200 -8.70900 48.37900
H  29.40600 -8.32800 49.89800
H  28.76400 -4.96700 44.36600
H  27.67600 -1.02300 44.86600
H  29.21200 -0.67600 44.07900
H  29.10400 -1.00100 45.87300
Mg 41.12500 8.81600 28.46700
C  42.77700 9.87700 31.35500
C  38.94900 7.01000 30.50900
C  39.52300 7.73000 25.80400
C  43.82200 9.94300 26.61400
N  40.87200 8.55400 30.74800
C  41.79800 8.92700 31.69600
C  41.32500 8.55300 33.11000
C  40.18400 7.49100 32.72800
C  40.01600 7.61300 31.25000
C  40.63500 6.07200 33.20400
C  40.94700 9.69300 34.09200
C  40.13000 9.42300 35.35800
H  40.76700 9.74600 36.73000
N  39.37100 7.64100 28.19600
C  38.58700 7.08800 29.15300
C  37.39800 6.56400 28.51200
C  37.50700 6.77900 27.12300
C  38.85800 7.40100 26.98800
C  36.19200 6.01400 29.32800
C  36.45600 6.60000 26.04400
O  36.74400 6.77200 24.85800
C  35.17400 6.12300 26.41000
N  41.60300 8.75800 26.49100
C  40.78400 8.22100 25.57900
C  41.45600 8.41900 24.26400
C  42.84500 9.10100 24.44000
C  42.75800 9.35100 25.93700
C  41.43900 7.18100 23.24900
C  43.17000 10.31900 23.60600
C  42.65200 11.63800 24.16200
N  42.86800 9.83500 28.80700
C  43.88900 10.21800 27.93800
C  44.91100 10.85800 28.62800
C  44.50300 10.88200 29.99300
C  43.27400 10.18100 29.99800
C  46.17800 11.40100 28.14400
C  44.85900 11.22100 31.34100
O  45.76600 11.93800 31.74600
C  43.75300 10.58900 32.26400
C  44.44700 9.64600 33.21200
O  44.92000 8.54700 32.92500
O  44.60600 10.25100 34.40900
C  45.28000 9.43000 35.43600
H  38.12900 6.63800 31.12700
H  39.10400 7.42000 24.84400
H  44.70500 10.28500 26.06900
H  42.19800 7.98300 33.42900
H  39.23700 7.84500 33.13600
H  40.21100 5.95200 34.20000
H  41.68900 6.10900 33.48000
H  40.52800 5.34800 32.39600
H  40.39800 10.43200 33.50900
H  41.85100 10.20300 34.42500
H  39.76700 8.39600 35.40200
H  39.27400 10.09500 35.29200
H  36.35100 5.90600 30.40100
H  36.01200 5.02600 28.90400
H  35.25600 6.56200 29.22000
H  35.21200 5.07100 26.69100
H  34.48600 6.16800 25.56600
H  34.69300 6.79800 27.11800
H  40.80400 9.13200 23.76000
H  43.60100 8.32600 24.31600
H  40.91700 6.30600 23.63700
H  42.43900 7.00600 22.85000
H  40.96300 7.54200 22.33700
H  42.66100 10.20900 22.64800
H  44.24600 10.22900 23.45700
H  42.25800 12.21200 23.32400
H  43.41700 12.32600 24.52100
H  41.79800 11.56000 24.83500
H  46.11800 12.47900 27.99900
H  46.67100 10.80400 27.37700
H  46.80500 11.41300 29.03600
H  43.28100 11.41600 32.79400
H  44.66200 9.59200 36.31900
H  46.31500 9.68800 35.65800
H  45.28200 8.36000 35.22800

