158

Mg 40.40500 10.24000 30.15900
C  41.98300 11.74300 32.73100
C  38.05500 9.02300 32.34900
C  38.71100 8.86900 27.60500
C  42.89800 11.19100 27.94100
N  39.95000 10.48300 32.34000
C  40.86500 11.01400 33.22300
C  40.43400 10.84400 34.68200
C  39.23100 9.83100 34.52600
C  38.99200 9.82300 32.98000
C  39.62700 8.35800 35.06200
C  40.03300 12.08800 35.38300
C  40.70400 12.26100 36.75000
H  40.11900 13.24200 37.75400
N  38.62500 9.15500 30.01800
C  37.80800 8.67400 30.97500
C  36.73300 7.92400 30.41800
C  36.81900 8.01000 29.03200
C  38.07300 8.78000 28.78200
C  35.54800 7.27000 31.33300
C  35.90200 7.41600 27.95600
O  35.97400 7.57000 26.72200
C  34.62700 6.67300 28.46000
N  40.74400 10.12400 28.00300
C  39.91100 9.47400 27.19900
C  40.52100 9.40100 25.74300
C  41.75000 10.36800 25.86100
C  41.79400 10.59500 27.35300
C  40.95400 7.96100 25.28600
C  41.58100 11.64500 25.00000
C  40.75300 12.82300 25.54700
N  42.12500 11.19900 30.25500
C  43.03700 11.57300 29.29300
C  44.03200 12.44500 29.89200
C  43.58600 12.48200 31.25100
C  42.42900 11.80100 31.40200
C  45.22100 13.06800 29.24200
C  44.06500 12.96000 32.52200
O  45.06800 13.57000 32.84800
C  42.99200 12.56400 33.53600
C  43.64900 11.77100 34.61900
O  43.72600 10.57000 34.57900
O  44.03400 12.50100 35.70800
C  44.71300 11.80900 36.90000
H  37.44300 8.44300 33.04300
H  38.31200 8.29700 26.76500
H  43.61100 11.59500 27.21800
H  41.32000 10.36500 35.09800
H  38.41400 10.14500 35.17600
H  38.78300 7.88300 35.56200
H  40.48300 8.51200 35.71900
H  39.94100 7.61700 34.32700
H  38.94800 12.17200 35.44700
H  40.42500 12.94400 34.83300
H  41.69000 12.60800 36.43900
H  40.74800 11.31700 37.29200
H  34.58800 7.71400 31.07100
H  35.77700 7.49700 32.37500
H  35.55500 6.18600 31.21800
H  35.05800 5.78200 28.91900
H  33.96300 6.46900 27.62100
H  33.95400 7.26600 29.07900
H  39.77800 9.74000 25.02100
H  42.72000 10.04500 25.48500
H  40.66500 7.13700 25.93900
H  42.04100 7.92100 25.21800
H  40.52400 7.77100 24.30300
H  41.04600 11.30400 24.11400
H  42.53700 12.09200 24.73000
H  40.19600 13.30000 24.74100
H  41.55200 13.48000 25.89200
H  40.07900 12.57500 26.36700
H  44.89700 13.27700 28.22200
H  46.06200 12.37400 29.26000
H  45.50700 13.86300 29.93000
H  42.54600 13.48100 33.92100
H  45.30700 10.92900 36.65700
H  43.84100 11.53400 37.49400
H  45.35700 12.50200 37.44200
Mg 46.71700 26.43500 28.98100
C  47.48400 28.57700 31.70600
C  45.55700 24.05700 31.27400
C  46.83200 24.06700 26.58600
C  48.33700 28.70700 26.80500
N  46.55900 26.34800 31.29400
C  46.81900 27.39700 32.13700
C  46.45100 27.00700 33.63900
C  46.02300 25.51000 33.48800
C  45.99000 25.30600 31.92000
C  46.83100 24.35800 34.26800
C  45.34300 27.97600 34.33500
C  45.79100 28.42500 35.75600
H  46.16400 27.40600 36.83900
N  46.11300 24.42600 28.91500
C  45.58300 23.63100 29.90800
C  45.15600 22.29400 29.34800
C  45.53300 22.28300 27.99400
C  46.16600 23.60200 27.76900
C  44.44000 21.28200 30.28400
C  45.45000 21.12400 26.96600
O  45.86500 21.21800 25.85200
C  44.81200 19.78800 27.39100
N  47.60000 26.35500 27.03300
C  47.43300 25.25200 26.24900
C  47.87200 25.51100 24.73600
C  48.16800 26.99800 24.88800
C  47.98500 27.39700 26.34300
C  49.10100 24.67600 24.35800
C  47.31500 28.02600 24.02900
C  48.14200 28.99400 23.19900
N  47.70100 28.33300 29.17400
C  48.30600 29.11100 28.18800
C  48.88200 30.29400 28.83200
C  48.53300 30.09400 30.20400
C  47.86200 28.86300 30.34800
C  49.56900 31.39200 28.15100
C  48.51000 30.71400 31.56100
O  48.88700 31.83000 31.94700
C  47.98000 29.64400 32.62000
C  49.07300 29.07900 33.48900
O  50.05300 28.45400 33.01500
O  48.95900 29.40000 34.78600
C  50.07800 29.17600 35.74100
H  45.18900 23.44100 32.09700
H  46.92100 23.28400 25.83000
H  48.75000 29.41300 26.08100
H  47.38200 27.07000 34.20300
H  44.98800 25.36800 33.79900
H  47.13400 23.57700 33.57000
H  46.10100 23.88400 34.92500
H  47.75000 24.63600 34.78300
H  44.37200 27.50000 34.47500
H  45.17200 28.85300 33.71100
H  45.11700 29.18500 36.14900
H  46.71500 29.00200 35.78700
H  43.45300 21.33900 29.82400
H  44.29400 21.63000 31.30700
H  44.91100 20.29900 30.30400
H  45.38100 19.36200 28.21700
H  44.93600 19.09000 26.56300
H  43.78000 19.98700 27.67800
H  46.97000 25.27600 24.17000
H  49.22400 27.20800 24.72200
H  49.72600 25.05100 23.54800
H  48.72200 23.70400 24.04000
H  49.73500 24.58100 25.23900
H  46.59800 28.56700 24.64700
H  46.77300 27.45900 23.27300
H  47.64700 29.12400 22.23700
H  49.20900 28.78200 23.13300
H  48.11600 29.93500 23.74800
H  49.35100 31.52000 27.09100
H  50.60900 31.10200 28.30000
H  49.37500 32.29800 28.72400
H  47.19000 30.09100 33.22400
H  50.27000 30.15000 36.19100
H  50.99300 28.72000 35.36400
H  49.76900 28.51700 36.55200

