158

Mg 43.22400 4.02900 47.22800
C  41.05200 6.68000 47.25900
C  40.40900 1.85500 47.29900
C  45.30300 1.40900 46.95300
C  45.88800 6.19300 46.91000
N  41.01500 4.27500 47.43900
C  40.40200 5.47000 47.33900
C  38.82700 5.25800 47.24600
C  38.61700 3.70200 47.34500
C  40.09300 3.22000 47.53000
C  37.65400 3.22100 48.47700
C  38.08900 5.84700 46.01500
C  38.75900 5.49800 44.62400
H  38.30900 6.30400 43.28500
N  42.89900 1.97100 47.13300
C  41.69100 1.26600 47.11800
C  41.97800 -0.07700 46.90000
C  43.39700 -0.26800 46.80200
C  43.92300 1.09400 46.98700
C  40.85800 -1.12000 46.73600
C  44.12000 -1.58500 46.56900
O  43.52900 -2.64000 46.38400
C  45.53800 -1.70200 46.48500
N  45.29600 3.76000 46.75900
C  45.95000 2.62500 46.86800
C  47.45800 2.79400 46.64600
C  47.61500 4.35700 46.79100
C  46.16400 4.82000 46.73900
C  48.34700 1.82600 47.44700
C  48.51400 5.08300 45.74900
C  49.64600 4.20600 45.15100
N  43.53400 6.10600 47.01700
C  44.62300 6.88800 46.97200
C  44.31100 8.34300 46.91100
C  42.92700 8.25700 47.06600
C  42.49900 6.87500 47.17600
C  45.21400 9.57500 46.90900
C  41.75600 9.10800 47.29400
O  41.63200 10.33100 47.34600
C  40.47500 8.11800 47.28000
C  39.61700 8.51100 48.44900
O  39.77600 8.03200 49.56600
O  38.51200 9.23100 48.09000
C  37.40300 9.32600 49.09000
H  39.48800 1.26900 47.24900
H  46.07700 0.66000 46.76900
H  46.80400 6.78300 46.83200
H  38.30300 5.63300 48.12500
H  38.27200 3.22700 46.42600
H  38.03600 2.38000 49.05500
H  36.72900 2.93800 47.97500
H  37.35100 3.98200 49.19700
H  37.97400 6.93000 46.06100
H  37.13100 5.32800 46.04500
H  38.61700 4.42600 44.48400
H  39.83100 5.61300 44.78000
H  40.67200 -1.23100 45.66800
H  39.97800 -0.72800 47.24500
H  41.12600 -2.05000 47.23800
H  46.04500 -1.70100 47.45000
H  45.94600 -1.00500 45.75300
H  45.75000 -2.67000 46.03200
H  47.64400 2.59700 45.59000
H  47.97500 4.72300 47.75200
H  48.84300 1.13200 46.76700
H  47.78100 1.23000 48.16200
H  49.06000 2.43300 48.00500
H  49.07700 5.87500 46.24300
H  47.96300 5.44300 44.88000
H  50.53200 4.84100 45.13100
H  49.29100 3.82300 44.19500
H  49.93000 3.43500 45.86700
H  45.32000 10.03200 47.89300
H  44.74800 10.33300 46.28100
H  46.13500 9.21600 46.45000
H  40.04900 8.18900 46.27900
H  37.47300 10.30100 49.57200
H  37.49800 8.62100 49.91600
H  36.43300 9.26800 48.59700
Mg 30.46600 57.80400 39.41300
C  27.63600 55.81900 38.73500
C  32.30100 55.08700 38.11900
C  33.04300 59.78200 39.58200
C  28.28300 60.45400 40.39400
N  29.99000 55.71900 38.59900
C  28.79500 55.14500 38.45000
C  28.75400 53.70500 37.90400
C  30.29600 53.45400 38.09100
C  30.91500 54.82100 38.24500
C  30.61700 52.47500 39.23400
C  28.29000 53.60300 36.49100
C  28.58300 54.77300 35.60400
H  27.64400 55.03100 34.36300
N  32.38900 57.42300 39.06400
C  32.95900 56.34600 38.41700
C  34.40100 56.62400 38.22700
C  34.59500 57.90600 38.59500
C  33.34400 58.38600 39.18100
C  35.35900 55.60500 37.70500
C  35.92200 58.70600 38.48100
O  36.87300 58.17900 37.96900
C  36.15100 60.09400 38.84300
N  30.60200 59.85200 39.84900
C  31.80500 60.40500 39.97200
C  31.76200 61.84000 40.32700
C  30.24700 61.99200 40.83700
C  29.69600 60.67000 40.38900
C  32.75700 62.40300 41.36000
C  29.45300 63.17700 40.20100
C  28.68100 63.99900 41.23800
N  28.37800 58.15400 39.57700
C  27.66800 59.25300 39.94700
C  26.27600 59.00400 39.78100
C  26.17600 57.70300 39.32700
C  27.45600 57.20700 39.23100
C  25.18500 59.96200 40.01500
C  25.30300 56.67000 38.77400
O  24.05000 56.67800 38.66100
C  26.16800 55.42100 38.48800
C  25.85900 54.31800 39.47500
O  26.48200 54.10500 40.48800
O  24.69100 53.66100 39.05600
C  24.05800 52.43800 39.71000
H  33.01200 54.30700 37.83800
H  33.82600 60.54200 39.53600
H  27.66700 61.26600 40.78600
H  28.03400 53.18600 38.53700
H  30.69100 52.96900 37.19800
H  31.65300 52.13800 39.18800
H  30.10600 51.52300 39.09300
H  30.27200 52.83600 40.20300
H  27.25400 53.29900 36.34100
H  28.87500 52.83500 35.98500
H  29.56300 54.47500 35.23000
H  28.69500 55.74600 36.08200
H  35.74400 55.89700 36.72900
H  34.96900 54.63000 37.41200
H  36.13400 55.40500 38.44500
H  35.76000 60.18400 39.85700
H  35.67500 60.74700 38.11100
H  37.20900 60.32500 38.96600
H  32.02400 62.32300 39.38600
H  30.27200 61.96800 41.92700
H  32.79800 61.60700 42.10300
H  32.27800 63.24300 41.86400
H  33.70300 62.83100 41.02900
H  28.82900 62.68500 39.45500
H  30.26100 63.78300 39.78900
H  29.15900 64.94600 41.48900
H  28.37200 63.45600 42.13200
H  27.79200 64.31000 40.69000
H  25.48500 60.54700 40.88500
H  24.31100 59.37400 40.29700
H  24.90200 60.61600 39.19000
H  25.92300 55.01400 37.50700
H  24.94800 51.89200 40.02300
H  23.33700 51.89400 39.10000
H  23.32300 52.64900 40.48600

