158

Mg 8.14600 3.17200 27.11300
C  9.74100 1.84000 29.94200
C  6.16500 5.09000 29.17100
C  6.60000 4.22100 24.36700
C  9.72600 0.57800 25.24900
N  7.91400 3.33000 29.28500
C  8.73800 2.78100 30.19900
C  8.57400 3.48400 31.58900
C  7.25500 4.30000 31.38500
C  7.11200 4.31900 29.83900
C  5.90200 3.66400 31.97300
C  9.82700 4.32000 32.09600
C  9.52500 5.04500 33.42300
H  10.53700 4.94300 34.49900
N  6.65600 4.55400 26.80400
C  5.93300 5.20800 27.77100
C  5.08500 6.18800 27.15400
C  5.19300 5.97200 25.74400
C  6.18600 4.85200 25.59800
C  4.09300 7.13400 27.85000
C  4.48200 6.67600 24.62200
O  4.71900 6.48700 23.44800
C  3.42200 7.62600 24.84800
N  8.18500 2.51400 25.11100
C  7.40600 3.10900 24.13000
C  7.54000 2.47300 22.73500
C  8.62600 1.32900 23.03000
C  8.89000 1.50200 24.55100
C  6.20200 2.06500 22.03700
C  9.83800 1.31700 22.06200
C  9.84600 0.23500 21.00100
N  9.47300 1.52800 27.45000
C  10.00500 0.61200 26.62800
C  10.94500 -0.26900 27.38600
C  10.89600 0.19400 28.66900
C  9.95600 1.26900 28.69000
C  11.67100 -1.38100 26.88900
C  11.40000 -0.01700 30.02000
O  12.19300 -0.81400 30.43100
C  10.76000 1.06300 30.89600
C  10.05000 0.34800 31.97100
O  8.87400 -0.12200 31.88800
O  10.84300 0.46900 33.12400
C  10.10100 -0.09200 34.33900
H  5.61200 5.81300 29.77300
H  6.07400 4.53500 23.46300
H  10.15400 -0.21500 24.63300
H  8.47600 2.71100 32.35100
H  7.35500 5.33900 31.70000
H  5.49800 4.12500 32.87400
H  6.08300 2.61600 32.21400
H  5.14600 3.56900 31.19400
H  10.07900 5.10900 31.38800
H  10.69200 3.66600 32.20900
H  8.53500 4.85500 33.83700
H  9.56500 6.11500 33.22100
H  3.09600 6.91100 27.47000
H  4.21700 8.18000 27.57100
H  4.07000 7.07700 28.93900
H  2.63500 7.16900 25.44900
H  2.78800 7.68000 23.96300
H  3.74500 8.52100 25.38000
H  8.01500 3.22400 22.10500
H  8.12600 0.36200 22.98800
H  5.34200 2.20700 22.69200
H  6.37300 1.02900 21.74200
H  6.11100 2.63900 21.11500
H  10.77600 1.15000 22.59200
H  9.94300 2.24900 21.50700
H  9.93800 0.71900 20.02900
H  8.85600 -0.22000 21.02800
H  10.60400 -0.54500 21.07700
H  12.69500 -1.10200 26.64100
H  11.27500 -1.57100 25.89200
H  11.53700 -2.19500 27.60200
H  11.41300 1.85300 31.26600
H  9.53700 -0.98400 34.06600
H  9.33900 0.58400 34.72700
H  10.81700 -0.33800 35.12300
Mg -5.79400 24.93500 26.11000
C  -4.52000 26.66900 28.91200
C  -7.40300 22.89200 28.21000
C  -7.02000 23.37500 23.39300
C  -3.79300 26.92200 24.00100
N  -6.01900 24.85800 28.36300
C  -5.43100 25.67000 29.30500
C  -5.79600 25.20000 30.70800
C  -6.42300 23.81300 30.41900
C  -6.60200 23.80100 28.87800
C  -5.64100 22.59200 31.07800
C  -6.79400 26.20900 31.35000
C  -6.85600 26.36100 32.90200
H  -6.19700 25.29600 33.79600
N  -7.07100 23.47100 25.84400
C  -7.69700 22.73200 26.88200
C  -8.64700 21.81500 26.28500
C  -8.57900 21.96500 24.88600
C  -7.48000 22.92500 24.67100
C  -9.49600 20.88500 27.11500
C  -9.31400 21.27400 23.80500
O  -9.02500 21.42600 22.64500
C  -10.46000 20.35400 24.14700
N  -5.59400 25.25600 24.02500
C  -6.09500 24.42600 23.13600
C  -5.90400 24.87600 21.63100
C  -4.93900 26.11600 21.92400
C  -4.82200 26.18400 23.41400
C  -5.26400 23.74500 20.69700
C  -5.38600 27.45100 21.31400
C  -4.60800 27.91400 20.01700
N  -4.40300 26.45000 26.35400
C  -3.60900 27.14100 25.41000
C  -2.60500 27.92800 26.19600
C  -2.97300 27.81300 27.48900
C  -4.02600 26.91700 27.55300
C  -1.60000 28.88000 25.58000
C  -2.70400 28.37800 28.87100
O  -1.87400 29.21900 29.28400
C  -3.64000 27.55300 29.81900
C  -2.82100 26.67900 30.69300
O  -2.38200 25.59500 30.36300
O  -2.70200 27.24600 31.91900
C  -1.99000 26.32600 32.87200
H  -7.92200 22.23800 28.91400
H  -7.26000 22.80700 22.49200
H  -3.14200 27.59000 23.43300
H  -4.96900 25.22800 31.41700
H  -7.44700 23.79700 30.79100
H  -6.32700 22.13100 31.78900
H  -4.76700 22.91400 31.64500
H  -5.53400 21.86300 30.27500
H  -7.79300 26.03000 30.95200
H  -6.48800 27.18200 30.96300
H  -7.90000 26.49200 33.18300
H  -6.34700 27.29300 33.14900
H  -9.35400 19.93700 26.59600
H  -10.56000 21.12300 27.12200
H  -9.18000 20.70100 28.14200
H  -11.03000 19.96100 23.30400
H  -11.12500 20.77400 24.90100
H  -9.98900 19.40700 24.41100
H  -6.93500 25.19300 21.47400
H  -3.92400 25.84800 21.62800
H  -4.30800 24.08300 20.29800
H  -6.04200 23.48100 19.98100
H  -5.11600 22.84200 21.28900
H  -5.24300 28.20100 22.09200
H  -6.46000 27.52200 21.13900
H  -3.87300 27.12000 19.88600
H  -4.04400 28.80500 20.29500
H  -5.29300 28.05000 19.18000
H  -0.68600 28.80200 26.16900
H  -1.96500 29.89200 25.75500
H  -1.42600 28.71200 24.51800
H  -4.20500 28.26300 30.42200
H  -1.13800 25.77400 32.47600
H  -2.76800 25.70400 33.31300
H  -1.52600 27.02300 33.57000

