158

Mg 48.60500 35.34200 26.30000
C  46.58200 34.11600 28.81300
C  48.84400 38.33600 27.97700
C  49.96000 36.71700 23.56200
C  47.53000 32.64500 24.31100
N  47.81100 36.16200 28.13600
C  47.16000 35.43700 29.11300
C  46.99600 36.25500 30.43900
C  47.30000 37.70500 29.93100
C  48.05900 37.41300 28.62900
C  46.08600 38.65100 29.80800
C  47.86400 35.67400 31.55200
C  47.32800 35.99800 33.01200
H  46.60600 37.35400 33.16000
N  49.42900 37.21300 25.92100
C  49.53600 38.26500 26.75200
C  50.22700 39.35900 26.05900
C  50.49900 38.92600 24.72100
C  49.93600 37.59200 24.67000
C  50.61300 40.63200 26.85400
C  51.22500 39.69700 23.63400
O  51.48300 39.15600 22.57400
C  51.65700 41.14600 23.77600
N  48.60000 34.83800 24.23700
C  49.40000 35.46300 23.42600
C  49.54700 34.77700 22.01800
C  48.81300 33.41600 22.28800
C  48.22200 33.62000 23.67700
C  48.89000 35.57500 20.83700
C  49.66800 32.03200 22.36800
C  49.17700 30.83700 21.51400
N  47.46700 33.64300 26.56300
C  47.14000 32.62200 25.63200
C  46.22600 31.71200 26.27900
C  45.93600 32.29200 27.56400
C  46.72100 33.44900 27.66700
C  45.60900 30.52400 25.75900
C  45.22000 32.07800 28.82200
O  44.48800 31.20600 29.19300
C  45.71200 33.24200 29.67400
C  46.38300 32.59200 30.80900
O  47.50000 32.02700 30.82900
O  45.62500 32.76900 31.96500
C  46.15100 31.99800 33.12600
H  48.96300 39.28400 28.50700
H  50.59600 36.94600 22.70400
H  47.27600 31.73800 23.75900
H  45.95300 36.14300 30.73400
H  48.01100 38.24000 30.56100
H  45.20500 38.10000 30.13700
H  45.74300 38.91800 28.80800
H  46.17200 39.47100 30.52000
H  48.78500 36.24700 31.44600
H  47.96800 34.59300 31.46500
H  48.19600 35.83100 33.64900
H  46.64700 35.23700 33.39300
H  51.46800 41.24200 26.56000
H  50.90800 40.29900 27.84900
H  49.78000 41.33000 26.93800
H  50.88300 41.78500 24.20200
H  51.72100 41.43300 22.72700
H  52.61500 41.48500 24.17000
H  50.60000 34.60500 21.79200
H  47.95300 33.25300 21.63900
H  48.08400 36.18900 21.24000
H  48.43600 34.85100 20.16100
H  49.56800 36.19800 20.25300
H  49.69500 31.66300 23.39300
H  50.63100 32.30400 21.93400
H  48.15700 31.06100 21.20000
H  49.24800 29.84100 21.95100
H  49.78800 30.86300 20.61200
H  45.43800 30.61100 24.68600
H  44.71200 30.19700 26.28400
H  46.41900 29.81300 25.92800
H  44.92500 33.82400 30.15500
H  46.15400 30.92000 32.96500
H  45.47900 32.16800 33.96600
H  47.18400 32.21700 33.39800
Mg 41.59600 41.25800 26.90900
C  40.68300 43.85500 29.32800
C  42.57400 39.31600 29.37900
C  42.35600 39.10400 24.59100
C  41.32600 43.75000 24.50800
N  41.77900 41.64500 29.09300
C  41.23300 42.63500 29.90600
C  41.35300 42.30700 31.40100
C  42.10900 40.93500 31.38200
C  42.17800 40.57800 29.85300
C  43.49000 40.85900 32.09900
C  39.98500 42.29500 32.14000
C  39.78800 43.10700 33.49600
H  39.10800 42.33400 34.66500
N  42.40500 39.44900 26.96900
C  42.64000 38.76400 28.08200
C  42.98700 37.39100 27.75600
C  43.01000 37.34000 26.27700
C  42.53000 38.65200 25.88200
C  43.30900 36.31600 28.74400
C  43.34900 36.22700 25.35900
O  43.26300 36.33700 24.11500
C  43.85400 35.01800 25.92500
N  41.91600 41.47500 24.78200
C  42.04600 40.38900 24.04000
C  41.89300 40.57100 22.56500
C  41.55300 42.06800 22.47800
C  41.58000 42.50000 24.01500
C  43.05500 40.06100 21.67000
C  40.10800 42.55500 21.89700
C  38.89700 41.99800 22.77500
N  40.97400 43.32400 26.87900
C  40.94900 44.15600 25.80200
C  40.50600 45.51200 26.27200
C  40.31900 45.37500 27.63700
C  40.64500 44.07700 27.99500
C  40.30100 46.75700 25.43900
C  39.85400 46.08600 28.81100
O  39.35400 47.18700 28.96200
C  40.09200 45.15800 30.02200
C  41.07000 45.84100 30.90100
O  42.21900 46.22700 30.62000
O  40.49900 45.92100 32.15100
C  41.20900 46.46000 33.25800
H  42.88200 38.69400 30.22200
H  42.23000 38.34600 23.81400
H  41.21900 44.49800 23.71900
H  42.03900 43.00400 31.88100
H  41.59800 40.13200 31.91300
H  44.28300 40.51800 31.43400
H  43.40300 40.12900 32.90500
H  43.75600 41.87100 32.40400
H  39.64400 41.28700 32.37900
H  39.24100 42.76000 31.49300
H  39.05900 43.89600 33.31300
H  40.72700 43.60200 33.74500
H  42.51500 35.60800 28.50700
H  43.23500 36.63500 29.78300
H  44.29800 35.90300 28.54400
H  44.08100 34.27400 25.16100
H  42.97500 34.71800 26.49500
H  44.72800 35.14300 26.56500
H  40.96400 40.02800 22.39000
H  42.41800 42.57900 22.05700
H  43.85300 39.79900 22.36400
H  43.44900 40.84000 21.01800
H  42.99900 39.08100 21.19700
H  40.05600 42.07300 20.92200
H  40.00600 43.64000 21.84900
H  38.21600 42.84800 22.82400
H  39.12500 41.67800 23.79200
H  38.43400 41.20700 22.18500
H  40.52000 46.46200 24.41200
H  40.91900 47.60900 25.72200
H  39.29500 47.15200 25.57800
H  39.17500 44.77700 30.47100
H  42.16400 46.92200 33.00600
H  41.16900 45.60300 33.93000
H  40.66300 47.28600 33.71600

