158

Mg -1.74100 16.77900 26.25100
C  -2.46600 14.34300 28.66400
C  -2.49000 19.19700 28.38400
C  -1.82700 18.92900 23.56400
C  -1.19100 14.09400 23.97200
N  -2.65600 16.70800 28.23400
C  -2.62600 15.67400 29.13100
C  -2.71500 16.21700 30.58700
C  -2.88100 17.76100 30.38700
C  -2.75800 17.89400 28.86400
C  -4.01500 18.46500 30.99100
C  -1.52800 15.79000 31.55000
C  -1.20000 16.64200 32.79100
H  -0.86200 15.76200 34.06400
N  -2.02700 18.77300 25.97500
C  -2.33100 19.63600 26.98700
C  -2.34500 21.02000 26.54000
C  -2.10800 20.91700 25.11100
C  -1.99700 19.54000 24.81900
C  -2.49700 22.19200 27.56800
C  -1.95900 21.97100 24.15100
O  -1.95000 21.74200 22.92900
C  -1.79600 23.32000 24.59400
N  -1.66000 16.51900 24.03000
C  -1.65400 17.58000 23.17600
C  -1.35800 17.20300 21.75000
C  -0.97400 15.65900 21.93300
C  -1.17200 15.37500 23.45700
C  -2.52900 17.48500 20.79600
C  0.49200 15.31700 21.59300
C  1.59300 15.73500 22.59700
N  -1.85200 14.62400 26.22700
C  -1.57900 13.74200 25.28000
C  -1.79600 12.40600 25.72000
C  -2.07200 12.56100 27.09600
C  -2.10800 13.96500 27.36500
C  -1.69700 11.12400 24.84400
C  -2.39900 11.86800 28.33500
O  -2.52600 10.67500 28.60100
C  -2.48300 12.96800 29.45000
C  -1.19800 12.75900 30.20000
O  -0.08600 13.02000 29.80800
O  -1.54700 12.23400 31.41900
C  -0.38000 11.97700 32.28200
H  -2.59200 20.00100 29.11700
H  -1.71900 19.51100 22.64700
H  -0.91100 13.31800 23.25700
H  -3.66500 15.75000 30.84700
H  -2.09800 18.40700 30.78400
H  -3.77000 19.17700 31.77900
H  -4.75500 17.78700 31.41800
H  -4.49100 19.13500 30.27600
H  -0.57200 15.73700 31.02900
H  -1.78600 14.82400 31.98300
H  -1.94400 17.39000 33.06600
H  -0.23400 17.07600 32.53400
H  -2.93300 21.84800 28.50600
H  -3.04800 23.04100 27.16300
H  -1.51100 22.51100 27.90600
H  -1.37500 23.87200 23.75300
H  -1.07500 23.36400 25.40900
H  -2.72200 23.78300 24.93400
H  -0.50900 17.81200 21.44100
H  -1.67600 15.02700 21.38800
H  -3.34200 17.88800 21.39900
H  -2.89300 16.58800 20.29600
H  -2.21000 18.18700 20.02600
H  0.76300 15.80000 20.65400
H  0.61200 14.25100 21.39600
H  2.01800 14.85000 23.07200
H  1.29800 16.42300 23.38900
H  2.39300 16.24100 22.05800
H  -2.62800 10.72600 24.44000
H  -1.15700 10.43600 25.49400
H  -1.05700 11.28700 23.97600
H  -3.32800 12.96600 30.13900
H  -0.87600 11.61100 33.18100
H  0.27700 12.84700 32.28300
H  0.14800 11.07300 31.97900
Mg -10.02600 40.48400 40.95000
C  -9.32800 37.09300 40.06100
C  -7.03900 41.27800 39.66200
C  -11.16200 43.57500 41.07900
C  -13.24200 39.36800 42.00400
N  -8.44700 39.31600 39.92200
C  -8.28300 37.97100 39.72100
C  -6.88800 37.52900 39.27800
C  -6.07900 38.88400 39.35200
C  -7.25400 39.90900 39.63300
C  -4.99300 39.08500 40.47500
C  -6.92300 36.83900 37.85600
C  -5.86000 35.76300 37.65000
H  -4.83900 35.92000 36.54100
N  -9.15100 42.20500 40.51700
C  -7.92000 42.38500 39.90800
C  -7.77000 43.77900 39.60400
C  -8.92300 44.49000 40.04900
C  -9.80500 43.43900 40.62300
C  -6.50100 44.31700 38.87900
C  -9.09800 46.03600 39.97400
O  -8.18000 46.79400 39.49800
C  -10.27900 46.60900 40.66800
N  -11.93100 41.32200 41.62200
C  -12.10300 42.68500 41.59800
C  -13.53700 43.10500 41.85300
C  -14.15000 41.73600 42.35100
C  -13.04300 40.73300 41.96500
C  -13.80800 44.36000 42.73900
C  -15.50900 41.35600 41.57300
C  -16.49900 40.49900 42.45700
N  -11.10600 38.60400 40.99700
C  -12.39200 38.36200 41.50300
C  -12.67100 36.85500 41.48000
C  -11.47500 36.33600 40.91800
C  -10.62100 37.42800 40.57200
C  -13.85400 36.05100 41.83600
C  -10.74400 35.09400 40.60200
O  -10.95500 33.89200 40.79800
C  -9.44500 35.57400 39.90200
C  -8.39500 34.82400 40.62900
O  -8.08500 34.90000 41.78700
O  -7.95200 33.95000 39.68100
C  -7.06500 32.96700 40.23800
H  -6.06200 41.63700 39.33000
H  -11.62300 44.55500 40.94300
H  -14.21000 38.92400 42.24900
H  -6.47000 36.84300 40.01500
H  -5.57900 39.16400 38.42500
H  -5.38900 39.80800 41.18800
H  -4.00500 39.31600 40.07800
H  -4.80200 38.16200 41.02300
H  -6.84400 37.68300 37.17000
H  -7.84400 36.38600 37.48800
H  -6.38200 34.82000 37.48500
H  -5.29500 35.70900 38.58000
H  -5.94100 44.92000 39.59300
H  -6.83300 44.93300 38.04300
H  -5.84800 43.51200 38.54100
H  -10.38500 46.11400 41.63300
H  -11.17900 46.59400 40.05400
H  -10.02400 47.64900 40.87300
H  -13.88000 43.36100 40.85100
H  -14.18000 41.68900 43.44000
H  -12.85400 44.70200 43.14200
H  -14.46300 44.06200 43.55700
H  -14.16000 45.27000 42.25200
H  -15.33000 40.78100 40.66400
H  -16.02700 42.29400 41.37100
H  -17.43100 41.02600 42.66200
H  -16.06900 40.40400 43.45400
H  -16.64900 39.46800 42.13600
H  -13.59400 35.00000 41.71100
H  -14.58000 36.37000 41.08800
H  -14.40400 36.18800 42.76700
H  -9.42900 35.34800 38.83600
H  -6.08200 33.41300 40.39000
H  -6.90800 32.22400 39.45700
H  -7.55500 32.35200 40.99300

