158

Mg 27.30500 51.07600 25.96700
C  25.28600 52.03500 28.72900
C  29.55200 49.89900 28.17100
C  29.17100 50.27500 23.31100
C  24.84900 52.43600 23.90500
N  27.35000 51.09000 28.21300
C  26.39500 51.36700 29.10100
C  26.85100 51.12800 30.43900
C  28.32400 50.56600 30.33500
C  28.40300 50.44800 28.80300
C  29.38900 51.54000 30.83400
C  25.84100 50.26500 31.35600
C  25.41400 50.64200 32.79300
H  26.58700 50.94400 33.73000
N  29.27400 50.35200 25.75200
C  29.99300 49.82900 26.80500
C  31.26700 49.31300 26.26000
C  31.14700 49.37300 24.83700
C  29.88800 50.01600 24.56400
C  32.33300 48.81500 27.16800
C  32.09400 48.85200 23.81700
O  31.88600 48.97400 22.60300
C  33.29100 47.97900 24.28300
N  27.10900 51.58800 23.95000
C  27.91200 50.90900 23.03800
C  27.35300 50.94300 21.59200
C  25.97900 51.60000 21.75400
C  25.95100 51.87300 23.28100
C  28.37500 51.60800 20.62400
C  24.67300 50.92100 21.14900
C  24.32900 49.56900 21.85900
N  25.50200 52.10000 26.22400
C  24.66500 52.64000 25.31200
C  23.62600 53.38200 25.91800
C  23.79400 53.17800 27.24900
C  24.95700 52.41700 27.41700
C  22.54700 54.18300 25.21700
C  23.25300 53.44200 28.59700
O  22.26000 54.10700 29.00900
C  24.19700 52.62100 29.55500
C  24.78800 53.69200 30.46900
O  25.79600 54.37600 30.23800
O  23.85500 53.93200 31.47500
C  24.11800 55.07000 32.30600
H  30.25100 49.57000 28.94200
H  29.57500 49.72100 22.46200
H  24.10000 52.87000 23.24000
H  26.89100 52.12900 30.87000
H  28.37800 49.56700 30.76700
H  30.32400 51.50000 30.27600
H  29.60800 51.29300 31.87300
H  29.05700 52.57300 30.72800
H  26.32500 49.29200 31.43400
H  24.94900 50.01800 30.78000
H  24.90100 49.83600 33.31700
H  24.74600 51.49600 32.91100
H  32.35700 47.75200 27.40800
H  32.23100 49.24700 28.16400
H  33.28500 49.18500 26.78900
H  33.63300 47.33700 23.47100
H  32.92100 47.23100 24.98400
H  34.20900 48.48300 24.58700
H  27.19800 49.95200 21.16500
H  26.05900 52.58500 21.29400
H  29.24900 52.12400 21.02100
H  27.82000 52.31700 20.00900
H  28.72500 50.84900 19.92500
H  24.73000 50.83200 20.06500
H  23.83000 51.59500 21.30000
H  24.83400 49.47000 22.82000
H  24.66800 48.74700 21.22900
H  23.25700 49.46800 22.03000
H  21.95900 54.70600 25.97100
H  21.83900 53.52800 24.70900
H  22.85900 55.05100 24.63600
H  23.70600 51.82100 30.10900
H  24.85700 54.70400 33.01800
H  23.20700 55.37900 32.81800
H  24.44500 55.89100 31.66700
Mg 9.77500 48.40500 26.48000
C  7.93800 48.21500 29.43100
C  12.41500 49.63100 28.22200
C  11.22000 48.90000 23.55400
C  6.63000 47.59800 24.70800
N  10.10700 48.74400 28.57200
C  9.24100 48.56000 29.59700
C  9.81300 49.11100 30.94000
C  11.19300 49.60000 30.50700
C  11.26700 49.36700 28.96800
C  11.42200 51.09800 30.84000
C  9.79200 48.07500 32.15100
C  10.66600 48.31500 33.38300
H  10.23800 47.85400 34.77100
N  11.59200 49.17800 25.98500
C  12.61000 49.49400 26.83900
C  13.79800 49.70300 26.06900
C  13.46700 49.58700 24.72000
C  12.06100 49.27000 24.68300
C  15.14500 49.94800 26.63300
C  14.41700 49.48900 23.53300
O  13.99800 49.30900 22.39600
C  15.90000 49.49400 23.67300
N  8.97500 48.26900 24.43600
C  9.89200 48.47300 23.39100
C  9.32500 47.84600 22.14300
C  7.88300 47.52100 22.40400
C  7.77600 47.89900 23.92100
C  9.52400 48.61400 20.80500
C  7.53900 46.12000 21.99400
C  8.12600 45.00700 22.83000
N  7.66100 48.11300 26.88000
C  6.56500 47.79300 26.06700
C  5.39600 47.78100 26.87500
C  5.87000 47.76500 28.20200
C  7.23400 48.07500 28.17500
C  4.02500 47.55100 26.34100
C  5.46300 47.67600 29.61000
O  4.34000 47.55200 30.09200
C  6.77500 47.95000 30.45000
C  6.93000 46.74500 31.31200
O  7.52800 45.75100 30.91900
O  6.27200 46.81800 32.60500
C  6.53800 45.69700 33.52200
H  13.21300 49.95300 28.89500
H  11.82000 48.87000 22.64200
H  5.76200 47.21700 24.16600
H  9.08800 49.87100 31.23300
H  12.01600 49.07400 30.99000
H  12.07000 50.96200 31.70700
H  10.54400 51.66500 31.14800
H  11.95200 51.56300 30.00900
H  9.99500 47.09600 31.71500
H  8.74200 48.16700 32.43000
H  10.97800 49.34600 33.21700
H  11.57400 47.77000 33.12500
H  15.04800 50.12400 27.70400
H  15.70100 50.83900 26.34100
H  15.80000 49.08900 26.49100
H  16.34600 49.54700 22.67900
H  16.38700 48.62000 24.10700
H  16.12600 50.38300 24.26200
H  9.96100 46.96300 22.07900
H  7.26500 48.25900 21.89100
H  8.71300 49.11900 20.28000
H  10.06200 48.03100 20.05700
H  10.15200 49.46400 21.07100
H  7.83300 45.96300 20.95600
H  6.45600 46.01700 22.05500
H  8.54700 45.33000 23.78200
H  8.80200 44.39900 22.22900
H  7.33200 44.30500 23.08300
H  3.71300 48.19900 25.52200
H  3.34100 47.67600 27.18100
H  3.95800 46.56300 25.88700
H  6.71000 48.79300 31.13700
H  6.88100 46.06900 34.48800
H  7.14000 44.88100 33.12200
H  5.58400 45.21100 33.73000

