158

Mg 46.74400 24.93300 28.20400
C  47.72700 27.25300 30.68000
C  45.61000 22.82300 30.62000
C  46.34200 22.61800 25.72200
C  48.35100 27.03600 25.83500
N  46.64900 25.12700 30.41600
C  46.96300 26.21800 31.24600
C  46.52900 25.92100 32.73100
C  45.98600 24.45900 32.63600
C  46.06000 24.12600 31.10800
C  46.63700 23.36100 33.46500
C  45.47700 26.97300 33.27700
C  44.64200 26.75400 34.55400
H  45.49500 26.57600 35.89300
N  45.91700 23.05900 28.13600
C  45.60600 22.34100 29.27300
C  45.07600 21.01600 28.81700
C  45.24500 20.96800 27.41700
C  45.85200 22.26700 26.98100
C  44.51600 20.07700 29.83300
C  44.72400 19.95800 26.36500
O  45.01200 19.98000 25.16300
C  43.79600 18.99400 26.89100
N  47.18100 24.94400 26.06300
C  46.98800 23.80200 25.28600
C  47.68600 23.92700 23.87700
C  48.21000 25.37200 23.93600
C  47.85000 25.83800 25.37100
C  48.60900 22.74300 23.50000
C  47.85600 26.38900 22.74100
C  48.94100 27.38500 22.32600
N  47.69000 26.82700 28.19300
C  48.37400 27.51200 27.17100
C  49.03600 28.73300 27.66000
C  48.69300 28.68600 29.05700
C  47.93800 27.49400 29.35700
C  49.83000 29.75000 26.93000
C  48.77500 29.53500 30.27500
O  49.07600 30.71700 30.44000
C  48.17000 28.50000 31.43000
C  49.30700 28.16200 32.33500
O  50.39700 27.73100 32.01400
O  48.99100 28.60400 33.60900
C  50.17700 28.80300 34.41000
H  45.23100 22.07200 31.31600
H  46.30100 21.83100 24.96600
H  48.80400 27.70100 25.09600
H  47.40400 26.06900 33.36500
H  44.92700 24.44600 32.89400
H  47.41700 23.78600 34.09600
H  47.18900 22.66400 32.83500
H  45.96700 22.77500 34.09300
H  44.89500 27.21400 32.38700
H  45.95800 27.92100 33.52000
H  44.03400 25.85800 34.42500
H  43.98300 27.61300 34.68200
H  45.13900 19.18600 29.75700
H  43.49900 19.81300 29.54300
H  44.53000 20.40500 30.87200
H  43.32300 18.45900 26.06700
H  42.94000 19.51100 27.32300
H  44.36900 18.31300 27.52100
H  46.91700 23.88500 23.10500
H  49.29700 25.31100 23.90400
H  49.14800 22.31200 24.34400
H  49.17600 22.97800 22.60000
H  47.99000 21.87400 23.27300
H  46.98500 27.00700 22.95700
H  47.63700 25.75200 21.88400
H  49.65800 27.54600 23.13200
H  48.46100 28.36300 22.29200
H  49.42700 27.15600 21.37800
H  50.31900 29.54600 25.97800
H  50.52600 30.11800 27.68400
H  49.00300 30.44300 26.77500
H  47.29500 28.97600 31.87400
H  49.90300 28.89100 35.46100
H  50.60600 29.77800 34.17900
H  51.04400 28.16200 34.25300
Mg 0.38600 43.41400 26.21800
C  2.59700 43.22500 29.07700
C  -2.18800 42.66100 28.35700
C  -1.56700 42.88400 23.65400
C  3.24700 43.63500 24.17400
N  0.24100 43.12200 28.48100
C  1.23000 43.18100 29.39800
C  0.73000 43.19800 30.77300
C  -0.78200 42.73500 30.58500
C  -0.97300 42.85500 29.04000
C  -1.22800 41.38100 31.27400
C  0.94300 44.53400 31.52200
C  1.55100 44.47800 32.90600
H  1.09200 43.30600 33.75600
N  -1.54600 42.76200 26.01100
C  -2.43700 42.62100 27.00000
C  -3.77600 42.37100 26.48300
C  -3.64300 42.40600 25.06300
C  -2.25000 42.70700 24.82900
C  -5.02600 42.34300 27.40400
C  -4.65400 42.24000 23.92500
O  -4.49300 42.44300 22.75300
C  -6.01800 42.07000 24.34600
N  0.87400 43.20500 24.23900
C  -0.18200 43.16000 23.31000
C  0.29600 43.22900 21.81400
C  1.75300 43.66200 22.07700
C  1.99200 43.43400 23.53900
C  0.14800 41.91200 21.04800
C  1.91000 45.19400 21.63600
C  1.72000 46.22700 22.71100
N  2.46300 43.60600 26.53500
C  3.48800 43.68700 25.58800
C  4.76900 43.64000 26.29100
C  4.46700 43.38500 27.61500
C  3.04400 43.44000 27.73100
C  6.12000 43.76600 25.66100
C  5.04000 43.10600 28.88100
O  6.21200 42.94200 29.24000
C  3.84600 43.08100 29.95700
C  4.03200 41.86300 30.70300
O  3.93100 40.70400 30.30400
O  4.41400 42.16700 31.98700
C  4.61200 40.93800 32.80200
H  -3.08100 42.45900 28.95100
H  -2.13700 42.85600 22.72300
H  4.10700 43.66900 23.50200
H  1.39400 42.56800 31.36500
H  -1.37100 43.54900 31.00800
H  -1.88000 41.69000 32.09100
H  -0.42900 40.86500 31.80600
H  -1.70600 40.70200 30.56800
H  -0.02500 45.03600 31.52900
H  1.64600 45.09000 30.90200
H  1.33200 45.34700 33.52600
H  2.61600 44.70100 32.84900
H  -5.85600 42.85800 26.91900
H  -4.89300 42.80500 28.38200
H  -5.15000 41.28700 27.64500
H  -6.74500 41.76100 23.59500
H  -6.36800 43.02700 24.73400
H  -6.08600 41.38700 25.19300
H  -0.24400 44.05400 21.34800
H  2.61900 43.15900 21.64700
H  -0.26400 41.10700 21.65700
H  1.12900 41.61500 20.67700
H  -0.47300 42.16800 20.19000
H  1.30900 45.51500 20.78500
H  2.94900 45.43800 21.41200
H  2.73300 46.40700 23.07000
H  1.06400 45.84000 23.49100
H  1.34100 47.15900 22.29400
H  6.05100 43.54800 24.59500
H  6.63500 43.00400 26.24500
H  6.58600 44.74200 25.79100
H  4.02600 44.00900 30.50000
H  3.68300 40.55200 33.22300
H  5.19200 41.26800 33.66400
H  5.18400 40.18300 32.26300

