158

Mg 47.63800 25.20000 28.22700
C  48.69600 27.39700 30.77300
C  46.75500 22.98000 30.64100
C  46.87300 23.01300 25.73700
C  48.61100 27.58600 25.78500
N  47.75100 25.24800 30.47100
C  48.05600 26.30500 31.31000
C  47.71200 26.05500 32.74800
C  47.18800 24.55700 32.61400
C  47.30900 24.18000 31.19600
C  47.78100 23.56100 33.65200
C  46.70900 26.96100 33.45500
C  47.02500 27.20300 34.99200
H  46.00000 27.77800 35.99600
N  46.94400 23.24800 28.21600
C  46.66000 22.46400 29.32900
C  46.11900 21.18100 28.88400
C  46.11800 21.20400 27.42200
C  46.67700 22.53800 27.08800
C  45.65800 20.09700 29.80600
C  45.70200 20.15400 26.39300
O  45.79200 20.34100 25.13800
C  45.32600 18.81200 26.77900
N  47.87600 25.23800 26.11200
C  47.44900 24.23000 25.31700
C  47.65300 24.56700 23.78800
C  47.93800 26.09100 23.84900
C  48.26200 26.36900 25.34300
C  48.71000 23.70200 23.05300
C  46.80500 27.04500 23.31700
C  45.61100 27.31100 24.26800
N  48.69900 26.98900 28.18800
C  48.88000 27.89300 27.14100
C  49.35900 29.14300 27.67500
C  49.33300 28.97600 29.07900
C  48.91200 27.67000 29.40200
C  49.74400 30.32600 26.93300
C  49.57200 29.69100 30.38500
O  50.07500 30.81400 30.58200
C  49.02800 28.65700 31.47800
C  50.07000 28.56000 32.55300
O  50.97400 27.71100 32.63100
O  49.74800 29.39800 33.55000
C  50.63900 29.16200 34.79300
H  46.26800 22.34600 31.38500
H  46.50300 22.39100 24.92000
H  48.83100 28.31800 25.00500
H  48.61500 26.10500 33.35700
H  46.13900 24.66300 32.89000
H  48.71600 23.10900 33.32400
H  46.99700 22.84900 33.91000
H  47.93600 24.03100 34.62400
H  45.68200 26.59700 33.44600
H  46.71000 27.91600 32.92900
H  47.83400 27.93200 35.03300
H  47.39400 26.25200 35.37700
H  44.56900 20.14900 29.83500
H  45.97200 20.35300 30.81800
H  45.99600 19.12000 29.46000
H  45.93200 18.43700 27.60300
H  45.49600 18.13500 25.94200
H  44.30600 18.82700 27.16300
H  46.69400 24.41100 23.29300
H  48.80400 26.39200 23.25900
H  48.26000 23.16300 22.21900
H  49.11600 23.01600 23.79600
H  49.60200 24.15200 22.61600
H  46.50200 26.64500 22.34900
H  47.26800 27.97800 22.99600
H  45.77100 26.94200 25.28100
H  44.72000 26.80500 23.89600
H  45.32100 28.36100 24.23700
H  50.76800 30.26600 26.56200
H  49.71100 31.20000 27.58200
H  49.07600 30.44700 26.08100
H  48.13400 29.13000 31.88600
H  49.94200 28.78300 35.54000
H  51.00900 30.11800 35.16200
H  51.51100 28.51700 34.68400
Mg 8.97200 47.53500 26.39200
C  7.19100 47.81100 29.48400
C  11.84700 48.57900 28.18800
C  10.62900 47.56000 23.54300
C  6.09900 46.77400 24.85000
N  9.44800 48.08700 28.57500
C  8.56300 48.03400 29.63200
C  9.26000 48.37600 30.94700
C  10.61000 49.09000 30.44900
C  10.68400 48.55500 28.97300
C  10.65200 50.58000 30.58600
C  9.50500 47.16800 31.88800
C  9.18900 47.39600 33.32700
H  9.17900 46.23300 34.41900
N  10.96200 47.93500 25.96300
C  12.02300 48.31300 26.82400
C  13.24900 48.54000 26.02800
C  12.90000 48.08200 24.68300
C  11.45300 47.93300 24.66900
C  14.57900 48.94200 26.74100
C  13.76600 47.91400 23.49100
O  13.28900 47.57000 22.43800
C  15.29500 48.16600 23.53300
N  8.36400 47.43100 24.48700
C  9.21500 47.41500 23.44900
C  8.50500 47.09800 22.13400
C  7.10700 46.61300 22.56000
C  7.17700 46.98000 24.03700
C  8.60800 48.10900 20.96000
C  6.84900 45.03100 22.41900
C  7.63000 44.06200 23.25500
N  7.05300 47.37000 26.97800
C  5.94300 47.08400 26.21800
C  4.80600 46.98000 27.03200
C  5.18700 47.27900 28.34700
C  6.58000 47.45900 28.25600
C  3.40200 46.61000 26.55000
C  4.80000 47.53000 29.73300
O  3.64500 47.68200 30.22300
C  6.13300 47.72100 30.55200
C  6.30800 46.51900 31.33400
O  6.59100 45.42200 30.81100
O  5.63600 46.61500 32.52400
C  5.52100 45.35800 33.29900
H  12.70300 48.95700 28.75200
H  11.07400 47.34400 22.56900
H  5.31600 46.31800 24.24100
H  8.57000 49.07500 31.42000
H  11.52100 48.74800 30.94000
H  9.80000 50.92700 31.17200
H  10.35900 50.91900 29.59300
H  11.60900 51.02200 30.86000
H  10.58200 47.00100 31.85400
H  9.12200 46.19700 31.57400
H  8.28400 48.00300 33.31600
H  9.94500 48.01300 33.81300
H  14.44400 49.35400 27.74100
H  14.99300 49.80400 26.21800
H  15.37300 48.20900 26.59700
H  15.56600 49.03600 24.13200
H  15.48900 48.39100 22.48500
H  15.68600 47.23700 23.94800
H  8.94600 46.19000 21.72200
H  6.31800 47.23200 22.13200
H  9.06900 49.05000 21.26000
H  7.63600 48.44700 20.60100
H  9.22600 47.65700 20.18300
H  6.95000 44.71200 21.38200
H  5.78500 44.85600 22.58100
H  7.04100 43.53000 24.00300
H  8.41500 44.59400 23.79300
H  8.24100 43.36700 22.67900
H  2.78000 47.50300 26.49400
H  2.92300 45.90700 27.23100
H  3.40400 46.22100 25.53200
H  6.18500 48.58800 31.21000
H  4.51500 44.98800 33.09900
H  5.58100 45.50000 34.37800
H  6.24000 44.59800 32.99100

