158

Mg 30.12200 58.41600 40.07000
C  27.30300 56.70000 39.02800
C  31.96100 55.79600 38.76200
C  32.91500 60.27600 40.26700
C  28.20000 61.13400 40.81000
N  29.63800 56.33800 39.15100
C  28.44200 55.89200 38.79300
C  28.44800 54.49800 38.22400
C  29.94100 54.09500 38.55600
C  30.53400 55.50600 38.73500
C  30.27000 53.23400 39.78400
C  27.90000 54.23200 36.84400
C  28.23700 55.27500 35.79500
H  27.13400 55.73300 34.77500
N  32.16300 58.06600 39.64600
C  32.68400 56.89600 39.20100
C  34.16800 56.95500 39.15800
C  34.46400 58.20000 39.69100
C  33.19700 58.92800 39.92500
C  35.09900 55.81500 38.60600
C  35.83300 58.65400 40.01400
O  36.77900 57.90800 39.71100
C  36.09800 59.89700 40.85100
N  30.53300 60.47600 40.29800
C  31.74600 60.98800 40.46600
C  31.64800 62.49400 40.80900
C  30.16700 62.62500 41.39800
C  29.57800 61.30600 40.81300
C  32.64900 63.06100 41.88200
C  29.43400 63.95300 40.91900
C  28.67800 64.67900 42.07400
N  28.18800 58.91800 39.86300
C  27.45000 59.98600 40.35700
C  26.05000 59.80600 40.32400
C  25.92900 58.54100 39.69500
C  27.24800 58.02600 39.51400
C  24.95100 60.76100 40.61300
C  24.96200 57.53800 39.20300
O  23.76000 57.53600 39.14900
C  25.85100 56.35500 38.70700
C  25.38200 55.18800 39.46700
O  25.75500 54.84400 40.54100
O  24.56600 54.45200 38.72600
C  23.86400 53.38400 39.41800
H  32.49900 54.89200 38.46700
H  33.84400 60.81600 40.46200
H  27.58900 61.99400 41.09400
H  27.82100 53.90000 38.88500
H  30.24400 53.59100 37.63800
H  30.70000 53.79600 40.61400
H  30.96900 52.46700 39.45200
H  29.40100 52.71000 40.18200
H  26.83000 54.03600 36.90900
H  28.33600 53.35100 36.37300
H  28.98500 54.84700 35.12800
H  28.65900 56.15400 36.28100
H  35.54100 56.16300 37.67300
H  34.48800 54.95100 38.34600
H  35.77100 55.57400 39.43000
H  35.88100 60.83100 40.33200
H  37.16200 59.96500 41.07900
H  35.55100 59.78300 41.78700
H  31.78800 63.09000 39.90600
H  30.25900 62.42700 42.46600
H  32.98700 62.20400 42.46500
H  32.25000 63.75000 42.62500
H  33.39600 63.63100 41.32900
H  28.73800 63.75600 40.10300
H  30.21800 64.64500 40.61000
H  27.69200 65.09900 41.87700
H  29.30000 65.48500 42.46200
H  28.53600 63.88400 42.80600
H  24.10200 60.26600 41.08300
H  24.68400 61.28700 39.69600
H  25.22800 61.46200 41.40000
H  25.76400 56.01600 37.67500
H  24.65900 52.64700 39.52900
H  23.01800 52.95800 38.88000
H  23.44100 53.74800 40.35500
Mg 4.65700 54.86200 39.82700
C  4.57400 51.31400 40.26200
C  7.59100 54.41100 38.24800
C  4.28200 57.87800 38.74700
C  1.51700 54.81300 41.52400
N  5.87000 53.05400 39.31600
C  5.66900 51.71700 39.56100
C  6.81100 50.86700 39.12600
C  7.95200 52.01500 38.90700
C  7.08000 53.27200 38.79100
C  9.11200 52.21700 39.98900
C  6.58700 50.00500 37.83200
C  5.89400 50.70900 36.65100
H  6.75300 51.04100 35.44500
N  5.88700 56.07900 38.79300
C  7.06200 55.78800 38.17000
C  7.56700 56.93900 37.45200
C  6.62000 57.96400 37.61600
C  5.52900 57.39400 38.40800
C  8.86400 56.94300 36.69700
C  6.70000 59.38800 36.97000
O  7.55900 59.64100 36.12200
C  5.85100 60.50100 37.40100
N  3.10300 56.11100 40.08800
C  3.32200 57.40700 39.67200
C  2.15400 58.30100 40.22100
C  1.18400 57.30600 40.90600
C  1.97500 56.02000 40.86500
C  2.65400 59.53600 41.07100
C  -0.26700 57.23000 40.48000
C  -1.38200 57.45700 41.52400
N  3.33700 53.41000 40.79600
C  2.15200 53.55900 41.45900
C  1.73200 52.29500 42.03200
C  2.60100 51.34200 41.59000
C  3.59300 52.11700 40.87800
C  0.53500 52.13200 42.88500
C  2.89000 49.93300 41.51700
O  2.28200 49.01700 41.98500
C  4.19900 49.85700 40.76500
C  4.04200 48.89000 39.71900
O  3.42000 49.01900 38.67900
O  4.61900 47.68600 40.09400
C  4.42400 46.54600 39.20400
H  8.46400 54.21700 37.62200
H  4.10300 58.88100 38.35200
H  0.70500 54.79400 42.25500
H  7.09600 50.19600 39.93500
H  8.51600 51.77900 38.00400
H  9.19300 51.33500 40.62400
H  8.82900 53.05200 40.62900
H  10.02700 52.42800 39.43600
H  5.97700 49.12800 38.04800
H  7.54800 49.58800 37.53200
H  5.59900 51.71300 36.95500
H  5.07000 50.07200 36.32700
H  8.76300 57.02300 35.61500
H  9.36100 56.02600 37.01300
H  9.35200 57.76000 37.22800
H  4.94100 60.53200 36.80300
H  6.32200 61.43100 37.08100
H  5.71000 60.59200 38.47800
H  1.70700 58.76300 39.34000
H  1.18500 57.56900 41.96400
H  2.50400 60.47600 40.54000
H  3.71600 59.33400 41.20600
H  2.27200 59.59300 42.09000
H  -0.30900 56.23400 40.04000
H  -0.51900 57.93600 39.68800
H  -1.89100 58.38000 41.24700
H  -1.03500 57.60000 42.54700
H  -2.06300 56.60800 41.59300
H  0.85000 52.44500 43.88000
H  0.16700 51.11700 43.03100
H  -0.32800 52.71500 42.56200
H  4.99200 49.47800 41.40900
H  5.05900 46.41100 38.32900
H  3.45500 46.47300 38.71100
H  4.65300 45.62900 39.74800

