158

Mg 41.94400 40.31800 27.58500
C  40.94900 42.76700 29.87300
C  43.20300 38.42600 30.02400
C  42.60600 38.13100 25.15900
C  41.09100 42.77700 24.97500
N  42.01100 40.57200 29.74900
C  41.47700 41.58000 30.51600
C  41.80800 41.37300 32.01200
C  42.52400 39.99600 31.95500
C  42.70300 39.67100 30.42900
C  43.96700 40.06800 32.53500
C  40.57800 41.48900 32.93200
C  40.72000 42.10800 34.30100
H  40.26000 41.34500 35.58500
N  42.84400 38.47400 27.58800
C  43.23700 37.81600 28.70700
C  43.64800 36.44100 28.29700
C  43.47400 36.35200 26.90800
C  42.93500 37.67800 26.50700
C  44.10600 35.45900 29.25200
C  43.62500 35.16300 25.97600
O  43.33500 35.22400 24.77500
C  44.06400 33.89300 26.51100
N  41.92900 40.48900 25.36700
C  42.18600 39.34900 24.72000
C  42.03100 39.57600 23.24100
C  41.57000 41.06200 23.10400
C  41.48800 41.53100 24.56600
C  43.09400 39.23800 22.24400
C  40.22900 41.29700 22.35300
C  38.80600 41.07200 22.94400
N  41.18900 42.32800 27.44100
C  40.99100 43.17200 26.30600
C  40.51400 44.46900 26.68100
C  40.51200 44.43300 28.05700
C  40.90700 43.04300 28.50300
C  40.12100 45.57100 25.70500
C  40.19400 45.05200 29.34200
O  39.72000 46.21000 29.61700
C  40.66400 44.09000 30.51600
C  41.85600 44.59600 31.26800
O  42.95600 44.98800 30.79500
O  41.51600 44.60800 32.61600
C  42.54600 45.05000 33.57200
H  43.40700 37.68000 30.79500
H  42.59600 37.35300 24.39300
H  40.74000 43.35100 24.11500
H  42.61700 42.06900 32.23300
H  41.99300 39.18800 32.45900
H  44.16300 40.90400 33.20700
H  44.71900 39.92000 31.76000
H  44.07700 39.25200 33.24800
H  40.27200 40.45700 33.10200
H  39.76700 42.01600 32.42900
H  40.32500 43.12400 34.30600
H  41.80100 42.12300 34.44700
H  45.00700 35.00800 28.83500
H  43.30100 34.74900 29.44300
H  44.41000 35.98800 30.15500
H  43.46200 33.52900 27.34400
H  45.11100 34.01200 26.79200
H  43.98300 33.14400 25.72400
H  41.17800 38.97700 22.92100
H  42.47100 41.57700 22.77100
H  43.03600 39.62000 21.22500
H  43.17300 38.15300 22.18200
H  44.03000 39.69100 22.57000
H  40.21500 40.55500 21.55400
H  40.34700 42.24500 21.82900
H  38.88300 40.78700 23.99300
H  38.21000 40.27000 22.51100
H  38.28200 42.02800 22.92700
H  39.89500 45.16600 24.71800
H  40.79600 46.42700 25.72500
H  39.20900 45.98300 26.13800
H  39.82200 43.92400 31.18800
H  43.47100 44.53900 33.30700
H  42.08800 44.86800 34.54400
H  42.59500 46.13100 33.44200
Mg -5.03600 25.97400 25.95000
C  -3.99000 27.26500 28.91200
C  -6.87800 23.54900 27.69500
C  -5.80500 24.42100 23.11000
C  -2.94900 28.03000 24.27800
N  -5.28500 25.36400 28.04800
C  -4.87100 26.17400 29.10900
C  -5.46600 25.61300 30.43700
C  -6.09200 24.20600 30.06100
C  -6.11000 24.37500 28.47700
C  -5.33000 22.89100 30.45900
C  -6.38500 26.52500 31.19400
C  -6.38500 26.51400 32.80200
H  -5.64900 25.39400 33.53000
N  -6.32700 24.35900 25.48900
C  -6.97800 23.49700 26.30800
C  -7.87800 22.72300 25.54700
C  -7.47000 22.80700 24.17500
C  -6.55400 23.95000 24.21700
C  -8.77100 21.66700 26.14100
C  -7.87900 21.96700 22.91500
O  -7.20900 22.04400 21.91300
C  -9.01100 20.97100 23.00300
N  -4.55300 26.29300 23.98400
C  -4.90600 25.43600 23.00500
C  -4.24700 25.73700 21.61400
C  -3.51000 27.06900 21.96800
C  -3.74500 27.23000 23.48500
C  -3.33700 24.53900 21.10900
C  -3.94900 28.29300 21.12800
C  -3.12500 28.69500 19.91900
N  -3.61200 27.27600 26.46900
C  -2.86400 28.11800 25.71500
C  -2.09300 29.05800 26.46400
C  -2.54300 28.72500 27.76700
C  -3.47300 27.68700 27.70400
C  -1.21500 30.15600 25.97300
C  -2.52900 29.16500 29.14100
O  -2.04100 30.19000 29.62500
C  -3.42100 28.20900 29.95200
C  -2.54400 27.46700 30.89700
O  -1.80600 26.52800 30.57600
O  -2.70800 27.93200 32.16800
C  -1.84500 27.36500 33.21100
H  -7.38900 22.76500 28.25700
H  -5.82000 23.94100 22.12900
H  -2.41400 28.76500 23.67300
H  -4.66300 25.45600 31.15800
H  -7.12000 24.12000 30.41400
H  -5.30600 22.18300 29.63100
H  -5.91000 22.36300 31.21600
H  -4.27600 23.02300 30.70300
H  -7.44300 26.32900 31.02000
H  -6.20900 27.56300 30.91400
H  -7.43000 26.54500 33.11400
H  -5.97000 27.48900 33.05700
H  -8.23500 20.72100 26.06100
H  -9.63300 21.59900 25.47800
H  -9.06000 21.90800 27.16400
H  -9.19800 20.31900 22.14900
H  -9.95500 21.49400 23.16100
H  -8.68200 20.29400 23.79000
H  -5.10600 25.85000 20.95300
H  -2.44700 26.84900 21.87300
H  -3.66500 23.63500 21.62100
H  -2.27500 24.58300 21.34900
H  -3.61100 24.43400 20.05900
H  -3.97400 29.14300 21.81000
H  -5.02700 28.22000 20.98800
H  -3.92200 29.00700 19.24400
H  -2.51000 27.88600 19.52600
H  -2.48900 29.55400 20.13300
H  -1.91300 30.78200 25.41700
H  -0.39000 29.82000 25.34500
H  -0.88600 30.78900 26.79700
H  -4.22100 28.64500 30.55100
H  -0.80500 27.68200 33.14600
H  -1.98700 26.28600 33.15200
H  -2.17600 27.75400 34.17400

