158

Mg 48.64500 14.93300 28.02100
C  46.91000 15.24200 31.13900
C  51.12900 16.75200 29.41100
C  50.01500 15.20300 25.08000
C  45.60400 13.80900 26.60300
N  48.92300 15.96100 30.10500
C  48.12500 15.93100 31.18700
C  48.78800 16.51600 32.41800
C  50.16800 17.06200 31.80200
C  50.06300 16.59100 30.39000
C  50.35000 18.60300 32.00000
C  48.95400 15.45300 33.56700
C  48.42400 15.85200 34.97500
H  48.36700 17.37200 35.39200
N  50.43900 15.75100 27.34300
C  51.36000 16.41600 28.06700
C  52.51500 16.82400 27.24700
C  52.23000 16.31400 25.95300
C  50.86300 15.70300 26.10900
C  53.70300 17.52800 27.87300
C  53.08900 16.36900 24.64500
O  52.70400 15.99500 23.56500
C  54.40000 17.11600 24.72200
N  47.89800 14.61200 26.11000
C  48.72000 14.72500 25.03500
C  47.93600 14.46800 23.76900
C  46.54700 14.02200 24.22700
C  46.66500 14.11500 25.74800
C  48.02100 15.68200 22.87200
C  46.04100 12.72000 23.65800
C  46.63800 11.47500 24.31500
N  46.66400 14.62800 28.63200
C  45.63200 14.13500 27.93700
C  44.45000 13.97100 28.81500
C  44.96500 14.30500 30.04900
C  46.27000 14.76500 29.92300
C  43.07200 13.63900 28.45900
C  44.56400 14.36600 31.41700
O  43.50600 14.05800 31.94600
C  45.81700 14.96400 32.24500
C  45.38400 16.21000 32.90500
O  45.42200 17.33200 32.38700
O  44.71400 15.91900 34.01100
C  44.05300 17.02900 34.68900
H  51.91300 17.39600 29.81400
H  50.57800 15.16500 24.14600
H  44.58200 13.63000 26.26500
H  48.11100 17.29800 32.76200
H  50.94700 16.51000 32.32800
H  49.38000 19.08000 32.14200
H  50.94300 19.04500 31.19900
H  50.93000 18.69400 32.91900
H  49.95200 15.22200 33.94100
H  48.51500 14.50600 33.25200
H  49.02100 15.33900 35.72900
H  47.43400 15.40000 34.91600
H  54.12100 18.24700 27.16800
H  54.43000 16.76600 28.15200
H  53.46900 17.96400 28.84400
H  54.27700 18.16700 24.98200
H  54.88500 16.90600 23.76800
H  54.96400 16.56400 25.47400
H  48.48700 13.70300 23.22300
H  45.73600 14.69900 23.96000
H  49.05900 15.81400 22.56800
H  47.65500 16.57900 23.37300
H  47.44000 15.48200 21.97100
H  46.22700 12.67400 22.58500
H  44.96200 12.82000 23.78000
H  47.59500 11.73400 24.76700
H  46.72900 10.69400 23.55900
H  46.03900 11.10400 25.14700
H  43.08800 12.62800 28.05300
H  42.76700 14.25600 27.61400
H  42.38000 13.88300 29.26600
H  46.10500 14.29800 33.05800
H  44.79000 17.56400 35.28800
H  43.20400 16.63800 35.25100
H  43.47500 17.73300 34.09100
Mg -11.84900 15.65300 42.03300
C  -8.92400 13.81800 41.94400
C  -10.13900 18.29000 40.69100
C  -14.78700 17.23300 40.94800
C  -13.64500 12.76100 42.74100
N  -9.73600 15.97300 41.37900
C  -8.70600 15.09900 41.49000
C  -7.44900 15.63100 40.86600
C  -7.82600 17.12400 40.82000
C  -9.31100 17.16700 40.97000
C  -7.08100 17.97600 41.88600
C  -7.24300 14.93200 39.46200
C  -5.87400 14.38500 39.16400
H  -5.08800 14.80900 38.00700
N  -12.37400 17.50500 41.10500
C  -11.50100 18.44300 40.73100
C  -12.17100 19.63100 40.20600
C  -13.54500 19.26700 40.06000
C  -13.62600 17.92500 40.69500
C  -11.41000 20.89600 39.84600
C  -14.54100 19.94400 39.18000
O  -14.34500 21.02400 38.61600
C  -15.80800 19.13200 38.76800
N  -13.93300 15.11700 41.90000
C  -15.01800 15.94900 41.51700
C  -16.35200 15.17800 41.51100
C  -15.92100 13.76300 41.98300
C  -14.37500 13.86400 42.18400
C  -17.45900 15.84100 42.39100
C  -16.36600 12.60600 41.10700
C  -17.84200 12.14500 41.42700
N  -11.44500 13.67900 42.49000
C  -12.23600 12.60900 42.82900
C  -11.41800 11.49500 43.10500
C  -10.09700 11.87100 42.71000
C  -10.15700 13.25200 42.33400
C  -11.93900 10.07200 43.54100
C  -8.66300 11.46600 42.72900
O  -8.10300 10.53000 43.18400
C  -7.87600 12.71100 42.13600
C  -6.80100 13.12300 43.02600
O  -6.97000 13.40600 44.21000
O  -5.60400 13.28700 42.38200
C  -4.62000 14.15200 43.11400
H  -9.61000 19.21800 40.46300
H  -15.70300 17.78300 40.72100
H  -14.24300 11.86900 42.94200
H  -6.61700 15.48200 41.55500
H  -7.61900 17.56200 39.84300
H  -6.42600 17.38900 42.53000
H  -7.86000 18.54400 42.39500
H  -6.44200 18.70600 41.38900
H  -7.42600 15.57900 38.60400
H  -8.01400 14.16400 39.39100
H  -5.84600 13.30100 39.06200
H  -5.19100 14.60400 39.98500
H  -12.02600 21.76600 39.62000
H  -10.75300 20.77700 38.98500
H  -10.69000 21.21800 40.59900
H  -15.57800 18.08800 38.55000
H  -15.90700 19.44500 37.72800
H  -16.70300 19.42500 39.31700
H  -16.73500 15.12700 40.49200
H  -16.29600 13.53000 42.97900
H  -18.37200 15.82000 41.79600
H  -17.12600 16.82600 42.71700
H  -17.64200 15.27000 43.30100
H  -15.87100 11.67800 41.39300
H  -16.26300 12.79400 40.03800
H  -17.87300 11.51000 42.31300
H  -18.45000 11.67800 40.65200
H  -18.33600 13.06500 41.73800
H  -11.90500 9.32200 42.75200
H  -12.97800 10.16000 43.86000
H  -11.31000 9.79200 44.38600
H  -7.55800 12.31500 41.17200
H  -3.83200 13.55100 43.56800
H  -4.98600 14.88900 43.82800
H  -4.01700 14.64700 42.35200

