158

Mg 47.84100 15.72100 28.58900
C  45.77600 15.68700 31.59500
C  49.95500 17.83400 30.42900
C  49.61400 16.19700 25.86300
C  45.22000 14.10600 26.93300
N  47.77700 16.72100 30.73500
C  46.99900 16.32300 31.82900
C  47.50000 16.85200 33.13900
C  48.60900 17.91400 32.68300
C  48.83700 17.48100 31.20300
C  48.40400 19.40100 33.12500
C  47.92200 15.61400 34.04000
C  48.02400 15.74400 35.56900
H  47.78300 17.14100 36.14400
N  49.55200 16.80100 28.14600
C  50.31200 17.55400 29.08800
C  51.50600 17.93200 28.44100
C  51.42200 17.49800 27.04600
C  50.16000 16.81700 26.96900
C  52.67900 18.68600 29.06700
C  52.43000 17.63100 25.85400
O  52.15000 17.31100 24.70700
C  53.87600 18.15300 26.02900
N  47.51500 15.15400 26.55800
C  48.33300 15.50600 25.58800
C  47.86100 14.89500 24.25500
C  46.60700 14.04400 24.72900
C  46.39500 14.43100 26.17600
C  47.64400 15.97000 23.22500
C  46.78900 12.46600 24.68700
C  48.00400 11.83100 25.43900
N  45.88800 14.99300 29.10900
C  44.93000 14.39400 28.31600
C  43.69200 14.04700 29.05400
C  44.00700 14.53000 30.37400
C  45.32800 15.10900 30.37400
C  42.46700 13.28700 28.49200
C  43.53700 14.57600 31.70400
O  42.46000 14.14500 32.17600
C  44.61400 15.34700 32.52100
C  44.09600 16.55800 33.05100
O  44.17100 17.70500 32.58800
O  43.40000 16.20700 34.21500
C  42.30600 17.00000 34.69600
H  50.71400 18.42200 30.94900
H  50.10500 16.28300 24.89100
H  44.38300 13.63000 26.41700
H  46.68000 17.33400 33.67100
H  49.56800 17.60300 33.09700
H  48.43300 20.04700 32.24800
H  49.25700 19.61500 33.77000
H  47.46900 19.58500 33.65500
H  48.89400 15.40900 33.59000
H  47.33400 14.77400 33.67100
H  49.06200 15.45400 35.73100
H  47.30400 15.06400 36.02300
H  53.61700 18.13100 29.06800
H  52.40200 18.94300 30.08900
H  52.65600 19.66000 28.57900
H  54.32000 18.38600 25.06200
H  54.46200 17.55300 26.72500
H  53.80700 19.11900 26.52900
H  48.62100 14.20000 23.89900
H  45.76500 14.37200 24.12000
H  47.88300 16.99200 23.51700
H  46.60500 15.93900 22.89900
H  48.23900 15.72500 22.34500
H  46.89600 12.18800 23.63900
H  45.82400 12.06000 24.99200
H  48.59500 11.09100 24.90000
H  47.72100 11.45300 26.42200
H  48.80400 12.55100 25.61100
H  42.44300 13.15700 27.41000
H  41.54500 13.79000 28.78400
H  42.38800 12.29500 28.93800
H  44.87000 14.74700 33.39400
H  41.41100 16.38500 34.59700
H  42.08600 17.88100 34.09300
H  42.37300 17.45400 35.68400
Mg 26.15900 49.97500 26.34800
C  24.11600 51.17900 28.87500
C  28.48700 49.26900 28.71800
C  28.10700 48.73000 23.78700
C  23.78100 50.98200 23.94700
N  26.30500 50.32200 28.53400
C  25.29300 50.62700 29.38900
C  25.67500 50.41700 30.87700
C  27.16300 50.03500 30.72900
C  27.34400 49.89200 29.21600
C  28.08400 51.05600 31.44500
C  24.81800 49.19200 31.58200
C  24.17500 49.61800 32.93500
H  25.05900 50.52900 33.82300
N  28.06400 49.19200 26.24900
C  28.84500 49.00600 27.37700
C  30.10500 48.46700 26.89300
C  29.98800 48.24500 25.52000
C  28.71200 48.78600 25.08800
C  31.35800 48.33400 27.75000
C  31.06600 47.59800 24.55300
O  30.91000 47.60200 23.34200
C  32.36100 46.92400 25.09600
N  26.02800 50.01400 24.14600
C  26.94900 49.36500 23.36400
C  26.42200 49.23200 21.91500
C  25.01700 49.85100 21.97700
C  24.88900 50.28100 23.47400
C  27.42700 49.89500 20.93500
C  23.86300 48.78800 21.61000
C  23.84300 47.48700 22.44600
N  24.32400 50.96200 26.36200
C  23.47700 51.26400 25.31600
C  22.33200 51.91600 25.89200
C  22.46400 51.79700 27.31600
C  23.74600 51.29400 27.49300
C  21.10900 52.47900 25.21900
C  21.87400 52.13300 28.59900
O  20.81500 52.71500 28.91800
C  22.89000 51.68000 29.70700
C  23.31900 52.84700 30.53000
O  24.25500 53.62400 30.28800
O  22.42700 53.11600 31.55700
C  22.91600 54.11900 32.49200
H  29.33700 49.05400 29.36800
H  28.67300 48.27800 22.97000
H  23.00900 51.24400 23.22100
H  25.44500 51.40900 31.26500
H  27.38000 49.05700 31.15800
H  28.87900 51.46100 30.81800
H  28.50000 50.52600 32.30200
H  27.46100 51.91000 31.71100
H  25.50400 48.36300 31.75400
H  24.05400 48.86300 30.87800
H  23.96400 48.65000 33.38900
H  23.29700 50.18600 32.62400
H  31.41200 47.26200 27.94000
H  31.18200 48.90100 28.66400
H  32.27000 48.71300 27.28900
H  32.79300 46.25100 24.35400
H  32.20900 46.45100 26.06600
H  33.17200 47.61600 25.32300
H  26.40000 48.19600 21.57500
H  24.95700 50.76500 21.38600
H  28.28500 50.16600 21.55000
H  26.95400 50.84000 20.67000
H  27.71300 49.19600 20.14800
H  23.77700 48.48200 20.56700
H  22.96900 49.35500 21.87000
H  22.95700 47.37100 23.07000
H  24.75400 47.23800 22.98900
H  23.77200 46.68500 21.71000
H  20.18100 52.14500 25.68200
H  21.12500 52.10300 24.19600
H  21.23100 53.56200 25.20800
H  22.45800 50.89200 30.32400
H  23.36500 54.98000 31.99800
H  23.59800 53.66600 33.21200
H  22.10800 54.54500 33.08700

