158

Mg 15.91600 -2.53700 28.25500
C  15.05600 -0.43700 30.99000
C  17.88400 -4.30500 30.27500
C  17.42500 -3.96200 25.52800
C  14.34400 -0.26500 26.17300
N  16.39800 -2.31000 30.42500
C  15.93500 -1.46300 31.33700
C  16.38500 -1.83100 32.76400
C  17.34900 -3.06800 32.53400
C  17.17400 -3.23500 31.00200
C  18.90400 -2.86000 32.82200
C  15.32000 -2.11000 33.86700
C  15.29700 -1.38700 35.19900
H  16.64800 -0.75500 35.69200
N  17.40300 -4.01100 27.96200
C  18.04500 -4.56000 28.93500
C  18.87300 -5.59300 28.43200
C  18.77300 -5.55900 26.99400
C  17.84700 -4.51000 26.73500
C  19.65300 -6.57700 29.32700
C  19.47100 -6.37700 25.83800
O  19.17600 -6.25100 24.62800
C  20.45000 -7.48200 26.14400
N  15.98600 -2.11000 26.04500
C  16.56500 -2.92100 25.16700
C  16.22200 -2.49500 23.73600
C  15.03100 -1.46900 23.92600
C  15.16600 -1.19300 25.46300
C  17.53000 -1.97400 23.00800
C  13.58400 -1.98100 23.71700
C  12.55000 -0.93800 23.18000
N  14.80500 -0.77900 28.45600
C  14.12700 -0.06000 27.50200
C  13.37200 1.06200 28.20800
C  13.71500 0.96200 29.56000
C  14.62200 -0.16100 29.67500
C  12.59100 2.15100 27.44300
C  13.62900 1.60500 30.81700
O  13.18800 2.69900 31.07400
C  14.34000 0.63700 31.92500
C  15.17700 1.43400 32.90600
O  16.36500 1.74100 32.77500
O  14.30900 1.94500 33.88900
C  14.86600 3.04800 34.68100
H  18.39700 -5.04700 30.89100
H  17.89400 -4.41400 24.65100
H  13.74900 0.42800 25.57500
H  16.88600 -0.93500 33.12900
H  16.97100 -3.96200 33.03000
H  19.47700 -2.71500 31.90600
H  19.24500 -3.75600 33.34100
H  19.31900 -2.04500 33.41500
H  15.24400 -3.16700 34.12200
H  14.37200 -1.77900 33.44300
H  14.90000 -1.97400 36.02700
H  14.63400 -0.52600 35.10700
H  19.68100 -7.44800 28.67300
H  19.13700 -6.87600 30.23900
H  20.67700 -6.20800 29.39100
H  19.91100 -8.34000 26.54600
H  21.14900 -7.07400 26.87500
H  20.84300 -7.85300 25.19800
H  15.92200 -3.35500 23.13700
H  15.20800 -0.66200 23.21500
H  17.49400 -0.88500 22.98600
H  17.63500 -2.43800 22.02700
H  18.45300 -2.21600 23.53600
H  13.16400 -2.37100 24.64400
H  13.68800 -2.82500 23.03600
H  12.01300 -0.67100 24.09000
H  11.88900 -1.42400 22.46200
H  13.15000 -0.11100 22.80100
H  11.62500 2.22900 27.94100
H  12.50700 1.85800 26.39700
H  13.07900 3.11600 27.58200
H  13.55700 0.15000 32.50700
H  15.77100 2.71200 35.18700
H  14.17400 3.25500 35.49700
H  14.95500 3.85000 33.94800
Mg -10.59200 38.15500 41.30300
C  -8.63100 35.42600 40.36800
C  -8.25800 40.23900 39.55700
C  -12.78600 40.81100 41.56000
C  -13.01000 36.03400 42.58400
N  -8.76800 37.87100 39.85800
C  -8.12800 36.62700 39.77200
C  -6.71300 36.74800 39.18400
C  -6.53900 38.27000 39.08300
C  -7.93200 38.88600 39.51300
C  -5.35300 38.88900 39.78600
C  -6.61600 36.05200 37.77000
C  -5.53200 35.00400 37.55500
H  -4.37000 35.40200 36.61600
N  -10.46900 40.16200 40.78400
C  -9.41000 40.87200 40.11400
C  -9.67000 42.27900 40.11600
C  -10.96700 42.49400 40.61400
C  -11.47200 41.10200 41.01200
C  -8.66800 43.22600 39.48700
C  -11.73200 43.85000 40.78200
O  -11.16300 44.83500 40.32600
C  -13.05100 44.02400 41.39500
N  -12.75900 38.35400 41.69200
C  -13.39100 39.55300 41.87000
C  -14.74300 39.41400 42.47900
C  -14.79800 37.84100 42.80200
C  -13.42400 37.34500 42.29800
C  -15.07300 40.33900 43.66400
C  -15.89200 37.03200 42.05600
C  -16.69100 35.91100 42.76500
N  -10.79800 36.11200 41.45200
C  -11.80200 35.38800 42.04200
C  -11.42300 33.99600 42.16300
C  -10.17600 33.95900 41.47600
C  -9.84700 35.29700 41.05700
C  -12.14900 32.93700 42.89000
C  -9.12100 33.06300 41.08400
O  -8.91900 31.83600 41.32400
C  -8.04800 33.94900 40.36500
C  -6.74800 33.73700 41.07400
O  -5.90700 32.93100 40.86000
O  -6.62100 34.77100 41.95400
C  -5.39400 34.73200 42.77800
H  -7.45500 40.90000 39.22400
H  -13.25400 41.73600 41.90300
H  -13.73600 35.35800 43.04000
H  -5.97300 36.30900 39.85200
H  -6.44200 38.58500 38.04400
H  -4.56900 39.05200 39.04700
H  -4.99300 38.27300 40.61000
H  -5.58400 39.86200 40.22200
H  -6.33100 36.85600 37.09200
H  -7.63600 35.72800 37.56100
H  -6.09000 34.15600 37.15700
H  -5.07200 34.69300 38.49300
H  -7.74500 43.28100 40.06500
H  -8.97300 44.26800 39.39500
H  -8.58400 42.84600 38.46800
H  -13.02600 43.56200 42.38200
H  -13.86500 43.71800 40.73800
H  -13.15300 45.09100 41.58900
H  -15.35300 39.62700 41.60100
H  -15.01700 37.77000 43.86800
H  -16.04600 40.81600 43.54600
H  -14.14300 40.88200 43.83300
H  -15.10900 39.77100 44.59300
H  -15.55700 36.52600 41.15000
H  -16.62500 37.65900 41.54900
H  -16.34700 34.94000 42.40800
H  -17.77100 35.90200 42.61500
H  -16.57500 36.08400 43.83500
H  -11.50100 32.06600 42.79800
H  -13.11700 32.62400 42.49800
H  -12.26400 33.30900 43.90800
H  -7.96500 33.58900 39.34000
H  -5.46200 33.97000 43.55500
H  -5.41300 35.63300 43.39100
H  -4.51400 34.45800 42.19700

