158

Mg 24.39500 -6.00500 44.77900
C  26.66600 -3.88000 43.46800
C  21.94600 -4.54600 43.05700
C  22.50400 -8.82400 45.27500
C  27.03300 -7.72500 46.34700
N  24.35300 -4.44200 43.28500
C  25.36900 -3.62900 43.01400
C  25.02400 -2.55200 41.99900
C  23.48400 -2.59700 42.16400
C  23.24800 -3.91100 42.96900
C  22.81700 -1.43300 43.01000
C  25.71400 -2.84900 40.67200
C  26.40700 -1.75900 39.89000
H  26.21400 -1.90000 38.38900
N  22.42300 -6.57500 44.28500
C  21.49700 -5.79200 43.66000
C  20.25400 -6.49100 43.58600
C  20.35600 -7.75500 44.18200
C  21.83300 -7.79600 44.62200
C  19.03500 -5.92100 42.82800
C  19.25000 -8.81400 44.30400
O  18.10200 -8.59000 43.95800
C  19.55900 -10.23700 44.90200
N  24.85600 -8.14900 45.37100
C  23.85900 -9.01200 45.61700
C  24.30000 -10.32800 46.33000
C  25.64900 -9.85200 46.95700
C  25.84300 -8.48900 46.15400
C  23.32200 -10.85400 47.31300
C  26.87300 -10.90500 46.86400
C  27.57400 -11.18000 48.26500
N  26.47500 -5.82000 45.06400
C  27.40200 -6.54600 45.73700
C  28.75000 -5.91000 45.60100
C  28.45200 -4.81500 44.77300
C  27.10000 -4.85200 44.43900
C  30.11500 -6.38100 46.09600
C  29.03500 -3.67300 44.10400
O  30.15500 -3.20700 44.05900
C  27.85000 -2.94400 43.34100
C  27.62000 -1.63900 43.83000
O  26.85100 -1.39000 44.71300
O  28.35300 -0.66800 43.07400
C  28.04700 0.74200 43.34600
H  21.13700 -4.00800 42.55900
H  21.81000 -9.60100 45.60200
H  27.86400 -8.31300 46.74200
H  25.33200 -1.56000 42.33000
H  23.00200 -2.75400 41.19900
H  22.77100 -0.49800 42.45300
H  23.40300 -1.22800 43.90600
H  21.84600 -1.81200 43.33000
H  24.88700 -3.29600 40.12000
H  26.43400 -3.66700 40.70900
H  27.47400 -1.69200 40.10200
H  26.13400 -0.79000 40.30700
H  18.81800 -6.47100 41.91200
H  19.10100 -4.84400 42.67900
H  18.16700 -6.03000 43.47900
H  18.68600 -10.88700 44.84200
H  19.85900 -10.11000 45.94200
H  20.37100 -10.73500 44.37300
H  24.52400 -10.99400 45.49700
H  25.47600 -9.55800 47.99200
H  23.85800 -11.08500 48.23400
H  22.96400 -11.82900 46.98500
H  22.42300 -10.28100 47.54100
H  27.51000 -10.40800 46.13400
H  26.48100 -11.73400 46.27500
H  27.38200 -12.25200 48.31300
H  27.13100 -10.59800 49.07300
H  28.64700 -10.99900 48.20500
H  30.37200 -7.43700 46.02100
H  30.18200 -6.21300 47.17100
H  30.91600 -5.78300 45.66100
H  28.08600 -2.77200 42.29100
H  28.50100 1.05500 44.28600
H  26.97900 0.96000 43.36800
H  28.60700 1.24900 42.56000
Mg 17.32900 51.13400 25.96000
C  19.23800 50.27500 28.75100
C  14.80000 52.10900 28.20600
C  15.59100 52.16800 23.38700
C  19.66500 49.72200 23.84500
N  17.22300 51.32900 28.27600
C  18.07600 50.88800 29.17500
C  17.54000 51.14700 30.64800
C  16.02100 51.42500 30.46700
C  15.98300 51.64800 28.84200
C  15.09400 50.28900 30.82600
C  18.27400 52.20800 31.41300
C  17.72400 52.57200 32.83700
H  16.77900 51.65800 33.61700
N  15.41500 51.91400 25.84800
C  14.62800 52.36000 26.83200
C  13.67500 53.25000 26.32900
C  13.79700 53.28900 24.87800
C  14.99100 52.43100 24.63800
C  12.60600 53.98100 27.16200
C  13.05000 54.05500 23.78100
O  13.31700 53.87800 22.60200
C  11.78400 54.84500 24.07600
N  17.48600 50.68800 23.87900
C  16.73200 51.49500 23.06000
C  17.28500 51.35400 21.60200
C  18.79800 50.81900 21.83000
C  18.64500 50.34200 23.29100
C  16.46300 50.59600 20.55600
C  19.97300 51.86000 21.62200
C  21.18300 51.35300 20.87600
N  19.13600 50.12500 26.18100
C  19.94400 49.54000 25.27700
C  21.12000 48.97500 25.97100
C  20.88600 49.12700 27.33200
C  19.65100 49.95800 27.40600
C  22.26200 48.41700 25.29000
C  21.37000 48.92900 28.66300
O  22.37800 48.37600 29.10000
C  20.27200 49.60000 29.65600
C  19.62100 48.60400 30.57600
O  18.73600 47.84400 30.30100
O  20.06300 48.83200 31.88700
C  19.31900 48.14500 32.92500
H  13.97000 52.29300 28.89100
H  15.19500 52.66100 22.49700
H  20.44700 49.43600 23.13900
H  17.73400 50.21100 31.17200
H  15.75400 52.36700 30.94500
H  14.17100 50.64800 31.28100
H  15.63600 49.60500 31.47900
H  14.68400 49.75700 29.96800
H  18.37200 53.12800 30.83700
H  19.29100 51.81800 31.46100
H  17.24200 53.52300 32.60900
H  18.55800 52.76300 33.51200
H  12.92600 55.01200 27.30900
H  12.39800 53.48400 28.10900
H  11.62900 53.97400 26.67900
H  11.94900 55.66600 24.77400
H  11.21400 54.11600 24.65200
H  11.06100 54.92900 23.26500
H  17.37200 52.39000 21.27700
H  18.86700 49.92600 21.20900
H  16.55600 51.00900 19.55200
H  15.40200 50.64500 20.80100
H  16.83400 49.57100 20.52800
H  20.17100 52.32900 22.58600
H  19.58000 52.68300 21.02500
H  21.32500 52.01900 20.02500
H  21.24200 50.31600 20.54400
H  22.07500 51.60100 21.45100
H  22.12800 48.38600 24.20900
H  22.32200 47.38900 25.64500
H  23.21000 48.88600 25.55500
H  20.69900 50.36700 30.30200
H  19.14200 48.90700 33.68400
H  20.11800 47.52800 33.33800
H  18.42100 47.56000 32.72900

