158

Mg 1.38100 8.37500 25.02900
C  1.88100 10.36100 27.80200
C  1.50500 5.60400 26.81400
C  0.89700 6.53400 22.20500
C  1.17700 11.34400 23.07600
N  1.76200 8.04500 27.08600
C  1.90300 9.00100 28.07200
C  2.03800 8.32500 29.49600
C  2.01200 6.79200 29.06200
C  1.70300 6.80100 27.55900
C  3.38100 6.05900 29.32700
C  0.81100 8.65200 30.45900
C  1.10300 8.72900 31.96700
H  2.33300 7.94400 32.58500
N  1.35000 6.34100 24.52600
C  1.47000 5.37300 25.51100
C  1.26500 4.13000 24.86500
C  0.97500 4.31600 23.49900
C  1.07500 5.77700 23.35000
C  1.26900 2.81800 25.53800
C  0.63400 3.38500 22.35300
O  0.19300 3.71300 21.25400
C  0.65500 1.99400 22.64200
N  1.20100 8.90200 22.92200
C  0.99700 7.91000 21.96700
C  0.78500 8.56800 20.57800
C  0.55600 10.13700 20.92500
C  0.94600 10.17900 22.40000
C  2.10200 8.36600 19.75900
C  -0.84600 10.68400 20.60200
C  -0.85100 11.39800 19.24600
N  1.47100 10.41500 25.33700
C  1.37400 11.52100 24.40900
C  1.50200 12.83700 25.15500
C  1.66500 12.41500 26.50000
C  1.71000 10.93800 26.51300
C  1.66200 14.22700 24.52500
C  1.87300 12.89000 27.81200
O  1.93700 14.01400 28.23900
C  1.93400 11.62300 28.70800
C  3.06100 11.81400 29.64500
O  4.19400 12.01300 29.27400
O  2.59800 11.88000 30.92700
C  3.45600 12.38400 32.00300
H  1.58600 4.76000 27.50200
H  0.88600 5.99600 21.25400
H  1.21900 12.20900 22.41100
H  2.99500 8.64200 29.90900
H  1.23600 6.19900 29.54700
H  3.19500 5.25700 30.04100
H  4.20400 6.64500 29.73300
H  3.72700 5.54300 28.43100
H  0.00900 7.94200 30.26000
H  0.50700 9.66600 30.20100
H  0.23000 8.26500 32.42500
H  1.08900 9.78400 32.23900
H  2.04400 2.17400 25.12200
H  0.31500 2.32300 25.71800
H  1.74400 3.04600 26.49300
H  0.50200 1.45700 21.70700
H  -0.22900 2.06100 23.27700
H  1.57300 1.66000 23.12500
H  -0.02500 8.03500 20.07800
H  1.28000 10.79600 20.44600
H  2.05600 7.31400 19.47500
H  2.96800 8.48600 20.40800
H  2.13000 8.97400 18.85500
H  -1.17200 11.33600 21.41200
H  -1.44000 9.78200 20.45900
H  -1.69200 11.12200 18.61100
H  0.05200 11.41000 18.63600
H  -1.15600 12.39400 19.56800
H  0.99400 14.93900 25.00900
H  1.45800 14.23700 23.45400
H  2.68500 14.60100 24.56800
H  1.04700 11.76600 29.32500
H  3.95700 11.46500 32.31000
H  2.88000 12.77900 32.84000
H  4.15300 13.14100 31.64400
Mg 53.39400 24.02300 44.64600
C  50.53000 26.10900 43.89200
C  51.79400 21.52600 43.17600
C  56.33100 22.46900 44.74400
C  54.90600 27.01700 45.87900
N  51.53300 23.93200 43.44200
C  50.53100 24.88500 43.29200
C  49.40500 24.30000 42.39200
C  49.58100 22.80400 42.72600
C  51.04700 22.68200 43.12300
C  48.73000 22.19800 43.82100
C  49.75500 24.59200 40.90700
C  48.56700 24.68300 39.90600
H  48.87400 24.14500 38.45400
N  53.99700 22.22900 44.07500
C  53.19100 21.27900 43.53600
C  53.91600 20.08700 43.42700
C  55.16600 20.34400 44.05700
C  55.25700 21.72900 44.22800
C  53.33100 18.85500 42.96600
C  56.20100 19.28700 44.29900
O  56.19800 18.21800 43.76500
C  57.41000 19.54300 45.10000
N  55.34500 24.68600 45.23600
C  56.36700 23.78200 45.26400
C  57.69600 24.43100 45.82500
C  57.17000 25.85500 46.26800
C  55.74200 25.89200 45.70100
C  58.49100 23.65600 46.89600
C  58.03800 27.14800 45.90800
C  58.45800 27.54100 44.45100
N  52.84100 26.13000 44.91300
C  53.55200 27.15000 45.53000
C  52.68800 28.26700 45.76700
C  51.46500 27.89900 45.11800
C  51.62800 26.59800 44.61300
C  52.89300 29.56800 46.58900
C  50.11100 28.36200 44.76500
O  49.50400 29.33600 45.14700
C  49.47600 27.16800 43.88800
C  49.18200 27.76200 42.57700
O  50.06000 28.18300 41.82900
O  47.85900 27.67600 42.18600
C  47.37300 28.55700 41.11800
H  51.22200 20.63000 42.92700
H  57.30100 22.00800 44.93700
H  55.27300 27.94900 46.31400
H  48.39300 24.65600 42.58600
H  49.42500 22.16300 41.85900
H  48.71500 21.13400 43.58300
H  47.73200 22.63000 43.73900
H  49.22200 22.34100 44.78200
H  50.32300 23.73900 40.53600
H  50.38300 25.47800 40.81400
H  48.49500 25.75900 39.75300
H  47.63200 24.30500 40.31800
H  53.53300 18.83900 41.89500
H  52.25600 18.77100 43.12300
H  53.80300 17.94000 43.32300
H  58.17700 20.09000 44.55300
H  57.85000 18.56200 45.28200
H  57.23200 19.97900 46.08300
H  58.52000 24.66300 45.14900
H  57.05200 25.95300 47.34800
H  59.52300 23.51900 46.57500
H  58.07200 22.69800 47.20300
H  58.59700 24.26200 47.79600
H  58.93100 26.99300 46.51400
H  57.49300 27.95900 46.39000
H  58.22100 26.81400 43.67400
H  59.53200 27.36500 44.49700
H  58.19500 28.53900 44.10100
H  51.91600 30.04900 46.63800
H  53.60000 30.22100 46.07900
H  53.28400 29.22700 47.54800
H  48.47800 26.95600 44.27300
H  46.49300 29.07600 41.49900
H  47.23000 27.87700 40.27800
H  48.00400 29.36100 40.74000

