158

Mg 31.29300 57.74600 40.12700
C  28.57600 56.18400 38.63200
C  33.36100 55.48800 38.59300
C  33.99100 59.75000 40.84400
C  29.18500 60.31600 41.25900
N  30.93500 56.03500 38.79500
C  29.76200 55.52500 38.30900
C  29.96700 54.26200 37.35600
C  31.46600 53.91300 37.75700
C  31.95300 55.20700 38.47700
C  31.56500 52.63700 38.56400
C  29.70700 54.71900 35.89800
C  28.93500 53.68000 35.02000
H  28.38700 54.17100 33.64100
N  33.38900 57.56300 39.85500
C  34.00000 56.58200 39.10500
C  35.43800 56.72300 39.26700
C  35.70200 58.01400 39.93100
C  34.34300 58.51600 40.28300
C  36.39300 55.73000 38.71400
C  37.06900 58.63400 40.19200
O  38.11300 58.01300 39.92800
C  37.21000 59.85600 40.99000
N  31.49300 59.72800 40.75500
C  32.75000 60.23900 41.07000
C  32.67200 61.66200 41.74400
C  31.19500 61.69800 42.13300
C  30.56600 60.53400 41.33800
C  33.59200 61.98800 42.99500
C  30.43200 63.03800 41.95800
C  30.47900 63.98900 43.10500
N  29.31000 58.16800 40.06600
C  28.51900 59.25500 40.56000
C  27.11200 59.00200 40.44300
C  27.13500 57.82900 39.61300
C  28.44000 57.36400 39.45700
C  25.94000 59.82300 40.92800
C  26.22000 56.98100 38.88100
O  24.96700 56.90200 38.70300
C  27.21700 55.96300 38.12200
C  26.76200 54.58300 38.25500
O  27.08300 53.87400 39.20500
O  25.84500 54.15900 37.27500
C  25.25900 52.85400 37.43100
H  33.96100 54.69700 38.13800
H  34.77200 60.49400 41.01300
H  28.44200 60.95900 41.73700
H  29.25500 53.47700 37.60700
H  32.01400 53.74500 36.83000
H  30.71400 51.96400 38.66000
H  31.76500 52.88600 39.60600
H  32.40400 52.04600 38.19600
H  30.64000 54.93800 35.37900
H  29.14500 55.65200 35.91800
H  28.01500 53.42700 35.54800
H  29.56500 52.80500 34.86100
H  35.87000 54.97400 38.12900
H  36.92500 55.25700 39.54000
H  37.07100 56.09400 37.94300
H  38.27200 59.88600 41.23400
H  36.68700 59.67000 41.92800
H  36.82600 60.66500 40.36900
H  32.97400 62.40900 41.01000
H  30.93900 61.41700 43.15400
H  34.29100 61.18800 43.23500
H  32.95300 62.19400 43.85400
H  34.27300 62.77100 42.66300
H  29.40000 62.92800 41.62400
H  30.98200 63.53800 41.16000
H  31.13700 64.85500 43.03400
H  30.99300 63.44800 43.89900
H  29.51500 64.41800 43.37700
H  25.60900 59.42600 41.88800
H  25.10200 59.66700 40.24900
H  26.30300 60.84700 41.01600
H  27.22400 56.18900 37.05600
H  25.42000 52.35300 38.38600
H  25.50900 52.10900 36.67600
H  24.18200 53.01700 37.39800
Mg -6.18700 25.09100 25.95900
C  -4.46200 25.99500 28.88000
C  -8.14200 22.95100 27.72800
C  -7.24300 23.95700 23.06600
C  -3.59600 26.75400 24.22900
N  -6.15900 24.48800 28.03700
C  -5.53600 25.20300 29.05900
C  -6.04900 24.68700 30.38300
C  -7.02400 23.51800 30.02800
C  -7.11500 23.59400 28.50400
C  -6.50800 22.17200 30.56400
C  -6.71200 25.86800 31.16600
C  -6.49500 26.05400 32.73100
H  -5.97500 24.91900 33.57200
N  -7.55900 23.64800 25.44300
C  -8.37200 22.92400 26.32400
C  -9.28200 22.08800 25.54100
C  -8.97300 22.42100 24.14700
C  -7.88200 23.40800 24.16200
C  -10.24400 21.14800 26.18500
C  -9.72800 21.95300 22.95700
O  -9.46800 22.35200 21.83700
C  -10.88300 21.02200 23.13200
N  -5.37300 25.24400 23.93700
C  -6.09600 24.69600 22.90500
C  -5.51100 24.98100 21.57500
C  -4.44100 26.04900 21.99200
C  -4.44400 26.00400 23.50200
C  -4.79200 23.71700 20.94400
C  -4.74000 27.51000 21.47200
C  -4.24500 27.74000 20.00800
N  -4.50200 26.31100 26.40400
C  -3.56900 26.94700 25.60400
C  -2.48300 27.60800 26.34900
C  -2.81500 27.30900 27.66900
C  -4.04100 26.53800 27.65400
C  -1.26500 28.39200 25.81000
C  -2.40300 27.36200 29.07200
O  -1.50100 27.87700 29.65700
C  -3.55200 26.67600 29.85900
C  -2.90800 25.84500 30.92400
O  -2.53500 24.71600 30.83000
O  -2.79100 26.44600 32.12700
C  -1.77800 26.01100 33.01300
H  -8.78400 22.25100 28.26700
H  -7.56100 23.73600 22.04500
H  -2.77600 27.24400 23.70000
H  -5.23400 24.32100 31.00700
H  -8.03400 23.71000 30.38800
H  -5.85400 22.24500 31.43300
H  -5.87300 21.90700 29.71800
H  -7.37800 21.52200 30.65400
H  -7.79700 25.90600 31.07400
H  -6.35400 26.72500 30.59700
H  -7.41600 26.50500 33.09900
H  -5.76900 26.84300 32.92700
H  -11.17500 21.69100 26.02300
H  -10.19200 20.97900 27.26000
H  -10.23700 20.16000 25.72300
H  -11.64700 21.40700 23.80600
H  -10.40200 20.14800 23.57100
H  -11.23900 20.72900 22.14400
H  -6.29100 25.45400 20.97800
H  -3.43300 25.75500 21.69800
H  -3.78600 24.05000 20.68900
H  -5.45100 23.39300 20.13900
H  -4.77100 22.98700 21.75300
H  -4.37400 28.30500 22.12100
H  -5.82100 27.65000 21.49200
H  -3.23600 28.15400 20.02900
H  -5.01300 28.34400 19.52600
H  -4.16500 26.76400 19.52800
H  -1.66600 29.32000 25.40200
H  -0.84100 27.76700 25.02400
H  -0.57000 28.57500 26.63100
H  -4.08700 27.46100 30.39300
H  -2.19000 25.15400 33.54500
H  -1.31600 26.76100 33.65600
H  -0.95600 25.79800 32.32900

