158

Mg 17.23900 -1.34100 28.40200
C  16.16600 0.64400 30.97900
C  19.46500 -2.96400 30.65300
C  18.89400 -2.79700 25.84300
C  15.68200 0.76600 26.16600
N  17.79900 -1.18500 30.53700
C  17.08000 -0.32900 31.43300
C  17.53800 -0.67100 32.92500
C  18.74300 -1.70100 32.75700
C  18.71500 -1.93700 31.18500
C  20.11200 -1.23000 33.26600
C  16.30000 -1.15700 33.81400
C  16.30200 -0.83600 35.33500
H  17.63800 -0.79400 36.06300
N  18.78600 -2.87700 28.32300
C  19.53400 -3.45600 29.31500
C  20.37000 -4.54000 28.81000
C  20.18100 -4.55200 27.35400
C  19.29500 -3.37400 27.12500
C  21.29700 -5.30800 29.75900
C  20.74000 -5.54400 26.30600
O  20.42400 -5.41800 25.12300
C  21.64500 -6.68500 26.69800
N  17.29500 -0.99100 26.32300
C  18.04500 -1.78400 25.49700
C  17.76700 -1.39200 23.95400
C  16.63500 -0.28800 24.02400
C  16.48900 -0.20800 25.57800
C  19.07700 -0.89900 23.21100
C  15.35600 -0.66000 23.25800
C  14.09500 -1.22200 23.98700
N  16.10700 0.41600 28.49600
C  15.49100 1.13500 27.53300
C  14.73500 2.20000 28.15400
C  15.02800 2.07100 29.52300
C  15.90500 0.93400 29.63800
C  13.82400 3.24700 27.48400
C  14.67100 2.67400 30.77100
O  13.91500 3.55500 31.14500
C  15.33700 1.69300 31.78000
C  16.26000 2.55900 32.66700
O  17.20100 3.16700 32.29800
O  15.92100 2.52400 33.98900
C  16.83500 3.24100 34.92300
H  20.02900 -3.43800 31.46000
H  19.35400 -3.29100 24.98400
H  15.05600 1.42800 25.56400
H  17.85600 0.26300 33.38700
H  18.47200 -2.62400 33.26900
H  20.43600 -1.83600 34.11300
H  19.98800 -0.20000 33.60000
H  20.83400 -1.18800 32.45000
H  16.44000 -2.23800 33.81600
H  15.41100 -0.84400 33.26600
H  15.67300 -1.65800 35.67700
H  15.70000 0.07200 35.38200
H  22.33700 -5.26800 29.43400
H  20.94000 -6.33100 29.87400
H  21.29600 -4.80000 30.72300
H  22.02500 -6.68000 27.72000
H  22.51000 -6.70200 26.03400
H  20.94000 -7.50800 26.58900
H  17.39700 -2.29300 23.46500
H  16.97900 0.70000 23.72000
H  18.94300 0.08300 22.75700
H  19.35000 -1.67200 22.49200
H  19.85800 -0.76200 23.95900
H  15.58000 -1.31900 22.42000
H  15.13300 0.28300 22.76100
H  13.26700 -0.51400 24.02100
H  14.38100 -1.52600 24.99400
H  13.79700 -2.04700 23.34000
H  12.92600 3.17700 28.09800
H  13.57700 3.06100 26.43900
H  14.39900 4.16800 27.57900
H  14.57400 1.20700 32.38700
H  16.22300 3.83500 35.60200
H  17.50900 3.90600 34.38300
H  17.45100 2.59400 35.54800
Mg -9.87000 17.40000 41.03000
C  -6.43900 17.31500 41.29600
C  -9.79000 20.72900 40.34200
C  -13.16600 17.24500 40.21800
C  -9.83700 13.94900 41.37600
N  -8.25400 18.83800 40.70100
C  -6.95900 18.61300 40.95100
C  -6.19800 19.91700 40.66700
C  -7.25600 21.05500 40.85500
C  -8.55500 20.19700 40.68300
C  -7.18500 21.80100 42.22600
C  -5.56200 19.92600 39.29300
C  -4.08100 19.78900 39.08300
H  -3.42900 18.68100 38.22700
N  -11.26600 18.79900 40.33600
C  -11.06000 20.14000 40.14500
C  -12.26500 20.80900 39.66000
C  -13.28500 19.79700 39.59700
C  -12.61700 18.54300 40.10900
C  -12.26300 22.25300 39.21600
C  -14.76200 20.01400 39.08700
O  -15.10100 21.10500 38.57200
C  -15.81200 18.89500 38.89400
N  -11.30200 15.72900 40.55000
C  -12.57100 15.95300 40.38900
C  -13.41700 14.64400 40.45600
C  -12.31100 13.60800 41.03300
C  -10.99700 14.45100 40.88800
C  -14.75400 14.66800 41.28600
C  -12.28400 12.20900 40.21100
C  -12.51300 10.99700 41.14900
N  -8.42500 15.84300 41.22100
C  -8.57200 14.51300 41.29400
C  -7.34600 13.87400 41.28800
C  -6.47100 14.94300 41.45700
C  -7.16500 16.12600 41.27100
C  -7.02900 12.34700 41.30400
C  -5.10600 15.29000 41.58000
O  -4.06300 14.60000 41.67000
C  -5.00400 16.86400 41.43700
C  -4.39200 17.53200 42.65800
O  -3.45000 18.29300 42.57500
O  -5.17500 17.23300 43.76600
C  -4.57300 17.96300 44.87300
H  -9.75800 21.78600 40.07000
H  -14.24700 17.32200 40.08400
H  -9.75100 12.87000 41.52100
H  -5.45300 20.03300 41.45400
H  -7.31700 21.77800 40.04100
H  -6.96800 21.16100 43.08200
H  -8.05400 22.40400 42.48600
H  -6.47500 22.59200 41.98800
H  -5.91700 20.85500 38.84800
H  -6.08400 19.10000 38.80800
H  -3.68900 19.75500 40.09900
H  -3.72300 20.67600 38.56000
H  -13.30300 22.57900 39.20500
H  -11.76500 22.29200 38.24700
H  -11.73100 22.80700 39.98900
H  -15.36300 18.18600 38.19900
H  -16.72300 19.33300 38.48500
H  -16.07900 18.39000 39.82200
H  -13.75300 14.29100 39.48100
H  -12.46300 13.43700 42.09900
H  -14.77900 13.94500 42.10100
H  -15.55300 14.36200 40.61100
H  -14.94500 15.59400 41.82800
H  -11.34900 12.19600 39.65100
H  -13.07700 12.24000 39.46300
H  -12.13600 10.19500 40.51400
H  -13.59000 10.87300 41.26100
H  -11.96400 11.10200 42.08400
H  -7.25800 11.98400 42.30700
H  -5.99100 12.06100 41.13500
H  -7.73900 11.75100 40.73100
H  -4.32400 17.09500 40.61800
H  -3.76800 17.40400 45.35200
H  -5.30900 17.94500 45.67700
H  -4.38500 19.02600 44.72300

