158

Mg 47.16100 25.50100 28.82400
C  47.76400 27.86600 31.34200
C  45.95700 23.31500 31.21500
C  46.80300 23.26100 26.45300
C  48.74600 27.75600 26.60200
N  46.73100 25.63700 31.02600
C  47.10200 26.69100 31.87500
C  46.90000 26.31100 33.32200
C  46.40700 24.80800 33.17200
C  46.29000 24.61800 31.67500
C  47.30400 23.76600 33.90600
C  45.86800 27.18000 34.07400
C  45.58700 26.73100 35.54300
H  45.71600 27.79400 36.63500
N  46.35900 23.62000 28.78500
C  45.95900 22.85700 29.86300
C  45.52500 21.53000 29.40600
C  45.61200 21.57300 28.03200
C  46.24200 22.87900 27.67600
C  44.89400 20.45500 30.32500
C  45.44600 20.45700 26.94200
O  45.40400 20.76500 25.75100
C  45.22200 19.05500 27.26100
N  47.61600 25.56200 26.86300
C  47.36600 24.49100 26.12700
C  47.91100 24.68300 24.65800
C  48.21800 26.23000 24.60100
C  48.12000 26.58900 26.08700
C  49.12100 23.78000 24.25300
C  47.11500 27.01700 23.90700
C  45.63100 26.83600 24.36100
N  48.06900 27.39300 28.91200
C  48.69700 28.14100 27.91400
C  49.33500 29.31700 28.48400
C  48.98500 29.26900 29.83300
C  48.16700 28.07900 30.03800
C  50.10800 30.32700 27.71000
C  49.03300 29.86400 31.15100
O  49.62300 30.87400 31.55100
C  48.27400 29.02900 32.15100
C  49.22000 28.57700 33.15700
O  50.14600 27.83900 33.04600
O  48.76400 29.02100 34.37600
C  49.67900 28.77700 35.45700
H  45.68500 22.55100 31.94600
H  46.79500 22.60200 25.58200
H  49.19200 28.37900 25.82300
H  47.80900 26.33100 33.92200
H  45.39100 24.85100 33.56400
H  48.08900 24.29200 34.44900
H  47.72300 23.03100 33.21800
H  46.66500 23.24200 34.61800
H  44.94600 27.10100 33.49700
H  46.18600 28.22000 34.00000
H  46.27800 25.89600 35.66200
H  44.57800 26.31800 35.52500
H  44.91500 20.75500 31.37200
H  45.48800 19.55700 30.15300
H  43.88700 20.17300 30.01700
H  46.23100 18.76600 27.55400
H  44.85600 18.56900 26.35600
H  44.47900 18.99000 28.05500
H  47.02600 24.49100 24.05000
H  49.17500 26.34600 24.09100
H  49.25300 22.90000 24.88100
H  50.07100 24.31000 24.17400
H  48.99900 23.29500 23.28400
H  47.18100 26.65300 22.88200
H  47.33200 28.08400 23.87000
H  45.08400 26.46300 23.49500
H  45.24800 27.82700 24.60400
H  45.38000 26.16300 25.18100
H  49.52300 30.73500 26.88600
H  51.08300 29.91000 27.45700
H  50.32300 31.17500 28.36100
H  47.31700 29.43100 32.48400
H  50.63900 29.27000 35.30200
H  49.74300 27.71900 35.70900
H  49.20100 29.20100 36.34000
Mg -2.68100 33.70600 26.09400
C  -4.44000 32.15600 28.77700
C  -1.32800 35.93300 28.55400
C  -1.52400 35.66500 23.75600
C  -4.29900 31.66400 23.92700
N  -2.90900 34.00800 28.42500
C  -3.58200 33.19500 29.26400
C  -3.41200 33.57900 30.73200
C  -2.53300 34.92300 30.57000
C  -2.19900 34.98000 29.08100
C  -3.12100 36.20800 31.20300
C  -2.77300 32.40900 31.57000
C  -3.58600 31.76500 32.64700
H  -2.91100 31.87900 34.01200
N  -1.45200 35.46200 26.08500
C  -1.01100 36.21600 27.17700
C  -0.15200 37.35200 26.72000
C  -0.18700 37.25100 25.28900
C  -1.04500 36.07600 24.95500
C  0.35200 38.42400 27.68100
C  0.53000 38.06600 24.18600
O  0.61500 37.84500 22.97100
C  1.40600 39.20500 24.69000
N  -3.08300 33.78100 24.10400
C  -2.36300 34.63800 23.32100
C  -2.51000 34.29000 21.84100
C  -3.02800 32.86000 21.99100
C  -3.53900 32.73900 23.43300
C  -3.41900 35.30600 21.07400
C  -1.89400 31.75600 21.62000
C  -1.19600 30.86800 22.62000
N  -4.07700 32.18600 26.28700
C  -4.65900 31.41800 25.27300
C  -5.45100 30.34100 25.78100
C  -5.45100 30.58300 27.17900
C  -4.57400 31.74200 27.44400
C  -6.20100 29.32100 25.08100
C  -5.86700 30.15400 28.44900
O  -6.47900 29.12900 28.70300
C  -5.25000 31.14700 29.56200
C  -6.40300 31.63700 30.29200
O  -7.20800 32.44600 29.81700
O  -6.46200 31.02000 31.59700
C  -7.59600 31.15300 32.45400
H  -0.66300 36.49500 29.21400
H  -1.16800 36.22400 22.88800
H  -4.79100 30.90100 23.31900
H  -4.41000 33.79000 31.11700
H  -1.57600 34.71900 31.05000
H  -2.41400 36.60300 31.93300
H  -3.98500 35.99800 31.83300
H  -3.31600 36.96500 30.44300
H  -1.81500 32.72800 31.98200
H  -2.47700 31.57900 30.92900
H  -3.83500 30.74200 32.36700
H  -4.63700 32.05300 32.64600
H  1.35600 38.77300 27.43600
H  0.25500 38.31300 28.76100
H  -0.27100 39.24700 27.33200
H  0.72800 39.89800 25.18800
H  1.99500 39.71100 23.92600
H  2.07900 38.77700 25.43400
H  -1.54300 34.41000 21.35200
H  -3.85500 32.71000 21.29800
H  -3.47400 36.16800 21.73900
H  -4.42300 34.90100 20.94800
H  -2.92200 35.73200 20.20200
H  -1.10000 32.33100 21.14400
H  -2.21300 31.10300 20.80800
H  -1.82300 30.95500 23.50800
H  -0.16000 31.12600 22.83700
H  -1.26000 29.83800 22.27000
H  -5.47700 29.13600 24.28800
H  -7.08200 29.77800 24.63100
H  -6.40100 28.40200 25.63200
H  -4.64900 30.54000 30.23900
H  -7.25600 31.76000 33.29300
H  -8.06300 30.30500 32.95500
H  -8.40200 31.79300 32.09500

