158

Mg 41.64700 40.95700 26.96500
C  40.55300 43.27100 29.27900
C  42.69900 38.92500 29.61900
C  42.87500 38.64100 24.71900
C  41.14800 43.27200 24.41100
N  41.70700 41.10700 29.13400
C  41.06200 42.08500 29.83700
C  40.99900 41.70800 31.39700
C  42.02100 40.53500 31.46700
C  42.18800 40.17600 30.02400
C  43.33400 40.86100 32.15300
C  39.49700 41.36100 31.77100
C  38.92600 42.12600 32.90300
H  38.39100 41.27200 34.14100
N  42.70900 39.04800 27.14900
C  42.86300 38.33600 28.30000
C  43.29900 36.93700 27.98300
C  43.47200 36.89200 26.62500
C  42.99800 38.26600 26.13900
C  43.60100 35.89900 29.04800
C  43.86400 35.81200 25.70300
O  44.16000 35.98200 24.48600
C  44.12700 34.49500 26.27000
N  42.09800 40.98800 24.85300
C  42.44200 39.86600 24.15300
C  42.52800 40.19400 22.63900
C  42.13900 41.69200 22.56000
C  41.74300 42.01900 24.02500
C  43.95000 39.95100 22.05100
C  41.08000 42.04000 21.57600
C  39.66600 41.53000 21.81700
N  41.00500 42.92600 26.82500
C  40.79600 43.67200 25.70800
C  40.21900 44.89300 26.12500
C  40.07500 44.83000 27.54700
C  40.53600 43.58100 27.90800
C  39.88600 45.93500 25.13500
C  39.63500 45.39400 28.73100
O  39.03300 46.39500 28.93300
C  39.96900 44.45800 29.89400
C  40.89800 45.21600 30.78500
O  41.95000 45.72400 30.46000
O  40.39700 45.20500 32.10200
C  41.12500 45.93400 33.13100
H  42.88600 38.19600 30.41000
H  43.27700 37.97400 23.95300
H  40.96800 43.99900 23.61600
H  41.48200 42.51500 31.94800
H  41.62900 39.70900 32.06200
H  43.21700 41.64400 32.90300
H  44.11200 41.16300 31.45300
H  43.68300 39.96700 32.66900
H  39.38800 40.29800 31.98600
H  38.91500 41.61200 30.88400
H  38.19400 42.88000 32.61600
H  39.72400 42.76500 33.28200
H  42.90100 35.06300 29.04600
H  43.51100 36.26900 30.06900
H  44.61300 35.51100 28.93500
H  43.32400 34.24800 26.96400
H  45.06400 34.66800 26.79800
H  44.20800 33.73700 25.49100
H  41.81500 39.62700 22.04000
H  43.06700 42.25400 22.44700
H  43.92500 38.89100 21.79800
H  44.73200 40.05700 22.80300
H  44.15400 40.65600 21.24500
H  41.42000 41.58000 20.64800
H  41.05200 43.11500 21.39600
H  39.70200 40.76100 22.58900
H  39.34800 41.02000 20.90700
H  39.00800 42.32500 22.16800
H  39.19400 45.48600 24.42200
H  40.83600 46.19000 24.66500
H  39.40800 46.77400 25.64000
H  39.11900 44.25100 30.54400
H  40.89000 45.62700 34.15000
H  40.86700 46.98700 33.01900
H  42.19200 45.92700 32.90600
Mg -10.31700 17.67600 42.73100
C  -6.85300 17.77000 43.06800
C  -10.26600 21.11300 42.31100
C  -13.62200 17.52300 41.62200
C  -10.20300 14.14300 42.44300
N  -8.77100 19.17200 42.72800
C  -7.38300 18.99800 42.81400
C  -6.66300 20.29400 42.49800
C  -7.82100 21.30600 42.74400
C  -9.07700 20.51700 42.66700
C  -7.69200 21.95000 44.18500
C  -5.85500 20.25600 41.12800
C  -6.71100 19.63000 39.96600
H  -5.98200 19.46600 38.61700
N  -11.87100 19.15400 42.25300
C  -11.55600 20.46500 42.13800
C  -12.75300 21.18400 41.70900
C  -13.75200 20.21500 41.37000
C  -13.12900 18.87300 41.76800
C  -12.74600 22.73900 41.69800
C  -15.08000 20.39300 40.80200
O  -15.59500 21.49600 40.75900
C  -15.97800 19.30900 40.35100
N  -11.58700 16.10600 41.93200
C  -12.93300 16.31500 41.75100
C  -13.64100 15.02700 41.35000
C  -12.67400 13.92600 41.91100
C  -11.39400 14.76300 42.14800
C  -15.12800 14.78900 41.76000
C  -12.43200 12.68200 40.97100
C  -12.22800 11.32700 41.67900
N  -8.88900 16.26700 42.73800
C  -8.99700 14.86900 42.70500
C  -7.68900 14.28900 43.05000
C  -6.79100 15.42300 43.11700
C  -7.61500 16.56200 42.99100
C  -7.31500 12.86100 43.37000
C  -5.39500 15.80900 43.24500
O  -4.38500 15.11900 43.49500
C  -5.39100 17.35600 43.14800
C  -4.76500 17.79800 44.33000
O  -3.76800 18.54100 44.28900
O  -5.22900 17.19900 45.49400
C  -4.29100 17.33100 46.61000
H  -10.17400 22.19800 42.22700
H  -14.64300 17.35700 41.27100
H  -10.06300 13.06100 42.40800
H  -5.93300 20.33200 43.30600
H  -7.81900 22.13200 42.03300
H  -6.84900 21.57500 44.76500
H  -8.57500 21.66300 44.75600
H  -7.57900 23.01700 43.99100
H  -5.00000 19.66000 41.44600
H  -5.50200 21.25900 40.88500
H  -7.67500 20.12700 39.84900
H  -6.79700 18.58100 40.25000
H  -12.14800 23.13900 40.87900
H  -12.56900 23.23400 42.65300
H  -13.68700 23.27100 41.55900
H  -15.48300 18.52700 39.77400
H  -16.76100 19.78100 39.75700
H  -16.48200 18.88000 41.21700
H  -13.56600 14.88100 40.27200
H  -13.01000 13.65900 42.91300
H  -15.74000 15.08600 40.90800
H  -15.42300 15.44100 42.58200
H  -15.34100 13.74700 41.99800
H  -11.59700 12.83000 40.28600
H  -13.27700 12.50400 40.30500
H  -13.14100 10.80300 41.39500
H  -12.15300 11.47300 42.75600
H  -11.36800 10.76900 41.30900
H  -8.16600 12.20100 43.20400
H  -7.03900 12.70200 44.41300
H  -6.48800 12.53900 42.73700
H  -4.74000 17.61800 42.31400
H  -4.65300 16.76600 47.46800
H  -4.19800 18.32600 47.04600
H  -3.32300 16.91300 46.33100

