158

Mg 49.05500 44.83300 43.23800
C  45.55500 44.96700 42.55800
C  48.81600 41.36900 42.57300
C  52.27100 44.71600 43.36000
C  49.03200 48.39100 43.00100
N  47.36700 43.33200 42.59700
C  46.05600 43.61500 42.39900
C  45.19600 42.53800 41.77600
C  46.19000 41.36700 42.12100
C  47.62300 42.02200 42.41300
C  45.70400 40.43800 43.29900
C  44.96200 42.66600 40.24000
C  44.25100 41.44100 39.61200
H  43.67300 41.69800 38.20400
N  50.39900 43.23900 43.19700
C  50.12700 41.92200 42.89500
C  51.36900 41.17300 42.78900
C  52.47600 42.13800 43.05600
C  51.74000 43.44700 43.22800
C  51.43500 39.63200 42.45000
C  53.97400 41.79200 43.12400
O  54.38000 40.61800 42.92200
C  54.98200 42.98100 43.17200
N  50.45400 46.37100 42.91100
C  51.75900 46.04000 43.25200
C  52.60000 47.32000 43.52600
C  51.68000 48.50500 43.08800
C  50.32600 47.77600 42.90300
C  53.04000 47.38200 45.12400
C  52.13500 49.13700 41.70000
C  51.71600 50.62200 41.53800
N  47.66700 46.39600 43.02500
C  47.82200 47.77200 43.01900
C  46.53400 48.43900 42.95700
C  45.60600 47.38100 42.79100
C  46.31900 46.12400 42.80400
C  46.39400 49.95400 42.96200
C  44.17800 47.07700 42.60400
O  43.21700 47.86200 42.53000
C  44.11600 45.51600 42.39200
C  43.10900 44.85600 43.26300
O  43.32300 44.08800 44.21000
O  41.88600 45.30800 42.87900
C  40.75500 44.89500 43.73500
H  48.89800 40.28900 42.43400
H  53.35000 44.74400 43.52400
H  48.95700 49.48000 42.99300
H  44.21800 42.30600 42.19800
H  46.47200 40.74400 41.27200
H  44.86100 40.95300 43.75800
H  46.55300 40.32000 43.97200
H  45.32000 39.48100 42.94500
H  45.94400 42.80800 39.78900
H  44.35000 43.55600 40.09300
H  43.48300 41.12600 40.31900
H  44.83000 40.51800 39.59500
H  51.62900 39.51500 41.38400
H  50.49800 39.16000 42.74300
H  52.27900 39.20000 42.98700
H  54.66000 43.69900 42.41900
H  55.99800 42.65600 42.94900
H  55.08600 43.39200 44.17600
H  53.49100 47.33600 42.89900
H  51.53600 49.17300 43.93700
H  53.24900 46.33800 45.35600
H  52.32800 47.92600 45.74500
H  53.99000 47.91500 45.10100
H  51.83500 48.57100 40.81800
H  53.22400 49.16900 41.73500
H  51.69000 50.85000 40.47300
H  52.37300 51.27500 42.11200
H  50.70100 50.61400 41.93700
H  46.69700 50.50300 42.07000
H  46.87200 50.36800 43.85000
H  45.31500 50.01300 43.10800
H  43.62100 45.37300 41.43100
H  41.08800 45.05600 44.76000
H  40.55800 43.84900 43.49900
H  39.84600 45.46700 43.54600
Mg 41.90100 40.55200 25.95700
C  41.05700 43.01400 28.42200
C  42.29200 38.28200 28.38900
C  42.87900 38.39500 23.61000
C  41.46100 42.96800 23.57200
N  41.74400 40.75500 28.15900
C  41.33200 41.75300 28.97200
C  41.31600 41.31200 30.52600
C  41.54300 39.71400 30.42100
C  41.82100 39.55500 28.89900
C  42.59000 39.12600 31.37400
C  39.95200 41.72800 31.24200
C  39.57600 41.08300 32.51000
H  39.19800 42.01000 33.63400
N  42.48600 38.54400 25.93500
C  42.59400 37.81600 27.05600
C  43.05400 36.47900 26.77800
C  43.14300 36.37900 25.36000
C  42.87000 37.83200 24.86800
C  43.27900 35.43100 27.84400
C  43.50200 35.22900 24.39000
O  43.51000 35.31500 23.16700
C  43.64700 33.83800 24.97600
N  42.28700 40.69900 23.87400
C  42.66000 39.67300 23.11800
C  42.53800 39.97300 21.61300
C  41.64200 41.28200 21.70800
C  41.82800 41.66000 23.17000
C  43.93500 40.16200 20.97600
C  40.25800 41.22100 21.08300
C  39.32800 40.14900 21.58800
N  41.42600 42.58800 25.89900
C  41.29700 43.47700 24.84700
C  40.96900 44.81900 25.34600
C  40.87700 44.65500 26.70700
C  41.17900 43.30700 27.03200
C  40.70100 46.05000 24.52700
C  40.40600 45.34500 27.93300
O  39.90800 46.45100 28.10300
C  40.60800 44.30500 29.07400
C  41.59500 44.94600 30.00400
O  42.81200 44.73300 30.10300
O  40.91900 45.83000 30.86700
C  41.52700 46.17300 32.11600
H  42.27000 37.51400 29.16500
H  43.02800 37.65100 22.82500
H  41.16300 43.67700 22.79700
H  42.08100 41.90000 31.03400
H  40.62000 39.19200 30.67500
H  42.21000 38.32500 32.00700
H  42.83100 39.85200 32.15000
H  43.45900 38.82300 30.78900
H  39.10000 41.66100 30.56500
H  40.04100 42.76600 31.56200
H  40.38900 40.41100 32.78500
H  38.62900 40.57700 32.32600
H  42.27700 35.10600 28.12600
H  43.68100 35.85700 28.76300
H  43.84400 34.55800 27.51700
H  43.56500 33.16100 24.12600
H  42.82100 33.69800 25.67400
H  44.61400 33.89500 25.47700
H  42.08300 39.13600 21.08300
H  42.08000 42.07100 21.09600
H  44.50600 39.43500 21.55400
H  44.28900 41.18300 20.83700
H  43.87900 39.73100 19.97600
H  40.31200 41.09700 20.00100
H  39.96100 42.25700 21.24500
H  38.83500 39.63600 20.76300
H  38.58500 40.45700 22.32300
H  39.93900 39.49300 22.20700
H  39.66500 46.14300 24.20000
H  41.22800 45.99400 23.57500
H  41.14400 46.94200 24.96900
H  39.62600 44.21800 29.53700
H  42.58500 46.35900 31.93300
H  41.47500 45.33700 32.81300
H  40.94600 47.01400 32.49400

