158

Mg 25.74900 1.04700 28.80000
C  27.64500 0.63900 31.57000
C  23.04300 1.22200 30.83100
C  23.83900 1.12400 26.05800
C  28.61200 0.02300 26.85200
N  25.40900 0.95000 30.97300
C  26.32000 0.82300 31.96600
C  25.69400 0.80500 33.36700
C  24.11800 1.00400 33.08200
C  24.15100 1.14200 31.54000
C  23.19700 -0.11800 33.66400
C  26.27600 1.96300 34.26600
C  25.56300 2.01000 35.61300
H  26.42700 1.77900 36.83100
N  23.74800 1.10100 28.50700
C  22.77300 1.27100 29.46300
C  21.48400 1.44300 28.81100
C  21.69200 1.41600 27.38900
C  23.17300 1.27500 27.27200
C  20.18400 1.44200 29.58100
C  20.68300 1.56200 26.24300
O  20.98200 1.42200 25.05100
C  19.22800 1.93600 26.54500
N  26.13500 0.45100 26.79700
C  25.23700 0.81100 25.88300
C  25.88000 0.94100 24.50600
C  27.30700 0.55700 24.73300
C  27.38600 0.42800 26.20900
C  25.14800 0.02300 23.36700
C  28.39300 1.57200 24.11000
C  29.14300 1.16000 22.77500
N  27.74100 0.51900 29.05900
C  28.73800 0.09200 28.21100
C  29.92100 -0.19400 29.00100
C  29.50200 0.04200 30.34500
C  28.19300 0.46000 30.31700
C  31.27500 -0.58700 28.49200
C  29.99700 0.01000 31.69800
O  31.09900 -0.30900 32.12000
C  28.78300 0.33800 32.63700
C  28.45100 -0.90900 33.41200
O  27.93500 -1.97700 33.01600
O  28.94600 -0.69700 34.73000
C  28.51500 -1.57000 35.79500
H  22.16800 1.40500 31.45700
H  23.29800 1.10500 25.10900
H  29.54600 -0.27100 26.36800
H  25.92000 -0.21100 33.69200
H  23.90600 1.94200 33.59600
H  22.94100 -0.84800 32.89600
H  22.31500 0.39500 34.05000
H  23.71100 -0.66500 34.45300
H  26.06700 2.85000 33.66800
H  27.35300 1.93100 34.43000
H  24.84000 1.19400 35.65100
H  24.98000 2.92700 35.69300
H  19.38400 1.10400 28.92300
H  19.90100 2.46600 29.82500
H  20.27500 0.93400 30.54200
H  18.78100 1.04300 26.98200
H  18.68900 2.18900 25.63200
H  19.21600 2.76800 27.25000
H  25.77400 2.00700 24.30600
H  27.53600 -0.40900 24.28500
H  24.38100 -0.56200 23.87400
H  25.84000 -0.56200 22.76000
H  24.66200 0.65700 22.62600
H  29.21800 1.62700 24.82100
H  27.91000 2.52900 23.91000
H  28.48300 0.34800 22.47000
H  30.16500 0.84100 22.98100
H  29.03500 1.92300 22.00400
H  32.02900 -0.30400 29.22500
H  31.49200 -0.08100 27.55200
H  31.33700 -1.66400 28.33500
H  28.93000 1.12600 33.37600
H  28.56700 -2.59700 35.43300
H  27.46400 -1.35100 35.98200
H  29.09400 -1.45500 36.71200
Mg 16.65500 52.23100 25.77000
C  18.50300 51.14600 28.69600
C  14.11900 53.25200 27.77800
C  15.02100 53.10500 22.98900
C  19.06700 50.64700 23.87100
N  16.41300 52.19600 27.96500
C  17.25600 51.76700 28.98400
C  16.67200 52.06100 30.39600
C  15.17500 52.36200 29.99000
C  15.19000 52.57600 28.49600
C  14.20500 51.22200 30.39700
C  17.44100 53.22900 31.12200
C  17.76300 52.89100 32.60800
H  16.68200 53.04000 33.66900
N  14.82800 53.08200 25.43500
C  14.00500 53.58100 26.38800
C  12.91000 54.30600 25.77900
C  13.21400 54.31700 24.34500
C  14.37300 53.42800 24.21000
C  11.75700 54.83400 26.46900
C  12.41100 55.00900 23.23700
O  12.73600 54.91800 22.05500
C  11.14500 55.69000 23.58100
N  17.04400 51.96700 23.67300
C  16.19500 52.43000 22.72700
C  16.71300 52.09000 21.31500
C  18.15400 51.50800 21.60700
C  18.10700 51.35300 23.12900
C  15.70000 51.18000 20.44200
C  19.33000 52.43500 21.16400
C  20.70300 51.85100 20.77700
N  18.43300 51.10400 26.09800
C  19.29200 50.46200 25.25700
C  20.25800 49.67000 26.01100
C  19.99500 49.91600 27.31000
C  18.92100 50.77400 27.34100
C  21.37500 48.92500 25.37800
C  20.43300 49.73300 28.66600
O  21.32300 48.96200 29.02400
C  19.55900 50.61400 29.64000
C  19.04600 49.66200 30.63200
O  18.36500 48.65400 30.39900
O  19.52500 49.96000 31.82900
C  19.32000 49.10000 32.91700
H  13.30000 53.44100 28.47500
H  14.61300 53.58700 22.09800
H  19.91100 50.32900 23.25600
H  16.79000 51.11300 30.92100
H  14.87800 53.32900 30.39700
H  13.63700 51.51400 31.28000
H  14.75800 50.29600 30.55400
H  13.44800 50.94500 29.66300
H  16.71500 54.04200 31.10100
H  18.31800 53.60400 30.59400
H  18.56700 53.57400 32.88200
H  18.12400 51.87600 32.77500
H  10.87000 54.23600 26.26100
H  11.59800 55.88000 26.20600
H  11.85700 54.75300 27.55100
H  10.56800 54.99300 24.18900
H  10.52800 55.98400 22.73200
H  11.29900 56.63400 24.10300
H  16.95200 53.04900 20.85600
H  18.30600 50.52500 21.16200
H  15.29900 51.71100 19.57800
H  14.96600 50.86000 21.18200
H  16.25000 50.30600 20.09400
H  19.64600 53.03200 22.01900
H  19.06800 53.14800 20.38200
H  21.56600 52.25500 21.30600
H  20.99400 51.93700 19.73000
H  20.83000 50.80400 21.04900
H  22.35800 49.29000 25.67600
H  21.28100 48.94300 24.29200
H  21.24600 47.89700 25.71600
H  20.07700 51.43900 30.12800
H  18.28500 48.86300 33.16300
H  19.75600 49.62800 33.76500
H  19.86900 48.15900 32.86200

