158

Mg 1.22900 8.66400 27.11300
C  1.85700 10.75400 29.82000
C  1.47900 5.95500 29.47700
C  1.28800 6.47000 24.60800
C  1.62600 11.22600 25.01000
N  1.51700 8.43900 29.31000
C  1.64400 9.42100 30.24900
C  1.69500 8.93800 31.67100
C  1.90500 7.44200 31.52200
C  1.53700 7.23200 30.03200
C  3.33000 6.82500 31.90400
C  0.33200 9.27500 32.41200
C  0.14500 8.97800 33.91900
H  1.38800 8.51000 34.65800
N  1.23600 6.49600 27.05400
C  1.35000 5.55500 28.10300
C  1.39500 4.23300 27.53500
C  1.55700 4.41000 26.11500
C  1.32800 5.82400 25.84400
C  1.42400 3.00700 28.41600
C  1.82400 3.38000 25.04400
O  1.99200 3.64100 23.84800
C  1.94300 1.91300 25.49400
N  1.23700 8.82800 25.24700
C  1.22700 7.84000 24.32000
C  1.12900 8.35900 22.91300
C  0.93000 9.85300 23.09800
C  1.33100 9.98900 24.52800
C  2.12300 7.83200 21.84800
C  -0.45700 10.49300 22.83300
C  -0.52200 11.53800 21.72700
N  1.54100 10.69300 27.31400
C  1.67300 11.66300 26.36300
C  2.14000 12.86300 27.06700
C  2.15500 12.60100 28.40800
C  1.75300 11.29600 28.55300
C  2.41100 14.16600 26.38000
C  2.32800 13.17500 29.70800
O  2.59800 14.31600 30.08000
C  2.11700 11.97100 30.66500
C  3.32400 11.84200 31.47500
O  4.40000 11.32800 31.14700
O  3.09800 12.32600 32.74000
C  4.23900 12.26600 33.73100
H  1.69000 5.20300 30.24000
H  1.57000 5.84600 23.75700
H  1.66800 12.10100 24.35800
H  2.54000 9.43900 32.14300
H  1.20000 6.90500 32.15600
H  3.27500 5.98500 32.59700
H  3.83800 7.64500 32.41100
H  3.73300 6.50200 30.94400
H  -0.31500 8.59200 31.86300
H  0.03900 10.29700 32.16900
H  -0.59500 8.18400 34.02100
H  -0.25500 9.83400 34.46200
H  0.56100 2.43600 28.07200
H  1.26600 3.29100 29.45700
H  2.33200 2.47300 28.13700
H  2.46900 1.33200 24.73600
H  1.02300 1.36200 25.69100
H  2.68300 1.67300 26.25800
H  0.11600 8.05500 22.65000
H  1.68300 10.36500 22.49900
H  2.63900 8.71900 21.48000
H  1.55700 7.31800 21.07100
H  2.85800 7.12300 22.22900
H  -0.79100 10.98700 23.74500
H  -1.16800 9.70600 22.58200
H  -0.05200 12.45400 22.08400
H  -1.53400 11.79200 21.41100
H  -0.04000 11.26800 20.78700
H  1.60800 14.42500 25.69000
H  3.41300 14.22900 25.95500
H  2.34700 14.90100 27.18200
H  1.30400 12.11900 31.37600
H  5.03500 12.96600 33.47500
H  4.78100 11.32200 33.78000
H  3.82000 12.43400 34.72300
Mg 47.29900 15.91800 29.07800
C  45.36100 15.27400 31.93900
C  49.50600 17.53200 31.04500
C  48.81000 16.90100 26.16900
C  44.64800 14.71000 27.08600
N  47.28200 16.38900 31.22100
C  46.52900 15.92800 32.26500
C  47.03700 16.38500 33.62200
C  48.16900 17.35500 33.22300
C  48.30900 17.04900 31.74900
C  48.00400 18.85300 33.42500
C  47.49700 15.20900 34.51800
C  48.18900 15.43400 35.90100
H  47.82600 16.64600 36.72900
N  48.94000 16.91800 28.71400
C  49.82100 17.44100 29.65300
C  51.03800 17.92400 28.98300
C  50.73200 17.91400 27.62900
C  49.41900 17.23600 27.42300
C  52.18800 18.49200 29.78400
C  51.63700 18.41000 26.51500
O  51.34800 18.25300 25.29500
C  52.90900 19.19200 26.84800
N  46.78800 15.82700 26.86300
C  47.57400 16.33000 25.89300
C  46.88100 16.09100 24.46400
C  45.54500 15.33900 24.85100
C  45.68900 15.24300 26.32200
C  46.73000 17.42900 23.66000
C  45.35300 13.98200 24.12500
C  46.31700 12.79700 24.36100
N  45.41300 15.08600 29.38900
C  44.43800 14.61700 28.53200
C  43.36300 14.03600 29.35400
C  43.65800 14.28800 30.73200
C  44.92500 14.91400 30.60300
C  42.29000 13.18600 28.69300
C  43.26900 14.05600 32.06900
O  42.29700 13.46500 32.57100
C  44.33100 14.73800 32.96400
C  43.56600 15.75200 33.76800
O  42.88200 16.65900 33.38800
O  43.88500 15.56700 35.12700
C  43.16300 16.47600 36.07700
H  50.15900 18.03400 31.76200
H  49.42600 17.27600 25.34900
H  43.77100 14.40700 26.51000
H  46.17100 16.80800 34.13100
H  49.05000 17.08800 33.80700
H  47.70800 19.12000 34.43900
H  47.24200 19.07800 32.67800
H  48.71600 19.65100 33.21200
H  48.22500 14.64500 33.93400
H  46.68000 14.52100 34.73300
H  49.26500 15.56400 35.78300
H  48.02500 14.58200 36.56100
H  52.42900 19.50200 29.45500
H  53.00900 17.83400 29.49800
H  52.08300 18.60200 30.86400
H  53.48800 18.45600 27.40600
H  52.66500 20.01300 27.52200
H  53.31000 19.56000 25.90300
H  47.48200 15.36300 23.92000
H  44.69400 15.92300 24.50200
H  47.10400 18.33300 24.14100
H  45.70800 17.70200 23.39700
H  47.33900 17.36900 22.75800
H  45.33200 14.28200 23.07700
H  44.40000 13.63100 24.52100
H  46.73700 12.39000 23.44100
H  45.89400 11.89500 24.80300
H  47.10400 13.20200 24.99900
H  41.30700 13.49400 29.04900
H  42.53000 12.12400 28.75600
H  42.28200 13.50200 27.65000
H  44.74200 14.03300 33.68700
H  42.55500 15.92800 36.79700
H  42.76100 17.41400 35.69500
H  44.02700 16.60500 36.73000

