158

Mg -2.16200 17.26000 27.08500
C  -2.67900 15.18300 29.79800
C  -2.97800 20.00300 29.08000
C  -2.26500 19.22300 24.32900
C  -1.93300 14.59500 24.99700
N  -2.99900 17.44800 29.15300
C  -2.75300 16.52500 30.12200
C  -2.89500 17.14600 31.58500
C  -3.08700 18.61900 31.23900
C  -3.01400 18.69200 29.77200
C  -4.41200 19.32600 31.84900
C  -1.73700 16.72600 32.49400
C  -1.26200 17.71100 33.59500
H  -0.91300 17.02600 34.97600
N  -2.36700 19.32100 26.80400
C  -2.71300 20.31900 27.72800
C  -2.65300 21.67200 27.18300
C  -2.33400 21.40500 25.79400
C  -2.33200 19.91100 25.58900
C  -2.97000 22.81000 27.94100
C  -2.16500 22.41400 24.69900
O  -1.72800 22.08600 23.56700
C  -2.27000 23.87700 25.04800
N  -2.04100 17.01300 24.89000
C  -2.11000 17.89000 23.96800
C  -2.06300 17.47400 22.54000
C  -1.74400 15.91300 22.80600
C  -1.96700 15.84600 24.31300
C  -3.45600 17.66300 21.79100
C  -0.28500 15.57300 22.31700
C  0.93600 15.85100 23.26100
N  -2.37600 15.32100 27.23200
C  -2.22200 14.32500 26.33100
C  -2.34800 13.09500 26.91900
C  -2.43000 13.34100 28.32000
C  -2.52600 14.73700 28.46800
C  -2.32300 11.77400 26.19000
C  -2.59800 12.68900 29.58600
O  -2.70000 11.55200 29.93700
C  -2.75100 13.92100 30.61700
C  -1.56900 13.74600 31.54700
O  -0.40700 13.96700 31.23200
O  -1.98100 13.25300 32.72600
C  -0.93400 13.13200 33.75200
H  -3.12400 20.85300 29.75000
H  -2.32100 19.93000 23.49900
H  -1.80900 13.75500 24.31000
H  -3.79000 16.71100 32.03000
H  -2.26700 19.21100 31.64400
H  -4.13800 20.12200 32.54100
H  -4.93900 18.71300 32.58000
H  -5.12400 19.49100 31.04000
H  -0.87800 16.50400 31.86100
H  -2.13100 15.81900 32.95200
H  -2.06300 18.43700 33.73300
H  -0.29100 18.08400 33.26800
H  -2.67700 22.73600 28.98900
H  -4.05700 22.83600 27.86800
H  -2.59600 23.77900 27.60800
H  -2.12200 24.40200 24.10400
H  -1.38600 23.98800 25.67700
H  -3.20500 24.24900 25.46600
H  -1.22500 17.96600 22.04700
H  -2.40800 15.33200 22.16600
H  -3.86300 16.72600 21.40900
H  -3.28500 18.14900 20.83100
H  -4.07100 18.33400 22.39100
H  -0.18100 16.11700 21.37800
H  -0.14200 14.53500 22.01900
H  0.50000 16.07300 24.23500
H  1.55000 16.67200 22.89000
H  1.57600 14.97300 23.34800
H  -3.29100 11.63200 25.70800
H  -2.08200 10.90900 26.80800
H  -1.64100 11.71400 25.34100
H  -3.69600 13.88100 31.15700
H  -1.16700 13.69200 34.65900
H  0.08700 13.38900 33.47200
H  -0.94500 12.07500 34.01700
Mg 29.09300 57.67300 41.06900
C  26.23600 56.01300 39.91700
C  31.13500 55.49400 39.30800
C  31.85700 59.62200 41.72300
C  26.96100 60.35700 42.01800
N  28.68900 55.97600 39.75900
C  27.47300 55.44500 39.43100
C  27.74000 54.02600 38.72500
C  29.31700 53.79800 38.75400
C  29.75500 55.20800 39.30100
C  29.76100 52.57600 39.58600
C  26.91300 53.75900 37.34400
C  26.77700 54.96700 36.39700
H  27.41700 54.79900 34.98700
N  31.19900 57.52800 40.69900
C  31.85300 56.48400 39.98900
C  33.27500 56.77200 39.88600
C  33.54400 58.05200 40.62200
C  32.19400 58.46000 41.07100
C  34.20500 55.73200 39.25600
C  34.85900 58.68800 40.79000
O  35.89100 58.09800 40.45000
C  35.10900 59.99800 41.56500
N  29.39300 59.77700 41.50000
C  30.60200 60.26400 41.85200
C  30.50000 61.72000 42.48100
C  28.99300 61.90600 42.66300
C  28.35000 60.63300 42.00400
C  31.32800 62.06500 43.75700
C  28.48300 63.27000 42.02400
C  27.23300 63.89300 42.76200
N  27.07100 58.03400 41.24400
C  26.32800 59.15300 41.59500
C  24.89200 58.84200 41.55700
C  24.86100 57.62700 40.87600
C  26.16800 57.22300 40.65600
C  23.83000 59.71700 42.00500
C  23.91400 56.66600 40.37400
O  22.66300 56.56100 40.44800
C  24.81800 55.56000 39.78200
C  24.56500 54.20900 40.35800
O  25.04500 53.66800 41.34900
O  23.60800 53.67200 39.48400
C  23.37800 52.26400 39.78200
H  31.72000 54.72900 38.79300
H  32.75300 60.06300 42.16300
H  26.32500 61.16400 42.38800
H  27.27800 53.30500 39.40000
H  29.69000 53.88500 37.73400
H  30.68800 52.77900 40.12200
H  29.95600 51.78000 38.86600
H  29.07300 52.25300 40.36700
H  25.91700 53.36500 37.54300
H  27.49200 52.92500 36.94500
H  27.12600 55.88800 36.86500
H  25.71700 55.19600 36.28800
H  35.08000 56.23300 38.84200
H  33.76100 55.28600 38.36600
H  34.51300 54.95100 39.95100
H  34.50900 60.86100 41.27800
H  36.10000 60.40800 41.37100
H  35.05600 59.73300 42.62100
H  30.77300 62.47300 41.74200
H  28.64700 61.96500 43.69500
H  32.08000 61.32500 44.03100
H  30.68800 62.08400 44.63900
H  31.73800 63.06500 43.61500
H  28.07500 63.02300 41.04400
H  29.23300 64.05500 41.93400
H  27.51500 64.92400 42.97700
H  26.99700 63.41900 43.71500
H  26.31500 63.82600 42.17700
H  22.82700 59.29300 41.96000
H  23.93900 60.70000 41.54700
H  23.92300 59.87900 43.07900
H  24.58500 55.50100 38.71900
H  23.82200 51.64600 39.00100
H  22.31600 52.11800 39.58500
H  23.61700 51.87200 40.77000

