158

Mg -11.99800 37.48400 43.32300
C  -9.82100 35.08200 42.18900
C  -10.08300 39.77800 41.54400
C  -14.37900 39.89800 43.76700
C  -14.07900 35.03300 44.38200
N  -10.22300 37.37600 41.88600
C  -9.45500 36.30100 41.60800
C  -8.28600 36.56300 40.61800
C  -8.35900 38.12000 40.62700
C  -9.69200 38.48900 41.31300
C  -7.06000 38.77900 41.25700
C  -8.57900 35.84300 39.28900
C  -7.30500 35.27600 38.56800
H  -6.80200 36.06500 37.35500
N  -12.14800 39.58800 42.88600
C  -11.25800 40.30700 42.19000
C  -11.64800 41.71100 42.40700
C  -12.89100 41.77700 43.04300
C  -13.20700 40.35400 43.28500
C  -10.76900 42.83700 41.74500
C  -13.67700 43.02100 43.31600
O  -13.20000 44.11800 43.02000
C  -15.03200 43.11400 43.94600
N  -14.00800 37.49300 43.90300
C  -14.80100 38.58100 43.95400
C  -16.18200 38.22300 44.67100
C  -16.09400 36.63700 44.70600
C  -14.66900 36.30500 44.21200
C  -16.40500 38.86200 46.07800
C  -17.17000 35.86100 43.98500
C  -16.85900 35.03200 42.68900
N  -11.94900 35.51400 43.37700
C  -12.79100 34.66900 44.02200
C  -12.22400 33.38400 44.00800
C  -11.01100 33.52500 43.38100
C  -10.92500 34.82400 42.98500
C  -12.76500 32.12100 44.67100
C  -9.77100 32.85400 42.98700
O  -9.38800 31.71400 43.25700
C  -8.94700 33.80600 42.07900
C  -7.65200 34.01000 42.87700
O  -7.48600 34.70500 43.85800
O  -6.62700 33.37300 42.21800
C  -5.32500 33.48400 42.89100
H  -9.50200 40.57700 41.07900
H  -15.15600 40.66100 43.83700
H  -14.75200 34.27400 44.78600
H  -7.42800 36.12400 41.12700
H  -8.29500 38.53300 39.62000
H  -7.37200 39.42100 42.08000
H  -6.71200 39.48100 40.49900
H  -6.26300 38.11600 41.59300
H  -9.13300 36.54500 38.66500
H  -9.20700 34.99000 39.54400
H  -7.62000 34.27600 38.27200
H  -6.51300 35.07200 39.28900
H  -11.40700 43.54000 41.20900
H  -10.13900 42.45400 40.94200
H  -10.13900 43.35400 42.46800
H  -15.22100 44.17300 44.11900
H  -15.12600 42.36700 44.73500
H  -15.81200 42.82400 43.24200
H  -16.97200 38.56900 44.00500
H  -16.04200 36.32500 45.75000
H  -16.96000 39.76500 45.82400
H  -15.40000 39.10400 46.42500
H  -17.01000 38.26800 46.76200
H  -18.08100 36.43900 43.83300
H  -17.54700 35.19300 44.76000
H  -16.70200 33.99600 42.98700
H  -15.95300 35.40000 42.20900
H  -17.70900 35.12500 42.01200
H  -13.47700 32.40900 45.44400
H  -11.98100 31.61100 45.23000
H  -13.19400 31.51000 43.87700
H  -8.81700 33.37900 41.08400
H  -4.49600 33.20500 42.24000
H  -5.28900 32.66500 43.60900
H  -5.09000 34.40900 43.41800
Mg -12.27900 16.00600 41.69000
C  -9.46000 14.04700 40.96000
C  -10.48200 18.74600 40.39900
C  -15.12600 17.55200 41.20500
C  -13.93000 13.07900 42.69300
N  -10.19000 16.30000 40.69900
C  -9.20100 15.39000 40.57200
C  -7.89900 15.99300 39.89000
C  -8.24500 17.45900 39.82600
C  -9.71800 17.53100 40.33400
C  -7.29900 18.38500 40.69000
C  -7.66100 15.34700 38.51000
C  -6.23000 14.93300 38.13900
H  -5.51800 15.67100 37.04900
N  -12.77000 17.95000 41.10600
C  -11.88800 18.86400 40.59100
C  -12.66300 20.05500 40.38200
C  -14.00900 19.70300 40.45900
C  -14.05300 18.35700 40.93800
C  -12.00300 21.33100 40.03200
C  -15.26500 20.62700 40.12400
O  -15.05800 21.77900 39.72300
C  -16.74600 20.08200 40.16300
N  -14.19500 15.43300 42.04500
C  -15.23500 16.24800 41.74400
C  -16.59800 15.53100 41.80600
C  -16.25400 14.07300 42.39400
C  -14.71500 14.18500 42.41600
C  -17.84700 16.26800 42.61000
C  -16.87600 12.99600 41.59600
C  -17.57500 11.91500 42.54800
N  -11.80500 13.97600 41.92700
C  -12.59000 12.93800 42.43300
C  -11.75800 11.73200 42.52900
C  -10.55400 12.10500 41.88900
C  -10.65100 13.48100 41.47100
C  -12.11000 10.35300 43.00200
C  -9.28500 11.61700 41.51600
O  -8.87500 10.50600 41.61100
C  -8.55700 12.83100 40.84100
C  -7.27900 13.05800 41.50200
O  -7.11300 13.13600 42.72100
O  -6.25500 13.05800 40.64000
C  -4.86300 13.33300 41.06500
H  -9.99500 19.66900 40.07700
H  -16.14400 17.94000 41.13200
H  -14.52500 12.27800 43.13600
H  -7.05300 15.90800 40.57200
H  -8.05600 17.81600 38.81400
H  -6.69600 18.89700 39.94000
H  -6.75000 17.91700 41.50700
H  -7.96200 19.15200 41.09100
H  -7.96500 16.00300 37.69500
H  -8.22200 14.42300 38.37100
H  -6.27900 13.87300 37.89000
H  -5.61100 15.10500 39.01900
H  -11.71000 21.38000 38.98300
H  -11.11000 21.43700 40.64800
H  -12.62300 22.20000 40.24900
H  -17.53700 20.66300 39.68800
H  -16.96600 19.98700 41.22600
H  -16.75900 19.13000 39.63400
H  -17.01900 15.41700 40.80700
H  -16.43600 13.96500 43.46400
H  -17.83000 15.87100 43.62500
H  -18.70100 15.94900 42.01300
H  -17.70800 17.34600 42.52600
H  -16.04200 12.57900 41.03300
H  -17.54300 13.33000 40.80100
H  -16.90400 11.45500 43.27300
H  -17.96300 11.15700 41.86700
H  -18.42800 12.37900 43.04400
H  -12.74100 10.44200 43.88600
H  -11.24400 9.77300 43.32300
H  -12.69400 9.99200 42.15500
H  -8.44100 12.66500 39.77100
H  -4.52600 12.52000 41.70800
H  -4.81000 14.25700 41.64100
H  -4.24600 13.50300 40.18200

