158

Mg 24.09300 -5.73500 45.76200
C  26.34100 -3.39600 44.48100
C  21.70400 -4.70200 43.44600
C  22.34400 -8.75500 46.12900
C  26.74900 -7.18700 47.52600
N  24.11500 -4.32000 44.08100
C  25.16900 -3.42900 43.73200
C  24.75400 -2.48500 42.57400
C  23.18900 -2.73000 42.53600
C  22.97000 -3.97400 43.44600
C  22.26500 -1.52700 42.84400
C  25.51400 -2.86900 41.19700
C  26.22000 -1.78800 40.43100
H  25.61200 -1.30000 39.21500
N  22.23500 -6.55500 44.96900
C  21.42200 -5.91700 44.09200
C  20.21200 -6.66500 43.96100
C  20.33600 -7.87000 44.75700
C  21.69400 -7.77700 45.41000
C  19.05900 -6.16200 43.11100
C  19.38800 -9.02400 44.84700
O  18.34200 -9.08900 44.24900
C  19.50700 -10.14900 45.85600
N  24.44100 -7.65900 46.69300
C  23.62300 -8.69700 46.66900
C  24.22100 -9.96500 47.33700
C  25.58300 -9.45300 47.92400
C  25.64700 -8.04700 47.28500
C  23.23800 -10.72300 48.39300
C  26.79700 -10.40200 47.49800
C  27.64400 -10.81100 48.72900
N  26.13300 -5.40800 46.04500
C  27.07000 -6.01900 46.83800
C  28.31500 -5.30400 46.85100
C  28.06700 -4.19700 45.97900
C  26.76500 -4.38100 45.45600
C  29.63200 -5.71600 47.48500
C  28.66400 -2.99900 45.38500
O  29.74800 -2.52500 45.50100
C  27.57000 -2.46800 44.39200
C  27.14100 -1.03000 44.75700
O  26.10800 -0.65400 45.30700
O  28.14400 -0.13900 44.26400
C  28.05400 1.33600 44.68000
H  20.97200 -4.05900 42.95400
H  21.83100 -9.68900 46.36700
H  27.47400 -7.60200 48.22900
H  25.06800 -1.50400 42.92900
H  22.95000 -3.04600 41.52000
H  22.86400 -0.62700 42.98300
H  21.73700 -1.72000 43.77800
H  21.59800 -1.25300 42.02700
H  24.79500 -3.30700 40.50400
H  26.22200 -3.63900 41.50300
H  27.25300 -2.12200 40.33600
H  26.14700 -0.93900 41.11100
H  19.22100 -6.36600 42.05200
H  18.68600 -5.14000 43.17500
H  18.17400 -6.76800 43.30300
H  19.78900 -9.58100 46.74200
H  20.27800 -10.87100 45.58800
H  18.62100 -10.68600 46.19600
H  24.41900 -10.71100 46.56800
H  25.46900 -9.38400 49.00600
H  23.74500 -11.04100 49.30400
H  22.61800 -11.54600 48.03500
H  22.46700 -9.99600 48.64800
H  27.42100 -9.95700 46.72300
H  26.42600 -11.26800 46.94900
H  28.32800 -9.98500 48.92900
H  28.10700 -11.79100 48.61200
H  27.05000 -10.92400 49.63600
H  29.84700 -6.69600 47.06000
H  29.64300 -6.09800 48.50600
H  30.39600 -4.95800 47.31000
H  28.00100 -2.46600 43.39100
H  28.33300 1.93000 43.81000
H  28.78700 1.54500 45.46000
H  27.01700 1.57200 44.91900
Mg 17.11900 -1.36800 27.72700
C  16.20200 0.49700 30.57700
C  19.05800 -3.47500 29.81400
C  18.42300 -2.79900 24.99100
C  15.80200 1.17900 25.71500
N  17.62100 -1.43000 29.89900
C  17.13700 -0.54900 30.83500
C  17.60000 -0.93700 32.25600
C  18.66400 -2.07100 31.97600
C  18.45000 -2.38500 30.46200
C  20.17800 -1.66700 32.39000
C  16.35500 -1.25800 33.15700
C  16.41300 -0.86500 34.66100
H  17.83900 -0.37000 35.14600
N  18.48900 -2.92500 27.44100
C  19.13400 -3.67800 28.42300
C  19.72100 -4.85200 27.86100
C  19.60800 -4.67400 26.41200
C  18.78000 -3.41600 26.25100
C  20.34900 -5.99500 28.53900
C  20.31400 -5.41500 25.27300
O  19.99900 -5.35500 24.07500
C  21.28800 -6.56900 25.57600
N  16.94600 -0.95800 25.67800
C  17.65600 -1.62500 24.70500
C  17.62800 -1.03900 23.29600
C  16.63200 0.17000 23.51700
C  16.36500 0.12100 25.04600
C  18.94300 -0.77100 22.55400
C  15.32000 0.04800 22.68200
C  15.11900 1.30600 21.70300
N  16.00000 0.29000 28.02100
C  15.60400 1.24600 27.12500
C  14.90700 2.25800 27.81800
C  15.09900 1.95400 29.13100
C  15.83600 0.78800 29.25200
C  14.19000 3.41500 27.26400
C  14.85500 2.52900 30.42700
O  14.20300 3.53900 30.71600
C  15.54200 1.58100 31.37900
C  16.54900 2.44200 32.07600
O  17.73800 2.55300 31.71800
O  15.96600 2.83400 33.23600
C  16.79200 3.68000 34.13100
H  19.55500 -4.18100 30.48300
H  18.73600 -3.22400 24.03500
H  15.39800 2.02000 25.14600
H  18.16600 -0.07300 32.60300
H  18.45100 -2.84800 32.70900
H  20.91000 -1.86600 31.60700
H  20.45300 -2.28900 33.24200
H  20.35100 -0.65400 32.75100
H  16.08300 -2.30600 33.02900
H  15.52900 -0.71800 32.69400
H  16.11100 -1.68500 35.31300
H  15.62800 -0.11100 34.72700
H  20.06700 -6.98700 28.18400
H  20.17200 -5.98600 29.61400
H  21.43300 -5.87800 28.53100
H  21.95900 -6.32400 26.40000
H  21.96700 -6.63000 24.72500
H  20.78900 -7.44800 25.98400
H  17.14900 -1.77100 22.64500
H  17.10300 1.14700 23.41300
H  18.93200 0.27500 22.24700
H  19.06200 -1.41800 21.68400
H  19.75200 -0.98900 23.25200
H  14.43300 0.25400 23.28200
H  15.23100 -0.93400 22.21700
H  14.85000 0.92500 20.71800
H  16.06000 1.84700 21.80700
H  14.30300 1.88100 22.14000
H  13.54900 3.07600 26.45000
H  14.80400 4.22300 26.86800
H  13.50700 3.78800 28.02800
H  14.79900 1.22800 32.09400
H  17.58000 4.19100 33.57800
H  17.08300 3.11300 35.01500
H  16.08600 4.37500 34.58500

