158

Mg 47.63800 25.20000 28.22700
C  48.69600 27.39700 30.77300
C  46.75500 22.98000 30.64100
C  46.87300 23.01300 25.73700
C  48.61100 27.58600 25.78500
N  47.75100 25.24800 30.47100
C  48.05600 26.30500 31.31000
C  47.71200 26.05500 32.74800
C  47.18800 24.55700 32.61400
C  47.30900 24.18000 31.19600
C  47.78100 23.56100 33.65200
C  46.70900 26.96100 33.45500
C  47.02500 27.20300 34.99200
H  46.00000 27.77800 35.99600
N  46.94400 23.24800 28.21600
C  46.66000 22.46400 29.32900
C  46.11900 21.18100 28.88400
C  46.11800 21.20400 27.42200
C  46.67700 22.53800 27.08800
C  45.65800 20.09700 29.80600
C  45.70200 20.15400 26.39300
O  45.79200 20.34100 25.13800
C  45.32600 18.81200 26.77900
N  47.87600 25.23800 26.11200
C  47.44900 24.23000 25.31700
C  47.65300 24.56700 23.78800
C  47.93800 26.09100 23.84900
C  48.26200 26.36900 25.34300
C  48.71000 23.70200 23.05300
C  46.80500 27.04500 23.31700
C  45.61100 27.31100 24.26800
N  48.69900 26.98900 28.18800
C  48.88000 27.89300 27.14100
C  49.35900 29.14300 27.67500
C  49.33300 28.97600 29.07900
C  48.91200 27.67000 29.40200
C  49.74400 30.32600 26.93300
C  49.57200 29.69100 30.38500
O  50.07500 30.81400 30.58200
C  49.02800 28.65700 31.47800
C  50.07000 28.56000 32.55300
O  50.97400 27.71100 32.63100
O  49.74800 29.39800 33.55000
C  50.63900 29.16200 34.79300
H  46.26800 22.34600 31.38500
H  46.50300 22.39100 24.92000
H  48.83100 28.31800 25.00500
H  48.61500 26.10500 33.35700
H  46.13900 24.66300 32.89000
H  48.71600 23.10900 33.32400
H  46.99700 22.84900 33.91000
H  47.93600 24.03100 34.62400
H  45.68200 26.59700 33.44600
H  46.71000 27.91600 32.92900
H  47.83400 27.93200 35.03300
H  47.39400 26.25200 35.37700
H  44.56900 20.14900 29.83500
H  45.97200 20.35300 30.81800
H  45.99600 19.12000 29.46000
H  45.93200 18.43700 27.60300
H  45.49600 18.13500 25.94200
H  44.30600 18.82700 27.16300
H  46.69400 24.41100 23.29300
H  48.80400 26.39200 23.25900
H  48.26000 23.16300 22.21900
H  49.11600 23.01600 23.79600
H  49.60200 24.15200 22.61600
H  46.50200 26.64500 22.34900
H  47.26800 27.97800 22.99600
H  45.77100 26.94200 25.28100
H  44.72000 26.80500 23.89600
H  45.32100 28.36100 24.23700
H  50.76800 30.26600 26.56200
H  49.71100 31.20000 27.58200
H  49.07600 30.44700 26.08100
H  48.13400 29.13000 31.88600
H  49.94200 28.78300 35.54000
H  51.00900 30.11800 35.16200
H  51.51100 28.51700 34.68400
Mg 35.73200 48.54600 25.03400
C  35.77000 46.74300 28.06300
C  34.26100 51.14600 26.68500
C  35.33200 50.11000 22.10100
C  36.66000 45.52600 23.36900
N  35.07700 48.82100 27.18800
C  35.31000 48.01300 28.24500
C  35.00600 48.78000 29.58500
C  34.20900 50.04800 29.04100
C  34.52800 50.02100 27.57500
C  32.67500 50.03700 29.50200
C  36.28800 49.19400 30.42000
C  36.15500 48.86400 31.90200
H  34.71200 48.72100 32.42900
N  35.03800 50.39800 24.48400
C  34.52700 51.33700 25.30400
C  34.30200 52.59000 24.62100
C  34.61200 52.30300 23.21500
C  35.00000 50.88300 23.24200
C  33.82800 53.88200 25.35800
C  34.67700 53.18500 21.98900
O  35.05200 52.72900 20.88800
C  34.24600 54.61500 21.99900
N  36.03600 47.91000 23.06700
C  35.77000 48.76900 22.00200
C  35.89500 48.00000 20.65000
C  36.61600 46.66200 21.12500
C  36.45300 46.68100 22.61300
C  34.59200 47.76700 19.90800
C  38.04900 46.46100 20.57900
C  39.23400 47.15400 21.18600
N  36.13100 46.51000 25.55200
C  36.44900 45.39300 24.75500
C  36.81400 44.29600 25.62700
C  36.56000 44.80400 26.94100
C  36.10300 46.10200 26.81300
C  37.31500 42.94300 25.19100
C  36.52800 44.41300 28.31000
O  36.87100 43.35200 28.86400
C  36.10700 45.70900 29.16100
C  34.83900 45.23300 29.88900
O  33.71400 45.39900 29.47900
O  35.21100 44.69300 31.14500
C  34.03500 44.37600 32.06700
H  33.60800 51.91300 27.10600
H  35.07700 50.58000 21.14800
H  37.06400 44.67200 22.82100
H  34.36400 48.10300 30.14800
H  34.69400 50.91600 29.48800
H  32.48000 49.08200 29.99100
H  31.95800 50.21400 28.70000
H  32.51800 50.83600 30.22700
H  36.53600 50.24900 30.30400
H  37.06000 48.59700 29.93500
H  36.70000 49.48400 32.61400
H  36.69800 47.92300 31.99300
H  32.76100 53.76900 25.55400
H  33.93300 54.79800 24.77800
H  34.33100 53.95200 26.32300
H  33.17700 54.61200 22.21300
H  34.41800 54.97200 20.98400
H  34.89300 55.20100 22.65100
H  36.54500 48.51100 19.94000
H  36.03600 45.76900 20.88700
H  34.61700 46.86600 19.29500
H  34.40900 48.55300 19.17700
H  33.75000 47.74500 20.60000
H  37.99700 46.55800 19.49500
H  38.27500 45.43400 20.86600
H  39.97300 46.56500 21.72800
H  38.76400 47.85900 21.87300
H  39.65000 47.72400 20.35500
H  38.17600 42.60100 25.76300
H  37.63600 43.07800 24.15800
H  36.55900 42.16200 25.27100
H  36.93000 46.07300 29.77600
H  34.43400 43.88400 32.95400
H  33.18200 43.75500 31.79300
H  33.59000 45.30900 32.41300

