158

Mg -2.31500 17.24400 27.28200
C  -2.82900 15.39700 30.15600
C  -2.82600 20.12600 29.22200
C  -2.44200 19.13700 24.53500
C  -2.29700 14.33100 25.39900
N  -2.71800 17.63400 29.50600
C  -2.77700 16.75000 30.51000
C  -2.89300 17.43200 31.79000
C  -3.11900 18.88200 31.46800
C  -2.77200 18.87200 29.99300
C  -4.39800 19.55600 31.98000
C  -1.70200 17.19300 32.76000
C  -1.50600 18.05600 34.07800
H  -1.14100 17.39100 35.42700
N  -2.49900 19.35500 26.98400
C  -2.80800 20.31100 27.84200
C  -2.91700 21.56700 27.16300
C  -2.51400 21.35400 25.77600
C  -2.43000 19.86600 25.70400
C  -3.24100 22.86200 27.98000
C  -2.42100 22.36300 24.63100
O  -2.20500 22.02400 23.50500
C  -2.61800 23.81100 24.92200
N  -2.46400 16.67900 25.24300
C  -2.48600 17.68700 24.34400
C  -2.50800 17.07600 22.89600
C  -2.11200 15.63200 23.21500
C  -2.36000 15.47900 24.65600
C  -3.96800 17.28800 22.26500
C  -0.71500 15.20700 22.83300
C  0.41600 16.11700 23.17200
N  -2.40900 15.20400 27.66300
C  -2.41300 14.18600 26.80600
C  -2.58100 12.92000 27.52500
C  -2.69500 13.35300 28.85300
C  -2.59300 14.72300 28.90400
C  -2.80800 11.50200 26.99200
C  -3.05400 12.90100 30.20000
O  -3.38000 11.83100 30.77900
C  -2.93700 14.16900 31.07900
C  -1.73000 13.86500 31.83800
O  -0.62300 14.24600 31.52300
O  -2.01300 13.43500 33.04800
C  -0.92000 13.41100 34.09900
H  -3.03700 20.99800 29.84400
H  -2.47500 19.68100 23.58900
H  -1.98700 13.45400 24.82700
H  -3.80700 17.14400 32.30900
H  -2.27400 19.42400 31.89300
H  -4.12900 20.32400 32.70600
H  -4.97400 18.83300 32.55800
H  -5.04300 19.91500 31.17900
H  -0.79800 17.29200 32.16000
H  -1.69200 16.21300 33.23700
H  -2.26600 18.82900 34.19300
H  -0.57000 18.56000 33.83800
H  -3.65000 22.68100 28.97400
H  -3.95900 23.47500 27.43500
H  -2.38900 23.52300 28.14100
H  -2.32300 24.33600 24.01300
H  -2.02300 24.09500 25.79000
H  -3.69700 23.89400 25.05200
H  -1.80500 17.61800 22.26300
H  -2.73400 14.84500 22.78800
H  -4.54100 17.97500 22.88700
H  -4.57300 16.39100 22.39200
H  -3.81400 17.50700 21.20800
H  -0.76900 15.16100 21.74600
H  -0.45700 14.17700 23.08100
H  -0.08100 16.64100 23.98800
H  0.77900 16.81100 22.41500
H  1.24300 15.54100 23.58700
H  -3.85000 11.40100 27.29400
H  -2.10400 10.92300 27.58900
H  -2.73100 11.38400 25.91100
H  -3.81700 14.24000 31.71700
H  -0.87600 14.33600 34.67300
H  0.12000 13.32300 33.78300
H  -0.86500 12.64000 34.86700
Mg 41.22300 9.51000 30.20400
C  43.39700 10.73200 32.70400
C  38.99100 8.55600 32.49700
C  39.56400 8.03200 27.76400
C  43.98300 9.94900 27.91100
N  41.28900 9.62100 32.36300
C  42.15600 10.26300 33.18900
C  41.62400 10.34100 34.61300
C  40.31500 9.50900 34.52000
C  40.13300 9.25200 33.00100
C  40.19400 8.22900 35.37700
C  41.43600 11.84800 34.97900
C  40.53800 12.08800 36.18100
H  41.12000 12.93400 37.34500
N  39.38400 8.51300 30.18500
C  38.59500 8.20200 31.21300
C  37.41200 7.52700 30.71000
C  37.46700 7.51600 29.28000
C  38.86000 7.95900 29.00000
C  36.36500 7.02500 31.56900
C  36.52300 7.01300 28.25300
O  36.76300 7.04000 27.07900
C  35.20400 6.58600 28.67100
N  41.70600 9.08600 28.17500
C  40.81900 8.41100 27.37400
C  41.30100 8.32700 25.91300
C  42.81800 8.74600 26.03800
C  42.85000 9.25400 27.49900
C  41.12800 6.91100 25.24000
C  43.21100 9.82400 24.90800
C  42.83800 11.29500 25.14300
N  43.22200 10.26800 30.22100
C  44.27800 10.30100 29.27700
C  45.42300 10.86500 29.86900
C  45.08200 11.13300 31.17600
C  43.78700 10.68500 31.37800
C  46.80200 11.12800 29.27300
C  45.58300 11.76600 32.39100
O  46.59800 12.38000 32.58900
C  44.48700 11.50400 33.46300
C  44.98800 10.71000 34.62200
O  45.07300 9.50300 34.59700
O  45.36300 11.58700 35.63900
C  45.71100 10.87400 36.80800
H  38.23800 8.47300 33.28300
H  38.98700 7.56100 26.96500
H  44.71300 9.97800 27.10000
H  42.41300 9.83800 35.17200
H  39.44700 10.11000 34.79200
H  40.76100 8.46400 36.27700
H  40.57400 7.36100 34.83800
H  39.17800 8.17700 35.76800
H  40.98300 12.37600 34.14000
H  42.38400 12.35900 35.15000
H  40.37900 11.10200 36.61700
H  39.58200 12.45100 35.80500
H  35.46700 7.64300 31.55500
H  36.67200 7.00300 32.61400
H  36.13800 5.99200 31.30800
H  34.85700 7.28900 29.42800
H  35.19300 5.58400 29.10000
H  34.45000 6.64400 27.88600
H  40.79500 9.00600 25.22600
H  43.37400 7.81000 25.97100
H  40.19700 6.47500 25.60300
H  41.94900 6.24900 25.51600
H  41.10000 7.04700 24.15900
H  42.65100 9.37900 24.08600
H  44.29900 9.76500 24.86900
H  42.13200 11.26900 25.97300
H  42.39600 11.85900 24.32200
H  43.68600 11.85900 25.53200
H  46.85000 10.55500 28.34700
H  47.57000 10.89400 30.01000
H  46.88700 12.19200 29.05400
H  44.05200 12.42800 33.84400
H  44.82600 10.78300 37.43900
H  46.37400 11.57000 37.32100
H  46.28400 9.96000 36.64900

