158

Mg 49.70200 45.44500 42.57600
C  46.21900 45.30700 41.37000
C  49.55300 42.06400 42.33500
C  52.83800 45.67700 42.83900
C  49.19600 48.82300 42.46700
N  48.01700 43.91000 41.89800
C  46.79100 44.05200 41.41600
C  46.06400 42.75400 41.15400
C  47.10400 41.71400 41.70500
C  48.26900 42.58900 42.00200
C  46.56000 40.98900 43.06300
C  45.59300 42.53100 39.70600
C  46.67300 42.78000 38.66600
H  46.12700 43.43400 37.35100
N  51.09100 43.98000 42.71300
C  50.83800 42.64600 42.50800
C  52.08600 41.99100 42.58300
C  53.16400 43.00200 42.74600
C  52.41400 44.29300 42.78800
C  52.13300 40.41100 42.67500
C  54.59300 42.80000 42.86200
O  55.03900 41.62000 42.97500
C  55.69300 43.95900 42.89300
N  50.92200 47.05400 42.48800
C  52.21200 46.93000 42.84400
C  52.84200 48.30300 42.92500
C  51.56800 49.25200 43.17000
C  50.48500 48.32600 42.63800
C  53.77600 48.44400 44.17700
C  51.66500 50.63500 42.38700
C  51.14100 51.78800 43.30100
N  48.07400 46.87800 42.07000
C  48.04300 48.19600 42.05800
C  46.75500 48.76000 41.61300
C  46.05900 47.56500 41.33900
C  46.85400 46.47500 41.74400
C  46.48600 50.17500 41.49300
C  44.71100 47.18800 40.96100
O  43.72700 47.84200 40.62100
C  44.71800 45.68600 41.02300
C  43.65300 45.11700 41.95200
O  42.49600 44.92300 41.68200
O  44.25500 44.96600 43.15100
C  43.42200 44.47600 44.27500
H  49.60200 41.00000 42.09500
H  53.88000 45.68500 43.16300
H  49.04300 49.90000 42.55600
H  45.17000 42.74000 41.77800
H  47.35100 40.90600 41.01600
H  45.48200 40.83500 43.09700
H  46.88700 41.58200 43.91700
H  46.97500 39.98100 43.06300
H  44.72700 43.17800 39.56900
H  45.26100 41.51100 39.51200
H  47.06800 41.81000 38.36600
H  47.54600 43.34100 39.00000
H  52.83900 40.20500 41.87000
H  51.18400 39.90500 42.49700
H  52.48700 40.22400 43.68900
H  55.59200 44.53900 41.97600
H  56.63200 43.41500 42.79100
H  55.69100 44.44400 43.86900
H  53.32500 48.51200 41.97000
H  51.33500 49.27600 44.23400
H  54.48000 47.62100 44.29700
H  53.27600 48.53000 45.14200
H  54.44700 49.26600 43.93000
H  51.00100 50.50300 41.53300
H  52.67500 50.82000 42.02200
H  50.13000 51.97400 42.94100
H  51.74100 52.68600 43.15600
H  51.09300 51.59400 44.37200
H  45.65600 50.20300 40.78700
H  47.32800 50.65300 40.99400
H  46.24900 50.64300 42.44900
H  44.44600 45.32600 40.03000
H  43.90400 43.54700 44.57900
H  42.38800 44.20900 44.05600
H  43.41900 45.02000 45.21900
Mg 48.21200 36.38600 28.52600
C  46.03200 34.80700 30.54400
C  48.36900 38.97500 30.72200
C  49.78900 38.30900 26.05200
C  47.92200 33.77800 26.09600
N  47.39300 36.73400 30.46500
C  46.58800 35.90300 31.15400
C  46.54600 36.31000 32.61500
C  46.92100 37.85700 32.52900
C  47.64000 37.86100 31.16600
C  45.68100 38.75700 32.47900
C  47.43600 35.41200 33.55500
C  48.88500 35.93600 33.72500
H  49.29800 36.20400 35.16300
N  49.17700 38.26800 28.54200
C  49.09200 39.19600 29.52500
C  49.72600 40.41800 29.16900
C  50.29100 40.17600 27.86600
C  49.77200 38.82400 27.43400
C  49.79300 41.60500 29.98100
C  51.13100 41.17900 26.96900
O  51.56600 40.83800 25.89300
C  51.40200 42.59500 27.48200
N  48.80100 36.07500 26.36200
C  49.34300 37.05500 25.59700
C  49.60500 36.59100 24.16200
C  49.08800 35.06500 24.21700
C  48.56700 34.89800 25.69600
C  48.75400 37.36500 23.12700
C  49.98800 33.96300 23.77000
C  50.87800 34.12200 22.54800
N  47.21800 34.63700 28.28000
C  47.20300 33.59200 27.30600
C  46.24200 32.57800 27.75400
C  45.77700 33.01900 28.98900
C  46.31900 34.26200 29.25900
C  45.73800 31.42400 27.00200
C  44.79300 32.75600 30.06000
O  44.02700 31.84800 30.07100
C  44.95000 33.88300 31.13800
C  45.18900 33.22200 32.41800
O  46.03900 32.33700 32.58000
O  44.36900 33.75800 33.37200
C  44.64400 33.10800 34.66000
H  48.20100 39.81200 31.40300
H  50.32500 38.76500 25.21700
H  47.97300 32.89200 25.46100
H  45.57900 36.18900 33.10300
H  47.55800 38.13000 33.37000
H  45.41900 39.00200 33.50900
H  44.90700 38.27000 31.88600
H  45.88300 39.66200 31.90700
H  47.44900 34.40700 33.13400
H  46.87600 35.24500 34.47500
H  49.14200 36.83000 33.15700
H  49.47100 35.10400 33.33400
H  49.16400 42.34500 29.48600
H  50.82400 41.93400 30.10900
H  49.41600 41.43300 30.98900
H  50.47400 43.10100 27.74900
H  51.90500 43.23400 26.75600
H  52.00300 42.40700 28.37200
H  50.60200 36.66200 23.72700
H  48.11300 35.03500 23.73000
H  48.01000 37.95400 23.66500
H  48.17200 36.89000 22.33800
H  49.40600 38.15800 22.76000
H  49.45300 33.01300 23.77400
H  50.64500 33.79700 24.62400
H  50.72200 33.26200 21.89700
H  51.95900 34.09900 22.68200
H  50.59400 35.04100 22.03500
H  45.48000 31.66100 25.97000
H  44.87300 31.03200 27.53800
H  46.53000 30.67600 26.97300
H  44.00700 34.40200 31.31000
H  45.67500 33.17500 35.00800
H  44.54200 32.05200 34.41000
H  43.82700 33.25500 35.36700

