158

Mg 25.88100 0.69500 29.19100
C  27.79900 0.32500 31.99500
C  23.19300 1.26200 31.19900
C  24.06800 0.82400 26.38900
C  28.70000 -0.36000 27.15000
N  25.64200 0.75300 31.33200
C  26.54700 0.73300 32.34500
C  25.88900 1.06900 33.73200
C  24.38000 1.19000 33.37600
C  24.43200 1.11100 31.86600
C  23.41500 0.10900 34.01500
C  26.49100 2.39500 34.44200
C  27.28300 2.16900 35.77800
H  27.04200 3.05200 36.94000
N  23.87900 0.88400 28.77900
C  22.92600 1.10000 29.78000
C  21.67000 1.18300 29.16100
C  21.81100 1.17200 27.75500
C  23.32100 1.02800 27.58000
C  20.31900 1.34200 29.85000
C  20.89200 1.31100 26.50400
O  21.27700 1.50300 25.30400
C  19.48000 1.35200 26.83100
N  26.41200 0.28100 27.05500
C  25.39500 0.52800 26.15500
C  25.92900 0.24900 24.69900
C  27.43200 -0.08000 24.86700
C  27.58300 0.05100 26.44400
C  25.08900 -0.79900 23.83000
C  28.44500 0.75600 24.02200
C  28.46600 0.48800 22.54200
N  27.86500 0.17900 29.47400
C  28.83300 -0.25800 28.57200
C  30.06800 -0.54600 29.38200
C  29.71200 -0.32600 30.69800
C  28.35700 0.10500 30.70400
C  31.45300 -1.07000 28.86500
C  30.17300 -0.43900 32.01800
O  31.18600 -0.86800 32.54100
C  29.04000 0.06200 32.95300
C  28.78500 -0.91500 34.05300
O  28.19800 -1.95300 33.98000
O  29.41000 -0.44500 35.15700
C  29.23000 -1.20400 36.34700
H  22.31100 1.50400 31.79400
H  23.52100 1.12400 25.49300
H  29.48100 -0.74000 26.48900
H  26.10500 0.19900 34.35200
H  23.97100 2.12200 33.76700
H  23.88100 -0.53400 34.76100
H  23.05100 -0.57400 33.24700
H  22.54200 0.55000 34.49700
H  25.76700 3.19600 34.58800
H  27.20500 2.71000 33.68100
H  28.34000 2.13200 35.51600
H  27.10200 1.14900 36.11900
H  20.53000 1.68800 30.86200
H  19.83700 0.36800 29.76700
H  19.69100 2.14000 29.45400
H  19.27400 0.46900 27.43500
H  19.03200 1.23800 25.84400
H  19.15100 2.28300 27.29200
H  25.85200 1.15400 24.09600
H  27.60500 -1.14100 24.68800
H  24.49500 -1.27100 24.61200
H  25.73200 -1.55700 23.38200
H  24.46700 -0.39000 23.03400
H  29.41600 0.44900 24.41200
H  28.34500 1.81800 24.24500
H  29.52000 0.33900 22.30600
H  27.95100 1.29600 22.02300
H  27.92100 -0.43100 22.32400
H  31.37900 -1.04000 27.77800
H  31.69500 -1.95800 29.44800
H  32.19300 -0.38500 29.27800
H  29.23200 1.05700 33.35400
H  28.21200 -1.45300 36.64800
H  29.70500 -0.74700 37.21600
H  29.74300 -2.16100 36.25700
Mg 36.24500 50.20100 25.04600
C  36.30000 48.11500 27.87900
C  35.31500 52.74500 27.01900
C  35.64700 52.06300 22.17600
C  36.99600 47.34800 23.13900
N  35.71100 50.33700 27.19600
C  36.05200 49.45800 28.22900
C  35.97700 50.13200 29.63300
C  35.47100 51.56100 29.28500
C  35.55400 51.60200 27.75300
C  34.17900 52.05300 29.85700
C  37.34100 50.02200 30.41400
C  37.36500 49.92600 31.93900
H  36.10600 49.50000 32.66700
N  35.62800 52.12600 24.64800
C  35.35200 53.06200 25.66600
C  35.14400 54.32000 25.06100
C  35.22200 54.16200 23.61200
C  35.47600 52.72700 23.41900
C  34.97400 55.59100 25.86800
C  35.09400 55.23500 22.52400
O  35.09100 54.93700 21.33100
C  34.98200 56.65800 22.88900
N  36.26100 49.74300 23.03100
C  36.02100 50.67400 22.01700
C  36.01700 49.99800 20.64600
C  36.81900 48.60900 20.94000
C  36.69900 48.48200 22.46300
C  34.64500 49.83600 19.91600
C  38.29900 48.55800 20.56400
C  38.96100 47.20700 20.11800
N  36.49400 48.12000 25.35300
C  36.80700 47.10000 24.50500
C  36.98500 45.84700 25.25800
C  36.79500 46.19100 26.58800
C  36.43700 47.59300 26.60700
C  37.26700 44.42700 24.65800
C  36.85100 45.67300 28.02500
O  37.22800 44.62400 28.49600
C  36.46800 46.93100 28.89000
C  35.27200 46.45300 29.56600
O  34.13900 46.81000 29.33700
O  35.60200 45.55700 30.58600
C  34.49500 45.37000 31.46500
H  35.11300 53.59400 27.67600
H  35.47400 52.68200 21.29400
H  37.25400 46.57100 22.41600
H  35.21500 49.65200 30.24800
H  36.27200 52.22500 29.61000
H  34.46900 52.77100 30.62300
H  33.54500 51.25800 30.25000
H  33.64500 52.62500 29.09800
H  37.99200 50.83200 30.08400
H  37.88100 49.11400 30.14600
H  37.62400 50.89000 32.37700
H  38.13100 49.16300 32.07900
H  35.78500 56.29400 25.67900
H  34.91200 55.40400 26.94000
H  34.08500 56.15000 25.57500
H  35.76900 56.98600 23.56800
H  34.01600 56.84700 23.35700
H  35.13300 57.15000 21.92900
H  36.69200 50.65300 20.09500
H  36.28500 47.82500 20.40100
H  34.57900 50.50900 19.06100
H  33.86800 50.12900 20.62200
H  34.47900 48.80900 19.59000
H  38.89900 48.69900 21.46300
H  38.44600 49.34500 19.82500
H  39.86600 47.33800 19.52400
H  38.23000 46.58100 19.60700
H  39.15100 46.62000 21.01700
H  37.90100 44.53200 23.77800
H  36.32500 44.01600 24.29600
H  37.59800 43.62000 25.31100
H  37.29700 47.25000 29.52200
H  34.17000 46.23600 32.04100
H  34.70100 44.67300 32.27700
H  33.59700 44.98900 30.97900

