158

Mg -1.50900 17.89000 26.01700
C  -1.60600 15.41400 28.58700
C  -1.86600 20.29100 28.46200
C  -1.42700 20.08000 23.69200
C  -1.33800 15.26600 23.74000
N  -1.63000 17.80900 28.29300
C  -1.51200 16.76100 29.13800
C  -1.50200 17.28800 30.63800
C  -2.01600 18.77400 30.52400
C  -1.91100 18.98100 29.00400
C  -3.51600 19.09600 30.96000
C  -0.11000 17.23500 31.43300
C  -0.10900 17.85600 32.89400
H  0.32400 17.09000 34.08000
N  -1.33600 19.93000 26.07000
C  -1.68200 20.69600 27.14000
C  -1.68500 22.12900 26.67300
C  -1.53200 22.12100 25.31200
C  -1.50500 20.71800 24.97200
C  -2.02900 23.30600 27.69000
C  -1.66200 23.30100 24.27200
O  -1.62700 23.07300 23.05100
C  -1.86200 24.67400 24.79400
N  -1.41300 17.68400 24.00900
C  -1.44300 18.77400 23.20600
C  -1.41200 18.42600 21.65300
C  -1.40300 16.84600 21.65100
C  -1.40000 16.56900 23.21300
C  -2.61600 19.03200 20.84100
C  -0.17100 16.19000 21.01700
C  -0.42000 14.93100 20.24100
N  -1.70100 15.74000 26.08400
C  -1.72400 14.84300 25.01900
C  -1.78300 13.44100 25.65800
C  -1.76100 13.62100 27.11100
C  -1.63100 15.04200 27.23300
C  -1.72700 12.20300 24.85800
C  -1.81200 12.97900 28.44000
O  -1.85700 11.81000 28.81900
C  -1.80600 14.14100 29.40500
C  -0.72800 13.84800 30.35600
O  0.46500 13.95600 30.13000
O  -1.26300 13.43500 31.58800
C  -0.33600 12.93500 32.59600
H  -2.15900 21.16800 29.04400
H  -1.28300 20.76000 22.85000
H  -1.36000 14.43500 23.03200
H  -2.29900 16.83300 31.22700
H  -1.39400 19.48900 31.06200
H  -4.24300 19.20200 30.15500
H  -3.51500 20.03500 31.51400
H  -3.90200 18.26300 31.54700
H  0.71300 17.61700 30.82900
H  0.11000 16.17500 31.56200
H  -1.13900 18.14100 33.10700
H  0.43200 18.80000 32.96300
H  -3.04500 23.67600 27.55200
H  -1.29000 24.03800 27.36100
H  -1.71600 23.17600 28.72600
H  -1.73800 25.42600 24.01500
H  -1.08800 24.80500 25.55000
H  -2.84300 24.55100 25.25300
H  -0.53100 18.74900 21.09800
H  -2.33900 16.53100 21.19200
H  -2.30500 19.71100 20.04700
H  -3.19000 19.66600 21.51700
H  -3.19300 18.18600 20.46700
H  0.52300 16.00500 21.83700
H  0.26000 16.81100 20.23200
H  0.41400 14.23000 20.26800
H  -0.38800 15.12800 19.16900
H  -1.42100 14.54700 20.43900
H  -2.07400 12.30400 23.83000
H  -2.34900 11.57100 25.49200
H  -0.71900 11.80400 24.97100
H  -2.70100 14.21600 30.02400
H  -0.78700 13.37300 33.48600
H  0.70600 13.22800 32.47100
H  -0.35300 11.89400 32.92100
Mg 6.41500 53.62600 41.19500
C  5.74700 50.12200 40.99000
C  9.57800 53.02000 40.17800
C  6.76100 56.95000 40.62900
C  2.98300 54.02800 41.86400
N  7.41300 51.65200 40.25600
C  7.08000 50.37100 40.49500
C  8.25200 49.41000 40.09800
C  9.49800 50.38400 40.25900
C  8.81200 51.78600 40.25800
C  10.42700 50.11400 41.45000
C  8.10300 48.78300 38.71900
C  7.98700 49.74900 37.45000
H  6.78900 49.63900 36.54300
N  7.90400 54.79500 40.23800
C  9.17200 54.35500 39.95900
C  10.03900 55.47400 39.68700
C  9.27500 56.64900 39.88200
C  7.91400 56.18800 40.19400
C  11.51200 55.23900 39.45000
C  9.77300 58.05500 39.80600
O  10.95200 58.35800 39.58300
C  8.87900 59.34900 40.07300
N  5.02300 55.24500 41.03400
C  5.53000 56.52300 41.07400
C  4.38300 57.51500 41.30100
C  3.16600 56.58900 41.52900
C  3.75000 55.18000 41.53400
C  4.72600 58.66000 42.30100
C  2.01500 56.79100 40.53100
C  1.21700 58.11300 40.81600
N  4.71100 52.42600 41.50300
C  3.40700 52.71800 41.84300
C  2.72000 51.54300 42.14800
C  3.61600 50.48900 42.00400
C  4.78600 51.10500 41.38300
C  1.32200 51.49000 42.57500
C  3.75700 49.09300 42.07000
O  3.01700 48.17800 42.40400
C  5.07800 48.80700 41.30500
C  4.72100 48.15000 40.04300
O  4.01600 48.67300 39.13500
O  5.42700 46.96300 39.91000
C  5.20300 46.10300 38.68200
H  10.63200 52.81300 39.98100
H  6.84700 58.03800 40.66500
H  1.93900 54.21600 42.12200
H  8.39900 48.64900 40.86400
H  10.06600 50.35400 39.32900
H  11.46000 49.85800 41.21300
H  10.10100 49.23100 42.00100
H  10.48600 50.96400 42.12900
H  7.17900 48.20600 38.73200
H  8.92900 48.09700 38.52900
H  8.78000 49.63400 36.71100
H  8.00500 50.74400 37.89500
H  11.75400 54.93300 38.43200
H  11.88600 54.40000 40.03600
H  12.10200 56.10800 39.73800
H  8.08400 59.35600 39.32700
H  9.47600 60.24900 39.92300
H  8.43300 59.26500 41.06400
H  4.13000 58.01300 40.36500
H  2.78400 56.63100 42.54900
H  4.06700 58.55000 43.16200
H  4.55400 59.67100 41.93300
H  5.78000 58.68100 42.58000
H  1.35800 55.92200 40.54800
H  2.38200 56.84200 39.50500
H  1.45500 58.86400 40.06300
H  1.54500 58.42700 41.80700
H  0.13700 57.98300 40.74300
H  1.36700 51.31900 43.65100
H  0.97600 50.60300 42.04500
H  0.84900 52.45700 42.40100
H  5.77600 48.12900 41.79700
H  6.20900 46.02000 38.27100
H  4.43800 46.45100 37.98700
H  4.99700 45.12500 39.11600

