158

Mg 35.72900 49.53600 24.99000
C  35.60600 47.87400 28.08200
C  34.45600 52.38500 26.60300
C  35.09800 50.82600 22.00300
C  37.01500 46.58900 23.60600
N  35.15900 50.03900 27.17100
C  35.25800 49.20900 28.26600
C  34.85900 49.89300 29.54500
C  34.62600 51.40200 29.06100
C  34.85000 51.34900 27.51500
C  33.38500 52.19400 29.56300
C  35.89200 49.76200 30.68300
C  35.43900 49.32400 32.14900
H  34.01000 49.54400 32.63900
N  34.77800 51.34900 24.40400
C  34.34900 52.36200 25.22500
C  33.69400 53.34600 24.46600
C  33.96500 53.05400 23.06900
C  34.65200 51.72200 23.07500
C  33.18600 54.63600 25.07400
C  33.69000 53.79700 21.78600
O  34.13700 53.45300 20.71900
C  32.85100 55.07700 21.88700
N  35.92300 48.76900 23.07100
C  35.60000 49.51500 21.96800
C  36.05300 48.75300 20.74100
C  36.93400 47.56300 21.28700
C  36.59200 47.60700 22.77200
C  34.97600 48.39400 19.69300
C  38.48500 47.61900 21.04300
C  39.17100 46.27600 20.80300
N  36.28700 47.61200 25.60300
C  36.74000 46.47600 24.94000
C  36.73100 45.32700 25.77500
C  36.29500 45.88000 27.03800
C  35.99300 47.21700 26.87200
C  36.98200 43.90900 25.45900
C  36.02300 45.48800 28.46600
O  36.07900 44.43200 29.01700
C  35.66600 46.78600 29.14100
C  34.46600 46.42900 29.90300
O  33.31400 46.41000 29.51800
O  34.86600 46.03600 31.17700
C  33.85800 45.33100 31.94800
H  34.02100 53.29200 27.02600
H  35.10800 51.35600 21.04900
H  37.46700 45.68800 23.18600
H  33.89100 49.54800 29.91000
H  35.49900 51.97400 29.37600
H  33.68300 52.94900 30.29100
H  32.73700 51.46000 30.04100
H  32.84500 52.69000 28.75700
H  36.31600 50.74100 30.90400
H  36.75500 49.11800 30.51300
H  36.13400 49.73300 32.88300
H  35.66500 48.25900 32.09900
H  33.06900 54.68100 26.15700
H  32.20200 54.74200 24.61600
H  33.69400 55.58600 24.91000
H  32.93100 55.67600 20.98000
H  33.42500 55.63400 22.62800
H  31.80700 54.88400 22.13200
H  36.81700 49.40500 20.31700
H  36.47100 46.61100 21.02900
H  34.34600 49.27300 19.55400
H  34.26000 47.66500 20.07200
H  35.44300 48.02200 18.78200
H  38.88200 48.17000 21.89600
H  38.51400 48.16800 20.10200
H  39.54200 46.18800 19.78200
H  38.53700 45.39900 20.93300
H  40.06600 46.21200 21.42200
H  36.34900 43.63800 24.61400
H  36.56800 43.40300 26.33100
H  38.02600 43.74300 25.19500
H  36.39100 47.03800 29.91500
H  32.98300 45.91600 32.23200
H  34.24500 45.09400 32.93900
H  33.54100 44.42000 31.44100
Mg -11.76500 17.02900 42.33500
C  -8.27200 18.22600 42.23700
C  -12.55200 20.38500 41.66900
C  -14.75800 16.06000 42.07100
C  -10.44900 13.77900 42.47600
N  -10.51300 19.05400 41.83200
C  -9.16300 19.27900 42.03400
C  -8.75100 20.73800 41.85900
C  -10.19800 21.38400 41.93800
C  -11.18000 20.23400 41.70500
C  -10.42100 22.07800 43.34000
C  -8.05900 20.96000 40.50700
C  -6.66000 21.53200 40.42600
H  -5.71000 20.74500 39.62700
N  -13.43600 17.96500 41.81600
C  -13.62300 19.34100 41.64400
C  -15.07600 19.59300 41.45000
C  -15.77200 18.37000 41.58200
C  -14.65400 17.38600 41.81600
C  -15.57100 20.97900 41.12100
C  -17.28600 18.14900 41.46400
O  -17.99400 19.13900 41.30700
C  -17.92000 16.78100 41.33200
N  -12.48000 15.10400 41.95900
C  -13.83200 15.05600 42.24100
C  -14.23700 13.59200 42.59200
C  -12.88000 12.89700 42.76600
C  -11.86900 13.95600 42.41700
C  -15.19100 13.40500 43.82000
C  -12.63300 11.62300 41.99100
C  -13.78600 10.59300 41.97500
N  -9.74000 16.14600 42.29300
C  -9.39000 14.80400 42.34000
C  -7.91400 14.68800 42.56700
C  -7.44700 16.05600 42.66800
C  -8.56900 16.87000 42.34400
C  -7.07000 13.42600 42.67300
C  -6.27300 16.85400 42.83000
O  -5.07600 16.64200 43.01900
C  -6.82900 18.34400 42.50700
C  -6.42000 19.10700 43.69700
O  -6.83800 18.95600 44.85000
O  -5.49200 19.99100 43.35500
C  -4.70500 20.76000 44.32600
H  -12.84400 21.42900 41.54200
H  -15.77500 15.76100 42.33400
H  -10.14100 12.76000 42.72300
H  -8.13900 20.99000 42.72500
H  -10.37000 22.23400 41.27900
H  -9.49900 22.05000 43.92100
H  -11.21500 21.58700 43.90400
H  -10.57000 23.14700 43.18900
H  -8.64000 21.72900 39.99900
H  -8.10000 20.04300 39.92000
H  -6.19400 21.55000 41.41100
H  -6.55900 22.60200 40.24700
H  -16.55400 21.08700 40.66200
H  -14.80000 21.41200 40.48400
H  -15.48000 21.51700 42.06400
H  -18.82400 16.81000 40.72400
H  -18.12000 16.26800 42.27300
H  -17.20800 16.27600 40.67900
H  -14.83300 13.17900 41.77800
H  -12.74500 12.73100 43.83400
H  -14.67200 12.79800 44.56100
H  -16.09500 12.84000 43.59100
H  -15.37600 14.33400 44.35800
H  -11.85300 10.95700 42.35900
H  -12.27000 11.89700 41.00100
H  -13.66400 9.73900 42.64200
H  -13.95800 10.22700 40.96200
H  -14.73400 11.05000 42.25800
H  -6.05800 13.63800 42.32800
H  -7.49300 12.58200 42.12900
H  -7.01300 12.90100 43.62700
H  -6.29800 18.72800 41.63600
H  -3.87700 21.24900 43.81200
H  -4.27800 20.08400 45.06700
H  -5.34900 21.48200 44.82700

