158

Mg 1.55800 -3.08700 44.03900
C  4.70400 -1.89200 43.44800
C  0.24200 -0.36300 42.06200
C  -1.40300 -4.66700 43.88700
C  3.04200 -5.89700 45.61200
N  2.32900 -1.37300 42.78200
C  3.71200 -1.08300 42.80400
C  4.01600 0.29600 42.11700
C  2.56300 0.93800 41.99200
C  1.60700 -0.26500 42.37300
C  2.27800 2.31000 42.67700
C  4.78900 0.06200 40.74500
C  5.92000 1.09400 40.51300
H  5.61100 1.94800 39.26900
N  -0.28800 -2.72700 42.95000
C  -0.63000 -1.52200 42.33500
C  -2.00400 -1.54300 41.93500
C  -2.59000 -2.73000 42.51200
C  -1.41000 -3.42900 43.12900
C  -2.69500 -0.44600 41.14900
C  -4.03600 -3.13200 42.52800
O  -4.94000 -2.58500 41.90900
C  -4.45000 -4.34000 43.24200
N  1.03400 -5.07900 44.54500
C  -0.30600 -5.39200 44.54300
C  -0.61400 -6.66700 45.35100
C  0.80200 -7.20400 45.59500
C  1.70600 -5.98500 45.25600
C  -1.50400 -6.49100 46.55000
C  1.13300 -8.41200 44.72400
C  0.54300 -9.68200 45.33800
N  3.45600 -3.71500 44.63500
C  3.93900 -4.86000 45.24000
C  5.38800 -4.73800 45.50800
C  5.69700 -3.61200 44.82600
C  4.56300 -3.04700 44.23200
C  6.28100 -5.69900 46.41100
C  6.78100 -2.70100 44.55600
O  7.92600 -2.67900 45.04400
C  6.25600 -1.66100 43.49200
C  6.68800 -0.30200 44.04300
O  6.00500 0.29600 44.81800
O  7.87300 0.13400 43.44300
C  8.15800 1.54900 43.55600
H  -0.21400 0.49000 41.55500
H  -2.29300 -5.29300 43.98000
H  3.37000 -6.74900 46.21200
H  4.62300 0.83100 42.84700
H  2.28600 1.01200 40.94000
H  1.99700 3.10500 41.98700
H  3.19200 2.70000 43.12500
H  1.47400 2.27000 43.41100
H  4.01700 0.11900 39.97800
H  5.18800 -0.95000 40.68600
H  6.93600 0.70900 40.42200
H  5.96700 1.85000 41.29700
H  -2.01300 0.11200 40.50800
H  -3.31400 0.28300 41.67200
H  -3.45400 -0.86100 40.48700
H  -4.08800 -5.22100 42.71000
H  -5.52900 -4.27400 43.37900
H  -3.96100 -4.15400 44.19800
H  -1.04600 -7.32400 44.59500
H  0.95700 -7.42700 46.65100
H  -2.29800 -7.23800 46.52600
H  -2.05100 -5.54900 46.49700
H  -1.11600 -6.65900 47.55500
H  2.21600 -8.53400 44.70300
H  0.84900 -8.30400 43.67700
H  0.30400 -9.46400 46.37900
H  1.26300 -10.49300 45.44500
H  -0.37700 -10.03600 44.87400
H  6.85100 -5.13300 47.14700
H  7.05700 -6.19100 45.82400
H  5.70200 -6.43900 46.96300
H  6.73000 -1.79500 42.52000
H  7.32900 2.23400 43.37300
H  9.04200 1.75500 42.95400
H  8.45600 1.65000 44.60000
Mg 49.21100 46.54800 42.40400
C  45.86000 47.43600 41.48000
C  48.74000 43.67600 40.74800
C  52.52100 46.19200 42.46600
C  49.61700 49.96200 43.39900
N  47.45800 45.62300 41.36600
C  46.27800 46.16900 41.04700
C  45.40800 45.18600 40.14000
C  46.30300 43.93100 40.08600
C  47.62000 44.43100 40.74200
C  45.76800 42.58400 40.63700
C  45.01900 45.76300 38.73400
C  43.47100 45.68700 38.47000
H  43.08000 45.70100 36.94400
N  50.46400 45.08300 41.78300
C  50.10800 43.93200 41.15000
C  51.19800 43.07700 40.93900
C  52.29500 43.71000 41.60200
C  51.82300 45.07000 41.93100
C  51.04000 41.70400 40.30000
C  53.65900 43.08300 41.73300
O  53.96500 42.00300 41.27900
C  54.65200 43.74900 42.69000
N  50.90000 47.91300 42.98700
C  52.13300 47.47300 42.89100
C  53.12600 48.58600 43.15800
C  52.19500 49.73000 43.62700
C  50.79800 49.19600 43.29300
C  54.31900 48.20000 44.08700
C  52.61200 51.21700 43.26100
C  52.38000 51.70600 41.81500
N  47.90300 48.28100 42.66200
C  48.26400 49.52300 43.02300
C  47.03800 50.36300 43.04300
C  46.07300 49.48300 42.45000
C  46.70000 48.31700 42.16000
C  46.88800 51.80400 43.37900
C  44.70800 49.47300 41.96300
O  43.76900 50.27600 42.01300
C  44.58400 48.09900 41.30000
C  43.56600 47.34100 42.09500
O  43.71500 46.81800 43.18700
O  42.48200 47.07200 41.33100
C  41.61700 45.93300 41.78100
H  48.64300 42.67400 40.32600
H  53.60500 46.08200 42.39400
H  49.69000 50.94200 43.87600
H  44.51600 45.02500 40.74500
H  46.60100 43.69800 39.06400
H  45.60800 41.85200 39.84600
H  44.83500 42.76500 41.17200
H  46.35800 42.19400 41.46600
H  45.37000 45.07100 37.96800
H  45.43100 46.76600 38.62600
H  42.97700 46.60800 38.77900
H  43.04100 44.78300 38.90100
H  51.40800 41.60300 39.27900
H  50.02400 41.33500 40.44200
H  51.69000 40.97700 40.78500
H  54.13400 43.82600 43.64500
H  55.13100 44.68800 42.41000
H  55.41000 42.98900 42.87900
H  53.55400 48.86300 42.19400
H  52.19200 49.70800 44.71700
H  54.05500 47.20300 44.43900
H  54.41500 48.90800 44.91000
H  55.22100 48.09700 43.48300
H  53.70000 51.24400 43.32700
H  52.29000 51.98900 43.96000
H  51.85100 51.00000 41.17500
H  53.27900 52.06900 41.31700
H  51.84600 52.65300 41.89100
H  45.86800 51.92700 43.74300
H  46.95700 52.30900 42.41500
H  47.59800 52.14000 44.13500
H  44.14900 48.18600 40.30400
H  41.14100 45.64500 40.84400
H  40.76000 46.31400 42.33700
H  42.02700 45.02200 42.21800

