158

Mg 41.47600 41.45400 26.21500
C  40.59600 43.66000 28.80300
C  42.45400 39.19000 28.65200
C  42.39000 39.49300 23.85400
C  40.50800 43.91100 23.91500
N  41.50400 41.49700 28.45700
C  41.07200 42.44500 29.29800
C  41.11100 42.01800 30.78300
C  41.70100 40.54700 30.73000
C  41.93900 40.38400 29.20900
C  42.91200 40.30500 31.72000
C  39.77000 42.15800 31.50600
C  39.52000 41.34600 32.78900
H  38.92300 42.08300 34.01700
N  42.33600 39.56000 26.26000
C  42.54800 38.73500 27.29100
C  42.89000 37.37500 26.90900
C  42.78000 37.40000 25.46800
C  42.50600 38.83800 25.13000
C  43.18000 36.27800 27.86700
C  42.77000 36.32800 24.44900
O  42.73100 36.54300 23.20800
C  43.10100 34.99300 24.89800
N  41.60100 41.78100 24.24400
C  42.00000 40.77500 23.45100
C  41.71400 41.09400 21.90300
C  40.80100 42.39500 21.98400
C  40.88800 42.73600 23.48000
C  43.00900 41.14900 21.02500
C  39.25900 42.34900 21.54200
C  38.52000 41.10800 22.10100
N  40.63900 43.39000 26.29900
C  40.41600 44.30100 25.30500
C  40.10100 45.58800 25.85300
C  40.09500 45.35100 27.25400
C  40.40300 43.98800 27.42500
C  39.84400 46.85000 25.15400
C  39.83300 45.93100 28.52700
O  39.32100 46.98300 28.76700
C  39.99900 44.82200 29.59100
C  40.80000 45.36500 30.66400
O  41.99700 45.57600 30.60700
O  39.94800 45.52300 31.73100
C  40.53200 46.03000 32.96300
H  42.43900 38.44000 29.44600
H  42.65400 38.81600 23.04000
H  40.17500 44.63000 23.16400
H  41.73800 42.62600 31.43600
H  41.03800 39.71600 30.96900
H  43.84900 40.25100 31.16600
H  42.88100 39.40000 32.32600
H  42.95900 41.13300 32.42700
H  39.04600 41.83700 30.75600
H  39.47300 43.17100 31.77800
H  40.52600 41.01000 33.04300
H  38.82700 40.52200 32.62000
H  42.38700 35.53800 27.76300
H  43.11400 36.59300 28.90800
H  44.20800 35.92200 27.80900
H  44.15500 34.84100 25.13100
H  42.81700 34.25600 24.14600
H  42.39800 34.86200 25.72100
H  41.11600 40.26200 21.53100
H  41.29800 43.18500 21.42200
H  43.32600 42.19200 21.00100
H  42.95700 40.72100 20.02400
H  43.69900 40.60500 21.67000
H  39.31300 42.25800 20.45700
H  38.69900 43.25800 21.76200
H  37.84000 41.36200 22.91500
H  39.20800 40.43300 22.61100
H  38.05900 40.59300 21.25800
H  40.68200 47.52300 24.96900
H  39.17000 47.40000 25.80900
H  39.36700 46.74200 24.17900
H  38.96100 44.63300 29.86500
H  40.29500 47.08900 33.06100
H  41.61700 46.05200 33.06600
H  40.24600 45.56900 33.90800
Mg 9.31100 48.68900 27.50800
C  7.35600 47.98900 30.32300
C  11.92900 49.28100 29.57800
C  11.20100 49.23200 24.76500
C  6.56000 48.49600 25.42500
N  9.58100 48.74100 29.75900
C  8.66300 48.39800 30.72500
C  9.26100 48.55800 32.11500
C  10.64200 49.41100 31.78400
C  10.74600 49.19600 30.28600
C  10.73300 50.84400 32.32000
C  9.53300 47.20800 32.82600
C  10.37800 47.16800 34.15100
H  10.10300 46.10800 35.25900
N  11.35800 49.08300 27.21200
C  12.29600 49.28800 28.17200
C  13.53800 49.48600 27.58200
C  13.35400 49.55600 26.16900
C  11.91000 49.27100 25.99200
C  14.74100 49.72600 28.37700
C  14.31600 49.71600 24.99900
O  14.06700 49.53200 23.78500
C  15.77400 49.96100 25.38200
N  8.90500 48.93500 25.30100
C  9.82200 49.03900 24.39400
C  9.25800 49.31900 23.03700
C  7.86600 48.75600 23.23600
C  7.72300 48.64900 24.72500
C  9.34400 50.78600 22.58800
C  7.46800 47.45400 22.41000
C  6.08100 47.50000 21.81700
N  7.41900 48.34700 27.76500
C  6.32800 48.31900 26.83000
C  5.13400 47.91000 27.49300
C  5.46400 47.81600 28.89900
C  6.87200 48.03200 28.94600
C  3.72900 47.79800 26.95800
C  4.97800 47.46300 30.20600
O  3.83500 47.08800 30.52100
C  6.24200 47.58000 31.21000
C  6.40800 46.33500 31.97000
O  6.77000 45.21600 31.55000
O  6.13800 46.61700 33.29000
C  6.48400 45.49100 34.13500
H  12.71800 49.49400 30.30200
H  11.78000 49.42500 23.86000
H  5.60900 48.39600 24.89800
H  8.50300 49.03600 32.73500
H  11.46600 48.87300 32.25400
H  9.82300 51.07800 32.87300
H  10.85500 51.49900 31.45700
H  11.56900 50.97000 33.00800
H  10.03100 46.62700 32.04900
H  8.59600 46.71300 33.08200
H  10.26900 48.11900 34.67300
H  11.41200 46.96400 33.87500
H  14.50100 49.68200 29.44000
H  15.27100 50.64200 28.11900
H  15.41700 48.89100 28.19200
H  15.83900 50.89200 25.94500
H  16.42500 50.07800 24.51500
H  16.14400 49.15400 26.01400
H  9.73600 48.83800 22.18300
H  7.17300 49.52400 22.89100
H  9.94600 50.80400 21.67900
H  9.75900 51.36200 23.41500
H  8.33600 51.15600 22.40000
H  7.58400 46.58000 23.05100
H  8.21600 47.47400 21.61700
H  6.15600 47.39400 20.73400
H  5.56700 48.45400 21.92600
H  5.50700 46.60500 22.05700
H  3.65000 48.10000 25.91300
H  2.96700 48.31500 27.54200
H  3.48800 46.73700 27.02200
H  6.10200 48.42100 31.88900
H  7.50500 45.14100 33.98100
H  5.78000 44.66300 34.05000
H  6.35800 45.81600 35.16800

