158

Mg 17.21300 -1.56100 28.24400
C  16.04600 0.59200 30.77200
C  19.19400 -3.12600 30.48800
C  18.49600 -3.42600 25.61600
C  15.45200 0.38400 25.85700
N  17.55900 -1.26300 30.30200
C  16.88600 -0.42900 31.23900
C  17.11700 -0.80700 32.69000
C  18.31600 -1.76500 32.48000
C  18.39800 -2.04700 30.95500
C  19.73000 -1.13800 32.77600
C  15.88000 -1.44500 33.47500
C  15.43100 -0.73800 34.70900
H  16.56900 -0.29300 35.69200
N  18.54500 -3.12500 28.09000
C  19.25500 -3.65000 29.15100
C  20.05600 -4.75800 28.71200
C  19.87900 -4.87200 27.29700
C  18.91200 -3.82100 26.93500
C  20.90700 -5.49700 29.74500
C  20.56600 -5.79800 26.39500
O  20.45600 -5.63300 25.18900
C  21.50400 -6.87000 26.87500
N  16.99700 -1.50700 26.10900
C  17.67500 -2.37900 25.22800
C  17.56800 -1.96400 23.76900
C  16.41300 -0.84800 23.87400
C  16.25700 -0.62700 25.37300
C  18.90100 -1.61000 23.01200
C  15.01400 -1.17800 23.16100
C  13.95600 -1.90900 23.97800
N  15.93100 0.11600 28.25700
C  15.24500 0.74900 27.20500
C  14.45400 1.87700 27.75100
C  14.77500 1.86800 29.13200
C  15.66300 0.81700 29.37400
C  13.56000 2.68900 26.83000
C  14.52500 2.50000 30.41800
O  13.85600 3.44500 30.77000
C  15.31300 1.67200 31.56100
C  16.22700 2.60300 32.27600
O  17.40600 2.83700 32.07600
O  15.56400 3.07900 33.38200
C  16.38100 3.76300 34.32600
H  19.69100 -3.57900 31.34900
H  18.76000 -4.13100 24.82500
H  15.03100 0.92900 25.01000
H  17.30200 0.14100 33.19400
H  18.22200 -2.67600 33.07000
H  19.58000 -0.18000 33.27300
H  20.39400 -0.94200 31.93400
H  20.31500 -1.82700 33.38500
H  15.92400 -2.49500 33.76200
H  15.05500 -1.33800 32.77100
H  14.76800 -1.35400 35.31600
H  14.91900 0.18800 34.44900
H  20.86200 -6.58000 29.62700
H  20.60900 -5.28600 30.77200
H  21.93100 -5.20700 29.50800
H  22.20900 -6.42000 27.57400
H  21.91900 -7.36200 25.99600
H  20.82000 -7.65600 27.19600
H  17.26600 -2.83200 23.18200
H  16.86200 0.01200 23.37700
H  19.10500 -0.57100 22.75200
H  19.00200 -2.10800 22.04800
H  19.81200 -1.75900 23.59200
H  15.46000 -1.71600 22.32600
H  14.51300 -0.30900 22.73500
H  13.62500 -2.61500 23.21700
H  13.04300 -1.35800 24.20200
H  14.31100 -2.54500 24.79000
H  13.87800 3.73000 26.88900
H  12.56500 2.71700 27.27300
H  13.43400 2.36200 25.79800
H  14.53100 1.25500 32.19600
H  16.98700 4.57400 33.92100
H  17.14900 3.12300 34.75800
H  15.69200 4.35900 34.92600
Mg 48.73300 35.77100 29.03800
C  46.28500 33.98400 30.96900
C  48.66500 38.33900 31.21200
C  50.15500 37.57600 26.65300
C  48.14500 33.25800 26.52600
N  47.48500 36.11500 30.79500
C  46.75100 35.25300 31.53700
C  46.44600 35.87200 32.91400
C  46.98700 37.32100 32.80500
C  47.83200 37.23900 31.51000
C  46.05100 38.49500 32.86700
C  47.03700 35.05300 34.17700
C  48.51600 35.14100 34.54500
H  48.83000 35.90200 35.82900
N  49.44100 37.69600 28.98400
C  49.40500 38.52600 29.97900
C  50.06600 39.82900 29.56900
C  50.42900 39.63700 28.20100
C  49.96900 38.26500 27.86900
C  50.38600 40.93200 30.45500
C  51.14000 40.54600 27.23200
O  51.68000 40.11000 26.20600
C  51.23100 42.07000 27.56200
N  49.12100 35.43100 26.91600
C  49.83100 36.30900 26.18200
C  50.02700 35.85400 24.71400
C  49.57100 34.34900 24.78800
C  48.94900 34.32100 26.17500
C  49.27300 36.68000 23.59200
C  50.68200 33.33100 24.57400
C  50.40300 32.26500 23.43100
N  47.68300 33.92500 28.82700
C  47.54400 33.03900 27.77300
C  46.61600 31.96400 28.11500
C  46.11900 32.37100 29.37400
C  46.69200 33.56100 29.74200
C  46.17700 30.65600 27.35900
C  45.20500 31.84900 30.41700
O  44.51700 30.81800 30.53700
C  45.18400 32.98800 31.46300
C  45.40300 32.37400 32.80100
O  46.23200 31.55600 33.08700
O  44.37900 32.82500 33.62500
C  44.13300 32.31400 34.96300
H  48.72600 39.13500 31.95800
H  50.71400 38.10300 25.87600
H  47.82200 32.58600 25.72900
H  45.37200 35.97800 33.06400
H  47.75200 37.51900 33.55500
H  46.48200 39.40800 33.28000
H  45.25600 38.16500 33.53500
H  45.61500 38.75100 31.90100
H  46.95600 34.02300 33.83100
H  46.46000 35.36600 35.04600
H  49.08300 35.54600 33.70700
H  48.93500 34.13700 34.60900
H  51.34500 41.38700 30.20700
H  50.49600 40.58200 31.48100
H  49.58700 41.66100 30.32600
H  50.39600 42.40200 28.17900
H  51.26500 42.57100 26.59500
H  52.23800 42.13200 27.97400
H  51.10000 35.95800 24.55400
H  48.82600 34.12900 24.02300
H  48.54300 37.37900 23.99900
H  48.67000 36.10200 22.89200
H  49.97800 37.28900 23.02600
H  50.76700 32.78300 25.51300
H  51.67700 33.75000 24.43000
H  49.49400 32.45500 22.86100
H  50.30500 31.28400 23.89500
H  51.27200 32.19600 22.77700
H  45.67000 30.08100 28.13400
H  46.96100 30.06300 26.88700
H  45.60900 30.93800 26.47300
H  44.22500 33.50600 31.43600
H  44.03400 33.11300 35.69800
H  44.90800 31.71200 35.43700
H  43.16700 31.80800 34.97200

