158

Mg 25.88000 0.02700 29.00300
C  27.91400 -0.23300 31.83900
C  23.23100 0.26300 31.01900
C  23.87600 0.43700 26.16900
C  28.50900 -0.60400 26.88100
N  25.64000 0.05400 31.21400
C  26.58600 0.04200 32.17500
C  26.00100 0.37600 33.55500
C  24.47200 0.51600 33.26300
C  24.40600 0.30400 31.74900
C  23.35000 -0.13700 34.10500
C  26.72800 1.55400 34.26000
C  26.82400 1.39200 35.79400
H  26.37200 2.41400 36.78000
N  23.85200 0.24700 28.68200
C  22.91000 0.28700 29.66700
C  21.62000 0.40600 29.06300
C  21.80000 0.59200 27.65200
C  23.23000 0.44400 27.43900
C  20.33700 0.47400 29.94900
C  20.76700 0.85300 26.61600
O  20.92600 0.84800 25.38700
C  19.37800 1.24500 26.97600
N  26.16500 0.05500 26.88800
C  25.18600 0.22300 25.92800
C  25.84800 0.14300 24.53800
C  27.29000 -0.30500 24.80200
C  27.31700 -0.25400 26.30600
C  25.04800 -0.77800 23.51100
C  28.32300 0.53200 24.07100
C  28.77900 1.83600 24.74000
N  27.72100 -0.51200 29.27500
C  28.76200 -0.72200 28.30000
C  30.03300 -0.91600 28.98300
C  29.74100 -0.79500 30.37800
C  28.35800 -0.47500 30.50400
C  31.33700 -1.21100 28.38900
C  30.32300 -0.75600 31.70200
O  31.49100 -0.83400 32.05200
C  29.18100 -0.27300 32.66300
C  29.02300 -1.24500 33.83600
O  28.28300 -2.17000 33.81200
O  29.71700 -0.85400 34.99100
C  29.37600 -1.48800 36.25500
H  22.31900 0.44200 31.59200
H  23.13000 0.31200 25.38200
H  29.34100 -0.84100 26.21500
H  26.21600 -0.46700 34.21200
H  24.14000 1.54300 33.41700
H  22.77800 -0.89000 33.56300
H  22.69100 0.59400 34.57300
H  23.70000 -0.68600 34.97900
H  26.23800 2.51000 34.07400
H  27.65400 1.85200 33.76700
H  27.88600 1.15800 35.86800
H  26.33200 0.46200 36.07700
H  19.42700 0.05800 29.51800
H  20.12400 1.51200 30.20700
H  20.40700 0.04100 30.94700
H  19.24500 1.88000 27.85200
H  18.85800 0.29700 27.10900
H  18.91700 1.67900 26.08900
H  25.88600 1.14500 24.11100
H  27.50900 -1.33400 24.52000
H  24.04100 -0.96400 23.88400
H  25.54900 -1.73700 23.37900
H  25.05300 -0.28300 22.53900
H  27.81500 0.88000 23.17100
H  29.19600 -0.07200 23.82300
H  28.46800 1.99500 25.77300
H  28.27800 2.64000 24.20000
H  29.85300 2.02200 24.74200
H  32.00200 -0.38400 28.63900
H  31.23200 -1.32000 27.30900
H  31.69600 -2.17900 28.73800
H  29.50400 0.71200 33.00000
H  30.29700 -1.76300 36.76900
H  28.68600 -2.33200 36.27500
H  28.80600 -0.73800 36.80400
Mg -9.84500 18.07300 42.75500
C  -6.40800 17.60600 42.81800
C  -9.25800 21.36300 42.18500
C  -13.09900 18.35300 41.94900
C  -10.12100 14.50000 42.59500
N  -8.02200 19.28900 42.54700
C  -6.69600 18.89900 42.60800
C  -5.71600 20.11100 42.61800
C  -6.76700 21.31100 42.83400
C  -8.09300 20.63700 42.51400
C  -6.73200 21.90500 44.29400
C  -4.98700 20.21000 41.23000
C  -5.77500 20.30400 39.95600
H  -5.68200 19.11800 39.00500
N  -11.02700 19.65600 42.06100
C  -10.58600 20.89600 41.83500
C  -11.64300 21.75300 41.38600
C  -12.84600 20.99300 41.56200
C  -12.44100 19.60200 41.87200
C  -11.45300 23.32200 40.94800
C  -14.23100 21.58200 41.28300
O  -14.45900 22.75500 41.04400
C  -15.40000 20.69800 41.52300
N  -11.38100 16.64700 42.17500
C  -12.65600 17.02900 42.08900
C  -13.71000 15.81200 42.20400
C  -12.68900 14.61300 42.33500
C  -11.29700 15.26400 42.32500
C  -14.75500 16.00100 43.32000
C  -12.75200 13.47400 41.18200
C  -13.22200 12.09100 41.58800
N  -8.56900 16.38000 42.80500
C  -8.83500 14.99000 42.78800
C  -7.58500 14.26600 42.99100
C  -6.58700 15.28500 43.03400
C  -7.23800 16.52100 42.87100
C  -7.35600 12.76000 43.00400
C  -5.19500 15.43900 43.22300
O  -4.33200 14.60200 43.43900
C  -5.01900 17.01000 43.11800
C  -4.43100 17.42600 44.36700
O  -3.34100 18.01900 44.54500
O  -5.38600 17.30000 45.43100
C  -5.08600 17.76000 46.79000
H  -9.08800 22.43200 42.33000
H  -14.18900 18.28800 41.91200
H  -10.23400 13.41300 42.59400
H  -5.04500 19.86200 43.44100
H  -6.40100 22.09200 42.16800
H  -7.73600 21.68000 44.65400
H  -6.70300 22.99200 44.37300
H  -5.92200 21.52700 44.91800
H  -4.25100 19.41000 41.15900
H  -4.28900 21.03500 41.37500
H  -5.42200 21.16700 39.39100
H  -6.82600 20.55600 40.09500
H  -11.89000 23.45400 39.95900
H  -10.38400 23.52700 40.88600
H  -11.84100 24.00400 41.70500
H  -15.32900 19.78500 40.93000
H  -16.34300 21.22300 41.36800
H  -15.56200 20.33700 42.53800
H  -14.20900 15.70000 41.24200
H  -12.80600 14.18300 43.33000
H  -14.53400 16.79900 44.02900
H  -14.79900 15.04200 43.83700
H  -15.75700 16.20800 42.94500
H  -11.83700 13.41900 40.59200
H  -13.49300 13.92200 40.52000
H  -12.85100 11.82300 42.57700
H  -12.80100 11.33600 40.92400
H  -14.30300 11.94800 41.60900
H  -7.56700 12.45700 44.02900
H  -6.35500 12.42900 42.72500
H  -8.15300 12.35700 42.37900
H  -4.40000 17.19300 42.23900
H  -4.07900 18.17500 46.84500
H  -4.97500 16.92800 47.48500
H  -5.80100 18.52600 47.08900

