158

Mg 47.00300 34.47000 27.27000
C  45.21900 33.11700 29.93300
C  47.62300 37.25200 29.23800
C  48.14600 36.06000 24.61200
C  45.77600 31.77100 25.27300
N  46.62100 35.03200 29.31700
C  45.90800 34.25300 30.25700
C  46.06900 34.98800 31.71000
C  46.43000 36.42100 31.32700
C  46.92300 36.21200 29.88200
C  45.27100 37.41000 31.32700
C  47.14800 34.22000 32.58000
C  46.87200 34.20100 34.12100
H  45.86200 35.20800 34.72300
N  47.81900 36.34100 27.00900
C  48.08400 37.29600 27.91500
C  48.66000 38.54600 27.30100
C  48.86700 38.26600 25.94100
C  48.27400 36.87200 25.79800
C  49.06200 39.77900 28.12200
C  49.65700 38.98900 24.85800
O  49.86900 38.50500 23.76600
C  50.30600 40.33800 25.16600
N  46.90600 33.98400 25.20900
C  47.56900 34.79500 24.29200
C  47.49400 34.11700 22.86000
C  46.93200 32.74000 23.23100
C  46.47600 32.80100 24.62600
C  46.69800 34.92200 21.81000
C  47.82000 31.47800 22.88300
C  49.21100 31.48300 23.56900
N  45.82900 32.66100 27.47900
C  45.40200 31.58500 26.61800
C  44.51100 30.71100 27.35200
C  44.45800 31.27800 28.59000
C  45.26900 32.39500 28.64900
C  43.77100 29.56100 26.74500
C  43.82900 31.11800 29.86000
O  43.11400 30.20800 30.19800
C  44.06600 32.40100 30.65800
C  44.23500 32.05100 32.02800
O  45.28500 31.72600 32.61200
O  43.00200 32.08000 32.67700
C  42.99700 31.67800 34.10200
H  47.62100 38.18100 29.81200
H  48.46600 36.42600 23.63400
H  45.34400 30.98300 24.65300
H  45.06200 34.98600 32.12700
H  47.20600 36.88200 31.93900
H  45.42300 38.24700 32.00900
H  44.36900 36.91400 31.68500
H  45.03100 37.89700 30.38200
H  48.16400 34.54800 32.35800
H  47.20900 33.28400 32.02600
H  47.71200 34.47600 34.75800
H  46.64200 33.18800 34.45300
H  48.21100 40.05400 28.74500
H  49.32400 40.66700 27.54900
H  49.94100 39.42700 28.66200
H  50.88200 40.61200 24.28200
H  50.91900 40.31700 26.06700
H  49.49700 41.06000 25.27700
H  48.54300 34.00900 22.58700
H  46.05200 32.46600 22.65000
H  45.90600 34.24100 21.49600
H  47.27500 35.10200 20.90300
H  46.30100 35.78800 22.34000
H  47.86100 31.26400 21.81500
H  47.28700 30.55900 23.12900
H  50.03800 31.67600 22.88500
H  49.27700 30.54600 24.12400
H  49.20000 32.22000 24.37200
H  44.46000 29.10400 26.03400
H  42.83200 29.80200 26.24600
H  43.49400 28.81400 27.48800
H  43.18900 33.00400 30.42000
H  43.45600 32.42900 34.74600
H  43.50700 30.72000 34.20000
H  41.95900 31.55200 34.40900
Mg 16.00100 52.93200 25.52900
C  17.74300 51.53700 28.34000
C  13.73900 54.22900 27.66100
C  14.64700 54.19000 22.85900
C  18.43700 51.29700 23.46400
N  15.71100 52.69900 27.74200
C  16.54400 52.22000 28.70600
C  16.04200 52.51600 30.12000
C  14.57800 53.16000 29.86100
C  14.70400 53.40900 28.32200
C  13.41000 52.27600 30.37900
C  17.05100 53.39900 30.86000
C  17.61000 52.91100 32.23900
H  16.87300 51.90900 33.17200
N  14.32800 53.95800 25.31400
C  13.58000 54.54300 26.29700
C  12.58300 55.30300 25.62800
C  12.69300 55.17800 24.17000
C  13.88400 54.35200 24.03500
C  11.48400 55.97500 26.41800
C  11.85000 55.61800 23.03600
O  12.07700 55.24400 21.91700
C  10.53300 56.32200 23.27300
N  16.27600 52.45400 23.43600
C  15.77300 53.38700 22.58000
C  16.24700 53.18200 21.18900
C  17.56200 52.37600 21.36800
C  17.44700 52.06100 22.87000
C  15.07800 52.38500 20.43600
C  18.81800 53.15000 20.91500
C  18.92700 54.55000 21.55700
N  17.79700 51.69700 25.78100
C  18.62900 51.09100 24.80200
C  19.71900 50.41600 25.53700
C  19.41600 50.56800 26.86200
C  18.22100 51.32600 26.97400
C  21.01600 49.88200 25.06100
C  19.89500 50.27400 28.16800
O  20.88500 49.67000 28.53200
C  18.76400 50.83800 29.23500
C  18.24900 49.60900 29.87500
O  17.49900 48.77800 29.33700
O  18.56300 49.65400 31.19100
C  18.01200 48.48000 31.93800
H  13.05800 54.73900 28.34600
H  14.40100 54.85400 22.02700
H  19.14000 50.73900 22.84200
H  15.96900 51.61600 30.73100
H  14.56700 54.16500 30.28300
H  13.02400 51.72000 29.52400
H  12.58400 52.80100 30.85800
H  13.86600 51.56300 31.06600
H  16.51900 54.34200 30.99400
H  17.93800 53.65300 30.28000
H  17.66400 53.85100 32.78900
H  18.62800 52.52200 32.26000
H  11.31500 57.01000 26.12000
H  11.75400 56.01500 27.47300
H  10.54600 55.43000 26.31700
H  9.94400 56.47500 22.36800
H  10.68800 57.27900 23.77000
H  9.97400 55.60300 23.87200
H  16.35000 54.10100 20.61200
H  17.56900 51.44500 20.80000
H  14.21300 52.22400 21.07900
H  15.40300 51.44500 19.99100
H  14.77500 53.08500 19.65800
H  18.70300 53.40200 19.86100
H  19.77800 52.64100 21.00100
H  18.01900 54.93300 22.02400
H  19.24700 55.37600 20.92100
H  19.56000 54.54900 22.44500
H  21.30700 49.02500 25.66900
H  21.75400 50.66900 25.21200
H  20.99100 49.51600 24.03500
H  19.28100 51.38800 30.02100
H  18.30400 47.48000 31.61600
H  16.92600 48.39000 31.90700
H  18.30000 48.54900 32.98700

