158

Mg 46.07500 24.32600 27.61200
C  46.92600 26.35900 30.43400
C  45.41000 21.81100 29.87400
C  45.98500 22.30500 25.07200
C  47.32600 27.00000 25.49600
N  46.03400 24.18500 29.95900
C  46.30700 25.09900 30.86600
C  45.89000 24.68300 32.26900
C  45.47900 23.17700 32.04400
C  45.74200 22.97000 30.53200
C  46.11500 22.10400 32.97500
C  44.67400 25.51000 32.96800
C  44.88800 26.02200 34.39900
H  43.68200 26.27200 35.30200
N  45.63300 22.42300 27.47700
C  45.40300 21.57600 28.49200
C  45.06300 20.27800 27.90000
C  45.28500 20.31000 26.48100
C  45.61700 21.70800 26.30600
C  44.42100 19.17800 28.78200
C  45.14200 19.31200 25.35600
O  45.21700 19.63300 24.16400
C  44.82500 17.84400 25.66500
N  46.59900 24.63500 25.61200
C  46.33800 23.63500 24.72400
C  46.73600 24.09900 23.27400
C  46.91500 25.56800 23.42400
C  46.96000 25.74500 24.90700
C  47.97200 23.34400 22.55300
C  45.76200 26.36400 22.76500
C  44.40100 26.63300 23.49400
N  46.91400 26.28500 27.78200
C  47.37100 27.26500 26.86300
C  47.93000 28.44400 27.57100
C  47.70400 28.10000 28.87000
C  47.14700 26.81300 29.03400
C  48.59200 29.62300 26.90600
C  47.81700 28.60400 30.23300
O  48.29900 29.63200 30.62400
C  47.29700 27.45500 31.27100
C  48.35500 27.05800 32.17600
O  49.38600 26.48700 31.86000
O  48.02000 27.45200 33.44900
C  48.89300 26.85700 34.42400
H  45.20300 20.94400 30.50500
H  45.98200 21.64100 24.20500
H  47.59300 27.63600 24.65000
H  46.77000 24.70200 32.91200
H  44.39700 23.04400 32.04200
H  45.33800 21.44900 33.37000
H  46.65200 22.65300 33.74800
H  46.90700 21.59000 32.43000
H  43.93900 24.70900 33.04600
H  44.39600 26.22500 32.19500
H  45.33900 27.00300 34.25300
H  45.54300 25.36000 34.96600
H  43.63200 18.76300 28.15400
H  44.07200 19.42400 29.78400
H  45.15800 18.38800 28.93100
H  43.77200 17.69400 25.90300
H  45.57100 17.43900 26.34800
H  44.89800 17.29200 24.72800
H  45.83400 23.89500 22.69700
H  47.86500 25.96500 23.06800
H  47.72300 22.87900 21.59900
H  48.29400 22.59800 23.28000
H  48.85100 23.98700 22.50600
H  45.58900 25.96400 21.76600
H  46.12800 27.38400 22.64400
H  44.51800 26.37900 24.54800
H  43.49200 26.14000 23.15100
H  44.19500 27.69100 23.32700
H  49.08200 30.30800 27.59700
H  47.86300 30.25200 26.39600
H  49.32200 29.34500 26.14500
H  46.40400 27.71400 31.84000
H  48.36700 26.97500 35.37100
H  49.88200 27.31500 34.46700
H  49.10400 25.80800 34.21600
Mg 9.11100 48.41800 25.61800
C  7.21200 48.39900 28.54700
C  11.83200 49.42500 27.39200
C  10.74300 48.68200 22.78500
C  6.28700 47.56300 23.94000
N  9.45100 48.80900 27.74600
C  8.50700 48.75400 28.78800
C  9.27000 49.12200 30.03600
C  10.55500 49.83600 29.52200
C  10.68300 49.21800 28.14600
C  10.43900 51.39100 29.44900
C  9.50300 47.99100 31.11700
C  8.99300 48.28700 32.57500
H  8.58300 47.14700 33.52800
N  11.12700 48.93400 25.14300
C  12.06500 49.26600 26.03200
C  13.33800 49.33600 25.35200
C  13.07300 49.10100 23.97900
C  11.60800 49.02000 23.88200
C  14.58300 49.59900 26.06600
C  14.08800 48.99700 22.81100
O  13.63300 48.92800 21.67600
C  15.56900 48.86700 23.01300
N  8.51300 48.44800 23.58000
C  9.44500 48.32800 22.57900
C  8.77000 48.07800 21.19600
C  7.37900 47.42800 21.68500
C  7.43800 47.82000 23.20200
C  8.43100 49.25200 20.19800
C  7.31100 45.88900 21.45400
C  6.19400 45.47100 20.39600
N  7.13600 47.99300 26.07400
C  6.10800 47.68700 25.28200
C  4.87700 47.44300 26.06500
C  5.27800 47.69600 27.35400
C  6.60700 48.06600 27.27000
C  3.49300 47.03000 25.55800
C  4.79400 47.72100 28.69500
O  3.77300 47.41500 29.24200
C  6.03500 48.28400 29.55000
C  6.17200 47.31700 30.69000
O  6.60800 46.21300 30.67100
O  5.50300 47.87400 31.76500
C  4.90000 46.92500 32.76700
H  12.67600 49.94700 27.84800
H  11.27100 48.65000 21.83000
H  5.41300 47.15300 23.43000
H  8.61900 49.89100 30.45100
H  11.42100 49.46400 30.06900
H  10.79200 51.75700 28.48500
H  11.01800 51.83600 30.25800
H  9.39700 51.70800 29.49600
H  10.57600 47.84900 31.24100
H  9.07100 47.03800 30.81000
H  8.16900 48.99300 32.46600
H  9.84000 48.81200 33.01700
H  14.56200 49.77000 27.14300
H  15.00900 50.46400 25.55800
H  15.19300 48.72200 25.84900
H  15.83400 47.81000 22.98000
H  16.01600 49.23900 23.93500
H  16.07300 49.31300 22.15500
H  9.42700 47.32800 20.75500
H  6.48000 47.94500 21.34800
H  8.83500 49.02900 19.21100
H  8.69300 50.21100 20.64500
H  7.37700 49.30900 19.92400
H  7.11100 45.37800 22.39500
H  8.21000 45.38100 21.10400
H  5.49600 46.30600 20.34200
H  5.83000 44.59700 20.93700
H  6.63100 45.27000 19.41800
H  3.58900 45.95000 25.43800
H  3.10600 47.60300 24.71500
H  2.79700 47.35100 26.33300
H  5.70900 49.22000 30.00400
H  5.77600 46.57700 33.31500
H  4.29700 46.21000 32.20800
H  4.27700 47.44800 33.49200

