158

Mg 41.22000 8.13300 29.71400
C  43.19600 9.62900 32.32000
C  39.05500 7.02400 32.11100
C  39.69600 6.46000 27.22900
C  43.88200 8.81500 27.57700
N  41.12800 8.36800 31.92000
C  42.00200 9.01300 32.78900
C  41.45700 9.06200 34.20500
C  40.26800 8.00900 34.14900
C  40.15400 7.73600 32.61700
C  40.48600 6.70300 34.96000
C  41.13700 10.51900 34.59200
C  40.44400 10.59200 35.94000
H  40.81400 11.52000 37.03400
N  39.55800 7.01400 29.64500
C  38.71200 6.65900 30.77500
C  37.55600 5.86100 30.29800
C  37.61700 5.90600 28.87200
C  39.00900 6.46500 28.52300
C  36.54600 5.19200 31.26300
C  36.69100 5.53200 27.78500
O  36.87600 5.58700 26.57000
C  35.35300 5.08300 28.16700
N  41.64700 7.84200 27.65000
C  40.93500 6.98500 26.84200
C  41.52400 6.86700 25.43500
C  42.86900 7.64400 25.54600
C  42.85000 8.11400 27.04000
C  41.61300 5.34900 24.94100
C  43.21000 8.69600 24.45800
C  42.53700 8.79400 23.09200
N  43.11600 9.07500 29.83800
C  44.01900 9.31700 28.87400
C  45.06300 10.12100 29.38800
C  44.73800 10.33200 30.69500
C  43.59800 9.61700 30.96900
C  46.21000 10.58800 28.60300
C  45.13700 11.03100 31.88500
O  46.06500 11.84900 32.02300
C  44.23500 10.51100 32.98100
C  44.95300 9.74800 34.02800
O  45.17000 8.52600 34.07500
O  45.14800 10.62500 35.03900
C  45.22900 10.10400 36.38800
H  38.35200 6.61300 32.83900
H  39.27100 5.80100 26.46900
H  44.74900 9.07300 26.96600
H  42.22500 8.73400 34.90500
H  39.34100 8.40000 34.56900
H  40.67700 5.83200 34.33400
H  39.65200 6.64800 35.66000
H  41.36700 6.85700 35.58200
H  40.66300 11.00700 33.74000
H  42.01500 11.14900 34.73300
H  40.34400 9.57100 36.30900
H  39.44600 10.90800 35.63500
H  36.09500 4.32300 30.78300
H  35.74700 5.88100 31.53600
H  37.01300 4.84200 32.18400
H  34.69300 5.02200 27.30100
H  34.93700 5.84400 28.82700
H  35.40800 4.10100 28.63800
H  40.77700 7.52600 24.99400
H  43.69000 6.93400 25.45100
H  42.58600 5.10000 24.51800
H  40.85900 5.11300 24.19000
H  41.44600 4.74300 25.83200
H  44.28800 8.85100 24.48400
H  42.85100 9.61800 24.91600
H  43.38400 8.93400 22.42000
H  41.92400 9.67100 22.88800
H  42.03200 7.84500 22.90900
H  46.05400 10.90800 27.57300
H  47.03300 9.87700 28.52400
H  46.50000 11.45200 29.20000
H  43.76200 11.41800 33.35700
H  44.25600 10.33900 36.81900
H  46.08500 10.59700 36.84900
H  45.29200 9.01700 36.42000
Mg -2.00500 34.02500 27.23200
C  -3.42400 32.13900 29.83200
C  -0.31300 35.85100 29.39100
C  -0.92000 35.93700 24.51300
C  -3.73600 32.07400 24.96400
N  -1.86700 33.92400 29.44200
C  -2.48800 33.13600 30.29700
C  -1.91900 33.31800 31.76100
C  -1.00200 34.59300 31.55700
C  -1.04900 34.85200 30.02300
C  -1.23400 35.88700 32.51600
C  -1.30400 32.03700 32.41200
C  -1.88500 31.56200 33.73100
H  -0.98700 31.69100 34.97600
N  -0.86200 35.63200 26.93300
C  -0.21200 36.23100 27.99900
C  0.67800 37.28000 27.49100
C  0.50300 37.26900 26.09400
C  -0.45400 36.22100 25.76900
C  1.56900 38.14200 28.38600
C  1.21200 38.20900 25.06900
O  0.97200 38.18400 23.85900
C  2.05600 39.34500 25.49700
N  -2.29100 34.00500 25.04400
C  -1.75100 34.88800 24.14200
C  -2.30200 34.79000 22.73400
C  -2.77700 33.31700 22.75500
C  -2.96800 33.07400 24.34600
C  -3.34800 35.97200 22.49500
C  -1.83000 32.27600 22.14200
C  -0.22000 32.32200 22.30900
N  -3.35200 32.55800 27.31400
C  -3.97300 31.82900 26.28700
C  -4.82700 30.81300 26.82500
C  -4.56600 30.90800 28.16700
C  -3.72100 31.96400 28.41700
C  -5.61500 29.76800 26.07000
C  -4.98000 30.31100 29.43500
O  -5.77300 29.39100 29.61200
C  -4.27400 31.14600 30.61000
C  -5.33100 31.80000 31.46400
O  -5.95900 32.82900 31.21800
O  -5.47400 31.12800 32.69200
C  -6.27700 31.77300 33.69600
H  0.41500 36.27100 30.08700
H  -0.64600 36.59700 23.68800
H  -4.16900 31.39900 24.22200
H  -2.88300 33.52800 32.22500
H  -0.00300 34.20600 31.75500
H  -0.34700 36.47300 32.75700
H  -1.61500 35.56500 33.48500
H  -1.84600 36.55700 31.91300
H  -0.23900 32.25500 32.50100
H  -1.49300 31.20100 31.74000
H  -2.27300 30.54300 33.73200
H  -2.71600 32.24800 33.89100
H  2.58500 38.22500 28.00200
H  1.75900 37.70800 29.36800
H  1.13200 39.13700 28.47500
H  1.54200 39.95600 26.23800
H  2.24500 40.04100 24.67900
H  2.98300 38.89100 25.84800
H  -1.39200 34.96400 22.16000
H  -3.75500 33.26200 22.27700
H  -2.92800 36.94800 22.73600
H  -4.19400 35.86600 23.17400
H  -3.64600 35.86400 21.45200
H  -2.07000 32.17000 21.08400
H  -2.13100 31.26600 22.41800
H  0.25300 32.50500 21.34400
H  0.15600 31.36400 22.66700
H  0.18200 33.12100 22.93300
H  -5.27500 29.80600 25.03500
H  -6.68600 29.87900 26.23500
H  -5.37600 28.75900 26.40600
H  -3.77700 30.44700 31.28300
H  -6.90700 31.05700 34.22400
H  -6.92500 32.60100 33.40900
H  -5.71100 32.25200 34.49400

