158

Mg 2.95900 -0.88400 44.00900
C  6.46300 -0.31600 43.70600
C  2.49800 1.73300 41.71600
C  -0.26500 -1.87700 43.79600
C  3.71500 -3.80700 45.81500
N  4.38900 0.56400 42.95300
C  5.69300 0.62100 42.97500
C  6.20200 1.63400 41.93600
C  4.90500 2.28800 41.41400
C  3.78700 1.52600 42.08400
C  4.76000 3.85000 41.64200
C  7.12500 1.00500 40.80600
C  8.38400 1.77900 40.42600
H  8.21100 2.37900 39.01000
N  1.33800 -0.11100 43.01600
C  1.35700 0.97400 42.14500
C  -0.03400 1.25700 41.79500
C  -0.86200 0.29600 42.43700
C  0.03300 -0.61900 43.16000
C  -0.42100 2.48800 41.05300
C  -2.32200 0.24800 42.46000
O  -2.90100 1.10800 41.83500
C  -3.17900 -0.73000 43.21300
N  1.83300 -2.59200 44.79600
C  0.51900 -2.69600 44.62700
C  0.12400 -4.04200 45.04900
C  1.24800 -4.51000 46.05000
C  2.32900 -3.62500 45.50300
C  -1.23000 -4.13700 45.74200
C  1.53500 -6.08200 45.87600
C  1.88800 -6.74500 47.24500
N  4.70700 -1.90700 44.61600
C  4.85600 -3.05600 45.30900
C  6.27000 -3.33200 45.55500
C  6.95500 -2.23000 44.98000
C  5.92700 -1.44700 44.36400
C  6.86100 -4.47000 46.24400
C  8.24900 -1.62200 44.75600
O  9.41000 -2.01700 44.90200
C  7.98200 -0.34600 43.86000
C  8.25500 0.86400 44.66600
O  8.13100 1.02500 45.90200
O  8.65500 1.87200 43.80200
C  8.92300 3.18300 44.35900
H  2.13000 2.56500 41.11100
H  -1.25700 -2.29700 43.61900
H  4.06500 -4.74400 46.25200
H  6.79300 2.43100 42.38700
H  4.77500 2.08700 40.35100
H  4.12000 4.05700 42.50000
H  4.37200 4.46000 40.82600
H  5.74400 4.14500 42.00600
H  6.50200 0.85800 39.92300
H  7.40700 -0.02900 41.00800
H  9.29600 1.19800 40.55700
H  8.42700 2.67100 41.05000
H  -1.16000 2.26400 40.28400
H  0.40200 2.87300 40.45200
H  -0.84100 3.24800 41.71200
H  -2.93900 -0.75200 44.27600
H  -3.01600 -1.68900 42.72100
H  -4.24900 -0.52500 43.26300
H  0.10500 -4.70200 44.18200
H  1.04000 -4.12600 47.04900
H  -1.05700 -4.65600 46.68500
H  -1.90500 -4.71900 45.11500
H  -1.72600 -3.18000 45.89800
H  2.38400 -6.30300 45.22800
H  0.67400 -6.51100 45.36200
H  1.13200 -7.50300 47.45000
H  2.01300 -6.03700 48.06400
H  2.86200 -7.19300 47.04800
H  7.48800 -5.05500 45.57200
H  6.08200 -5.11400 46.65100
H  7.54200 -4.18000 47.04500
H  8.57300 -0.46500 42.95200
H  8.32100 3.29600 45.26100
H  8.72500 3.91200 43.57400
H  9.98800 3.08200 44.57100
Mg 17.53600 -1.16300 27.73300
C  16.65500 0.66400 30.68200
C  19.35000 -3.17900 29.74700
C  18.62600 -2.67000 24.96100
C  15.82800 1.10600 25.84200
N  17.91400 -1.27200 30.01200
C  17.55500 -0.31000 30.93500
C  17.97200 -0.76900 32.35800
C  19.08200 -1.79800 31.94000
C  18.74700 -2.12900 30.49200
C  20.56700 -1.21600 31.99400
C  16.90600 -1.39500 33.32300
C  17.19500 -1.76300 34.79900
H  18.55700 -1.61200 35.37400
N  18.68600 -2.80100 27.38600
C  19.39300 -3.45600 28.37600
C  20.14400 -4.55200 27.75600
C  19.88700 -4.45200 26.39400
C  18.98700 -3.26000 26.16300
C  21.03700 -5.55500 28.65200
C  20.44700 -5.27400 25.25700
O  20.04300 -5.17700 24.07200
C  21.28700 -6.45500 25.65500
N  17.37800 -0.74600 25.64600
C  17.91500 -1.54900 24.64000
C  17.52300 -1.12100 23.19000
C  16.53600 0.06000 23.59000
C  16.50600 0.10200 25.13600
C  18.76400 -0.66000 22.26900
C  15.15900 0.05200 22.82800
C  15.11000 0.60900 21.43500
N  16.38200 0.46800 28.08000
C  15.73900 1.29200 27.25000
C  14.87700 2.20700 28.01800
C  15.16500 1.91600 29.32100
C  16.14900 0.95600 29.35700
C  13.88800 3.13200 27.43600
C  14.90700 2.45100 30.66000
O  14.17100 3.35600 31.05700
C  15.81500 1.54800 31.59700
C  16.60900 2.46000 32.44900
O  17.73500 2.77200 32.05200
O  15.82700 3.05800 33.37000
C  16.45500 4.14200 33.99900
H  20.02500 -3.80300 30.33800
H  18.94700 -3.18700 24.05500
H  15.31300 1.92700 25.33800
H  18.34900 0.08500 32.92000
H  19.06000 -2.72500 32.51300
H  20.66500 -0.23300 32.45400
H  20.91700 -1.14000 30.96500
H  21.26000 -1.80000 32.60100
H  16.58000 -2.28700 32.78800
H  16.01000 -0.77800 33.25000
H  16.95100 -2.81900 34.91600
H  16.49000 -1.16600 35.37800
H  20.85800 -6.57300 28.30500
H  20.73300 -5.56200 29.69800
H  22.10800 -5.36000 28.60200
H  22.05700 -6.14100 26.36000
H  21.79800 -6.67500 24.71800
H  20.63400 -7.27100 25.96600
H  16.92000 -1.96500 22.85600
H  16.92500 1.03700 23.30300
H  18.54100 0.31700 21.84000
H  18.68100 -1.46300 21.53700
H  19.69300 -0.83700 22.81000
H  14.57900 0.70800 23.47800
H  14.81800 -0.96300 23.03000
H  14.67100 1.60700 21.42300
H  14.52100 -0.14000 20.90500
H  16.11900 0.70300 21.03500
H  14.39400 3.63300 26.61100
H  13.59500 3.88300 28.16900
H  12.98800 2.68000 27.02000
H  15.17500 1.03200 32.31300
H  15.62300 4.69100 34.44200
H  16.99400 4.82100 33.33800
H  17.17200 3.84100 34.76200

