158

Mg 41.44200 8.90300 29.67300
C  43.41600 10.21300 32.39200
C  39.17300 7.71600 31.84700
C  39.78000 7.62000 27.03900
C  44.13200 9.68500 27.50900
N  41.41700 8.95000 31.92400
C  42.19700 9.61800 32.88200
C  41.57400 9.39500 34.32000
C  40.37000 8.48500 34.01800
C  40.30000 8.36800 32.51000
C  40.41400 7.08800 34.62300
C  41.40300 10.82800 35.00700
C  40.38700 10.86600 36.15200
H  40.78100 11.84500 37.28000
N  39.68600 7.82900 29.52300
C  38.88000 7.49100 30.50400
C  37.61000 6.94300 30.05200
C  37.74900 7.06800 28.64900
C  39.08700 7.50000 28.31600
C  36.61300 6.21500 30.97700
C  36.69900 6.84400 27.52300
O  36.97900 6.97700 26.29800
C  35.27800 6.52600 28.02900
N  42.00700 8.30500 27.62900
C  41.08000 7.97700 26.72500
C  41.50700 8.25200 25.30300
C  42.91400 8.91400 25.35600
C  43.07400 8.97200 26.93200
C  41.32800 6.95300 24.49200
C  43.05600 10.29600 24.79000
C  42.18200 11.39000 25.42400
N  43.40400 9.77600 29.85600
C  44.33600 10.02900 28.86900
C  45.38300 10.75100 29.46300
C  45.07800 10.87300 30.84400
C  43.83700 10.23400 31.03100
C  46.45000 11.34200 28.64000
C  45.45700 11.42700 32.20200
O  46.51600 11.92000 32.49000
C  44.39700 10.93000 33.24900
C  45.14500 10.05300 34.29700
O  45.78100 9.04000 33.95100
O  44.88100 10.56300 35.55600
C  45.38000 9.78600 36.73900
H  38.39500 7.48600 32.57800
H  39.17500 7.40700 26.15500
H  44.85400 10.05800 26.78000
H  42.28400 8.80800 34.90200
H  39.47100 8.89400 34.48000
H  39.52800 6.93400 35.23800
H  41.29900 6.82500 35.20400
H  40.33800 6.28900 33.88600
H  41.06100 11.46800 34.19400
H  42.33300 11.22900 35.41100
H  40.25800 9.89000 36.61900
H  39.39400 11.26000 35.93200
H  37.12300 6.10300 31.93400
H  36.25100 5.31800 30.47500
H  35.76400 6.87900 31.14400
H  35.37600 5.64500 28.66400
H  34.52400 6.35700 27.26000
H  34.99800 7.41000 28.60100
H  40.78200 8.96800 24.91400
H  43.79200 8.33200 25.07700
H  42.15200 6.87700 23.78100
H  40.41100 7.07600 23.91500
H  41.22000 6.10200 25.16400
H  43.02900 10.39700 23.70500
H  44.12800 10.48800 24.84100
H  42.84100 12.03500 26.00500
H  41.44200 10.99700 26.12200
H  41.70800 12.09900 24.74500
H  46.83600 12.17800 29.22300
H  46.02000 11.81700 27.75900
H  47.22900 10.60600 28.44200
H  43.94900 11.78000 33.76400
H  45.90500 8.87100 36.46600
H  44.52700 9.51700 37.36100
H  45.98500 10.43900 37.36800
Mg 34.90700 47.97600 24.88300
C  35.51300 46.17900 27.81000
C  33.46600 50.40500 26.83600
C  34.06700 49.52600 22.10100
C  35.95600 45.07700 23.11100
N  34.38000 48.12100 27.07200
C  34.88500 47.34100 28.14600
C  34.57700 48.05500 29.51700
C  33.86000 49.34900 29.09400
C  33.87400 49.27600 27.54200
C  32.41600 49.48100 29.72600
C  35.89400 48.24800 30.34500
C  35.77100 48.14400 31.89800
H  34.33900 48.08600 32.43500
N  34.09800 49.79000 24.49600
C  33.58600 50.65800 25.42000
C  33.18500 51.93800 24.75300
C  33.34200 51.65100 23.34000
C  33.90400 50.26900 23.23200
C  32.56800 53.19500 25.49200
C  33.02000 52.59800 22.14700
O  33.17000 52.26400 20.98700
C  32.41900 53.98500 22.36900
N  35.03300 47.37700 22.88900
C  34.53500 48.18300 21.95500
C  34.73900 47.57900 20.55700
C  35.65600 46.39400 20.82400
C  35.60600 46.24400 22.36900
C  33.36900 47.12200 19.89800
C  37.13400 46.69500 20.48700
C  37.92500 47.72600 21.29900
N  35.53700 46.04400 25.35800
C  35.95600 45.00400 24.50800
C  36.53500 43.92500 25.24000
C  36.34000 44.28900 26.62200
C  35.72200 45.59200 26.62700
C  36.99300 42.64400 24.75700
C  36.50400 43.95600 28.04000
O  37.09200 43.01800 28.52200
C  35.92900 45.10900 28.83600
C  34.72500 44.61100 29.67400
O  33.57400 44.60600 29.31700
O  35.14500 44.32800 30.91400
C  34.12800 44.14600 31.93900
H  33.04700 51.16300 27.50100
H  33.80300 49.96600 21.13700
H  36.40100 44.21200 22.61600
H  33.88200 47.43700 30.08400
H  34.46700 50.22100 29.33700
H  32.44800 50.37500 30.34900
H  32.13700 48.65500 30.38100
H  31.63700 49.48100 28.96400
H  36.27500 49.24900 30.14000
H  36.60800 47.50100 30.00100
H  36.33300 48.93800 32.39100
H  36.35300 47.25900 32.15400
H  33.28200 53.99900 25.66600
H  32.27400 52.88700 26.49600
H  31.66400 53.60400 25.04000
H  31.37300 53.83900 22.63800
H  32.59100 54.67200 21.54100
H  32.95500 54.49200 23.17100
H  35.26700 48.25100 19.88100
H  35.39100 45.52600 20.22100
H  33.28200 46.08000 20.20700
H  33.42700 47.19900 18.81300
H  32.48600 47.66100 20.24200
H  37.29400 46.72900 19.40900
H  37.58900 45.73500 20.73000
H  37.17900 48.35000 21.79100
H  38.63900 48.25400 20.66700
H  38.54800 47.28300 22.07600
H  37.76800 42.75200 23.99800
H  36.10200 42.24100 24.27600
H  37.30600 42.02700 25.59900
H  36.75500 45.40200 29.48500
H  33.70400 43.14200 31.97500
H  33.36700 44.90800 31.77400
H  34.68600 44.33200 32.85700

