158

Mg 25.87600 2.02000 28.81100
C  27.57100 1.79900 31.93500
C  22.94200 2.37200 30.66100
C  24.22500 1.88200 26.00700
C  28.85700 1.02900 27.13700
N  25.30500 2.02600 31.13300
C  26.21800 2.08700 32.12700
C  25.49800 2.37300 33.48900
C  23.97400 2.50300 33.05400
C  24.01700 2.34300 31.55100
C  22.97200 1.57300 33.74900
C  26.04500 3.60600 34.16600
C  25.36000 4.01500 35.51700
H  26.32600 4.12300 36.67700
N  23.82100 2.16400 28.43100
C  22.76300 2.30300 29.28000
C  21.53000 2.43900 28.51900
C  21.95700 2.22600 27.14200
C  23.37500 2.15500 27.15000
C  20.15500 2.62900 29.19500
C  21.03500 2.21700 25.87500
O  21.40300 2.01000 24.72900
C  19.63400 2.43800 26.09500
N  26.49600 1.38800 26.89900
C  25.59100 1.56400 25.90200
C  26.16500 1.29600 24.52000
C  27.68800 1.30500 24.80800
C  27.72800 1.28900 26.37000
C  25.59600 -0.03100 24.01700
C  28.37300 2.58500 24.17700
C  29.74100 2.46400 23.47000
N  27.91300 1.56900 29.36200
C  28.94300 1.10200 28.59000
C  30.14800 0.94900 29.48500
C  29.70700 1.19400 30.79200
C  28.35100 1.57400 30.64300
C  31.50600 0.65600 29.08200
C  30.04000 1.13800 32.19800
O  31.14000 0.82400 32.69200
C  28.81100 1.63100 32.92000
C  28.44500 0.78500 34.10000
O  27.76800 -0.17400 34.03000
O  28.87700 1.31000 35.32400
C  28.41300 0.67800 36.52800
H  22.10300 2.70800 31.27300
H  23.68400 1.90200 25.05800
H  29.84900 0.92300 26.69300
H  25.60200 1.46800 34.08700
H  23.69700 3.54100 33.24000
H  22.12400 2.09800 34.18800
H  23.47300 1.01700 34.54100
H  22.55600 0.82500 33.07500
H  25.99500 4.37900 33.39900
H  27.10300 3.41500 34.34600
H  24.64000 3.25900 35.83000
H  24.83800 4.96700 35.42500
H  20.25000 2.68100 30.27900
H  19.52600 1.74200 29.11500
H  19.61100 3.47900 28.78100
H  19.10300 1.54400 26.42400
H  19.14000 2.90900 25.24500
H  19.65400 3.29300 26.77100
H  25.74900 1.99800 23.79600
H  28.14200 0.39300 24.42100
H  25.05300 0.15400 23.09100
H  24.95200 -0.34800 24.83800
H  26.44200 -0.71500 23.94900
H  28.56600 3.32600 24.95300
H  27.69400 3.13500 23.52500
H  30.20400 1.47800 23.52100
H  30.46000 3.15100 23.91500
H  29.70900 2.78800 22.42900
H  32.18200 1.28100 29.66700
H  31.59700 0.76200 28.00100
H  31.71600 -0.38600 29.32200
H  29.11800 2.59700 33.32200
H  27.98200 1.49700 37.10300
H  29.33700 0.27500 36.94400
H  27.76600 -0.19700 36.46200
Mg 43.45000 4.89800 47.01300
C  41.20200 7.56900 47.12900
C  40.75700 2.80200 47.01400
C  45.66700 2.31600 46.64500
C  46.10300 7.13300 46.27400
N  41.23300 5.21000 47.08200
C  40.54000 6.32000 47.10400
C  39.02600 6.07100 47.19300
C  38.92700 4.55800 47.43300
C  40.40300 4.14200 47.11300
C  38.69100 4.23200 48.92500
C  38.23500 6.56500 45.92200
C  39.05600 6.61300 44.64500
H  38.30200 7.01100 43.36400
N  43.18500 2.81300 46.91700
C  42.01600 2.14600 46.87100
C  42.33600 0.73100 46.84100
C  43.78100 0.52800 46.98100
C  44.29500 1.94800 46.91600
C  41.24200 -0.30100 46.92400
C  44.51000 -0.76400 47.18500
O  43.85000 -1.76900 47.07800
C  46.08200 -0.85100 47.44400
N  45.52500 4.76300 46.43900
C  46.21900 3.60500 46.50400
C  47.73300 3.79700 46.20000
C  47.77200 5.38800 45.80800
C  46.37400 5.81900 46.19200
C  48.79300 3.46600 47.30500
C  48.16700 5.63700 44.27800
C  49.68000 5.91500 44.02500
N  43.67000 6.95000 46.62500
C  44.80900 7.70900 46.51200
C  44.37100 9.16300 46.59000
C  42.95400 9.13500 46.84200
C  42.65100 7.75300 46.87100
C  45.35100 10.28800 46.46900
C  41.81400 9.97600 47.15900
O  41.65300 11.22000 47.16900
C  40.63000 8.98300 47.21700
C  39.95200 9.23200 48.55000
O  40.37700 8.75100 49.58400
O  38.73900 9.76900 48.35000
C  37.69400 9.49000 49.40100
H  39.96000 2.08400 47.21900
H  46.44400 1.54900 46.66300
H  46.94600 7.81100 46.12700
H  38.55500 6.43500 48.10700
H  38.28400 4.09000 46.68700
H  38.09100 4.93400 49.50300
H  39.69100 4.08400 49.33400
H  38.25600 3.23300 48.89400
H  37.94800 7.55100 46.28800
H  37.33000 5.96000 45.85600
H  39.58800 5.67500 44.48800
H  39.88300 7.31300 44.76200
H  40.26600 0.11700 46.67700
H  41.17600 -0.57200 47.97700
H  41.45300 -1.23600 46.40500
H  46.31100 -0.17200 48.26500
H  46.72600 -0.73300 46.57300
H  46.33200 -1.84000 47.83000
H  47.85500 3.13100 45.34500
H  48.50600 5.90800 46.42400
H  49.47500 4.28300 47.54100
H  49.44600 2.64500 47.00800
H  48.24500 3.05500 48.15200
H  47.48300 6.37100 43.85000
H  47.92600 4.68400 43.80700
H  49.60500 6.68400 43.25500
H  50.21900 5.08900 43.56100
H  50.11700 6.39600 44.90000
H  45.58200 10.64100 47.47400
H  44.99100 11.19300 45.98000
H  46.24300 10.03600 45.89500
H  39.90500 9.08100 46.40900
H  36.96800 10.30100 49.34800
H  38.06200 9.29500 50.40800
H  37.20700 8.55100 49.13800

