158

Mg 40.99000 9.64800 30.31500
C  42.72400 11.16500 32.88700
C  38.70600 8.42900 32.82500
C  39.12400 8.15300 27.92500
C  43.42200 10.48400 28.01800
N  40.86900 9.75400 32.59400
C  41.73300 10.43500 33.42300
C  41.27800 10.40200 34.91200
C  40.03400 9.41600 34.85900
C  39.81900 9.16600 33.33100
C  40.10600 8.12600 35.66700
C  41.07500 11.79200 35.54400
C  40.05300 12.07400 36.71300
H  40.49800 12.95500 37.91700
N  39.14900 8.47700 30.40700
C  38.45300 8.06300 31.50000
C  37.32800 7.23200 31.04500
C  37.42000 7.21300 29.57700
C  38.55900 8.05800 29.25600
C  36.39200 6.50100 31.99700
C  36.54800 6.56400 28.59100
O  36.77100 6.49600 27.40900
C  35.24900 5.97900 29.13500
N  41.22300 9.33200 28.31800
C  40.29300 8.64100 27.47300
C  40.66400 8.87300 25.97600
C  41.96500 9.68300 26.05000
C  42.24100 9.83500 27.57300
C  40.81800 7.51400 25.18300
C  41.99600 11.05600 25.31600
C  41.14900 12.20400 26.03900
N  42.65500 10.72300 30.32800
C  43.60400 10.92800 29.35600
C  44.67600 11.61300 29.89200
C  44.35300 11.81600 31.29500
C  43.10000 11.22300 31.49600
C  45.76900 12.16000 29.07100
C  44.81500 12.39600 32.60300
O  45.86600 12.94900 32.89600
C  43.76400 11.91900 33.70200
C  44.58200 11.37600 34.90300
O  44.75500 10.20500 35.06200
O  45.03500 12.31000 35.78600
C  45.80700 11.78700 36.97000
H  37.95100 8.23100 33.58900
H  38.67400 7.64600 27.06900
H  44.19100 10.78000 27.30100
H  41.97200 9.78500 35.48400
H  39.17400 10.04300 35.09400
H  39.10700 7.82200 35.97900
H  40.75300 8.31100 36.52400
H  40.56100 7.41900 34.97200
H  40.72000 12.40300 34.71300
H  42.02900 12.16200 35.92000
H  39.69000 11.07600 36.95900
H  39.23600 12.63600 36.26000
H  36.47600 6.95000 32.98700
H  36.61000 5.44800 32.17400
H  35.31800 6.52800 31.81500
H  34.56000 6.70200 29.57200
H  35.68300 5.29000 29.86000
H  34.81600 5.42300 28.30400
H  39.79900 9.40900 25.58700
H  42.84800 9.26400 25.56900
H  40.00700 7.50600 24.45500
H  40.62000 6.69400 25.87500
H  41.78300 7.40200 24.68900
H  41.74600 10.90500 24.26600
H  43.05000 11.32900 25.26300
H  40.66600 11.88100 26.96100
H  40.34800 12.62700 25.43100
H  41.74700 12.99100 26.49700
H  46.38700 12.84700 29.64900
H  45.39900 12.74700 28.23100
H  46.37700 11.33500 28.69900
H  43.16600 12.78100 33.99700
H  45.08800 11.31300 37.63800
H  46.32500 12.56600 37.52800
H  46.48500 10.97900 36.69600
Mg 54.81800 24.18100 44.28000
C  52.37500 26.67900 43.93400
C  52.46300 21.85500 43.36900
C  57.30700 22.03200 43.98800
C  57.16000 26.75900 44.87100
N  52.77100 24.27700 43.61100
C  51.95000 25.37600 43.46400
C  50.45900 25.02000 43.15600
C  50.50000 23.47100 43.42900
C  51.97200 23.10900 43.52700
C  49.69800 22.83500 44.65200
C  50.00200 25.40700 41.68700
C  51.11100 25.36300 40.62900
H  50.64000 25.12600 39.17300
N  54.83300 22.17900 43.86800
C  53.80000 21.37400 43.52200
C  54.22500 20.04800 43.51300
C  55.66300 20.08400 43.68400
C  56.00000 21.47100 43.89200
C  53.33000 18.85600 43.16400
C  56.56600 18.78900 43.79500
O  56.05200 17.67800 43.57100
C  58.02600 18.85000 44.12400
N  56.96000 24.36400 44.31800
C  57.77000 23.33500 44.11700
C  59.26200 23.72200 44.25100
C  59.16200 25.18600 44.51000
C  57.69000 25.48300 44.59700
C  60.11200 22.92100 45.35000
C  59.91600 26.04600 43.44800
C  59.10900 26.44100 42.14800
N  54.81400 26.25900 44.55900
C  55.78700 27.20500 44.84800
C  55.25800 28.49900 45.01800
C  53.88400 28.30700 44.66500
C  53.66700 26.99600 44.34800
C  56.02200 29.72800 45.32900
C  52.62800 28.98600 44.56600
O  52.32600 30.14500 44.79200
C  51.57200 27.96600 44.04100
C  50.98100 28.46600 42.76900
O  51.60500 28.54000 41.70000
O  49.67500 28.83200 42.95900
C  49.12900 29.40100 41.72700
H  51.60100 21.18900 43.29700
H  58.11400 21.32200 43.79300
H  57.90100 27.55600 44.96400
H  49.74300 25.48000 43.83800
H  50.23100 22.99300 42.48800
H  49.25100 23.63100 45.24700
H  50.34800 22.34600 45.37700
H  48.89200 22.18500 44.31100
H  49.59600 26.41800 41.66500
H  49.33200 24.62900 41.32100
H  51.90400 24.71000 40.99300
H  51.66700 26.30000 40.65200
H  53.67900 18.18700 42.37800
H  52.26600 19.07600 43.07500
H  53.39900 18.20400 44.03500
H  58.31300 17.90400 44.58400
H  58.14100 19.63100 44.87500
H  58.71600 19.05000 43.30400
H  59.71900 23.62200 43.26700
H  59.59600 25.49000 45.46300
H  60.99300 22.52100 44.84700
H  59.53200 22.04600 45.64200
H  60.26400 23.46900 46.28000
H  60.75200 25.42200 43.13300
H  60.44500 26.91000 43.85100
H  59.46800 27.46500 42.04600
H  58.02200 26.50600 42.20400
H  59.39600 26.03600 41.17700
H  55.44600 30.57600 44.95700
H  56.97900 29.77400 44.81000
H  56.32100 29.80100 46.37400
H  50.77900 27.87200 44.78300
H  48.09600 29.05200 41.74500
H  49.36300 29.00800 40.73800
H  49.23500 30.48200 41.63700

