158

Mg 1.45500 8.38700 27.49200
C  1.59300 10.21900 30.54800
C  1.17900 5.64700 29.15600
C  1.52100 6.79900 24.47200
C  1.77300 11.44600 25.81400
N  1.50200 7.93600 29.60200
C  1.33800 8.79800 30.71400
C  1.07500 8.09500 31.98800
C  1.29400 6.60700 31.57700
C  1.43400 6.67300 30.01100
C  2.49900 5.89300 32.32800
C  -0.21600 8.60700 32.64900
C  -0.06000 9.24200 34.03700
H  1.00700 8.78600 34.98800
N  1.56600 6.41100 26.87900
C  1.31800 5.42300 27.72300
C  1.14500 4.20500 27.02400
C  1.33100 4.45900 25.64500
C  1.55700 5.93700 25.58200
C  0.92200 2.83300 27.74000
C  1.49700 3.52200 24.32900
O  1.75300 4.00500 23.26000
C  1.18700 2.06400 24.42600
N  1.91600 9.00100 25.44700
C  1.88500 8.09700 24.38400
C  1.94600 8.94900 23.10800
C  1.90900 10.36500 23.48300
C  1.82000 10.25200 25.01200
C  3.00400 8.61100 22.00600
C  0.72100 11.10200 22.89900
C  -0.62800 10.92200 23.54200
N  1.67600 10.38600 28.00500
C  1.78200 11.58900 27.20200
C  1.92600 12.79600 28.02100
C  1.80900 12.25400 29.34800
C  1.75800 10.81500 29.27800
C  2.06000 14.22900 27.53200
C  1.67600 12.69100 30.71800
O  1.67600 13.79000 31.22200
C  1.63500 11.39400 31.51300
C  2.80500 11.46900 32.42800
O  3.94600 11.22000 32.05800
O  2.41200 11.79800 33.69800
C  3.38800 12.18900 34.67500
H  0.84200 4.73700 29.65600
H  1.17000 6.37700 23.52800
H  1.75100 12.39900 25.28100
H  1.90100 8.45200 32.60200
H  0.44700 5.96400 31.81400
H  2.79200 6.57800 33.12400
H  3.41400 5.62600 31.80000
H  2.18300 4.95700 32.78700
H  -0.90300 7.77200 32.77900
H  -0.71500 9.39800 32.08900
H  -0.96000 9.20400 34.65100
H  0.11600 10.30700 33.88700
H  -0.15000 2.78600 27.93000
H  1.48100 2.71900 28.66900
H  1.11900 1.96500 27.11100
H  1.38800 1.53900 23.49200
H  0.20500 2.04000 24.89800
H  1.89500 1.66900 25.15400
H  0.96500 8.64900 22.74100
H  2.81400 10.91400 23.22000
H  3.84000 7.98400 22.31900
H  3.38600 9.53900 21.58000
H  2.53900 8.02900 21.21000
H  0.57500 11.04500 21.82000
H  0.92200 12.15800 23.07800
H  -0.98100 11.86400 23.96100
H  -0.55100 10.08400 24.23600
H  -1.37400 10.66000 22.79200
H  1.31600 14.74800 26.92800
H  3.03700 14.51400 27.14200
H  1.92400 14.79800 28.45200
H  0.76100 11.37700 32.16500
H  2.85700 12.74000 35.45100
H  4.03700 12.94700 34.23500
H  3.85900 11.27300 35.03100
Mg 42.03100 40.92100 26.76100
C  40.85600 43.10700 29.14200
C  43.33400 38.97500 29.26600
C  42.85600 38.59100 24.43800
C  41.37300 43.25900 24.36500
N  41.84400 40.95300 28.95400
C  41.36000 41.89600 29.71700
C  41.56900 41.60400 31.22500
C  42.57100 40.38600 31.25500
C  42.56700 40.10600 29.70300
C  43.99100 40.70400 31.80900
C  40.27100 41.26800 31.93000
C  39.80000 42.22700 33.00600
H  39.43200 41.69600 34.38600
N  42.91200 38.99300 26.91700
C  43.33500 38.40000 28.03300
C  43.86400 37.08800 27.67700
C  43.65600 36.84500 26.26500
C  43.11200 38.16300 25.73700
C  44.49000 36.21400 28.70000
C  43.86900 35.62900 25.46500
O  43.61300 35.58200 24.29000
C  44.34400 34.36600 26.17500
N  42.27000 40.99700 24.74900
C  42.50500 39.86300 24.00900
C  42.48300 40.18700 22.52500
C  41.89500 41.62700 22.41500
C  41.75100 42.02900 23.92200
C  43.84900 39.99800 21.86400
C  40.53400 41.82800 21.71900
C  40.50300 43.05100 20.78100
N  41.23300 42.83200 26.67900
C  41.12100 43.67100 25.67800
C  40.51500 44.91100 26.14100
C  40.38000 44.75600 27.52000
C  40.82600 43.46400 27.75700
C  40.13900 46.06300 25.29800
C  40.01700 45.33000 28.74300
O  39.37600 46.32800 28.98800
C  40.30800 44.32500 29.87200
C  41.27000 45.06400 30.73000
O  42.46400 45.31800 30.44000
O  40.63100 45.46000 31.84100
C  41.48200 46.16400 32.82200
H  43.84000 38.43000 30.06600
H  43.10100 37.92700 23.60700
H  41.09900 44.10000 23.72500
H  41.99200 42.47100 31.73200
H  42.22200 39.48600 31.76200
H  44.68800 40.48800 31.00000
H  44.15500 40.01300 32.63500
H  44.02000 41.74500 32.13200
H  40.34600 40.25600 32.32600
H  39.46900 41.32200 31.19400
H  38.82700 42.54900 32.63400
H  40.39400 43.13200 33.12700
H  44.02600 35.23100 28.77600
H  44.45700 36.56100 29.73300
H  45.54200 36.06800 28.45200
H  44.40600 33.52600 25.48300
H  43.63200 34.08100 26.95000
H  45.33000 34.52000 26.61300
H  41.79100 39.53800 21.98800
H  42.67600 42.19100 21.90400
H  44.15300 40.79200 21.18200
H  43.64600 39.08800 21.30000
H  44.58700 39.69700 22.60800
H  39.74500 41.83500 22.47100
H  40.28300 40.95700 21.11500
H  41.43400 43.13700 20.22200
H  40.28200 44.03700 21.19200
H  39.70600 42.82400 20.07300
H  39.08300 45.95500 25.05100
H  40.86500 46.13400 24.48700
H  40.37400 46.90400 25.95100
H  39.38900 44.13500 30.42600
H  41.75800 45.39700 33.54500
H  40.83800 46.90800 33.29200
H  42.40900 46.53200 32.38400

