158

Mg 30.89400 59.46600 40.60200
C  27.94100 57.88100 39.42300
C  32.57800 56.84900 39.19900
C  33.81000 61.14800 41.25500
C  29.03900 62.30400 41.37000
N  30.29400 57.58900 39.34100
C  29.04400 57.17900 39.03900
C  29.13300 55.88500 38.12600
C  30.62300 55.41000 38.43900
C  31.16000 56.72200 38.97200
C  30.75100 54.30000 39.54400
C  29.01500 56.22300 36.57700
C  27.83200 55.57600 35.82300
H  27.99400 55.61600 34.31300
N  32.97000 59.05300 40.24000
C  33.38500 57.87100 39.74700
C  34.84000 57.87700 39.79600
C  35.23200 59.13300 40.30500
C  34.00900 59.85200 40.60300
C  35.71300 56.76700 39.15900
C  36.66000 59.62500 40.45100
O  37.69800 59.00000 40.17100
C  36.92900 60.98700 40.87900
N  31.38200 61.43400 41.15300
C  32.60700 61.86200 41.50800
C  32.55300 63.31600 41.98300
C  31.02600 63.57300 42.21700
C  30.44100 62.38600 41.53800
C  33.46300 63.67300 43.07900
C  30.45400 64.96400 41.82400
C  29.29300 65.57800 42.71400
N  28.84900 59.99000 40.57700
C  28.22700 61.15400 40.95300
C  26.78900 61.08800 40.71100
C  26.63900 59.75200 40.12000
C  27.90300 59.20100 40.06000
C  25.74800 62.15600 40.92700
C  25.71500 58.73200 39.54100
O  24.53100 58.86000 39.34700
C  26.50000 57.53400 39.16100
C  26.03200 56.35100 39.89000
O  26.45600 55.94700 40.95600
O  24.93000 55.87000 39.11900
C  24.13000 54.86500 39.77500
H  33.14400 55.96300 38.90300
H  34.67600 61.72900 41.57900
H  28.30900 63.04800 41.69400
H  28.37800 55.12500 38.33000
H  31.04000 54.95900 37.53800
H  30.97300 54.54900 40.58200
H  31.56900 53.64800 39.23700
H  29.90300 53.61900 39.46500
H  29.91800 56.17600 35.96700
H  28.69600 57.26300 36.51800
H  26.90900 55.99400 36.22500
H  27.97900 54.52900 36.09000
H  36.10200 57.03400 38.17600
H  35.21500 55.80100 39.07100
H  36.51200 56.58200 39.87700
H  36.67000 61.16000 41.92400
H  36.31600 61.58300 40.20300
H  37.96500 61.22200 40.63600
H  32.96800 63.93600 41.18700
H  30.85100 63.42600 43.28200
H  32.93000 64.30800 43.78700
H  34.34600 64.24200 42.78800
H  33.88600 62.76900 43.51800
H  30.01900 64.75300 40.84700
H  31.26000 65.69000 41.71300
H  28.42700 65.70000 42.06400
H  29.58300 66.59800 42.96700
H  29.00700 64.98700 43.58400
H  25.97100 62.76500 41.80200
H  24.85000 61.57900 41.15100
H  25.62400 62.76300 40.03000
H  26.25200 57.34000 38.11700
H  24.32200 54.73200 40.84000
H  24.24500 53.90300 39.27500
H  23.06500 55.09600 39.76300
Mg -5.34500 24.87400 25.94400
C  -3.65100 26.45500 28.61500
C  -6.96600 23.01100 28.13300
C  -6.51900 23.39700 23.23800
C  -3.06900 26.66100 23.77000
N  -5.23600 24.64400 28.10700
C  -4.64500 25.53600 28.98700
C  -5.03400 25.18300 30.44500
C  -5.61800 23.77000 30.26200
C  -5.98500 23.76800 28.77700
C  -4.70500 22.61700 30.64400
C  -6.12300 26.13200 30.91400
C  -6.03300 26.61000 32.40900
H  -6.03100 25.61900 33.56800
N  -6.71600 23.58000 25.74000
C  -7.38900 22.95400 26.72700
C  -8.34200 21.97800 26.18100
C  -8.26200 22.19100 24.71700
C  -7.17700 23.19200 24.48100
C  -9.23200 21.14500 26.95200
C  -9.18900 21.61500 23.60000
O  -9.22300 22.09100 22.41900
C  -10.18400 20.51200 23.94900
N  -4.84900 24.99400 23.78400
C  -5.56100 24.26500 22.83300
C  -4.96000 24.41600 21.42900
C  -4.10200 25.74800 21.64800
C  -4.03600 25.86300 23.16100
C  -4.11800 23.21400 20.91200
C  -4.52000 27.00100 20.85800
C  -3.61900 27.53000 19.72900
N  -3.64000 26.29400 26.09400
C  -2.90700 26.93600 25.14300
C  -2.06900 27.92600 25.83000
C  -2.42700 27.80600 27.17400
C  -3.28200 26.76500 27.33400
C  -1.33000 29.08200 25.14600
C  -2.28300 28.40600 28.52500
O  -1.61700 29.37800 28.96700
C  -3.00900 27.48900 29.46600
C  -2.17300 27.07800 30.54400
O  -1.19500 26.34100 30.41600
O  -2.69200 27.48100 31.77400
C  -1.90700 27.08200 32.93000
H  -7.46500 22.34000 28.83600
H  -6.83100 22.60900 22.54900
H  -2.36000 27.18800 23.12800
H  -4.18700 25.04600 31.11600
H  -6.51200 23.58800 30.86000
H  -3.69700 22.96000 30.87800
H  -4.57100 21.91100 29.82600
H  -5.00600 22.24400 31.62300
H  -7.12100 25.77500 30.66200
H  -6.05600 26.97300 30.22400
H  -6.68700 27.48200 32.42400
H  -5.13400 27.21100 32.54200
H  -10.24400 21.54400 26.87600
H  -8.90200 21.18900 27.99000
H  -9.27200 20.07300 26.76100
H  -9.64500 19.73200 24.48700
H  -10.62100 19.94500 23.12600
H  -11.02600 20.93300 24.49800
H  -5.79400 24.59700 20.75100
H  -3.07300 25.57000 21.33800
H  -4.35000 22.30200 21.46300
H  -3.05000 23.40200 21.01500
H  -4.32500 23.03400 19.85700
H  -4.66700 27.87000 21.49900
H  -5.50500 26.81500 20.42900
H  -3.22100 26.65700 19.21000
H  -2.74900 28.08900 20.07300
H  -4.07600 28.23800 19.03700
H  -0.25300 28.94100 25.04900
H  -1.59700 29.98100 25.70100
H  -1.75100 29.20800 24.14900
H  -3.80200 28.11500 29.87400
H  -1.03800 26.43600 32.80400
H  -2.63100 26.59300 33.58300
H  -1.47100 27.95000 33.42400

