158

Mg 47.27700 33.70000 26.47700
C  45.90300 32.56000 29.42000
C  48.25800 36.54700 28.28900
C  48.57900 35.08100 23.68800
C  46.48600 30.83400 24.78100
N  47.08800 34.43200 28.62400
C  46.50300 33.79000 29.66200
C  46.71800 34.45200 31.00500
C  47.10100 35.86100 30.51500
C  47.62000 35.58600 29.09000
C  45.94500 36.93500 30.58800
C  47.83200 33.85000 31.86600
C  47.81900 33.88300 33.41400
H  46.80900 34.79400 34.13300
N  48.46600 35.49800 26.08000
C  48.69900 36.54500 26.87700
C  49.48100 37.54300 26.13300
C  49.55700 37.14800 24.75200
C  48.87800 35.83400 24.79400
C  50.12200 38.82400 26.73200
C  50.10300 37.90500 23.50800
O  50.20500 37.45800 22.38200
C  50.38700 39.35500 23.73500
N  47.40200 33.07000 24.43900
C  47.92000 33.85300 23.45400
C  47.92000 33.08700 22.10700
C  47.52900 31.62700 22.55100
C  47.12600 31.83000 24.01000
C  46.99900 33.70600 20.95600
C  48.70100 30.48900 22.38400
C  50.10700 30.79600 22.99100
N  46.32500 32.05100 26.89500
C  46.04700 30.86700 26.12500
C  45.33900 29.86000 26.99300
C  45.19100 30.53400 28.21700
C  45.88900 31.80900 28.17900
C  44.93800 28.42200 26.63100
C  44.61300 30.39000 29.47600
O  43.92600 29.52800 30.00900
C  44.98100 31.76400 30.28600
C  45.23600 31.55500 31.73700
O  46.15400 30.93000 32.25000
O  44.10300 31.95900 32.42300
C  43.97000 31.41300 33.76500
H  48.49200 37.42800 28.89100
H  48.81900 35.57400 22.74300
H  46.42300 29.87800 24.25700
H  45.75100 34.40000 31.50500
H  47.95400 36.22900 31.08500
H  45.12100 36.44600 31.10800
H  45.65400 37.27200 29.59300
H  46.27100 37.84100 31.09900
H  48.73700 34.43900 31.71900
H  48.10500 32.82500 31.61700
H  48.84200 33.90000 33.78800
H  47.55900 32.85500 33.66400
H  49.99900 38.69300 27.80700
H  49.54100 39.68700 26.40600
H  51.09500 39.09000 26.32000
H  49.46100 39.76200 24.14100
H  50.53500 39.79100 22.74700
H  51.30000 39.49400 24.31300
H  48.93600 33.07600 21.71100
H  46.60900 31.36200 22.03000
H  47.48500 33.41200 20.02500
H  46.76900 34.77200 20.94200
H  46.09700 33.09600 20.92900
H  48.79200 30.17000 21.34500
H  48.37700 29.66300 23.01800
H  50.27000 30.13600 23.84300
H  50.31600 31.81700 23.31000
H  50.78400 30.53300 22.17900
H  45.81200 27.77200 26.60300
H  44.38000 28.32400 25.70000
H  44.24300 28.15300 27.42700
H  44.03200 32.29600 30.22100
H  43.89900 30.32600 33.79000
H  43.01000 31.55200 34.26300
H  44.67900 31.87600 34.45100
Mg -10.89800 15.98300 41.45800
C  -7.39900 15.78000 41.05000
C  -10.74400 19.19000 40.33100
C  -14.14800 15.82500 41.12900
C  -10.86600 12.51500 42.38500
N  -9.24800 17.26100 40.58900
C  -7.86100 17.02600 40.65100
C  -7.09300 18.25200 40.20200
C  -8.17500 19.37900 40.59100
C  -9.46100 18.59500 40.50400
C  -7.91900 20.06900 41.93900
C  -6.64000 18.13300 38.70600
C  -5.09900 18.09200 38.50300
H  -4.67800 18.65500 37.19000
N  -12.24000 17.29100 40.86000
C  -11.96000 18.60500 40.45000
C  -13.22100 19.24100 40.03900
C  -14.25300 18.34400 40.41100
C  -13.58600 17.09000 40.78900
C  -13.43200 20.63300 39.44000
C  -15.72800 18.68300 40.34700
O  -16.12100 19.71000 39.84200
C  -16.74500 17.68500 40.93700
N  -12.35000 14.39300 41.66200
C  -13.63000 14.60800 41.50600
C  -14.56400 13.39700 41.88600
C  -13.47700 12.32300 42.23000
C  -12.12800 13.11200 42.18200
C  -15.64400 13.71700 42.89900
C  -13.50700 11.05300 41.27000
C  -12.62900 11.20700 39.94400
N  -9.46900 14.45800 41.64600
C  -9.58000 13.15600 42.08900
C  -8.24000 12.50400 42.11800
C  -7.36200 13.55200 41.79400
C  -8.15400 14.70600 41.49200
C  -7.95000 11.04400 42.60500
C  -5.93800 13.93400 41.67900
O  -4.93000 13.30700 41.82900
C  -5.96100 15.36400 41.14200
C  -5.29000 16.10600 42.20300
O  -5.73800 16.22300 43.33000
O  -4.00500 16.43000 41.79000
C  -3.27300 17.32900 42.70800
H  -10.67900 20.26300 40.13400
H  -15.23500 15.74600 41.05800
H  -10.96700 11.53200 42.84900
H  -6.17000 18.15900 40.77400
H  -8.22300 20.17100 39.84300
H  -7.37900 19.42000 42.62900
H  -8.87000 20.43900 42.32200
H  -7.28700 20.94800 41.81100
H  -7.18200 18.96200 38.25100
H  -7.04500 17.18900 38.34200
H  -4.78300 17.05300 38.41100
H  -4.60800 18.57000 39.35000
H  -14.13100 20.54400 38.60900
H  -12.54200 21.07800 38.99500
H  -13.95300 21.32800 40.09800
H  -17.65800 18.26600 41.06600
H  -16.46900 17.47700 41.97100
H  -16.99600 16.83800 40.29900
H  -15.02400 13.12000 40.93700
H  -13.66100 12.08600 43.27800
H  -15.82100 14.79200 42.88600
H  -15.18800 13.62800 43.88500
H  -16.52200 13.07800 42.80400
H  -14.46400 10.75000 40.84700
H  -13.08900 10.24700 41.87300
H  -11.61200 10.99200 40.27100
H  -12.61800 12.21300 39.52400
H  -12.97100 10.54100 39.15300
H  -6.90800 10.76500 42.44900
H  -8.45100 10.30600 41.97800
H  -8.22500 10.87700 43.64600
H  -5.52400 15.41000 40.14400
H  -3.68500 18.33700 42.75400
H  -2.29000 17.60200 42.32400
H  -3.14800 17.04200 43.75200

