158

Mg -0.28000 6.86700 25.42900
C  0.58300 9.10600 28.03200
C  0.21900 4.19000 27.70000
C  -0.76400 4.66500 22.93800
C  0.42500 9.39600 23.20700
N  0.38100 6.64400 27.59400
C  0.47300 7.74100 28.47000
C  0.38100 7.25000 29.89800
C  0.71800 5.71500 29.79400
C  0.40200 5.47700 28.31000
C  2.19200 5.32300 30.18600
C  -1.01000 7.59400 30.65500
C  -1.01100 7.41400 32.20300
H  0.24400 7.13300 33.06400
N  -0.41600 4.75000 25.32400
C  -0.22200 3.87200 26.34100
C  -0.42200 2.47600 25.88800
C  -0.76000 2.61800 24.51300
C  -0.66200 4.04400 24.24300
C  -0.43700 1.32000 26.87000
C  -0.92300 1.58800 23.47500
O  -1.00800 1.88300 22.29000
C  -0.84500 0.15600 23.88300
N  -0.01100 7.04500 23.38000
C  -0.46100 6.05100 22.52200
C  -0.78800 6.53200 21.08100
C  -0.21800 7.96100 21.20900
C  0.11500 8.16200 22.70000
C  -0.12800 5.60700 19.99300
C  -1.05600 9.06400 20.48900
C  -2.10300 9.74900 21.35700
N  0.16300 8.94600 25.54500
C  0.43100 9.84700 24.53100
C  0.91200 11.09200 25.13900
C  0.79800 10.87400 26.55300
C  0.40800 9.56100 26.70200
C  1.30000 12.38400 24.42800
C  0.97800 11.50300 27.81400
O  1.35500 12.67300 28.11400
C  0.80100 10.40500 28.87800
C  2.06900 10.23300 29.64200
O  3.02300 9.53000 29.33700
O  1.95300 11.04100 30.71600
C  2.99200 10.92000 31.77500
H  0.41500 3.25900 28.23600
H  -1.18000 4.11300 22.09200
H  0.57300 10.18400 22.46600
H  1.22000 7.66100 30.46000
H  0.05200 5.25600 30.52400
H  2.18000 4.93800 31.20600
H  2.84900 6.14600 29.90300
H  2.49300 4.57800 29.45000
H  -1.85400 7.02300 30.26700
H  -1.31900 8.57100 30.28200
H  -1.64900 6.54600 32.36500
H  -1.51900 8.26200 32.66400
H  0.32300 0.57900 26.62300
H  -1.38200 0.82900 26.63600
H  -0.53800 1.57100 27.92600
H  -1.61900 -0.15400 24.58500
H  0.14400 -0.27900 24.02600
H  -1.10700 -0.30700 22.93100
H  -1.87600 6.47200 21.05000
H  0.72900 7.91700 20.67000
H  0.55400 4.87100 20.41900
H  0.38500 6.27100 19.29700
H  -0.85200 5.01000 19.43800
H  -1.54900 8.60900 19.63000
H  -0.29900 9.82200 20.28500
H  -1.90000 10.78400 21.63200
H  -2.14000 9.21400 22.30600
H  -3.15300 9.72200 21.06800
H  1.45800 12.17800 23.37000
H  2.23200 12.82200 24.78500
H  0.52300 13.11000 24.67100
H  0.07700 10.55400 29.67900
H  3.74000 11.68400 31.56000
H  3.48900 9.95200 31.71400
H  2.54700 11.26600 32.70800
Mg 30.10600 57.71600 40.67000
C  27.72300 55.39000 39.50800
C  32.48200 55.62700 39.19200
C  32.42700 60.20800 40.97000
C  27.56000 59.97800 41.42800
N  30.03100 55.74200 39.56300
C  29.01500 54.91200 39.20700
C  29.49100 53.68800 38.36800
C  30.93400 53.59200 38.75600
C  31.17500 55.03800 39.19500
C  31.40200 52.54200 39.82900
C  29.26100 54.02800 36.85200
C  28.54200 52.92900 36.12100
H  27.37100 53.48500 35.27100
N  32.16600 57.90700 40.17200
C  32.91900 56.85700 39.65300
C  34.28800 57.27500 39.65100
C  34.37800 58.65700 40.12700
C  32.95500 58.97600 40.46000
C  35.39300 56.36500 39.16700
C  35.65400 59.40600 40.32000
O  36.73500 58.91500 39.95300
C  35.66600 60.68800 41.12000
N  30.03000 59.76400 41.22100
C  31.06700 60.60400 41.28100
C  30.65200 62.02400 41.79500
C  29.13300 61.91800 41.97300
C  28.88100 60.45400 41.53100
C  31.36300 62.62100 43.02300
C  28.23400 62.94400 41.20000
C  27.37300 63.84900 42.12700
N  28.13200 57.68000 40.67300
C  27.22600 58.61800 41.04800
C  25.88800 58.12800 40.95500
C  26.06700 56.88200 40.33100
C  27.43600 56.60900 40.16900
C  24.60200 58.87000 41.29700
C  25.31500 55.67300 39.93000
O  24.12300 55.40200 40.04100
C  26.38300 54.65200 39.32500
C  26.30800 53.39800 40.09800
O  26.66700 53.17300 41.25300
O  25.61400 52.52600 39.31200
C  25.45900 51.18100 39.93400
H  33.20000 54.86000 38.89400
H  33.16600 61.00600 41.06900
H  26.82800 60.64100 41.89200
H  28.96600 52.86000 38.84600
H  31.60200 53.38300 37.92000
H  32.01000 51.75300 39.38700
H  30.55500 52.06200 40.32000
H  31.98700 53.03500 40.60500
H  30.19400 54.06400 36.28900
H  28.78000 55.00400 36.78500
H  28.20600 52.15000 36.80400
H  29.26100 52.48600 35.43200
H  35.98500 56.86700 38.40200
H  35.08100 55.40300 38.76100
H  36.09600 56.07700 39.94800
H  35.43000 61.52800 40.46700
H  36.66700 60.84900 41.52000
H  35.01100 60.62600 41.98900
H  30.87800 62.69100 40.96300
H  28.99500 61.96400 43.05300
H  32.11000 61.88500 43.32300
H  30.72100 62.87100 43.86700
H  31.85400 63.53600 42.69100
H  27.52000 62.42500 40.56100
H  28.77600 63.51000 40.44200
H  27.64400 64.90000 42.03100
H  27.44000 63.46300 43.14400
H  26.34000 63.60500 41.88000
H  24.16000 59.41100 40.46100
H  24.63700 59.60800 42.09800
H  23.92800 58.05500 41.56100
H  26.22800 54.52900 38.25300
H  26.45900 50.80400 40.14900
H  24.94800 50.60000 39.16500
H  24.93400 51.22100 40.88800

