158

Mg 8.10600 3.16800 28.74800
C  9.74600 2.02100 31.59200
C  6.03000 5.08800 30.88100
C  6.71000 4.51100 26.13600
C  9.72600 0.80900 26.80900
N  7.97500 3.53200 30.91500
C  8.78000 2.99700 31.89700
C  8.44900 3.70900 33.28800
C  6.95000 4.26100 33.13200
C  6.98900 4.33300 31.55400
C  5.71600 3.49100 33.62700
C  9.48300 4.86300 33.56600
C  10.43400 4.63900 34.71300
H  10.17800 3.73100 35.89900
N  6.49200 4.62800 28.51300
C  5.80900 5.28900 29.47900
C  4.89600 6.23300 28.84700
C  5.21100 6.18500 27.41000
C  6.17700 5.12300 27.26200
C  3.88100 7.07300 29.66100
C  4.61500 7.04500 26.29600
O  4.84000 6.78800 25.13800
C  3.76000 8.21800 26.66000
N  7.94200 2.45700 26.77600
C  7.41700 3.34200 25.87800
C  7.69400 2.91300 24.45100
C  8.95100 1.89000 24.67600
C  8.86500 1.64500 26.13500
C  6.49300 2.34400 23.71100
C  10.32900 2.35500 24.09600
C  11.12100 3.40900 24.83800
N  9.48900 1.73900 29.12700
C  9.94300 0.77000 28.21100
C  10.85200 -0.07700 28.99000
C  10.83300 0.39800 30.29700
C  9.94500 1.48600 30.31100
C  11.72400 -1.14100 28.38300
C  11.46200 0.34300 31.60200
O  12.38800 -0.32900 32.08100
C  10.62600 1.24200 32.53700
C  9.84800 0.38900 33.53700
O  8.77400 -0.12200 33.43500
O  10.54200 0.27700 34.73100
C  9.85400 -0.23200 35.83100
H  5.31300 5.66700 31.46700
H  6.46800 5.13900 25.27600
H  10.33700 0.17300 26.16500
H  8.43800 2.99500 34.11100
H  6.82700 5.27500 33.51300
H  5.48300 2.68300 32.93500
H  4.86600 4.16700 33.72100
H  5.98300 3.09900 34.60800
H  8.97100 5.77300 33.88000
H  10.06600 5.01400 32.65700
H  10.58200 5.62000 35.16300
H  11.41000 4.28000 34.38600
H  3.71400 6.52000 30.58500
H  2.90600 7.09200 29.17500
H  4.27100 8.04700 29.95600
H  2.93800 7.94900 27.32500
H  3.47800 8.61200 25.68400
H  4.38200 8.98800 27.11700
H  8.04900 3.71600 23.80500
H  8.65100 0.97400 24.16800
H  5.67000 2.18100 24.40700
H  6.65700 1.36800 23.25500
H  6.21800 3.11400 22.99100
H  10.28000 2.75000 23.08200
H  10.98100 1.48500 24.16700
H  10.65500 3.78800 25.74800
H  11.25800 4.34900 24.30300
H  12.14500 3.06100 24.97000
H  12.63800 -1.39200 28.92200
H  11.99400 -0.99600 27.33700
H  11.23100 -2.11100 28.32500
H  11.36600 1.74800 33.15700
H  9.83500 -1.32000 35.77400
H  8.81000 0.06500 35.93300
H  10.41700 0.07300 36.71200
Mg 47.97900 24.85800 27.77500
C  49.24100 27.12900 30.31300
C  47.20000 22.75600 30.35300
C  47.40900 22.64000 25.49200
C  49.15600 27.22500 25.46300
N  48.23700 24.94400 30.14000
C  48.63600 25.96700 30.92300
C  48.42700 25.62700 32.37500
C  47.79600 24.16300 32.31000
C  47.81600 23.89600 30.85200
C  48.42400 23.07000 33.13100
C  47.39800 26.68100 32.88700
C  46.78000 26.30600 34.25700
H  46.82400 27.32700 35.39900
N  47.31200 22.96900 27.89500
C  46.95800 22.24900 29.03200
C  46.37000 20.97100 28.59500
C  46.57600 20.87300 27.21500
C  47.15700 22.16600 26.78100
C  45.93800 19.95500 29.59300
C  46.46000 19.56900 26.32100
O  46.60800 19.60500 25.12200
C  45.93300 18.32100 26.86000
N  48.43700 24.81400 25.82900
C  47.96900 23.79200 25.02600
C  48.10500 24.11300 23.58900
C  48.56900 25.60700 23.57800
C  48.72400 25.93000 25.05700
C  49.12600 23.13300 22.83900
C  47.67300 26.56100 22.70100
C  48.45400 27.72300 22.04700
N  48.97600 26.83500 27.84500
C  49.37200 27.64700 26.77800
C  50.19800 28.70800 27.24400
C  50.05800 28.62000 28.59900
C  49.34700 27.40300 28.98300
C  50.97300 29.74800 26.44700
C  50.37500 29.26900 29.86600
O  50.99700 30.29000 30.05900
C  49.73100 28.35900 31.01200
C  50.80100 28.01200 31.93500
O  51.82500 27.42500 31.64100
O  50.51700 28.51000 33.21600
C  51.38200 28.00000 34.31700
H  46.80100 22.05800 31.09100
H  47.15000 21.91900 24.71400
H  49.29800 28.06100 24.77400
H  49.29600 25.72500 33.02600
H  46.74400 24.22200 32.58800
H  49.03500 23.45800 33.94700
H  49.14100 22.50300 32.53800
H  47.62500 22.42900 33.50300
H  46.51500 26.76000 32.25400
H  47.77200 27.70400 32.92500
H  47.30000 25.40500 34.58300
H  45.72100 26.14600 34.05000
H  44.89000 19.83500 29.31800
H  45.97300 20.34000 30.61200
H  46.42200 18.98000 29.52700
H  45.68900 17.52600 26.15500
H  44.95300 18.57300 27.26500
H  46.64500 18.00700 27.62300
H  47.13300 24.12200 23.09600
H  49.61200 25.64600 23.26200
H  49.53800 22.37200 23.50200
H  49.88700 23.80100 22.43500
H  48.71300 22.57600 21.99800
H  46.91100 26.92300 23.39200
H  47.10300 26.08900 21.90100
H  48.13000 27.83400 21.01300
H  49.54400 27.71200 22.01600
H  48.03200 28.63900 22.46000
H  50.17300 30.26600 25.91700
H  51.70100 29.34800 25.74200
H  51.52100 30.36800 27.15600
H  49.03800 29.03100 31.51700
H  50.68000 28.05000 35.14900
H  52.27400 28.57400 34.56900
H  51.65200 26.95300 34.18600

