158

Mg 8.71800 47.70700 25.35000
C  6.55200 47.81000 27.95000
C  11.32700 48.84800 27.44300
C  10.72600 48.51600 22.68000
C  6.00200 47.34300 23.15200
N  8.87200 48.26100 27.52100
C  7.87900 48.07400 28.43100
C  8.40700 48.24600 29.86200
C  9.79900 48.94800 29.62000
C  10.05300 48.69400 28.08300
C  9.86000 50.44200 30.00500
C  8.54400 46.91700 30.70200
C  9.27600 47.15400 32.08400
H  8.90100 46.27300 33.26100
N  10.81200 48.22900 25.10400
C  11.70500 48.64300 26.07200
C  13.06400 48.78200 25.58900
C  12.89500 48.62900 24.15800
C  11.39000 48.46400 23.90300
C  14.21600 49.17100 26.46500
C  13.98900 48.45700 23.11000
O  13.73000 48.15300 21.98900
C  15.39600 48.62100 23.52000
N  8.37700 47.99600 23.22600
C  9.37200 48.26000 22.30700
C  8.80300 48.41600 20.84600
C  7.31100 48.09800 21.07600
C  7.20000 47.78600 22.56800
C  8.95200 49.77500 20.16900
C  6.70100 46.79900 20.30200
C  5.39400 46.94600 19.51700
N  6.69900 47.49500 25.44900
C  5.73200 47.34300 24.53700
C  4.40000 47.11900 25.15200
C  4.70700 47.40300 26.50800
C  6.08800 47.54100 26.64000
C  3.11600 46.80300 24.52600
C  4.16000 47.52300 27.81800
O  3.01000 47.51500 28.27700
C  5.34000 47.71100 28.84300
C  5.43400 46.44900 29.67600
O  5.62300 45.31000 29.24600
O  5.08600 46.66400 31.01300
C  4.82400 45.45600 31.79300
H  12.05000 49.21400 28.17500
H  11.44900 48.90400 21.96000
H  5.10900 47.11700 22.56500
H  7.69800 48.89600 30.37500
H  10.62700 48.44400 30.11700
H  10.39700 50.60200 30.94000
H  8.84800 50.83000 30.11900
H  10.39500 50.97400 29.21900
H  8.92600 46.07200 30.12900
H  7.53900 46.62800 31.00900
H  9.09100 48.21600 32.24300
H  10.32700 46.97900 31.85400
H  13.97500 49.43900 27.49300
H  14.80000 49.98100 26.02800
H  14.91200 48.33500 26.52900
H  15.45500 49.54400 24.09700
H  15.97800 48.77200 22.61100
H  15.68800 47.63900 23.89300
H  9.25400 47.67600 20.18400
H  6.67300 48.95700 20.86800
H  9.81600 49.96100 19.53100
H  8.99500 50.48000 20.99900
H  8.03200 50.00400 19.63100
H  6.61200 45.94800 20.97700
H  7.51600 46.62000 19.60000
H  5.58800 47.66100 18.71700
H  4.72700 47.52900 20.15200
H  4.95100 46.07900 19.02600
H  3.34000 46.26000 23.60800
H  2.40600 47.62600 24.45300
H  2.65100 46.09200 25.20900
H  5.07400 48.57200 29.45600
H  3.97400 45.72900 32.41800
H  5.64400 45.31600 32.49800
H  4.71400 44.45400 31.37800
Mg 0.10900 43.44600 25.34700
C  2.41300 43.00000 27.90000
C  -2.43500 42.58400 27.46700
C  -2.08400 43.71000 22.83000
C  2.80400 43.65500 23.09800
N  0.03400 42.83900 27.48000
C  1.05400 42.86800 28.37000
C  0.47100 42.78200 29.84800
C  -0.96000 42.22400 29.54900
C  -1.16500 42.55200 28.06800
C  -1.21000 40.69100 29.96500
C  0.56100 44.18600 30.52900
C  0.50000 44.13000 32.09900
H  0.39000 42.76900 32.67800
N  -2.03100 43.31600 25.16100
C  -2.85700 42.93100 26.13800
C  -4.19500 42.95500 25.65700
C  -4.14700 43.42300 24.32500
C  -2.73000 43.55100 24.05900
C  -5.41000 42.71300 26.50500
C  -5.20500 43.93200 23.33200
O  -4.84500 44.48400 22.25700
C  -6.72500 43.81500 23.65300
N  0.35200 43.70000 23.26500
C  -0.74300 43.73200 22.43100
C  -0.26600 43.67200 20.94600
C  1.26500 43.98500 21.10400
C  1.51900 43.73800 22.56900
C  -0.57700 42.28800 20.24200
C  1.68300 45.33600 20.54700
C  1.09800 46.56200 21.13800
N  2.26000 43.27400 25.37500
C  3.18100 43.39500 24.41800
C  4.59100 43.37100 25.03700
C  4.27300 43.13100 26.37700
C  2.87300 43.09900 26.56200
C  5.87400 43.54600 24.34200
C  4.91500 42.92300 27.69700
O  6.06900 42.92700 28.04400
C  3.70400 42.81300 28.76000
C  3.79100 41.57000 29.50000
O  3.36800 40.51400 29.05200
O  4.36000 41.74700 30.77000
C  4.29200 40.61300 31.68600
H  -3.29100 42.34700 28.10200
H  -2.72200 43.66300 21.94500
H  3.57700 43.85400 22.35400
H  1.12700 42.06700 30.34400
H  -1.63900 42.79400 30.18400
H  -1.11500 39.87900 29.24500
H  -2.07500 40.71000 30.62700
H  -0.36900 40.45300 30.61600
H  -0.30500 44.74300 30.17300
H  1.50900 44.64200 30.24300
H  -0.31800 44.73900 32.48400
H  1.38500 44.63800 32.48400
H  -6.20900 42.15200 26.02000
H  -5.83900 43.68200 26.76000
H  -5.12300 42.12100 27.37300
H  -7.39000 44.23700 22.90100
H  -6.96200 44.30400 24.59800
H  -7.01500 42.77500 23.80800
H  -0.74600 44.56900 20.55500
H  1.89000 43.22100 20.64100
H  -0.82200 41.53000 20.98600
H  0.28300 41.90800 19.69100
H  -1.48600 42.24000 19.64200
H  1.22600 45.40400 19.56000
H  2.77200 45.39400 20.54200
H  0.75900 47.20000 20.32200
H  1.90100 47.10300 21.63900
H  0.21300 46.36400 21.74300
H  5.90400 44.38200 23.64300
H  6.27900 42.63600 23.89900
H  6.60500 43.89500 25.07100
H  3.82100 43.59100 29.51400
H  5.16200 40.71200 32.33500
H  4.34200 39.66000 31.16000
H  3.45400 40.82600 32.35100

