158

Mg 46.95900 25.54200 28.91900
C  47.64900 27.55700 31.66000
C  46.19700 22.90100 31.16600
C  46.95900 23.41900 26.34500
C  48.26500 28.12200 26.85600
N  46.82000 25.34300 31.09200
C  47.05200 26.37700 31.99900
C  46.71500 26.00700 33.38100
C  46.53000 24.47100 33.24000
C  46.55800 24.17800 31.76400
C  47.40500 23.54000 34.03100
C  45.62200 26.74600 34.15800
C  45.73800 26.62100 35.75000
H  44.40300 26.33400 36.50000
N  46.47600 23.50500 28.68200
C  46.10300 22.65400 29.71000
C  45.80100 21.35500 29.07500
C  46.11200 21.47100 27.65700
C  46.53800 22.88300 27.49000
C  45.29200 20.23800 29.90800
C  45.97300 20.41500 26.54900
O  46.36700 20.57100 25.42000
C  45.47800 19.01500 26.90700
N  47.62000 25.73900 26.91200
C  47.41300 24.72500 26.00700
C  47.92500 25.03800 24.55500
C  47.99200 26.56700 24.70700
C  47.95300 26.86100 26.26100
C  49.19800 24.25600 24.23800
C  46.84600 27.26300 23.90900
C  45.49100 27.29000 24.64900
N  47.86800 27.44100 29.15800
C  48.20100 28.44200 28.24000
C  48.60800 29.64500 28.97200
C  48.42000 29.32300 30.29000
C  47.95900 28.02000 30.37400
C  49.19300 30.93000 28.28800
C  48.46200 29.87100 31.62500
O  48.80100 30.95000 32.04300
C  47.97300 28.70300 32.63000
C  49.03800 28.31100 33.57500
O  50.15900 27.95500 33.18300
O  48.59400 28.20300 34.90300
C  49.63500 27.65700 35.72000
H  45.92000 22.16600 31.92500
H  46.93300 22.78100 25.45900
H  48.50000 28.91800 26.14700
H  47.63600 26.10900 33.95500
H  45.50800 24.20200 33.50700
H  48.13700 24.14800 34.56200
H  48.00100 22.84000 33.44600
H  46.86200 22.99900 34.80600
H  44.64700 26.42000 33.79500
H  45.68100 27.82100 33.98800
H  46.16700 27.50500 36.22200
H  46.40300 25.76500 35.85700
H  45.99700 19.40700 29.92400
H  44.32800 19.85700 29.57100
H  45.08200 20.61200 30.91000
H  45.81600 18.60500 27.85800
H  45.70100 18.26600 26.14700
H  44.39300 18.93300 26.85200
H  47.20500 24.79900 23.77200
H  48.97900 26.81500 24.31600
H  49.34000 23.78200 23.26600
H  49.40900 23.56100 25.05100
H  49.97500 25.02000 24.21900
H  46.72000 26.74500 22.95800
H  47.20700 28.28600 23.80200
H  45.34800 28.26900 25.10700
H  45.51100 26.59700 25.49000
H  44.61700 27.16300 24.01000
H  49.71700 30.69000 27.36200
H  49.85100 31.43000 28.99900
H  48.40500 31.62500 27.99800
H  47.07600 29.08300 33.11900
H  50.67000 27.99900 35.73500
H  49.74500 26.62000 35.40300
H  49.20000 27.68700 36.71900
Mg -6.69500 24.81800 26.67200
C  -4.40200 26.12500 28.92200
C  -7.57300 22.51600 29.11800
C  -8.41900 23.18500 24.31300
C  -5.11800 26.77800 24.14800
N  -6.01300 24.34000 28.61700
C  -5.23700 25.17300 29.43000
C  -5.56400 25.00200 30.89100
C  -6.21800 23.57400 30.87100
C  -6.57200 23.44000 29.41600
C  -5.21300 22.42600 31.23000
C  -6.34100 26.18200 31.56700
C  -5.87900 26.73400 32.92800
H  -5.90000 25.77900 34.10500
N  -7.91000 23.22000 26.72600
C  -8.23200 22.47800 27.85400
C  -9.29400 21.57400 27.58100
C  -9.60200 21.79600 26.18500
C  -8.60300 22.74500 25.66900
C  -9.92900 20.54400 28.46600
C  -10.75800 21.25100 25.29500
O  -10.99000 21.55200 24.13900
C  -11.70900 20.18800 25.91600
N  -6.82500 24.98500 24.59500
C  -7.59800 24.22700 23.79300
C  -7.53900 24.63500 22.25100
C  -6.65600 25.93800 22.33700
C  -6.21000 25.92900 23.78800
C  -7.05300 23.49600 21.25900
C  -7.37900 27.19300 22.01800
C  -7.69600 27.40800 20.44100
N  -5.06100 26.15600 26.52600
C  -4.55100 26.87000 25.43100
C  -3.49000 27.75700 25.93700
C  -3.43600 27.49900 27.28600
C  -4.42300 26.54100 27.56600
C  -2.64500 28.78400 25.24700
C  -2.81200 27.95700 28.44500
O  -1.90900 28.71000 28.63300
C  -3.33800 27.05200 29.56400
C  -2.18400 26.34200 30.15200
O  -1.68600 25.38000 29.60500
O  -2.02300 26.73300 31.48600
C  -1.09300 25.87400 32.23800
H  -7.98000 21.88000 29.90800
H  -9.00400 22.81000 23.47000
H  -4.67100 27.48900 23.45000
H  -4.61400 24.96600 31.42400
H  -7.06500 23.50200 31.55300
H  -4.25200 22.74400 31.63600
H  -5.03500 21.77600 30.37300
H  -5.80000 21.82600 31.92400
H  -7.37900 25.86200 31.64900
H  -6.20600 27.11100 31.01300
H  -6.41700 27.62900 33.23800
H  -4.88300 27.16200 32.81300
H  -10.97300 20.78500 28.66600
H  -9.59700 20.58300 29.50400
H  -9.72000 19.55000 28.07100
H  -11.16300 19.32000 26.28700
H  -12.46400 19.73300 25.27500
H  -12.22300 20.65100 26.75800
H  -8.51000 25.03900 21.96600
H  -5.79100 25.80000 21.68900
H  -7.10800 22.53700 21.77400
H  -5.98300 23.66300 21.13900
H  -7.73000 23.41000 20.40900
H  -6.89500 28.03900 22.50600
H  -8.32100 27.20800 22.56600
H  -7.46200 26.55700 19.80200
H  -7.10700 28.22200 20.01800
H  -8.73100 27.70600 20.27300
H  -3.23200 29.28500 24.47700
H  -1.74100 28.34300 24.82600
H  -2.31400 29.56900 25.92700
H  -3.76500 27.62900 30.38400
H  -0.20600 25.66100 31.64100
H  -1.61800 25.00300 32.63000
H  -0.71100 26.34300 33.14400

