158

Mg 8.18000 3.03100 27.06200
C  9.36200 1.50300 30.13500
C  6.31700 5.04600 28.99700
C  6.52600 3.82700 24.36200
C  9.89700 0.53900 25.37300
N  7.72000 3.07600 29.37100
C  8.54600 2.59800 30.34200
C  8.13000 3.17100 31.70000
C  7.08900 4.28100 31.29000
C  6.95200 4.07200 29.77500
C  5.67200 4.32000 32.05600
C  9.39200 3.82200 32.45700
C  9.69800 3.36700 33.95100
H  10.11900 4.43300 35.01600
N  6.81000 4.47500 26.64600
C  6.17000 5.27100 27.57200
C  5.17400 6.07800 26.86000
C  5.18700 5.73300 25.53300
C  6.21100 4.72500 25.42200
C  4.34200 7.11600 27.53700
C  4.39200 6.23400 24.32000
O  4.51100 5.86100 23.17500
C  3.33600 7.27200 24.51600
N  8.34700 2.43300 25.10200
C  7.49100 2.86200 24.18100
C  7.70700 2.07600 22.82400
C  8.98600 1.21700 23.12500
C  9.08600 1.38000 24.64300
C  6.40400 1.24900 22.48900
C  10.28500 1.55500 22.25300
C  11.17100 0.35700 21.87600
N  9.28000 1.35100 27.54900
C  10.00200 0.46900 26.78900
C  10.88200 -0.39500 27.51900
C  10.59500 -0.05200 28.87900
C  9.64600 0.99700 28.85900
C  11.83300 -1.42500 26.98900
C  10.88300 -0.43000 30.22000
O  11.56300 -1.29700 30.71000
C  10.15100 0.66500 31.14600
C  9.30100 -0.09500 32.05200
O  8.20100 -0.57700 31.73700
O  9.75200 -0.05400 33.31600
C  8.81400 -0.53300 34.36300
H  5.72000 5.68800 29.64800
H  5.93400 4.13000 23.49600
H  10.41200 -0.24600 24.81600
H  7.56600 2.41900 32.25300
H  7.60900 5.23500 31.38000
H  4.88600 3.93700 31.40500
H  5.56000 5.36900 32.33200
H  5.68500 3.68200 32.93900
H  9.15700 4.87200 32.63500
H  10.29600 3.89300 31.85200
H  10.57700 2.72500 34.00000
H  8.91600 2.66000 34.22900
H  4.43000 7.13000 28.62300
H  3.34000 6.77300 27.27800
H  4.54600 8.08900 27.08900
H  2.79800 7.46600 23.58800
H  3.71500 8.24600 24.82600
H  2.52200 6.91600 25.14900
H  7.95900 2.79400 22.04400
H  8.76500 0.15100 23.16500
H  5.73500 1.32800 23.34500
H  6.81600 0.24100 22.43800
H  5.98700 1.56200 21.53200
H  10.90900 2.14000 22.92800
H  9.92300 2.15200 21.41500
H  11.14300 0.16400 20.80400
H  10.70000 -0.50600 22.34900
H  12.08500 0.39000 22.46800
H  12.68200 -0.80000 26.71100
H  11.41100 -1.97800 26.15000
H  12.10500 -2.11600 27.78600
H  10.90900 1.24400 31.67200
H  8.43900 -1.54800 34.23300
H  7.95000 0.13200 34.39900
H  9.38300 -0.53300 35.29300
Mg 50.16900 45.16700 42.32600
C  46.83400 44.97600 41.13800
C  50.47100 41.70900 41.42200
C  53.55300 45.49100 42.39600
C  49.72200 48.54000 42.74100
N  48.81300 43.53800 41.48400
C  47.52500 43.73800 41.13400
C  46.87900 42.29900 40.73800
C  48.03200 41.29600 40.92500
C  49.20800 42.22700 41.31600
C  47.70600 40.20700 41.95300
C  46.34700 42.15300 39.26100
C  47.00100 42.99200 38.15500
H  47.02200 42.31200 36.67900
N  51.72000 43.77800 42.19400
C  51.68300 42.42000 41.76600
C  53.08000 41.90000 41.72900
C  53.93000 42.92200 42.28500
C  53.06600 44.13700 42.32400
C  53.46100 40.49500 41.31400
C  55.41700 42.85900 42.54200
O  55.93700 41.74100 42.48000
C  56.20900 43.90800 43.08700
N  51.43700 46.82300 42.49900
C  52.76000 46.71600 42.43300
C  53.44100 48.11200 42.62600
C  52.23200 49.05800 42.91100
C  51.06900 48.11000 42.72700
C  54.62300 48.16600 43.61800
C  52.18000 50.41900 41.99300
C  52.06800 51.79500 42.70100
N  48.50700 46.55200 42.15600
C  48.50400 47.91800 42.29100
C  47.23400 48.40700 41.97800
C  46.53400 47.29500 41.48000
C  47.38300 46.19400 41.58900
C  46.76600 49.90700 42.16600
C  45.26700 46.90300 40.93200
O  44.27100 47.55300 40.65700
C  45.39900 45.31700 40.79800
C  44.39100 44.86900 41.76900
O  43.27500 44.56800 41.43700
O  44.98200 44.72400 43.02100
C  43.98900 44.26000 44.00000
H  50.63600 40.65800 41.17400
H  54.61500 45.54500 42.15100
H  49.69800 49.63100 42.72000
H  46.04400 42.04000 41.38800
H  48.34500 40.71000 40.06100
H  48.21500 39.26400 41.75300
H  46.67400 39.90100 41.78400
H  48.08200 40.47700 42.94000
H  45.27500 42.33200 39.18200
H  46.36100 41.09000 39.01800
H  48.05100 43.19500 38.36400
H  46.49100 43.94500 38.01500
H  54.24800 40.47900 40.56000
H  52.56900 40.06800 40.85600
H  53.92800 39.92500 42.11600
H  56.48200 44.69000 42.38000
H  57.19800 43.55800 43.38000
H  55.66000 44.29500 43.94600
H  53.83700 48.26800 41.62200
H  52.13200 49.33300 43.96100
H  54.62400 47.34600 44.33700
H  54.53000 49.10900 44.15600
H  55.54300 48.10200 43.03700
H  51.36600 50.33200 41.27300
H  53.10900 50.37700 41.42400
H  53.01200 52.27400 42.43800
H  51.95200 51.71700 43.78200
H  51.16400 52.33300 42.41700
H  46.43600 49.96900 43.20300
H  45.98100 50.24900 41.49200
H  47.66700 50.51200 42.06400
H  45.18600 44.98900 39.78000
H  43.29100 45.08600 44.13700
H  44.41400 43.93600 44.94900
H  43.38500 43.40800 43.68900

