158

Mg 17.31100 -1.04700 27.46400
C  16.32600 0.65900 30.31200
C  19.51700 -2.82300 29.47200
C  18.88400 -2.36800 24.79700
C  15.79700 1.20600 25.53700
N  17.99000 -0.89300 29.71200
C  17.31700 -0.26500 30.69500
C  17.79100 -0.73500 32.03700
C  18.99000 -1.71800 31.76600
C  18.88800 -1.79700 30.20700
C  20.29500 -1.26000 32.40200
C  16.57900 -1.34500 32.87300
C  16.35100 -0.68300 34.23800
H  17.56500 -0.03000 34.96000
N  18.79700 -2.59800 27.17200
C  19.57700 -3.21300 28.11100
C  20.24800 -4.33900 27.56800
C  20.17100 -4.22900 26.18300
C  19.32400 -2.97400 25.97200
C  20.99200 -5.41200 28.37300
C  20.76200 -5.01200 25.04300
O  20.68800 -4.70900 23.84500
C  21.59600 -6.25700 25.44200
N  17.30900 -0.67900 25.51100
C  18.00800 -1.32300 24.54800
C  17.88400 -0.63700 23.15500
C  16.65700 0.21300 23.37100
C  16.59900 0.31100 24.87900
C  19.25100 0.17300 22.84000
C  15.32500 -0.04500 22.66700
C  14.19300 -0.63000 23.56200
N  16.18400 0.46800 27.82800
C  15.63700 1.34600 26.91200
C  14.78100 2.29600 27.54300
C  15.05800 2.02200 28.89700
C  15.95800 0.93900 29.01400
C  13.94400 3.43200 26.87500
C  14.77400 2.53400 30.18400
O  14.08800 3.48800 30.53900
C  15.56300 1.61000 31.18400
C  16.48600 2.42500 32.11300
O  17.67800 2.65900 32.01200
O  15.75200 2.84200 33.16800
C  16.42900 3.79700 33.95700
H  20.05100 -3.55700 30.07900
H  19.24000 -2.82900 23.87300
H  15.37600 2.00800 24.92700
H  18.08000 0.16600 32.57900
H  18.83900 -2.74500 32.09600
H  21.11200 -1.14900 31.69000
H  20.61500 -2.05500 33.07500
H  20.21300 -0.37400 33.03200
H  16.82600 -2.39300 33.04300
H  15.76200 -1.21700 32.16400
H  16.07800 -1.60300 34.75500
H  15.47400 -0.03500 34.25200
H  21.96500 -5.66000 27.94900
H  20.32500 -6.26800 28.26100
H  21.31500 -5.24500 29.40100
H  22.58500 -5.99500 25.81900
H  21.72100 -6.76900 24.48900
H  20.97300 -6.84500 26.11600
H  17.71800 -1.34100 22.33900
H  16.87300 1.21600 23.00200
H  19.50300 0.16000 21.77900
H  20.12900 -0.22500 23.35000
H  19.07200 1.20900 23.12500
H  15.49900 -0.79600 21.89700
H  15.01100 0.94700 22.34400
H  13.83400 0.12500 24.26100
H  14.61200 -1.48300 24.09500
H  13.28000 -0.78700 22.98700
H  13.55900 3.08600 25.91600
H  14.61600 4.23000 26.56100
H  13.09700 3.80400 27.45100
H  14.90600 1.09500 31.88600
H  16.97200 4.47800 33.30100
H  17.16100 3.38800 34.65200
H  15.80600 4.41100 34.60700
Mg -10.63100 17.07500 40.28800
C  -7.16700 16.50900 40.66300
C  -9.97100 20.52800 40.06400
C  -13.94600 17.58500 39.34400
C  -11.03900 13.72500 39.33200
N  -8.78600 18.32000 40.33100
C  -7.46000 17.85600 40.37700
C  -6.51800 18.99200 40.12500
C  -7.35200 20.28600 40.32300
C  -8.80600 19.70300 40.27100
C  -7.11200 21.18500 41.63800
C  -5.83800 18.99200 38.72200
C  -4.30400 18.90800 38.76900
H  -3.69600 18.01700 37.74900
N  -11.82200 18.80400 39.82800
C  -11.32700 20.09200 39.81400
C  -12.40100 20.95800 39.54700
C  -13.63700 20.19500 39.43200
C  -13.21400 18.79800 39.54200
C  -12.28900 22.48400 39.42600
C  -15.13700 20.80100 39.33200
O  -15.24000 22.00100 39.30800
C  -16.28100 19.89400 39.31800
N  -12.22800 15.87800 39.39700
C  -13.52300 16.24400 39.32700
C  -14.48700 15.10500 39.04900
C  -13.50900 13.88900 38.85600
C  -12.15900 14.54300 39.15300
C  -15.50100 14.96200 40.28200
C  -13.66800 13.37000 37.44800
C  -13.35900 14.50500 36.45100
N  -9.44200 15.38600 40.36400
C  -9.70700 14.09000 39.82400
C  -8.59100 13.24400 40.04500
C  -7.57600 14.12000 40.43400
C  -8.10100 15.47800 40.48500
C  -8.40300 11.73400 39.62400
C  -6.15200 14.28100 40.79300
O  -5.31500 13.43100 40.98000
C  -5.85600 15.82000 40.88800
C  -5.17100 16.19500 42.09500
O  -4.11700 16.78600 42.03200
O  -5.77900 15.75500 43.27100
C  -5.02300 16.03500 44.48700
H  -9.63800 21.56500 40.14500
H  -15.00100 17.56900 39.06300
H  -11.15100 12.66500 39.09500
H  -5.69600 19.01300 40.84000
H  -7.21800 21.06500 39.57300
H  -6.10100 21.33200 42.01800
H  -7.72000 20.78600 42.45100
H  -7.59200 22.12200 41.35700
H  -6.06300 19.98100 38.32200
H  -6.26100 18.37600 37.92800
H  -3.81100 18.65400 39.70700
H  -3.83800 19.83500 38.43600
H  -12.69100 22.66300 38.42800
H  -11.29700 22.92800 39.51000
H  -12.87800 23.00400 40.18100
H  -17.19600 20.46900 39.45500
H  -16.27000 19.43000 40.30400
H  -16.37000 19.05400 38.62800
H  -15.10900 15.22800 38.16200
H  -13.71500 13.08500 39.56300
H  -14.95100 15.08200 41.21500
H  -15.96800 13.97800 40.25500
H  -16.31000 15.68400 40.39400
H  -14.61100 12.82800 37.38200
H  -12.84200 12.66400 37.35100
H  -14.13200 14.67800 35.70300
H  -12.43500 14.23200 35.94000
H  -13.03700 15.44800 36.89400
H  -8.13000 11.70800 38.56900
H  -9.32300 11.16300 39.75300
H  -7.71700 11.24200 40.31400
H  -5.20700 16.13300 40.07100
H  -5.12100 17.12100 44.50400
H  -3.98100 15.73400 44.38300
H  -5.45300 15.61300 45.39500

