158

Mg 48.35900 34.47500 27.46400
C  46.60000 32.89800 30.07800
C  48.67200 37.18800 29.54500
C  49.53900 36.16300 24.70600
C  47.70200 31.73500 25.46300
N  47.66600 34.99300 29.61800
C  47.18100 34.09400 30.48900
C  47.19800 34.78600 31.90700
C  47.31800 36.30000 31.52200
C  48.00800 36.10100 30.21300
C  46.00300 37.12000 31.46600
C  48.44300 34.28700 32.65100
C  48.36500 34.02200 34.15200
H  47.47500 34.84100 34.97200
N  49.17000 36.39700 27.19600
C  49.20800 37.34300 28.20800
C  49.68500 38.62600 27.59100
C  50.03600 38.30800 26.19300
C  49.53100 36.90000 25.90500
C  49.68900 39.88700 28.42700
C  50.71600 39.26400 25.20400
O  50.70700 38.99200 23.99800
C  51.10400 40.61300 25.58400
N  48.62900 33.93900 25.46000
C  49.16100 34.80000 24.52500
C  49.46300 34.05700 23.17700
C  49.06500 32.60600 23.48900
C  48.42600 32.72800 24.86300
C  48.77000 34.77600 21.96700
C  50.24200 31.61000 23.47500
C  50.33700 31.04000 22.09200
N  47.25500 32.70200 27.59400
C  47.15600 31.63500 26.74000
C  46.44600 30.53900 27.41000
C  46.19100 31.06400 28.67600
C  46.74000 32.33500 28.82800
C  45.98900 29.28200 26.70900
C  45.46700 30.75500 29.92700
O  44.82100 29.75700 30.27300
C  45.47400 32.06600 30.80800
C  45.72900 31.79800 32.18600
O  46.75900 31.37700 32.66400
O  44.55900 32.07200 32.87200
C  44.59600 31.69200 34.27800
H  48.83600 38.04200 30.20500
H  49.92200 36.58500 23.77500
H  47.57700 30.83800 24.85300
H  46.34200 34.61600 32.56000
H  48.03300 36.79900 32.17800
H  46.12100 37.95600 30.77600
H  45.85100 37.54300 32.45900
H  45.13100 36.52200 31.20100
H  49.28400 34.91000 32.34700
H  48.59200 33.28300 32.25500
H  49.38100 34.27600 34.45400
H  48.26500 32.97600 34.43800
H  49.14700 40.67700 27.90600
H  50.70500 40.27500 28.49800
H  49.26300 39.74000 29.42000
H  51.50800 41.25600 24.80200
H  51.90400 40.64400 26.32400
H  50.25400 41.07600 26.08600
H  50.53000 34.06900 22.95800
H  48.29500 32.30800 22.77700
H  49.30200 35.69600 21.72200
H  47.74900 34.98500 22.28800
H  48.76900 34.04300 21.16000
H  50.02600 30.78500 24.15300
H  51.20300 32.10600 23.61600
H  50.14500 29.97900 22.25600
H  51.31000 31.25000 21.64700
H  49.61800 31.41900 21.36700
H  46.91200 28.81300 26.36800
H  45.28200 29.34800 25.88200
H  45.52400 28.72700 27.52500
H  44.48900 32.51800 30.68800
H  43.64200 31.23600 34.54300
H  44.73000 32.63100 34.81500
H  45.29100 30.94500 34.66300
Mg 30.23500 58.75100 39.15400
C  27.29000 56.96800 38.36500
C  32.03000 56.08300 38.13000
C  33.02200 60.69600 39.26800
C  28.19900 61.62300 39.52700
N  29.69100 56.80500 38.18200
C  28.44100 56.23500 38.17800
C  28.57900 54.71500 37.99500
C  30.11000 54.45600 38.26100
C  30.67900 55.86700 38.08000
C  30.50500 53.74800 39.64100
C  28.04400 54.27300 36.58900
C  28.73900 55.03300 35.40700
H  27.76200 55.39000 34.21600
N  32.31600 58.38800 38.77900
C  32.82700 57.19100 38.32000
C  34.31100 57.38500 38.27800
C  34.63800 58.67200 38.65700
C  33.30500 59.35500 38.90000
C  35.11400 56.20200 37.78200
C  36.00400 59.26900 38.74700
O  36.97000 58.60700 38.44400
C  36.25900 60.59800 39.33400
N  30.59200 60.84800 39.28300
C  31.83800 61.33400 39.44300
C  31.74400 62.78100 39.80300
C  30.20900 63.10800 39.87200
C  29.61700 61.76900 39.50300
C  32.39400 63.30600 41.16900
C  29.68900 64.31800 39.01500
C  29.13400 65.54400 39.77800
N  28.11800 59.23100 39.18500
C  27.47900 60.43300 39.28200
C  26.07300 60.23600 39.29900
C  25.93400 58.84700 38.89000
C  27.21200 58.29700 38.79200
C  25.05900 61.41300 39.47500
C  24.91700 57.85300 38.60700
O  23.70700 57.90200 38.60200
C  25.80900 56.53800 38.30500
C  25.37600 55.45200 39.21100
O  25.71600 55.44400 40.41500
O  24.56800 54.53600 38.59600
C  24.22200 53.40200 39.41100
H  32.67900 55.20900 38.03900
H  33.91300 61.30700 39.42200
H  27.65000 62.53600 39.76900
H  27.99100 54.23500 38.77800
H  30.46500 53.80200 37.46500
H  29.59600 53.24900 39.97800
H  30.82200 54.49100 40.37300
H  31.18900 52.95500 39.33800
H  26.97200 54.46100 36.51400
H  28.35500 53.23400 36.48400
H  29.63500 54.45700 35.17800
H  29.27200 55.92900 35.72600
H  34.55400 55.61200 37.05700
H  35.36800 55.60200 38.65600
H  36.09200 56.51200 37.41400
H  35.73100 60.64600 40.28600
H  35.90100 61.37600 38.65900
H  37.34000 60.72300 39.39700
H  32.27800 63.35000 39.04200
H  29.93100 63.43700 40.87300
H  32.48500 64.38700 41.06200
H  33.41200 62.92700 41.08400
H  31.87100 63.06700 42.09400
H  28.80100 64.08100 38.42900
H  30.44500 64.64300 38.30000
H  29.70200 66.45000 39.56300
H  29.24600 65.37400 40.84900
H  28.12600 65.67100 39.38400
H  25.26000 62.20200 38.74900
H  25.14000 61.85400 40.46800
H  24.07700 60.94600 39.54900
H  25.49500 56.20500 37.31600
H  25.15600 52.84700 39.49700
H  23.44100 52.81100 38.93400
H  23.73900 53.76200 40.32000

