158

Mg 25.95800 0.49800 29.11000
C  28.05100 0.29000 32.10700
C  23.36100 0.79800 31.20800
C  24.31200 1.11800 26.35000
C  28.99000 0.35800 27.31800
N  25.82800 0.55900 31.43000
C  26.67300 0.45300 32.45700
C  26.02500 0.52800 33.81100
C  24.52100 0.29800 33.39000
C  24.52900 0.48300 31.86700
C  23.74400 -0.93300 33.78200
C  26.23300 1.87400 34.53300
C  25.50700 1.95000 35.84600
H  26.30400 2.27100 37.12200
N  23.99100 0.87600 28.81700
C  23.08400 1.04900 29.85900
C  21.83800 1.33500 29.21700
C  22.07700 1.43500 27.76300
C  23.49300 1.03700 27.56300
C  20.60300 1.55500 30.03000
C  21.24400 1.81100 26.63600
O  21.63600 1.76700 25.51600
C  19.78700 2.06600 26.86300
N  26.56500 0.54700 27.16800
C  25.65700 0.93200 26.17300
C  26.37600 1.24700 24.88000
C  27.81400 0.78700 25.15500
C  27.82200 0.59900 26.62800
C  25.76100 0.61200 23.56700
C  28.88600 1.77900 24.52900
C  30.16300 1.11600 23.88200
N  28.09200 0.23000 29.56800
C  29.20700 0.22000 28.71600
C  30.47500 0.06000 29.47700
C  30.04000 0.10800 30.78300
C  28.58600 0.19200 30.74100
C  31.86900 -0.08300 28.98300
C  30.44500 0.21600 32.14600
O  31.59700 0.17400 32.59700
C  29.18000 0.26300 33.03800
C  29.09900 -0.70400 34.11100
O  28.84900 -1.89900 34.01600
O  29.20200 -0.08800 35.38200
C  28.89100 -0.79300 36.59600
H  22.56700 0.73300 31.95400
H  23.88100 1.48200 25.41500
H  29.93700 0.31400 26.77500
H  26.34500 -0.24500 34.51100
H  23.86600 1.11800 33.68600
H  22.82500 -0.78100 34.34700
H  24.21600 -1.64900 34.45400
H  23.44000 -1.56100 32.94400
H  26.01900 2.73400 33.89900
H  27.31000 1.97800 34.67100
H  25.10600 0.95200 36.02400
H  24.70800 2.67800 35.70500
H  19.82700 0.91900 29.60400
H  20.28300 2.59600 29.98500
H  20.90000 1.37900 31.06400
H  19.62300 2.71000 27.72700
H  19.23000 1.13500 26.96400
H  19.28000 2.58800 26.05100
H  26.38700 2.33100 24.76900
H  28.06500 -0.18400 24.73000
H  24.89500 -0.01100 23.79000
H  26.40700 -0.14500 23.12300
H  25.51400 1.27800 22.74000
H  29.16800 2.37400 25.39800
H  28.35800 2.43600 23.83800
H  30.17400 1.09500 22.79200
H  30.37200 0.06500 24.08300
H  31.03000 1.71400 24.16300
H  31.81500 0.06100 27.90400
H  32.33700 -1.00500 29.32800
H  32.40300 0.80600 29.31700
H  29.21100 1.28400 33.41800
H  29.37000 -1.74900 36.80900
H  27.87500 -1.16600 36.45900
H  28.95400 -0.20700 37.51300
Mg -2.18700 35.03200 27.48600
C  -3.71500 33.17300 29.98600
C  -1.21100 37.33000 29.78600
C  -0.81500 36.80900 25.03800
C  -3.43600 32.75300 25.18200
N  -2.48000 35.27200 29.70500
C  -3.06800 34.33300 30.49200
C  -2.92500 34.75400 31.97300
C  -2.16400 36.08500 31.84100
C  -1.90500 36.26300 30.38300
C  -2.88100 37.32100 32.54200
C  -2.21200 33.64500 32.86500
C  -2.97200 33.23100 34.11400
H  -2.05700 33.07400 35.28700
N  -1.12200 36.77000 27.45200
C  -0.82000 37.60000 28.47200
C  -0.22600 38.82900 27.98300
C  0.12100 38.61800 26.64700
C  -0.61100 37.38200 26.31200
C  0.22700 39.99000 28.90100
C  0.89000 39.55900 25.65600
O  1.00200 39.32700 24.46400
C  1.51300 40.93700 26.13200
N  -2.29600 34.91900 25.36200
C  -1.42700 35.60000 24.67900
C  -1.17300 34.89200 23.25000
C  -1.78200 33.43400 23.48300
C  -2.63300 33.72000 24.70800
C  -1.99600 35.62300 22.07200
C  -0.66700 32.38100 23.63700
C  -0.26500 31.60900 22.30000
N  -3.33400 33.38600 27.47400
C  -3.74500 32.56600 26.52400
C  -4.49500 31.44500 27.06400
C  -4.65100 31.70900 28.41200
C  -3.84700 32.83800 28.63600
C  -5.10000 30.36300 26.27700
C  -5.24900 31.20700 29.68700
O  -6.08200 30.36500 29.87000
C  -4.59000 32.22600 30.74700
C  -5.74600 32.71200 31.58000
O  -6.48100 33.59000 31.18500
O  -5.82500 32.01100 32.82900
C  -6.75500 32.55800 33.82200
H  -0.80700 38.00800 30.54000
H  -0.28400 37.23500 24.18400
H  -3.60800 31.87700 24.55300
H  -3.94300 34.80800 32.35800
H  -1.19200 35.93600 32.31100
H  -2.91700 38.24000 31.95700
H  -2.42100 37.57800 33.49600
H  -3.92200 37.05400 32.72400
H  -1.20400 33.99700 33.08200
H  -2.20500 32.71900 32.29000
H  -3.28200 32.19000 34.02700
H  -3.77100 33.90800 34.41600
H  1.27100 40.26800 28.75700
H  -0.06300 39.76800 29.92800
H  -0.30800 40.89000 28.59800
H  2.14600 40.73000 26.99500
H  0.69600 41.61900 26.36800
H  2.16200 41.45400 25.42600
H  -0.10100 34.94700 23.05800
H  -2.46500 33.12500 22.69100
H  -1.58900 35.42200 21.08100
H  -2.14000 36.69600 22.19800
H  -3.01800 35.24500 22.08400
H  -1.12200 31.62600 24.27800
H  0.22600 32.73600 24.15100
H  -0.59900 31.98100 21.33200
H  -0.76900 30.64300 22.30300
H  0.82200 31.58900 22.22400
H  -6.08100 30.73700 25.98300
H  -5.35500 29.44900 26.81400
H  -4.55600 30.05700 25.38400
H  -4.01800 31.67100 31.49100
H  -7.42600 31.82900 34.27500
H  -7.48600 33.22800 33.37000
H  -6.32100 33.08800 34.67000

