158

Mg 45.83900 3.66500 47.07500
C  43.49300 6.27300 46.52800
C  43.21300 1.42300 46.92300
C  48.00700 1.08600 46.95300
C  48.31100 5.90900 46.78300
N  43.65200 3.87800 46.77700
C  42.90400 5.00000 46.55100
C  41.42800 4.72300 46.45800
C  41.34200 3.27400 46.98200
C  42.82400 2.77800 46.91400
C  40.78700 3.18400 48.42000
C  40.84800 4.81800 44.91400
C  39.67700 5.78900 44.66700
H  39.81000 6.86600 43.62000
N  45.60000 1.49400 47.04400
C  44.45300 0.79100 47.05500
C  44.73000 -0.60700 47.23800
C  46.16200 -0.68800 47.20900
C  46.67300 0.66300 47.06200
C  43.69000 -1.66500 47.24200
C  46.91600 -1.90600 47.48800
O  46.32300 -2.97000 47.79700
C  48.41700 -1.95300 47.56000
N  47.80000 3.53400 46.66700
C  48.49700 2.39800 46.78800
C  50.01600 2.58700 46.85800
C  50.08100 4.20200 46.76300
C  48.63500 4.56400 46.62200
C  50.62100 2.30400 48.21600
C  51.02100 4.73900 45.65800
C  52.24800 5.48200 46.08200
N  45.94400 5.64700 46.68500
C  47.07500 6.48700 46.77900
C  46.73700 7.92100 46.68800
C  45.26500 7.87700 46.59400
C  44.87900 6.48800 46.66700
C  47.61000 9.19000 46.59900
C  44.07300 8.64900 46.53500
O  43.86100 9.87600 46.58400
C  42.78100 7.64400 46.59800
C  42.04700 7.73900 47.92700
O  42.30600 7.23000 49.00300
O  41.10000 8.68200 47.77100
C  40.10500 8.95500 48.84400
H  42.45500 0.65700 47.10000
H  48.89400 0.46000 47.06800
H  49.14700 6.60900 46.71400
H  40.84500 5.44500 47.03000
H  40.74000 2.68200 46.29200
H  40.46800 4.17400 48.74400
H  41.61400 2.86700 49.05600
H  39.96400 2.47500 48.51100
H  40.52900 3.81700 44.62400
H  41.63700 5.12000 44.22600
H  39.27900 6.30000 45.54300
H  38.75600 5.27300 44.39800
H  43.87000 -2.57200 46.66600
H  42.76000 -1.21700 46.89200
H  43.43300 -2.01500 48.24200
H  48.78000 -2.96600 47.73400
H  48.83000 -1.46200 48.44100
H  48.80400 -1.53200 46.63200
H  50.52500 2.06100 46.05000
H  50.39000 4.66000 47.70300
H  51.33800 3.09500 48.43700
H  51.17300 1.36500 48.19400
H  49.96600 2.35000 49.08600
H  50.27100 5.25700 45.05900
H  51.37000 3.83600 45.15600
H  52.39600 5.59000 47.15700
H  52.40400 6.48200 45.67800
H  53.10000 5.04800 45.55900
H  48.62300 8.82900 46.42500
H  47.46300 9.68000 47.56200
H  47.35400 9.79700 45.73100
H  42.07100 7.84600 45.79600
H  40.14000 10.00900 49.12000
H  40.42700 8.57200 49.81200
H  39.10500 8.61800 48.57300
Mg 55.65500 23.16700 44.50100
C  53.12000 25.57400 43.55900
C  53.49800 20.78700 43.46700
C  58.12400 21.02300 44.89700
C  57.71600 25.75500 45.44100
N  53.54300 23.21300 43.64700
C  52.74600 24.25100 43.30400
C  51.34700 23.78200 42.82800
C  51.37500 22.34800 43.28000
C  52.88600 22.06900 43.43800
C  50.56800 21.98100 44.59100
C  51.08100 24.08000 41.31600
C  49.58800 24.10000 40.88100
H  49.26000 23.19400 39.73900
N  55.81400 21.17300 44.11900
C  54.80600 20.38700 43.71100
C  55.34700 19.02500 43.62000
C  56.73700 19.06000 44.02700
C  56.97300 20.46700 44.33300
C  54.50900 17.90600 43.12600
C  57.67500 17.87100 43.96500
O  57.31700 16.75900 43.59000
C  59.12900 18.00300 44.28900
N  57.72400 23.35200 45.03400
C  58.45400 22.28900 45.31800
C  59.88700 22.75300 45.78000
C  59.70100 24.25600 46.16200
C  58.29200 24.50500 45.43300
C  60.50600 21.85100 46.90100
C  60.76800 25.23100 45.66000
C  61.10200 26.50300 46.50400
N  55.52900 25.19700 44.37600
C  56.44900 26.13700 44.94200
C  55.90900 27.49900 44.81500
C  54.59800 27.25400 44.26300
C  54.39500 25.87200 44.07100
C  56.56700 28.76000 45.26100
C  53.42100 28.00400 43.99500
O  53.20900 29.25400 44.16800
C  52.40500 26.97900 43.36300
C  52.14900 27.27600 41.92600
O  52.94500 27.47000 41.05400
O  50.77300 27.28000 41.77100
C  50.36800 27.97900 40.52400
H  52.91100 19.89100 43.25800
H  59.09100 20.51900 44.95800
H  58.20800 26.52600 46.03900
H  50.45000 24.15300 43.32400
H  50.87500 21.74900 42.51900
H  51.18800 21.35500 45.23300
H  49.66100 21.48100 44.25400
H  50.40400 22.92600 45.11000
H  51.49800 23.17000 40.88400
H  51.72200 24.95400 41.20600
H  49.17700 25.09000 40.68500
H  49.11400 23.70700 41.78100
H  54.43500 17.91900 42.03800
H  53.51200 17.83300 43.55800
H  54.86800 16.91900 43.41800
H  59.46100 18.52700 43.39300
H  59.59400 17.02600 44.41900
H  59.16900 18.58400 45.21000
H  60.54200 22.62600 44.91800
H  59.57300 24.34000 47.24100
H  59.81600 21.18600 47.42100
H  61.03400 22.45000 47.64300
H  61.27100 21.23400 46.43000
H  60.57600 25.52500 44.62900
H  61.65900 24.61200 45.55500
H  61.19700 27.45500 45.98100
H  62.03100 26.20300 46.98900
H  60.38800 26.66900 47.31000
H  57.07500 29.20700 44.40700
H  57.42700 28.55400 45.89900
H  55.89200 29.31300 45.91400
H  51.42200 26.92700 43.83000
H  51.13400 28.59400 40.05200
H  49.50400 28.57400 40.81900
H  49.99000 27.33800 39.72800

