158

Mg 36.44200 1.90000 30.21200
C  34.00500 3.19900 32.30200
C  38.66500 2.28800 32.86300
C  38.86000 0.99400 28.10000
C  34.18600 2.21900 27.42100
N  36.25200 2.83400 32.36000
C  35.17200 3.07700 33.03700
C  35.39500 3.18900 34.60400
C  36.98200 3.18000 34.71200
C  37.31500 2.72200 33.21700
C  37.59200 4.61000 34.93600
C  34.77500 2.01000 35.39400
C  34.19700 2.26500 36.81800
H  34.73100 3.50300 37.56000
N  38.44600 1.63900 30.44100
C  39.12300 1.72200 31.61600
C  40.45000 1.19100 31.36500
C  40.60100 0.89100 30.00300
C  39.24400 1.09600 29.42800
C  41.42900 1.00700 32.39800
C  41.79000 0.41200 29.22100
O  41.65500 0.14000 28.05500
C  43.09600 0.11800 29.93600
N  36.46400 1.48600 28.01400
C  37.67100 1.33900 27.38800
C  37.53500 1.25000 25.86100
C  35.94200 1.58800 25.65000
C  35.49900 1.88500 27.09900
C  38.59100 2.01500 25.07500
C  35.14200 0.42600 25.03900
C  34.12700 0.81700 23.90200
N  34.53200 2.58800 29.92000
C  33.70300 2.57200 28.73300
C  32.34000 2.99500 29.15400
C  32.42800 3.25700 30.57100
C  33.78200 2.98800 30.93300
C  31.10500 3.08900 28.26100
C  31.72200 3.73400 31.69100
O  30.57000 4.11000 31.87400
C  32.72200 3.65100 32.85100
C  32.81900 4.91200 33.59900
O  33.41700 5.92000 33.19400
O  32.16600 4.87000 34.84700
C  32.17600 6.05400 35.75200
H  39.42600 2.36800 33.64300
H  39.57100 0.60700 27.36700
H  33.49800 2.24000 26.57300
H  34.96700 4.10400 35.01300
H  37.41500 2.40600 35.34600
H  36.83300 5.37100 34.75700
H  38.47000 4.66300 34.29200
H  38.02900 4.71500 35.92900
H  35.47100 1.18300 35.52900
H  33.87400 1.64700 34.90000
H  34.30100 1.33300 37.37400
H  33.13900 2.45600 36.63900
H  41.05300 0.97100 33.42000
H  42.08300 1.87800 32.36900
H  42.06600 0.12200 32.38500
H  43.34400 0.89100 30.66300
H  43.93100 0.17200 29.23600
H  43.02100 -0.83800 30.45300
H  37.73000 0.19200 25.68400
H  35.82100 2.53200 25.11800
H  39.15200 2.61100 25.79400
H  38.10500 2.64300 24.32900
H  39.25800 1.25700 24.66400
H  34.56600 -0.10600 25.79700
H  35.78800 -0.35700 24.64200
H  34.40200 1.77000 23.45200
H  33.12200 0.92000 24.31300
H  34.09500 0.00600 23.17500
H  31.18900 2.66300 27.26200
H  30.83200 4.14000 28.17200
H  30.30800 2.51000 28.72800
H  32.34800 2.77300 33.37900
H  31.54200 6.69500 35.14000
H  33.11300 6.60900 35.79600
H  31.79000 5.83400 36.74800
Mg 29.45400 58.00500 39.41400
C  26.93600 55.77200 38.23500
C  31.72500 55.43500 38.34500
C  31.87400 60.15000 40.01900
C  27.10800 60.42800 39.67600
N  29.29300 55.88000 38.34200
C  28.17500 55.20300 38.05500
C  28.44900 53.69600 37.65200
C  29.96900 53.62600 37.82200
C  30.37100 55.13500 38.13100
C  30.65400 52.65800 38.90000
C  28.04900 53.31500 36.22600
C  28.42800 54.36000 35.02200
H  27.32100 54.80800 34.02800
N  31.49500 57.89500 39.24300
C  32.25300 56.66800 38.86200
C  33.67200 57.02600 38.97400
C  33.75200 58.33800 39.56200
C  32.33700 58.87000 39.60800
C  34.70100 56.12200 38.45100
C  35.07200 59.01100 39.91600
O  36.12500 58.50900 39.77700
C  35.06800 60.34300 40.42900
N  29.54700 60.19800 39.41900
C  30.59500 60.80700 40.01100
C  30.24400 62.25000 40.42900
C  28.73900 62.06600 40.61600
C  28.39200 60.82900 39.83500
C  31.01300 62.91400 41.63900
C  28.01800 63.28500 40.01900
C  27.00700 64.02100 40.99800
N  27.35400 58.08400 39.11600
C  26.58500 59.14800 39.29200
C  25.20400 58.83000 39.07900
C  25.29600 57.46700 38.65900
C  26.63600 57.05500 38.66800
C  24.00400 59.78700 39.15000
C  24.44800 56.36200 38.28900
O  23.21400 56.27400 38.19100
C  25.50000 55.16100 38.09500
C  25.17000 54.06300 39.10000
O  25.73700 53.82600 40.13000
O  23.95900 53.42100 38.75300
C  23.44500 52.34100 39.57800
H  32.45900 54.62800 38.39300
H  32.66600 60.84000 40.31600
H  26.33800 61.16300 39.92000
H  27.96300 53.03300 38.36700
H  30.49000 53.45700 36.88000
H  29.98300 51.80200 38.97500
H  30.81700 53.11400 39.87600
H  31.61400 52.25600 38.57700
H  27.00500 53.01000 36.30500
H  28.71000 52.49100 35.95800
H  29.26600 53.89400 34.50300
H  28.81500 55.30500 35.40400
H  35.42700 55.93800 39.24200
H  35.14800 56.57300 37.56500
H  34.33700 55.11400 38.25300
H  36.05700 60.77100 40.59100
H  34.68300 60.19500 41.43800
H  34.62600 61.08700 39.76600
H  30.63700 62.87100 39.62400
H  28.55800 61.86100 41.67200
H  30.29200 63.32100 42.34800
H  31.79800 63.57300 41.26900
H  31.54400 62.15400 42.21100
H  27.42100 63.03800 39.14100
H  28.71200 64.08400 39.75600
H  26.98300 65.05200 40.64700
H  27.21800 64.02200 42.06700
H  26.01300 63.64900 40.74800
H  24.30200 60.80100 38.88400
H  23.56200 59.67000 40.14000
H  23.31300 59.44500 38.37900
H  25.41100 54.95500 37.02800
H  24.08600 51.46000 39.61100
H  22.46500 51.99400 39.24900
H  23.25600 52.50600 40.63800

