158

Mg 1.53500 8.68200 27.25900
C  2.20000 10.51100 30.21000
C  1.19100 5.82400 29.07100
C  1.10700 7.10400 24.39900
C  1.75900 11.81900 25.56100
N  1.86100 8.19400 29.38800
C  1.97600 9.11300 30.50000
C  1.85400 8.38400 31.84900
C  1.69800 6.92400 31.38900
C  1.60400 6.90600 29.85500
C  2.87800 5.92200 31.78100
C  0.69600 8.99900 32.75300
C  1.20100 9.27800 34.23700
H  2.15800 8.22200 34.82600
N  1.20800 6.77300 26.80000
C  1.00100 5.68100 27.65400
C  0.60600 4.51800 26.90000
C  0.62000 4.86400 25.55300
C  1.00700 6.30900 25.51300
C  0.35700 3.18500 27.60000
C  0.32100 4.03700 24.27300
O  0.28000 4.52000 23.13200
C  0.13900 2.52600 24.42300
N  1.44900 9.40500 25.36200
C  1.29500 8.50000 24.33300
C  1.21700 9.16500 22.94400
C  1.07100 10.65600 23.35000
C  1.51500 10.64800 24.86500
C  2.52100 8.83600 22.20800
C  -0.30000 11.25700 23.11500
C  -0.46500 12.22300 21.90500
N  1.94000 10.80600 27.74300
C  2.05100 11.93500 26.95900
C  2.31700 13.08100 27.80800
C  2.54500 12.57200 29.04400
C  2.20600 11.19600 28.97700
C  2.38400 14.53700 27.36000
C  2.90400 12.87900 30.39900
O  3.26700 13.97200 30.86300
C  2.56700 11.59400 31.21500
C  3.65100 11.29100 32.17100
O  4.58900 10.51100 31.98300
O  3.34100 11.99900 33.36700
C  4.32000 11.93100 34.46700
H  1.12700 4.94000 29.70900
H  1.06400 6.60900 23.42700
H  1.62200 12.75700 25.01800
H  2.82300 8.41100 32.34700
H  0.74700 6.49300 31.70200
H  3.71500 5.91800 31.08300
H  2.45600 4.91700 31.75000
H  3.22500 6.07700 32.80200
H  -0.07600 8.23100 32.80500
H  0.38900 9.91200 32.24300
H  0.37900 9.35800 34.94800
H  1.78700 10.19100 34.33800
H  0.74600 2.28900 27.11500
H  -0.70600 3.12300 27.83200
H  0.88500 3.16500 28.55300
H  1.17100 2.21100 24.57400
H  -0.25200 2.12400 23.48800
H  -0.66700 2.40700 25.14700
H  0.34100 8.90400 22.35000
H  1.80800 11.19500 22.75400
H  2.30700 8.29400 21.28700
H  3.21800 8.23200 22.78900
H  3.11500 9.73600 22.04500
H  -0.48400 11.85900 24.00500
H  -1.17900 10.61600 23.05600
H  -1.21300 11.89600 21.18300
H  0.43800 12.25400 21.29600
H  -0.72100 13.22000 22.26400
H  1.77300 15.19400 27.97800
H  2.01200 14.52000 26.33500
H  3.36900 14.96800 27.17400
H  1.61900 11.84600 31.68800
H  3.72300 11.75700 35.36200
H  4.86100 12.87700 34.46400
H  4.94100 11.04200 34.35200
Mg -5.29000 25.56100 26.96100
C  -3.93700 27.27900 29.65900
C  -7.08900 23.72800 29.15100
C  -6.34700 23.73200 24.35000
C  -3.23600 27.30000 24.85000
N  -5.51100 25.54000 29.19500
C  -4.87800 26.33300 30.08500
C  -5.33200 26.00000 31.53900
C  -6.00600 24.57000 31.29800
C  -6.17600 24.55800 29.76600
C  -5.21200 23.30000 31.90000
C  -6.30000 27.03000 32.06500
C  -6.30500 27.10500 33.60200
H  -5.70000 25.99300 34.42400
N  -6.64200 24.08300 26.82200
C  -7.27600 23.41800 27.77200
C  -8.22700 22.58000 27.23600
C  -8.08400 22.57600 25.80400
C  -7.00800 23.51800 25.61800
C  -9.22900 21.78100 28.12200
C  -8.86100 21.88100 24.76400
O  -8.62400 22.12900 23.59500
C  -9.81300 20.81100 25.14700
N  -4.81100 25.47600 24.91400
C  -5.44800 24.66400 24.02500
C  -5.04600 24.93100 22.57100
C  -4.22100 26.24400 22.76000
C  -4.06500 26.39800 24.24100
C  -4.20100 23.78100 21.88200
C  -4.70000 27.54300 22.05400
C  -4.01700 27.71700 20.67700
N  -3.80400 26.89400 27.17100
C  -3.14600 27.65600 26.21700
C  -2.45100 28.76500 26.82100
C  -2.71700 28.67200 28.17700
C  -3.51400 27.50700 28.33700
C  -1.72200 29.89200 26.17600
C  -2.54800 29.24900 29.53800
O  -1.98300 30.27900 29.93400
C  -3.37600 28.37300 30.47600
C  -2.48900 28.03900 31.64300
O  -1.50300 27.36000 31.60600
O  -3.07000 28.58700 32.80200
C  -2.40100 28.32300 34.09900
H  -7.62600 23.17700 29.92600
H  -6.60000 23.10200 23.49500
H  -2.66600 27.94300 24.17600
H  -4.39300 25.95000 32.09000
H  -6.99800 24.65900 31.74100
H  -4.29400 23.80600 32.19800
H  -4.97400 22.58200 31.11500
H  -5.73000 22.77100 32.70000
H  -7.27200 26.75600 31.65500
H  -5.93300 27.97800 31.67200
H  -7.34500 27.11600 33.92700
H  -5.71600 27.99700 33.81300
H  -10.06100 22.47100 28.26200
H  -8.87400 21.73000 29.15100
H  -9.42100 20.79100 27.70800
H  -9.35200 19.94800 25.62600
H  -10.34200 20.49300 24.24800
H  -10.50400 21.31800 25.82100
H  -5.94200 25.16200 21.99400
H  -3.22100 26.07600 22.36000
H  -4.27800 22.89200 22.50700
H  -3.11900 23.91200 21.89300
H  -4.53100 23.49600 20.88300
H  -4.43400 28.44300 22.60900
H  -5.77500 27.36300 22.07600
H  -3.06200 28.21400 20.85000
H  -4.66900 28.23100 19.97100
H  -3.70800 26.75600 20.26600
H  -0.66000 29.74400 25.98100
H  -1.88600 30.83100 26.70500
H  -2.14300 30.24800 25.23600
H  -4.14100 29.08200 30.79100
H  -3.13000 28.26000 34.90700
H  -1.67100 29.08600 34.37000
H  -1.85800 27.38000 34.04700

