158

Mg 47.96300 16.06600 28.19100
C  45.75400 15.85500 31.07700
C  49.91500 18.24100 30.19400
C  49.90500 16.70600 25.55200
C  45.67100 14.27400 26.37900
N  47.79600 16.99400 30.35700
C  46.89500 16.57300 31.38600
C  47.38000 17.16300 32.78900
C  48.54100 18.15700 32.32700
C  48.74900 17.75200 30.90300
C  48.28500 19.69100 32.39800
C  47.93300 16.10800 33.81300
C  47.69800 16.48600 35.27500
H  47.28000 17.90000 35.62500
N  49.67300 17.28800 27.91600
C  50.31900 18.04400 28.88800
C  51.50300 18.57800 28.38100
C  51.45100 18.30800 26.90300
C  50.30300 17.35800 26.72200
C  52.44000 19.45100 29.16900
C  52.34000 18.92000 25.76400
O  52.16400 18.69600 24.56400
C  53.52700 19.77800 26.12800
N  47.76300 15.61000 26.25700
C  48.74500 15.91800 25.35000
C  48.38800 15.35100 24.00200
C  47.21600 14.44000 24.28600
C  46.86700 14.74300 25.75000
C  48.16600 16.45000 22.99400
C  47.58900 12.92500 24.05100
C  46.96400 12.28700 22.79100
N  46.00100 15.27300 28.50500
C  45.20700 14.54300 27.64900
C  43.99200 14.16300 28.34800
C  44.13700 14.66000 29.70800
C  45.42700 15.32900 29.75800
C  42.87000 13.38700 27.75500
C  43.51900 14.70600 31.05200
O  42.46700 14.30900 31.48600
C  44.58500 15.38800 31.98500
C  44.00100 16.64100 32.62600
O  43.95900 17.69500 32.09900
O  43.53600 16.37500 33.87100
C  43.07300 17.55700 34.64000
H  50.59300 18.88900 30.75300
H  50.45000 16.97100 24.64400
H  45.12500 13.54500 25.77700
H  46.55100 17.80500 33.08300
H  49.46100 18.02000 32.89600
H  48.17100 20.12600 31.40500
H  49.16000 20.13200 32.87600
H  47.42600 19.94300 33.02100
H  49.00700 15.94100 33.72500
H  47.50500 15.12100 33.64000
H  48.63800 16.37100 35.81400
H  46.94200 15.81500 35.68400
H  52.94900 18.93000 29.98000
H  51.92400 20.22600 29.73500
H  53.29500 19.87700 28.64500
H  53.26600 20.75100 26.54500
H  53.98600 19.92400 25.15000
H  54.06800 19.16600 26.85000
H  49.25000 14.76100 23.69100
H  46.42200 14.73700 23.60000
H  48.94700 16.24300 22.26200
H  48.29500 17.46000 23.38500
H  47.30100 16.26900 22.35600
H  47.28100 12.31500 24.90000
H  48.67400 12.83100 24.01400
H  46.50000 11.34300 23.07600
H  47.75700 12.16900 22.05200
H  46.22100 12.89600 22.27500
H  43.11500 13.03800 26.75200
H  42.01900 14.05200 27.61000
H  42.62400 12.51400 28.35900
H  44.83400 14.66600 32.76300
H  42.01600 17.82500 34.63900
H  43.59100 18.49400 34.43700
H  43.49100 17.38600 35.63200
Mg 48.95400 46.02300 42.65500
C  45.69900 46.65200 41.53600
C  48.65300 42.98200 41.11200
C  52.16800 45.58200 42.99800
C  49.23800 49.35400 43.69800
N  47.44500 45.03400 41.34500
C  46.23100 45.48200 41.03300
C  45.44600 44.53700 40.08700
C  46.26100 43.18600 40.43400
C  47.54200 43.72100 41.01200
C  45.55400 42.05500 41.25900
C  45.64900 45.00300 38.58300
C  44.38500 44.91500 37.65300
H  44.43400 44.07900 36.37500
N  50.25300 44.45800 42.06900
C  49.97800 43.33100 41.49600
C  51.10800 42.40800 41.43100
C  52.14800 43.09900 42.19300
C  51.56800 44.45200 42.45700
C  51.18100 40.95800 40.80000
C  53.51200 42.57800 42.63900
O  53.68300 41.39600 42.45400
C  54.63500 43.35100 43.27500
N  50.45000 47.33900 43.17100
C  51.71300 46.90800 43.26700
C  52.70600 48.09800 43.61400
C  51.76700 49.30100 43.74400
C  50.40100 48.62800 43.56700
C  53.56600 47.82200 44.87900
C  51.96300 50.47300 42.69600
C  52.82600 51.62700 43.29300
N  47.67400 47.64200 42.75600
C  47.90900 48.89500 43.39900
C  46.59400 49.56700 43.46900
C  45.72800 48.70800 42.74600
C  46.48900 47.59700 42.29500
C  46.37300 50.92800 44.00300
C  44.32500 48.58600 42.30400
O  43.31600 49.20900 42.49000
C  44.38300 47.26600 41.38400
C  43.14500 46.39200 41.70900
O  42.37800 45.96800 40.87800
O  42.90500 46.32200 43.08700
C  41.76600 45.47800 43.50000
H  48.44200 41.94900 40.82800
H  53.25400 45.47200 43.02900
H  49.34200 50.38900 44.02900
H  44.37300 44.47600 40.26700
H  46.57300 42.75500 39.48200
H  46.10100 41.85600 42.18000
H  45.60000 41.17000 40.62400
H  44.52000 42.37000 41.40100
H  46.38900 44.40300 38.05200
H  46.05600 46.01400 38.58900
H  44.16000 45.94800 37.38800
H  43.48900 44.77300 38.25700
H  50.25900 40.86900 40.22500
H  51.04700 40.23300 41.60300
H  51.95800 40.91600 40.03800
H  54.35200 43.92200 44.15900
H  55.12800 43.88000 42.46000
H  55.36500 42.62200 43.62700
H  53.35900 48.25300 42.75500
H  51.84600 49.74800 44.73500
H  53.25600 46.83200 45.21400
H  53.48500 48.47900 45.74600
H  54.59400 47.87800 44.52000
H  51.04200 50.90700 42.30600
H  52.50800 49.93500 41.92000
H  52.35100 52.55200 42.96500
H  53.86700 51.51000 42.99300
H  52.65500 51.71300 44.36600
H  46.57400 51.64900 43.21100
H  46.97700 51.07400 44.89900
H  45.31400 51.07800 44.21300
H  44.23600 47.51500 40.33300
H  41.74100 44.52500 42.97100
H  40.79100 45.95900 43.43400
H  41.87400 45.29500 44.56900

