158

Mg 24.34000 -5.47600 46.00700
C  26.59000 -3.17400 44.41300
C  21.96400 -4.41900 43.67800
C  22.24800 -7.82000 47.02400
C  26.97100 -6.88000 47.72100
N  24.38600 -4.12400 44.08300
C  25.33500 -3.16900 43.84700
C  24.85700 -2.18700 42.76600
C  23.30700 -2.34500 42.89600
C  23.18600 -3.71700 43.65200
C  22.58600 -1.13200 43.60800
C  25.49100 -2.44600 41.32800
C  26.10300 -1.29300 40.50700
H  25.78200 -1.39200 38.99900
N  22.44400 -6.13400 45.37900
C  21.65800 -5.58600 44.43900
C  20.39000 -6.36700 44.30700
C  20.35900 -7.28700 45.30800
C  21.73200 -7.17000 45.88700
C  19.38600 -5.88600 43.34100
C  19.18400 -8.25400 45.69700
O  18.15300 -8.24900 45.02300
C  19.21300 -9.05800 46.91800
N  24.52400 -7.15700 47.16500
C  23.50500 -7.94000 47.58800
C  24.03400 -9.07100 48.49000
C  25.47000 -8.66400 48.81800
C  25.69700 -7.51800 47.83900
C  23.22200 -9.47300 49.77000
C  26.53800 -9.84000 48.82900
C  27.35700 -9.84800 50.14000
N  26.32700 -5.13600 46.10200
C  27.27900 -5.74300 46.89500
C  28.57600 -5.04100 46.75700
C  28.29900 -3.97400 45.78600
C  26.97800 -4.15400 45.41600
C  29.78300 -5.43000 47.46000
C  28.88700 -2.76600 45.15600
O  29.99900 -2.24200 45.31400
C  27.76500 -2.22500 44.08100
C  27.45400 -0.82700 44.36900
O  26.68800 -0.32000 45.16200
O  28.28700 -0.03700 43.56100
C  28.29300 1.36100 43.92400
H  21.12600 -3.95400 43.15400
H  21.60700 -8.53500 47.54400
H  27.74900 -7.42000 48.26500
H  25.18100 -1.20800 43.11700
H  22.81100 -2.51200 41.94000
H  23.32000 -0.33200 43.70600
H  22.23300 -1.49500 44.57300
H  21.73800 -0.71400 43.06500
H  24.75900 -2.96700 40.71100
H  26.35100 -3.08700 41.51900
H  27.18900 -1.34200 40.42400
H  25.76700 -0.33600 40.90700
H  18.68400 -5.21100 43.83100
H  18.83400 -6.77100 43.02600
H  19.75200 -5.48000 42.39900
H  18.27200 -9.56700 47.12700
H  19.39600 -8.36900 47.74200
H  20.04000 -9.75800 46.79500
H  24.09000 -9.91200 47.79900
H  25.38900 -8.24400 49.82000
H  22.35600 -8.81100 49.77700
H  23.83000 -9.49600 50.67400
H  22.73800 -10.41500 49.51100
H  27.23500 -9.81200 47.99100
H  25.98400 -10.77600 48.89000
H  28.43200 -9.81900 49.96300
H  27.12000 -10.62100 50.87100
H  27.27300 -8.85400 50.57900
H  29.57000 -5.44800 48.52900
H  30.53400 -4.71500 47.12500
H  30.02700 -6.47400 47.26100
H  28.15300 -2.35800 43.07100
H  28.30000 1.56500 44.99500
H  27.42100 1.91200 43.57300
H  29.20200 1.81200 43.52600
Mg 9.01700 48.93800 25.88200
C  6.97300 49.05500 28.80100
C  11.76300 49.48400 27.81600
C  10.79700 48.18100 23.16400
C  6.10700 48.38300 23.91600
N  9.28200 49.32800 28.02700
C  8.37500 49.20800 29.08800
C  9.07300 49.19700 30.47100
C  10.50400 49.69200 30.06300
C  10.54600 49.47900 28.48800
C  10.67300 51.19400 30.41100
C  9.11000 47.89700 31.41100
C  8.45400 48.14900 32.80500
H  8.62000 47.06100 33.89500
N  11.04800 48.85800 25.58300
C  12.02900 49.19500 26.46300
C  13.30100 49.14000 25.74300
C  13.05700 48.65900 24.45500
C  11.56300 48.61200 24.33100
C  14.62000 49.41000 26.44900
C  13.96800 48.42900 23.32900
O  13.65000 48.06300 22.23400
C  15.40800 48.62600 23.59400
N  8.50200 48.34100 23.87900
C  9.41200 48.05600 22.92800
C  8.83200 47.78800 21.62700
C  7.33200 47.87300 21.88400
C  7.32100 48.27300 23.31000
C  9.17500 48.74300 20.40700
C  6.51700 46.54900 21.60200
C  5.48400 46.84400 20.54700
N  6.84000 48.77600 26.16100
C  5.79300 48.56700 25.28500
C  4.54600 48.57000 26.10300
C  5.00000 48.74500 27.46900
C  6.39300 48.86000 27.50100
C  3.19200 48.38900 25.45800
C  4.54100 48.81800 28.85300
O  3.39000 48.77300 29.27700
C  5.81100 48.92200 29.78400
C  5.85000 47.58900 30.44600
O  6.42300 46.55400 30.12000
O  5.08700 47.69200 31.55400
C  4.96300 46.47000 32.37600
H  12.64800 49.62300 28.43900
H  11.36900 48.02500 22.24700
H  5.34500 48.26000 23.14300
H  8.52000 49.90900 31.08200
H  11.22000 48.97500 30.46400
H  10.95300 51.80400 29.55100
H  11.45400 51.23800 31.17000
H  9.76600 51.59600 30.86100
H  10.11700 47.53200 31.61200
H  8.60000 47.06400 30.92900
H  7.44600 48.51600 32.61800
H  9.00800 49.00400 33.19100
H  14.53600 49.78100 27.47000
H  15.21200 50.24000 26.06400
H  15.17800 48.47500 26.50300
H  15.75900 47.98300 24.40200
H  15.56100 49.66500 23.88400
H  16.07100 48.39700 22.76000
H  9.11100 46.78600 21.30200
H  6.76900 48.72900 21.51200
H  8.36600 49.33400 19.97600
H  9.71900 48.15500 19.66700
H  9.87400 49.50000 20.76300
H  6.19400 46.03300 22.50600
H  7.19500 45.81300 21.17100
H  4.70000 46.18700 20.92200
H  5.75300 46.64700 19.50900
H  5.01400 47.82700 20.57000
H  2.82700 49.22800 24.86500
H  2.49100 48.17900 26.26500
H  3.17500 47.53700 24.77800
H  5.61600 49.69700 30.52600
H  5.88300 45.89000 32.29700
H  4.16400 45.82100 32.01800
H  4.73800 46.64200 33.42800

