158

Mg 40.81200 40.27600 27.69800
C  40.52900 42.99100 29.99200
C  41.80800 38.33700 30.39700
C  41.52300 37.88800 25.54200
C  40.09000 42.51100 25.18400
N  41.21700 40.71400 29.91900
C  40.93200 41.80800 30.63800
C  41.07500 41.61900 32.14000
C  41.66700 40.19400 32.17900
C  41.55600 39.68700 30.77200
C  43.08400 40.08600 32.78200
C  39.65500 41.64700 32.80900
C  39.57600 42.66400 34.04300
H  38.86400 42.20000 35.35100
N  41.50900 38.29300 27.93400
C  41.84200 37.67900 29.11300
C  42.16800 36.32600 28.78400
C  42.29600 36.21800 27.35100
C  41.78500 37.46500 26.85700
C  42.45000 35.28600 29.85100
C  42.73600 35.08200 26.48000
O  42.78200 35.09600 25.25300
C  43.11200 33.78600 27.09800
N  40.93000 40.15500 25.68500
C  41.02000 39.02800 24.99600
C  40.83900 39.27700 23.50400
C  40.22000 40.66500 23.46600
C  40.49000 41.18200 24.86300
C  42.05100 39.11200 22.66900
C  38.71400 40.77800 23.05500
C  37.67600 39.93000 23.79000
N  40.39100 42.37500 27.51500
C  40.05300 43.08800 26.42800
C  39.73100 44.40900 26.85800
C  39.83600 44.48200 28.24900
C  40.29100 43.16900 28.60100
C  39.40100 45.56500 25.93100
C  39.73400 45.31800 29.50600
O  39.50600 46.54500 29.60200
C  40.04400 44.35900 30.68100
C  41.07500 44.89500 31.52900
O  42.24800 44.69700 31.35100
O  40.61600 45.60500 32.52400
C  41.59100 46.09500 33.51000
H  41.93600 37.64200 31.23000
H  41.57200 37.00500 24.90300
H  39.87400 43.18700 24.35400
H  41.75000 42.37900 32.53500
H  41.07600 39.57800 32.85700
H  43.76600 40.88400 32.48600
H  43.49600 39.08500 32.65200
H  42.90800 40.18700 33.85300
H  39.26800 40.68900 33.15700
H  38.96800 42.05500 32.06600
H  39.07600 43.57900 33.72800
H  40.58800 42.86600 34.39600
H  41.86200 35.39600 30.76100
H  43.49600 35.44700 30.11500
H  42.26100 34.24200 29.60000
H  42.28300 33.33700 27.64500
H  43.99700 33.97100 27.70800
H  43.41800 33.13300 26.28100
H  40.16600 38.46300 23.23500
H  40.86900 41.27100 22.83400
H  42.89400 38.74300 23.25200
H  42.35600 40.02400 22.15700
H  41.96500 38.36700 21.87700
H  38.74300 40.30000 22.07600
H  38.55300 41.84500 22.90300
H  36.82500 40.60200 23.89700
H  37.95700 39.83100 24.83900
H  37.36100 39.02500 23.27100
H  39.74700 45.25300 24.94600
H  39.94000 46.47600 26.19200
H  38.34500 45.82300 25.85000
H  39.06600 44.36800 31.16200
H  42.30600 46.83100 33.14200
H  42.07200 45.27500 34.04400
H  41.08600 46.55900 34.35800
Mg -9.83300 16.84800 40.96700
C  -6.29900 16.61000 41.07000
C  -9.42900 20.22800 40.21600
C  -13.05800 16.97100 39.94200
C  -10.03800 13.49800 41.40200
N  -8.10500 18.21400 40.53300
C  -6.81500 17.85000 40.65300
C  -5.90600 19.02100 40.28800
C  -6.90600 20.23100 40.53800
C  -8.25700 19.50800 40.50100
C  -6.56200 21.15300 41.83200
C  -5.37500 19.06600 38.81500
C  -3.76700 18.85600 38.62000
H  -3.37300 17.57600 37.98700
N  -11.12900 18.44000 40.23500
C  -10.75600 19.69200 39.97600
C  -11.85500 20.44900 39.55200
C  -12.95800 19.55400 39.53900
C  -12.43400 18.26600 39.93700
C  -11.76300 21.95000 39.29500
C  -14.32200 19.92500 38.97200
O  -14.67100 21.06200 38.77300
C  -15.39500 18.90100 38.73000
N  -11.26800 15.31400 40.27500
C  -12.51900 15.69200 40.16700
C  -13.52900 14.59200 40.58400
C  -12.51900 13.38500 40.87400
C  -11.23500 14.11700 40.89800
C  -14.44000 14.93300 41.77600
C  -12.37200 12.21600 39.87200
C  -12.92600 10.89800 40.30000
N  -8.50600 15.30000 41.16000
C  -8.71600 13.94000 41.36700
C  -7.46900 13.28400 41.65100
C  -6.50600 14.28100 41.53300
C  -7.16100 15.51000 41.26200
C  -7.35300 11.84000 42.03500
C  -5.07500 14.54100 41.69100
O  -4.22300 13.80200 42.08900
C  -4.91500 16.17300 41.41700
C  -4.54100 16.74000 42.75900
O  -5.25600 17.02100 43.69500
O  -3.18300 16.75600 42.70700
C  -2.54800 17.20500 43.82500
H  -9.14300 21.28100 40.25500
H  -14.14500 17.03600 40.02700
H  -10.13000 12.46300 41.73900
H  -5.04500 19.11900 40.94800
H  -6.92300 20.91100 39.68700
H  -6.64900 22.22900 41.68000
H  -5.55300 20.98100 42.20700
H  -7.31700 20.93100 42.58700
H  -5.50400 20.05000 38.36300
H  -5.90800 18.32600 38.21800
H  -3.25200 18.88400 39.58000
H  -3.28400 19.67500 38.08700
H  -12.11500 22.53100 40.14800
H  -12.36400 22.21000 38.42400
H  -10.70700 22.21500 39.23200
H  -16.26700 19.35200 38.25700
H  -15.71200 18.50700 39.69600
H  -15.03100 18.06300 38.13500
H  -14.12900 14.36900 39.70200
H  -12.57800 13.06400 41.91400
H  -14.22000 14.48400 42.74400
H  -15.43800 14.56300 41.54100
H  -14.40900 16.01700 41.88800
H  -11.33600 11.93600 39.68300
H  -12.86400 12.40100 38.91800
H  -13.01800 10.84700 41.38500
H  -12.17700 10.13100 40.10300
H  -13.83600 10.59000 39.78500
H  -8.35400 11.41200 42.07800
H  -6.72200 11.63300 42.89900
H  -6.91000 11.41500 41.13400
H  -4.31100 16.37500 40.53200
H  -2.96300 16.67700 44.68300
H  -2.83100 18.24700 43.97000
H  -1.46400 17.11800 43.74300

