158

Mg 1.70300 -2.04400 44.11700
C  5.13600 -1.20300 44.03600
C  0.94100 0.83500 42.55300
C  -1.44000 -3.22300 43.80400
C  2.71200 -5.42300 45.00200
N  2.93200 -0.44200 43.23100
C  4.32100 -0.24200 43.41200
C  4.83500 1.13600 43.06600
C  3.46300 1.86800 42.74400
C  2.37500 0.69800 42.72000
C  3.06500 3.00100 43.77300
C  5.89800 1.21700 41.96900
C  5.82200 0.11200 40.94700
H  6.80300 0.16100 39.71600
N  -0.07200 -1.25700 43.30200
C  -0.16000 -0.03900 42.68500
C  -1.57500 0.20600 42.39400
C  -2.32100 -0.89900 42.84900
C  -1.30200 -1.83100 43.34500
C  -2.09400 1.49000 41.71700
C  -3.85300 -1.03200 42.85600
O  -4.54300 -0.09800 42.36000
C  -4.63700 -2.19500 43.35900
N  0.82000 -4.00400 44.28200
C  -0.50600 -4.16600 44.14500
C  -0.97100 -5.52900 44.52900
C  0.37000 -6.31500 44.95600
C  1.34700 -5.20200 44.73000
C  -2.06500 -5.62800 45.63000
C  0.53600 -7.57900 44.10500
C  0.34400 -8.84900 44.88900
N  3.52200 -3.10500 44.46300
C  3.75900 -4.48800 44.75500
C  5.19300 -4.64400 44.98000
C  5.77000 -3.35500 44.84800
C  4.70600 -2.49000 44.44400
C  5.88000 -5.89700 45.35600
C  7.00900 -2.64200 44.75200
O  8.14100 -2.95800 45.04200
C  6.58200 -1.19300 44.36200
C  6.91000 -0.20300 45.35800
O  6.42000 -0.17100 46.43600
O  7.74500 0.78700 44.85700
C  8.15400 1.71700 45.85100
H  0.66700 1.87600 42.36700
H  -2.48500 -3.49300 43.97200
H  3.06900 -6.41000 45.30600
H  5.25700 1.52200 43.99400
H  3.57600 2.31800 41.75800
H  2.16600 2.54700 44.18900
H  2.82500 3.88700 43.18500
H  3.79200 3.02200 44.58500
H  6.84600 1.14500 42.50300
H  5.91000 2.19100 41.47900
H  4.82200 0.12400 40.51100
H  5.91700 -0.89300 41.35900
H  -2.93200 1.43500 41.02300
H  -1.34000 1.94900 41.07700
H  -2.35400 2.19300 42.50900
H  -4.31600 -3.20400 43.10300
H  -5.68000 -2.18200 43.04200
H  -4.48200 -2.10400 44.43400
H  -1.42000 -5.85500 43.59000
H  0.37700 -6.46100 46.03700
H  -1.88900 -4.72000 46.20700
H  -1.91100 -6.49300 46.27500
H  -3.02500 -5.63500 45.11400
H  1.51600 -7.70200 43.64300
H  -0.15500 -7.63600 43.26400
H  -0.56200 -9.32700 44.51500
H  0.17500 -8.65700 45.94800
H  1.12800 -9.60500 44.92600
H  6.83200 -5.60200 45.79500
H  6.11100 -6.45300 44.44700
H  5.33300 -6.46000 46.11100
H  7.13400 -1.02100 43.43800
H  8.05600 2.70900 45.41100
H  9.19800 1.55500 46.11900
H  7.75500 1.62800 46.86100
Mg 9.83700 47.81600 25.98300
C  7.97600 47.77800 28.90000
C  12.40700 49.17900 27.67300
C  11.59300 47.47800 23.18100
C  6.86500 46.75000 24.27900
N  10.06000 48.55700 27.94200
C  9.23200 48.33900 29.04100
C  9.94500 48.85400 30.38300
C  11.07100 49.75200 29.75700
C  11.23700 49.08700 28.37300
C  10.82800 51.28000 29.54500
C  10.47100 47.76000 31.32600
C  10.13400 47.96000 32.85300
H  10.47300 46.79100 33.79800
N  11.74900 48.20900 25.51600
C  12.65300 48.75500 26.35700
C  13.87000 49.00600 25.60700
C  13.74000 48.36200 24.33200
C  12.27900 48.02500 24.24700
C  15.10900 49.73800 26.16900
C  14.75500 48.18200 23.24100
O  14.45700 47.63300 22.18100
C  16.16600 48.70100 23.40800
N  9.22900 47.29600 23.98100
C  10.23700 47.18200 23.02100
C  9.68500 46.65700 21.68700
C  8.24200 46.24300 22.08400
C  8.07000 46.71600 23.54200
C  9.84400 47.73900 20.52800
C  7.90100 44.75500 21.90400
C  8.74900 43.76400 22.72300
N  7.68500 47.60000 26.37900
C  6.64200 47.14400 25.59300
C  5.45800 47.08500 26.44600
C  5.95800 47.17600 27.76100
C  7.30800 47.48200 27.66600
C  4.10000 46.77600 25.99100
C  5.55300 47.13500 29.14700
O  4.47300 46.88100 29.66700
C  6.88000 47.37700 29.89100
C  7.14500 46.25500 30.80500
O  7.92800 45.37800 30.57300
O  6.46200 46.37900 31.96100
C  6.42400 45.19000 32.84000
H  13.20400 49.64300 28.25800
H  12.17800 47.17000 22.31200
H  6.10400 46.16100 23.76300
H  9.25200 49.44700 30.98000
H  11.98000 49.54900 30.32300
H  9.84000 51.63100 29.84300
H  10.91300 51.44600 28.47100
H  11.60000 51.81000 30.10200
H  11.55500 47.65600 31.35600
H  9.96700 46.88300 30.92100
H  9.05000 48.06500 32.86000
H  10.59100 48.92000 33.09500
H  15.93700 49.02900 26.12800
H  14.90600 50.02400 27.20100
H  15.34700 50.60500 25.55300
H  15.97500 49.77100 23.49100
H  16.74900 48.46000 22.51900
H  16.67900 48.34400 24.30100
H  10.33400 45.91500 21.22200
H  7.54500 46.80800 21.46500
H  10.16200 48.64600 21.04200
H  8.83900 47.91300 20.14400
H  10.59100 47.41100 19.80500
H  8.02700 44.71900 20.82200
H  6.84800 44.52600 22.06200
H  9.39600 44.41400 23.31200
H  9.31000 43.15700 22.01100
H  8.15600 43.03900 23.28100
H  4.12500 46.29300 25.01500
H  3.59000 47.73800 26.04400
H  3.81400 46.14200 26.83000
H  6.63000 48.22200 30.53200
H  6.59300 45.56900 33.84700
H  7.34900 44.61500 32.79000
H  5.49600 44.63300 32.70700

