158

Mg 49.30400 34.54800 27.36300
C  47.08900 33.61300 30.08000
C  49.92400 37.46900 28.97400
C  50.59900 35.72900 24.59000
C  48.38200 31.52000 25.80000
N  48.66100 35.27800 29.25100
C  47.76400 34.85200 30.25100
C  47.62500 35.88200 31.36700
C  48.40300 37.04400 30.81100
C  49.06800 36.53800 29.62100
C  47.53500 38.39500 30.51800
C  48.10000 35.45300 32.81200
C  47.00800 35.54700 33.85400
H  47.01600 36.83100 34.76400
N  50.15400 36.30600 26.90000
C  50.38300 37.42300 27.66200
C  50.97700 38.48700 26.83800
C  51.40100 37.92200 25.67100
C  50.63100 36.64500 25.64200
C  51.17300 39.90300 27.31300
C  52.27400 38.43600 24.64900
O  52.65500 37.80100 23.68700
C  52.91000 39.79900 24.79900
N  49.32800 33.71100 25.43900
C  50.09300 34.37500 24.55900
C  50.37200 33.47900 23.34200
C  49.80800 32.07800 23.72100
C  49.14900 32.43200 25.10400
C  49.90100 34.02200 22.04900
C  50.87500 31.04800 23.80900
C  50.85900 30.16000 22.52500
N  48.01200 32.89500 27.76500
C  47.68400 31.73400 27.02100
C  46.62100 30.91700 27.72300
C  46.41000 31.70100 28.89100
C  47.27200 32.79300 28.93800
C  46.01800 29.59700 27.25600
C  45.55300 31.73800 30.05100
O  44.59800 31.01900 30.34900
C  45.94800 32.98200 30.86800
C  46.08700 32.60400 32.30800
O  47.00300 31.93200 32.77200
O  44.89800 32.93100 32.92800
C  44.63700 32.28700 34.20200
H  50.04700 38.42600 29.48500
H  51.13600 36.05000 23.69500
H  48.22500 30.59000 25.25100
H  46.57400 36.17200 31.39500
H  49.25800 37.24000 31.45800
H  47.26200 38.41500 29.46300
H  48.05500 39.33100 30.71900
H  46.54000 38.47900 30.95500
H  48.96700 35.99200 33.19600
H  48.39200 34.40800 32.70600
H  46.92900 34.64800 34.46500
H  46.07300 35.66600 33.30700
H  50.65200 40.12000 28.24500
H  50.83000 40.56000 26.51400
H  52.23600 40.08600 27.47100
H  53.33200 39.94800 25.79300
H  52.09000 40.51400 24.74000
H  53.61300 39.98900 23.98800
H  51.45200 33.40900 23.20800
H  49.06900 31.83800 22.95600
H  48.90600 33.84900 21.64000
H  50.64500 33.69000 21.32400
H  49.92100 35.10500 22.16800
H  50.66600 30.35800 24.62600
H  51.88000 31.46800 23.77200
H  51.91000 29.96700 22.31300
H  50.48500 30.66100 21.63200
H  50.48000 29.14900 22.67400
H  46.00100 29.62100 26.16600
H  44.99600 29.43400 27.59800
H  46.56200 28.68800 27.51400
H  45.08200 33.61800 30.68800
H  43.66800 32.53400 34.63700
H  45.38900 32.61500 34.92000
H  44.65000 31.20400 34.08300
Mg 0.96000 42.95900 26.10500
C  2.08000 43.03600 29.43400
C  -2.25900 42.75100 27.35700
C  -0.13600 42.49900 22.92000
C  4.14400 43.05200 25.01800
N  0.08300 42.91000 28.27100
C  0.68600 42.99300 29.41200
C  -0.30700 42.79200 30.57500
C  -1.67600 42.82200 29.88800
C  -1.27700 42.80800 28.41000
C  -2.69000 41.74300 30.18200
C  -0.21300 43.89700 31.67000
C  -0.15600 43.36000 33.11600
H  -0.95300 42.10100 33.55200
N  -0.94700 42.73400 25.30000
C  -2.15000 42.72800 25.92800
C  -3.23500 42.54600 24.99400
C  -2.65500 42.60900 23.63500
C  -1.17600 42.66200 23.88900
C  -4.64200 42.47800 25.33200
C  -3.27900 42.46800 22.28400
O  -2.69800 42.58300 21.15400
C  -4.76900 42.24100 22.19500
N  1.82100 42.89600 24.17900
C  1.22300 42.65900 22.98200
C  2.24700 42.46100 21.85500
C  3.53900 42.87700 22.58100
C  3.19400 42.90600 24.04600
C  2.17500 40.94900 21.37600
C  4.11800 44.16000 22.01200
C  3.21200 45.42600 21.95200
N  2.75900 43.10800 26.95800
C  3.96300 43.16000 26.42800
C  5.03800 43.28000 27.40800
C  4.30700 43.24900 28.55900
C  2.92200 43.12800 28.30500
C  6.47600 43.37700 27.33200
C  4.45100 43.24300 29.99100
O  5.50800 43.30000 30.64200
C  3.07700 43.05800 30.66500
C  3.22100 41.76400 31.49100
O  3.48100 40.69400 31.00400
O  2.90900 41.92200 32.84000
C  3.05000 40.76200 33.73800
H  -3.31600 42.84500 27.61500
H  -0.35000 42.29800 21.86800
H  5.15200 43.17400 24.61400
H  -0.01200 41.85600 31.04900
H  -2.22000 43.73900 30.11100
H  -2.32600 40.75800 30.47500
H  -3.30000 41.56800 29.29600
H  -3.32800 42.18300 30.94800
H  -1.08700 44.54800 31.62700
H  0.63600 44.53700 31.42900
H  -0.46600 44.17400 33.77100
H  0.92100 43.23300 33.22000
H  -5.02400 41.47300 25.15400
H  -5.26900 43.15600 24.75200
H  -4.85700 42.87300 26.32400
H  -4.94000 42.26700 21.11900
H  -5.36100 43.07400 22.57700
H  -4.80200 41.25400 22.65600
H  1.94100 43.08500 21.01500
H  4.27000 42.07500 22.48100
H  3.10800 40.41500 21.20100
H  1.76200 40.97100 20.36700
H  1.62400 40.42200 22.15400
H  4.44900 44.01800 20.98300
H  4.94200 44.52200 22.62700
H  2.30800 45.22900 22.52800
H  3.03000 45.71200 20.91600
H  3.72900 46.32700 22.28200
H  6.75500 44.41000 27.12500
H  6.90200 42.78700 26.52000
H  6.77600 43.03300 28.32100
H  2.91500 43.93000 31.29900
H  2.94500 41.01200 34.79400
H  3.92200 40.13100 33.56500
H  2.14200 40.20600 33.50700

