158

Mg 1.14000 7.45000 25.11900
C  1.62700 9.27200 28.28000
C  1.03000 4.62100 26.94800
C  1.05600 5.89900 22.19000
C  1.89200 10.57100 23.44800
N  1.50200 6.99600 27.37600
C  1.53800 7.89500 28.46600
C  1.42500 7.11400 29.73600
C  1.48400 5.58100 29.29100
C  1.31400 5.71000 27.77800
C  2.79500 4.79300 29.60600
C  0.14900 7.52300 30.66700
C  0.17800 7.57700 32.20000
H  1.42000 7.00400 33.00700
N  0.99800 5.49700 24.57300
C  0.86600 4.49600 25.49000
C  0.66400 3.25200 24.72600
C  0.66700 3.57300 23.34000
C  0.89900 5.03600 23.29800
C  0.55900 1.79500 25.33900
C  0.57400 2.69100 22.13700
O  0.64400 3.11200 21.01200
C  0.31200 1.26100 22.29600
N  1.32400 8.15800 23.12700
C  1.25600 7.31400 22.10800
C  1.41100 8.04700 20.81600
C  1.60000 9.50400 21.30200
C  1.57800 9.41300 22.74000
C  2.60800 7.51000 19.93200
C  0.47200 10.52300 20.85700
C  -0.89700 10.68800 21.60500
N  1.58800 9.46800 25.69600
C  1.78800 10.66100 24.86000
C  1.92900 11.86900 25.76200
C  1.81800 11.33000 27.07000
C  1.61900 9.91500 27.01200
C  2.10900 13.34700 25.43600
C  1.92100 11.70400 28.58700
O  2.01900 12.81900 29.08400
C  1.72100 10.30900 29.31200
C  2.84800 10.15400 30.28900
O  4.00600 9.87200 30.06200
O  2.29200 10.46800 31.50100
C  3.15800 10.37700 32.67300
H  0.88200 3.70700 27.52700
H  0.87100 5.42100 21.22600
H  2.16500 11.46200 22.87900
H  2.31000 7.37900 30.31400
H  0.63600 5.02400 29.69000
H  3.32300 5.43300 30.31300
H  3.31600 4.43900 28.71700
H  2.60300 3.96000 30.28300
H  -0.57500 6.77000 30.35300
H  -0.20000 8.52800 30.43100
H  -0.76700 7.16600 32.55600
H  0.16400 8.60100 32.57300
H  1.41200 1.15900 25.10000
H  -0.29100 1.23900 24.94400
H  0.45600 1.92300 26.41700
H  -0.56500 1.10500 22.92300
H  1.12500 0.74600 22.80800
H  0.19700 0.72800 21.35200
H  0.50400 8.01400 20.21100
H  2.56900 9.93700 21.05200
H  3.00600 8.30000 19.29600
H  2.32300 6.66700 19.30100
H  3.43800 7.22700 20.58000
H  0.30800 10.17100 19.83900
H  0.89700 11.52600 20.88900
H  -1.72800 10.85000 20.91900
H  -0.70700 11.48900 22.31800
H  -1.06700 9.79100 22.20100
H  2.90700 13.62600 24.74800
H  2.24500 13.88000 26.37700
H  1.17000 13.63200 24.96200
H  0.77100 10.43000 29.83200
H  3.57200 11.38400 32.72900
H  4.04400 9.78500 32.44500
H  2.65400 10.10600 33.60100
Mg 8.68500 2.99500 27.69400
C  9.81900 1.60500 30.34500
C  6.76100 5.23000 29.42500
C  7.21500 4.08700 24.65000
C  10.19300 0.44700 25.63800
N  8.16900 3.26000 29.66300
C  8.85500 2.61300 30.63300
C  8.49200 3.22000 32.01200
C  7.45800 4.33400 31.71000
C  7.33100 4.25800 30.19500
C  6.07600 4.19800 32.37000
C  9.83400 3.82400 32.71300
C  10.21500 3.39600 34.12600
H  10.58600 4.40000 35.25700
N  7.25700 4.39800 27.13800
C  6.64800 5.35400 28.01400
C  5.96800 6.34400 27.25600
C  6.04800 5.99100 25.88400
C  6.88900 4.76500 25.87300
C  5.24500 7.49000 27.95100
C  5.36000 6.69100 24.72700
O  5.34800 6.25500 23.59900
C  4.72100 8.07400 24.93200
N  8.59000 2.21800 25.38100
C  8.03200 2.93200 24.42000
C  8.38700 2.47900 23.02200
C  9.45700 1.39400 23.30100
C  9.41800 1.34100 24.84800
C  7.06600 2.04600 22.11300
C  10.78600 1.56600 22.60700
C  10.82700 0.96000 21.16200
N  9.78200 1.21900 27.93800
C  10.37300 0.42100 27.04200
C  11.16100 -0.55100 27.83100
C  11.08400 -0.04700 29.22600
C  10.16900 1.01500 29.13800
C  11.94100 -1.65200 27.31900
C  11.40500 -0.24300 30.63900
O  12.19300 -0.98500 31.21200
C  10.60600 0.86900 31.43600
C  9.84200 0.11700 32.50600
O  8.78800 -0.45600 32.34000
O  10.45000 0.20600 33.76400
C  9.74100 -0.19600 34.93300
H  6.12400 5.86200 30.04800
H  6.95900 4.58100 23.71100
H  10.78600 -0.25300 25.04500
H  8.11500 2.43100 32.66200
H  7.89200 5.30700 31.93900
H  6.10300 3.54300 33.24000
H  5.27600 3.80400 31.74300
H  5.84600 5.21100 32.70000
H  9.83300 4.91300 32.66300
H  10.64000 3.61300 32.01100
H  11.08100 2.74000 34.03800
H  9.42800 2.69600 34.40800
H  5.19200 7.52200 29.03900
H  4.17800 7.45900 27.72800
H  5.58400 8.40900 27.47300
H  5.44800 8.78300 25.32700
H  3.74100 8.00200 25.40400
H  4.51900 8.51600 23.95700
H  8.74600 3.29500 22.39500
H  8.97200 0.46100 23.01200
H  7.12700 1.13400 21.52000
H  6.88300 2.83000 21.37800
H  6.23700 1.94600 22.81400
H  11.48000 1.07200 23.28600
H  10.87500 2.65000 22.67600
H  11.09600 1.84700 20.58900
H  9.87700 0.56600 20.80000
H  11.58500 0.18400 21.05400
H  11.62400 -1.91200 26.30900
H  11.58200 -2.45400 27.96400
H  13.01900 -1.49300 27.31200
H  11.30800 1.58000 31.87100
H  9.86100 0.71600 35.51800
H  10.10800 -1.03100 35.53000
H  8.71500 -0.41900 34.64000

