158

Mg 29.80900 57.60800 40.66400
C  26.92500 55.89600 39.63200
C  31.75400 55.07700 39.19700
C  32.52900 59.57200 41.02000
C  27.78000 60.26400 41.70500
N  29.33800 55.77000 39.48100
C  28.12400 55.26600 39.22800
C  28.27400 53.94300 38.49200
C  29.77100 53.57500 38.65600
C  30.34600 54.84000 39.20700
C  29.95200 52.35700 39.67800
C  27.70500 53.91500 37.03800
C  27.74800 55.19000 36.23600
H  26.73400 55.34500 35.05300
N  31.86600 57.33200 40.20900
C  32.43300 56.23600 39.58600
C  33.87600 56.52500 39.43200
C  34.10900 57.81900 39.93800
C  32.83300 58.28300 40.51200
C  34.82900 55.57600 38.66700
C  35.52500 58.43400 40.07700
O  36.47100 57.78500 39.63400
C  35.88100 59.72700 40.80800
N  30.03700 59.64800 41.19900
C  31.28000 60.15300 41.29400
C  31.20900 61.66400 41.64200
C  29.67200 61.91000 42.02100
C  29.11000 60.54100 41.58600
C  32.17700 62.21300 42.66700
C  28.87500 63.12600 41.47300
C  28.31500 63.99300 42.51700
N  27.81400 58.00700 40.90800
C  27.12400 59.06600 41.38200
C  25.68600 58.85100 41.35900
C  25.55500 57.60000 40.78100
C  26.90300 57.08200 40.50800
C  24.55300 59.82200 41.68200
C  24.65000 56.68300 40.17200
O  23.44100 56.70200 40.00300
C  25.47000 55.51600 39.56300
C  25.17100 54.24600 40.31400
O  25.46700 54.01500 41.46700
O  24.34600 53.39200 39.58900
C  24.06400 52.06200 40.26700
H  32.40500 54.23200 38.96400
H  33.33000 60.29200 40.84300
H  27.19900 61.15000 41.97300
H  27.66600 53.15600 38.93900
H  30.24900 53.20800 37.74800
H  30.26100 51.47300 39.11900
H  29.04900 52.07200 40.21800
H  30.69800 52.64800 40.41700
H  26.74400 53.40800 36.95200
H  28.29900 53.18800 36.48500
H  28.73800 55.19900 35.78100
H  27.58300 56.10200 36.81000
H  34.26900 54.76400 38.20300
H  35.51800 55.10700 39.36900
H  35.44800 56.06900 37.91700
H  35.66400 60.52800 40.10000
H  36.95800 59.82400 40.94400
H  35.31700 59.78000 41.73900
H  31.45200 62.15400 40.69900
H  29.69600 61.96200 43.10900
H  31.66500 62.84000 43.39800
H  33.00100 62.71500 42.16000
H  32.48700 61.31400 43.20000
H  27.99900 62.83100 40.89500
H  29.38800 63.78500 40.77300
H  27.24000 63.87500 42.65300
H  28.65000 65.02300 42.39000
H  28.75200 63.86800 43.50800
H  24.69500 60.44000 42.56900
H  23.58100 59.34000 41.58200
H  24.69700 60.47300 40.81900
H  25.25000 55.38400 38.50400
H  23.70800 52.21800 41.28500
H  24.96400 51.45800 40.38300
H  23.30300 51.50200 39.72400
Mg -11.23800 17.48500 40.63800
C  -7.73800 16.80600 40.61100
C  -10.41600 20.81100 39.95700
C  -14.52200 18.09900 40.04800
C  -11.76200 14.13600 40.98500
N  -9.27300 18.65100 40.26100
C  -8.01700 18.13900 40.29200
C  -7.01800 19.17200 39.84900
C  -7.78500 20.54400 40.02200
C  -9.26700 19.96700 40.13200
C  -7.42100 21.30600 41.35200
C  -6.43200 19.02800 38.37300
C  -4.88600 18.81700 38.20200
H  -4.32900 17.72500 37.28100
N  -12.30600 19.17900 40.05100
C  -11.79700 20.43000 39.86000
C  -12.92600 21.38500 39.59500
C  -14.15000 20.65100 39.53600
C  -13.73400 19.24700 39.86300
C  -12.71600 22.84900 39.54300
C  -15.53100 21.12300 39.19200
O  -15.76700 22.28500 38.93900
C  -16.65300 20.14500 39.20000
N  -12.94400 16.23500 40.49000
C  -14.21500 16.74000 40.39500
C  -15.23000 15.60000 40.45200
C  -14.35300 14.31400 40.78000
C  -12.95000 14.89100 40.74000
C  -16.37800 15.89500 41.40600
C  -14.60800 13.07500 39.86000
C  -13.73900 12.98800 38.54600
N  -10.06500 15.74100 40.63400
C  -10.42500 14.43900 40.93500
C  -9.24000 13.57800 40.91700
C  -8.16100 14.47900 40.79100
C  -8.67800 15.80000 40.73100
C  -9.13500 12.08900 40.96300
C  -6.73600 14.54400 40.80300
O  -5.88100 13.61100 40.92800
C  -6.40900 16.05800 40.61100
C  -5.38700 16.50500 41.61300
O  -4.37600 17.12300 41.35100
O  -5.91100 16.37000 42.85600
C  -5.15700 16.93700 43.97300
H  -10.10200 21.85500 39.89400
H  -15.60600 18.22900 40.02700
H  -11.86800 13.05500 41.10200
H  -6.10300 19.05800 40.43100
H  -7.82600 21.23300 39.17800
H  -6.76700 20.72300 42.00100
H  -8.30300 21.49000 41.96600
H  -6.95300 22.25300 41.08500
H  -6.64200 19.90200 37.75600
H  -6.95800 18.28300 37.77700
H  -4.43900 18.77000 39.19500
H  -4.56200 19.81700 37.91200
H  -12.32200 23.20600 38.59200
H  -12.00100 23.14900 40.30900
H  -13.66000 23.34900 39.76200
H  -17.55000 20.62700 38.81000
H  -17.02500 19.73300 40.13800
H  -16.56300 19.28200 38.54100
H  -15.58300 15.51900 39.42300
H  -14.49900 13.98500 41.80900
H  -17.12500 16.13900 40.65000
H  -16.32400 16.76300 42.06300
H  -16.70100 14.99000 41.91900
H  -15.66000 13.04900 39.57400
H  -14.37500 12.23500 40.51500
H  -12.90000 12.32700 38.76200
H  -13.37700 13.98400 38.28900
H  -14.34700 12.45600 37.81400
H  -8.21900 11.69000 41.39800
H  -9.28200 11.77600 39.92900
H  -10.01100 11.76500 41.52500
H  -6.05000 16.06900 39.58200
H  -5.44500 17.97900 44.10700
H  -4.09700 16.86600 43.73000
H  -5.29800 16.39600 44.90900

