158

Mg 26.36200 50.83600 26.48500
C  24.49700 52.02700 29.25400
C  28.87700 50.03800 28.85800
C  28.05800 49.79800 24.00300
C  23.96500 52.44800 24.43900
N  26.66500 51.17700 28.81100
C  25.63000 51.29400 29.68600
C  25.96700 50.99200 31.17500
C  27.40000 50.37400 30.98100
C  27.72600 50.54700 29.41900
C  28.47400 50.95200 31.92200
C  24.85200 50.22000 32.05900
C  25.43600 49.33400 33.28200
H  24.90100 49.71900 34.72400
N  28.18700 49.93900 26.42300
C  29.12400 49.72600 27.47300
C  30.29600 49.10800 26.80300
C  29.95700 48.83800 25.46700
C  28.72800 49.56900 25.24400
C  31.49600 48.70100 27.60200
C  30.72400 47.97600 24.47200
O  30.28200 47.70600 23.33900
C  32.11000 47.39600 24.81600
N  26.17100 51.25700 24.44400
C  26.93200 50.55400 23.58600
C  26.42500 50.59900 22.20500
C  25.09600 51.42400 22.33200
C  25.07300 51.86900 23.80900
C  27.46500 51.19300 21.20100
C  23.81200 50.68000 21.88200
C  22.77200 51.49400 21.06700
N  24.66100 52.09300 26.73900
C  23.75900 52.62400 25.80600
C  22.66700 53.22600 26.46100
C  22.93600 53.07700 27.78800
C  24.11400 52.36100 27.92900
C  21.55900 53.92400 25.75800
C  22.36800 53.30400 29.14400
O  21.37600 53.92900 29.52200
C  23.42600 52.63100 30.12300
C  23.88300 53.67200 31.09300
O  24.55600 54.70900 30.81700
O  23.27600 53.41000 32.28500
C  23.34800 54.41000 33.37400
H  29.65900 49.66500 29.52300
H  28.68100 49.39100 23.20300
H  23.22100 52.81500 23.72800
H  26.09700 51.92000 31.73100
H  27.44700 49.30300 31.17600
H  29.26800 51.39900 31.32400
H  28.98600 50.15500 32.46200
H  28.09800 51.64700 32.67400
H  24.27400 49.56700 31.40400
H  24.06300 50.83200 32.49600
H  26.51800 49.29900 33.15700
H  25.04500 48.32300 33.16200
H  31.34200 48.96400 28.64900
H  32.35400 49.24000 27.20000
H  31.71500 47.63500 27.55400
H  32.72800 48.06200 25.41900
H  32.59500 46.98400 23.93200
H  31.89200 46.59400 25.52100
H  26.29400 49.57900 21.84400
H  25.21700 52.38500 21.83300
H  28.31800 51.48600 21.81400
H  27.08300 52.08600 20.70500
H  27.67900 50.41100 20.47300
H  23.28400 50.29900 22.75600
H  24.01100 49.85200 21.20200
H  21.80000 51.33400 21.53400
H  22.83100 51.11900 20.04600
H  23.03900 52.54900 21.00700
H  21.18400 53.29100 24.95400
H  21.84000 54.91300 25.39500
H  20.70200 54.12200 26.40300
H  22.87300 51.83600 30.62400
H  23.76000 55.36200 33.04000
H  24.08500 54.11500 34.12100
H  22.40600 54.67800 33.85200
Mg 5.32100 54.78900 40.41000
C  4.76200 51.28300 40.30800
C  8.60500 54.08500 39.56200
C  5.74000 57.98700 40.16600
C  1.89900 55.16100 40.99200
N  6.54300 52.92100 39.94100
C  6.05300 51.61100 39.85500
C  7.17900 50.63500 39.42200
C  8.44300 51.51600 39.53000
C  7.84600 52.95200 39.72400
C  9.44900 50.99600 40.56600
C  7.04300 49.91400 38.01200
C  6.15900 50.66500 36.98900
H  6.87900 51.31900 35.85700
N  7.03700 55.90500 39.96300
C  8.27700 55.45500 39.65300
C  9.12400 56.61200 39.49000
C  8.32800 57.79000 39.74400
C  6.92700 57.24100 39.88800
C  10.65900 56.51300 39.25600
C  8.86700 59.17900 39.63200
O  10.06100 59.42000 39.45700
C  7.96600 60.32200 39.82800
N  4.01700 56.39200 40.52200
C  4.43300 57.65300 40.49200
C  3.29100 58.66700 40.80500
C  2.04700 57.72100 40.89400
C  2.69300 56.35100 40.80100
C  3.56300 59.48900 42.07800
C  0.93100 57.74700 39.78700
C  -0.52200 57.78500 40.17100
N  3.58700 53.52700 40.59300
C  2.35700 53.79400 40.96000
C  1.60600 52.57600 41.13600
C  2.51300 51.59600 41.02900
C  3.70700 52.16700 40.64500
C  0.09000 52.46300 41.22200
C  2.77000 50.14400 41.09900
O  2.01700 49.24000 41.37500
C  4.26800 49.96500 40.61800
C  4.08500 49.23500 39.35700
O  3.56500 49.73000 38.35400
O  4.55000 47.92500 39.53700
C  4.29600 46.94000 38.45800
H  9.66000 53.90800 39.34700
H  5.79100 59.07700 40.17100
H  0.84100 55.33000 41.20200
H  7.19800 49.88800 40.21600
H  8.98900 51.51800 38.58700
H  10.46300 50.86300 40.18800
H  9.21100 50.09700 41.13400
H  9.53600 51.74200 41.35600
H  6.61100 48.91900 38.11300
H  7.99700 49.85200 37.48800
H  5.55000 51.45700 37.42500
H  5.46400 49.99200 36.48800
H  11.07300 57.06600 38.41200
H  10.92400 55.46400 39.12700
H  11.04600 56.82900 40.22500
H  8.45100 61.29700 39.77700
H  7.45100 60.24500 40.78600
H  7.32800 60.33400 38.94500
H  3.11900 59.27900 39.92000
H  1.62600 57.61900 41.89400
H  2.72500 59.40100 42.77000
H  3.54900 60.54600 41.81400
H  4.45900 59.25100 42.65100
H  1.06900 56.95200 39.05300
H  1.06900 58.62000 39.15000
H  -0.61400 58.11700 41.20500
H  -1.17100 56.91700 40.05500
H  -0.96700 58.58500 39.57900
H  -0.41300 53.37500 40.90100
H  -0.11100 52.34300 42.28700
H  -0.36900 51.63200 40.68700
H  4.91500 49.54100 41.38600
H  4.51400 47.36900 37.48000
H  3.30600 46.49900 38.34200
H  4.94300 46.09500 38.69300

