158

Mg -1.46800 18.14100 26.80500
C  -2.07900 15.82200 29.57600
C  -1.95500 20.67000 29.00800
C  -1.55800 20.00100 24.13700
C  -1.58000 15.13300 24.72700
N  -2.02600 18.13000 29.05200
C  -1.99500 17.17500 30.00900
C  -2.07800 17.75800 31.42900
C  -1.99100 19.30200 31.15600
C  -2.03900 19.39000 29.63600
C  -3.08700 20.19200 31.73700
C  -0.97900 17.15900 32.43200
C  -0.64500 17.98800 33.71700
H  -0.75800 17.40900 35.18300
N  -1.72800 20.14500 26.65000
C  -1.90500 21.04100 27.61900
C  -1.89000 22.37300 26.98300
C  -1.87900 22.13700 25.59300
C  -1.74300 20.70400 25.37000
C  -2.00200 23.67900 27.72400
C  -1.90300 23.08500 24.45600
O  -2.09100 22.78600 23.28000
C  -1.70300 24.50300 24.76800
N  -1.63100 17.67100 24.70100
C  -1.45200 18.65800 23.82400
C  -1.52500 18.11500 22.37300
C  -1.64400 16.54100 22.56900
C  -1.57900 16.41500 24.11900
C  -2.77300 18.74900 21.64100
C  -0.56900 15.70900 21.68800
C  0.89800 15.77900 21.98500
N  -1.73700 15.98800 27.01500
C  -1.72300 14.89400 26.08800
C  -1.75100 13.68800 26.78900
C  -1.86300 14.00200 28.08700
C  -1.95500 15.37700 28.22200
C  -1.82200 12.29900 26.16300
C  -1.89600 13.35800 29.38500
O  -1.75800 12.16900 29.70700
C  -2.20700 14.50300 30.39600
C  -1.12100 14.27600 31.42500
O  0.02400 14.56000 31.27700
O  -1.56700 13.61400 32.51900
C  -0.58400 13.32000 33.64300
H  -2.15200 21.42800 29.76900
H  -1.46600 20.61700 23.24000
H  -1.71500 14.26300 24.08100
H  -3.03100 17.50100 31.89200
H  -1.02900 19.74700 31.41000
H  -2.51500 20.97000 32.24400
H  -3.70100 19.58400 32.40100
H  -3.85600 20.63800 31.10700
H  -0.05200 16.97800 31.88800
H  -1.44300 16.28400 32.88800
H  -1.42100 18.75300 33.67600
H  0.26400 18.57500 33.58800
H  -1.06900 24.24000 27.66100
H  -2.26400 23.54500 28.77300
H  -2.83700 24.25500 27.32600
H  -2.50600 25.02800 25.28500
H  -1.61000 24.89600 23.75600
H  -0.80000 24.55800 25.37600
H  -0.52800 18.30300 21.97500
H  -2.59000 16.20800 22.14000
H  -3.48700 17.96300 21.39400
H  -2.39800 19.17500 20.71000
H  -3.15400 19.51600 22.31500
H  -0.86900 16.05900 20.70000
H  -0.95500 14.69700 21.80700
H  1.14300 16.61100 22.64500
H  1.57800 15.98100 21.15800
H  1.33200 14.87100 22.40400
H  -1.06600 12.32600 25.37700
H  -2.80200 12.04900 25.75700
H  -1.39400 11.63200 26.91000
H  -3.10800 14.39600 30.99900
H  -0.97400 13.76500 34.55900
H  0.36400 13.85300 33.71000
H  -0.57300 12.26800 33.93000
Mg 9.06200 48.70900 26.21600
C  6.89000 49.00400 28.91900
C  11.65500 49.70800 28.44200
C  11.29500 48.81000 23.65600
C  6.48400 48.40300 24.02600
N  9.18400 49.47200 28.35300
C  8.23800 49.25400 29.27900
C  8.68400 49.53700 30.74900
C  10.07900 50.20000 30.44400
C  10.37200 49.71200 28.98300
C  10.32300 51.68900 30.65600
C  8.64900 48.26000 31.70300
C  9.69000 47.97300 32.83000
H  9.13500 47.65500 34.23600
N  11.19300 49.07500 26.06300
C  12.05600 49.42800 27.13900
C  13.42100 49.50800 26.61800
C  13.31400 49.10800 25.23100
C  11.88400 49.05300 24.89600
C  14.64400 49.69900 27.41500
C  14.39900 48.72600 24.15900
O  14.16000 48.51000 22.96500
C  15.81000 48.68000 24.64900
N  8.99100 48.48600 24.23100
C  9.97200 48.57800 23.37800
C  9.56900 48.59900 21.84100
C  8.04800 48.28600 22.02500
C  7.76500 48.40700 23.53300
C  9.81300 49.96600 21.03400
C  7.62900 46.99700 21.43700
C  6.95000 46.98200 20.03600
N  7.07000 48.67100 26.40600
C  6.07600 48.51100 25.40400
C  4.74200 48.72600 26.03000
C  4.98700 48.78500 27.45000
C  6.42100 48.80900 27.59100
C  3.39800 48.70800 25.27600
C  4.37900 48.79500 28.72200
O  3.20900 48.68000 29.04500
C  5.64500 48.87000 29.73400
C  5.74200 47.44600 30.32100
O  6.08700 46.48800 29.66300
O  5.38900 47.43500 31.64300
C  5.76500 46.28100 32.46700
H  12.47200 50.01600 29.09700
H  11.98500 48.90200 22.81500
H  5.68300 48.26200 23.29700
H  8.07100 50.33500 31.16900
H  10.95300 49.86800 31.00400
H  9.56700 52.08600 31.33300
H  10.11500 52.15000 29.69100
H  11.34700 51.84100 30.99700
H  8.41100 47.37500 31.11400
H  7.71200 48.45700 32.22500
H  10.27300 48.88600 32.94600
H  10.42200 47.25500 32.46000
H  14.40900 50.02800 28.42700
H  15.38900 50.37600 26.99900
H  15.13200 48.72500 27.38500
H  16.55300 48.51500 23.86800
H  15.89100 47.86900 25.37200
H  16.13700 49.56800 25.18900
H  10.12700 47.74900 21.45000
H  7.37300 48.98500 21.53100
H  10.40400 50.67200 21.61800
H  8.89200 50.44000 20.69600
H  10.39500 49.76700 20.13400
H  6.92900 46.50800 22.11400
H  8.50100 46.34300 21.41800
H  6.11800 46.28100 20.10800
H  7.67000 46.46100 19.40500
H  6.49800 47.89900 19.65700
H  3.52100 49.30000 24.36900
H  2.60700 48.88100 26.00500
H  3.33700 47.71400 24.83300
H  5.36700 49.51500 30.56700
H  6.60300 45.77400 31.98900
H  4.93700 45.59700 32.65300
H  6.15800 46.60000 33.43300

