158

Mg 16.55200 -2.03400 28.29200
C  15.70600 0.00700 31.04200
C  18.49900 -3.94000 30.29000
C  17.66300 -3.46200 25.53600
C  14.92900 0.43500 26.31400
N  17.27300 -1.83200 30.31400
C  16.73200 -0.96700 31.27400
C  17.28600 -1.31700 32.72500
C  18.46400 -2.26000 32.35600
C  18.03600 -2.74400 30.92500
C  19.93700 -1.67100 32.47300
C  16.23200 -1.98200 33.68400
C  16.23200 -1.69100 35.20600
H  17.40000 -0.90400 35.79100
N  17.82000 -3.53900 27.96500
C  18.48500 -4.30100 28.92900
C  19.03900 -5.44700 28.28900
C  18.85000 -5.26600 26.90300
C  18.00300 -4.10800 26.74100
C  19.85100 -6.46900 29.20900
C  19.43000 -6.18500 25.74000
O  19.29200 -5.94800 24.51200
C  20.18500 -7.33300 26.15200
N  16.58900 -1.36600 26.28400
C  17.09300 -2.16800 25.33200
C  16.82300 -1.64200 23.93400
C  15.76100 -0.50400 24.20000
C  15.79800 -0.43900 25.71600
C  18.08600 -1.16300 23.26100
C  14.38100 -0.76200 23.48400
C  13.96100 0.39800 22.48800
N  15.37900 -0.20500 28.58300
C  14.79500 0.63900 27.69700
C  13.99900 1.66700 28.41600
C  14.27400 1.42100 29.74600
C  15.25100 0.33600 29.76700
C  13.05100 2.71400 27.83300
C  14.04600 1.83200 31.12500
O  13.19800 2.56400 31.60300
C  15.00200 0.99700 32.01800
C  15.76200 1.96000 32.87500
O  16.84400 2.43200 32.65700
O  15.06200 2.21100 33.98800
C  15.58700 3.09000 35.03500
H  19.15000 -4.60300 30.86500
H  18.02200 -3.90800 24.60600
H  14.35400 1.15400 25.72600
H  17.70500 -0.38500 33.10400
H  18.51000 -3.11800 33.02700
H  19.98500 -0.63400 32.80500
H  20.25400 -1.67800 31.43100
H  20.66800 -2.26700 33.01900
H  16.09900 -3.04600 33.48800
H  15.27700 -1.69700 33.24400
H  16.25900 -2.65700 35.70900
H  15.28900 -1.16200 35.34500
H  20.09400 -6.18200 30.23100
H  20.81700 -6.66700 28.74500
H  19.29400 -7.39800 29.33100
H  19.62800 -8.01400 26.79500
H  21.07700 -7.05700 26.71500
H  20.54100 -7.74600 25.20800
H  16.33600 -2.42700 23.35500
H  16.12600 0.44100 23.79700
H  18.56600 -0.26700 23.65500
H  18.11300 -1.09200 22.17300
H  18.89000 -1.87800 23.43500
H  13.58800 -1.00100 24.19300
H  14.50300 -1.60200 22.80100
H  12.90100 0.61200 22.35500
H  14.33100 0.09900 21.50800
H  14.51500 1.28400 22.79800
H  13.52600 3.47500 27.21500
H  12.63700 3.27900 28.66800
H  12.28000 2.19600 27.26200
H  14.30000 0.38000 32.57800
H  16.62800 2.89800 35.29500
H  14.95700 2.77500 35.86700
H  15.44100 4.14600 34.80800
Mg 9.43100 48.77700 26.06900
C  7.32500 48.68100 28.84800
C  11.81000 50.14600 27.95200
C  11.09300 49.04600 23.32000
C  6.41600 48.10500 24.13600
N  9.35900 49.52800 28.12300
C  8.54200 49.22600 29.13800
C  9.03800 49.67300 30.50700
C  10.36100 50.31800 30.13700
C  10.60600 49.94600 28.63300
C  10.44900 51.84700 30.40200
C  9.22900 48.61800 31.66100
C  8.25500 48.86500 32.78200
H  8.80100 49.65100 33.96800
N  11.27100 49.36500 25.74900
C  12.18600 49.83700 26.62500
C  13.47900 49.76900 25.94800
C  13.27800 49.48200 24.55400
C  11.84700 49.30100 24.50400
C  14.73500 50.00200 26.75000
C  14.23000 49.38700 23.37200
O  13.87500 49.36100 22.17800
C  15.76300 49.56500 23.58400
N  8.81200 48.79100 24.04800
C  9.71300 48.90100 23.05000
C  9.20900 48.60100 21.63500
C  7.71100 48.17400 22.02900
C  7.61500 48.40700 23.50800
C  9.28300 49.73100 20.55800
C  7.29400 46.70000 21.57100
C  7.43100 45.55600 22.52400
N  7.28600 48.45400 26.39500
C  6.20300 48.17500 25.56600
C  5.03900 47.92800 26.29400
C  5.47300 48.06100 27.63800
C  6.81900 48.44000 27.60900
C  3.66200 47.53600 25.71600
C  4.94600 48.14600 28.99200
O  3.81100 47.94300 29.39900
C  6.20400 48.44800 29.86200
C  6.38200 47.15400 30.58500
O  7.07000 46.22500 30.17600
O  5.73800 47.08500 31.83500
C  6.04400 45.83300 32.59200
H  12.60200 50.57100 28.57200
H  11.62600 48.88800 22.38000
H  5.60400 47.71900 23.51600
H  8.32000 50.43900 30.80000
H  11.17400 49.94300 30.75800
H  9.65500 52.12100 31.09700
H  10.27100 52.37700 29.46600
H  11.44100 52.15700 30.72900
H  10.21500 48.55900 32.12200
H  8.99700 47.65300 31.20900
H  7.84600 47.91300 33.12200
H  7.38600 49.30700 32.29600
H  14.54500 49.80800 27.80600
H  15.01000 51.01900 26.47000
H  15.67200 49.48400 26.54300
H  15.86800 48.83700 24.38800
H  16.02200 50.58700 23.86300
H  16.33700 49.30900 22.69400
H  9.63500 47.71200 21.17000
H  6.98400 48.82800 21.55000
H  9.65300 50.68200 20.94100
H  8.27700 49.93500 20.19300
H  9.94500 49.41300 19.75200
H  7.63800 46.44000 20.56900
H  6.23100 46.79500 21.35300
H  8.18000 45.67500 23.30600
H  7.57900 44.66100 21.91900
H  6.45200 45.30800 22.93500
H  3.68900 47.19800 24.68000
H  3.04300 48.43300 25.69400
H  3.18400 46.85700 26.42200
H  6.00500 49.15600 30.66600
H  5.41500 45.06900 32.13600
H  5.69600 45.95300 33.61800
H  7.08000 45.50600 32.68400

