158

Mg 41.38000 7.44500 29.89600
C  42.94000 9.05400 32.46700
C  38.88900 6.55400 32.08900
C  39.89100 5.74000 27.36400
C  44.18100 8.10700 27.74200
N  41.03100 7.80000 32.04700
C  41.74800 8.56100 32.87800
C  41.10000 8.64300 34.22100
C  39.93000 7.59100 34.15300
C  39.87800 7.30700 32.67500
C  40.01900 6.26700 35.11000
C  40.57300 10.08000 34.74200
C  39.98100 9.99700 36.18500
H  40.50700 10.93300 37.28600
N  39.54800 6.51800 29.72000
C  38.66500 6.19300 30.77000
C  37.50900 5.55900 30.20100
C  37.72600 5.39200 28.77100
C  39.09600 5.88500 28.54200
C  36.36600 5.24000 31.11100
C  36.76700 4.85700 27.71100
O  37.01500 4.72100 26.53500
C  35.32600 4.49500 28.20600
N  41.94900 7.03400 27.77800
C  41.18100 6.26100 27.00400
C  41.71800 6.10800 25.59600
C  43.13200 6.83700 25.67900
C  43.09200 7.38100 27.13200
C  41.76100 4.65500 25.10000
C  43.35200 8.00300 24.64800
C  42.79800 9.38600 25.13700
N  43.11200 8.39900 30.02000
C  44.12100 8.64000 29.02400
C  45.18100 9.43300 29.61100
C  44.74400 9.64500 30.98700
C  43.52400 8.97200 31.16200
C  46.46600 9.84200 29.02000
C  45.10000 10.25100 32.24300
O  46.04800 10.96900 32.50400
C  43.96600 9.87400 33.27200
C  44.58500 9.19200 34.40500
O  45.22100 8.11600 34.34000
O  44.28900 9.77800 35.58500
C  44.81000 9.16400 36.81100
H  38.22700 6.17900 32.87300
H  39.37600 5.11400 26.63100
H  45.02200 8.41600 27.11800
H  41.75800 8.27900 35.01000
H  38.94700 8.05700 34.20900
H  40.65100 6.49100 35.97000
H  40.36500 5.40900 34.53400
H  39.04200 6.10600 35.56500
H  39.67500 10.39700 34.21200
H  41.32900 10.86300 34.69100
H  40.20700 9.01500 36.60100
H  38.89200 10.04000 36.14400
H  35.81700 6.18000 31.18000
H  36.70300 4.87300 32.08100
H  35.69300 4.50000 30.67800
H  34.82000 5.27600 28.77300
H  35.60400 3.63200 28.81000
H  34.72700 4.10000 27.38500
H  41.12300 6.76500 24.96000
H  43.84900 6.02000 25.61000
H  42.73000 4.20000 24.89500
H  41.10400 4.51900 24.24100
H  41.49000 3.93200 25.86900
H  42.90100 7.78100 23.68100
H  44.42200 8.16500 24.51500
H  42.43000 9.82900 24.21200
H  43.64000 10.04300 25.35300
H  41.99300 9.49300 25.86400
H  46.34200 10.67600 28.33000
H  47.03500 8.98500 28.65900
H  46.99500 10.34700 29.82900
H  43.53300 10.81100 33.62200
H  43.90100 9.01900 37.39500
H  45.52800 9.85500 37.25400
H  45.24100 8.17300 36.67200
Mg 30.57500 59.80500 39.67800
C  27.76000 58.07900 38.74200
C  32.44800 56.84900 39.00800
C  33.40300 61.67900 39.65800
C  28.63000 62.64600 39.85900
N  30.10600 57.70800 38.94700
C  28.92200 57.27500 38.59200
C  28.94400 55.83100 38.10000
C  30.43100 55.38200 38.30200
C  31.06500 56.72400 38.84100
C  30.61300 54.15200 39.21700
C  28.55300 55.68900 36.52100
C  27.38300 54.72100 36.06100
H  26.69400 55.06000 34.76500
N  32.66900 59.31100 39.44500
C  33.21200 58.04100 39.20400
C  34.64200 58.16000 39.16100
C  34.90200 59.53500 39.28100
C  33.60100 60.24600 39.35700
C  35.46700 56.94100 38.99400
C  36.31300 60.23200 39.21600
O  37.35600 59.57200 39.02700
C  36.55800 61.68200 39.35700
N  30.98800 62.04000 39.61000
C  32.26100 62.47400 39.75800
C  32.13200 64.03700 39.92700
C  30.64000 64.35800 40.13800
C  30.00500 62.95200 39.90700
C  33.18500 64.62600 40.99500
C  30.01400 65.39900 39.18200
C  29.16800 66.51400 39.78100
N  28.51700 60.27400 39.54500
C  27.89500 61.45200 39.60800
C  26.46500 61.27600 39.52000
C  26.33400 59.91400 39.19300
C  27.59500 59.41300 39.16200
C  25.35100 62.27400 39.49500
C  25.35000 58.90200 38.77400
O  24.12400 59.04500 38.66900
C  26.30600 57.63100 38.45400
C  25.93300 56.47500 39.40300
O  26.42900 56.26000 40.51300
O  24.80900 55.82300 38.87900
C  24.04200 54.98400 39.74700
H  33.04900 55.95800 38.81500
H  34.28900 62.31400 39.58300
H  28.04100 63.51400 40.16200
H  28.26700 55.17100 38.64200
H  30.87200 55.19400 37.32300
H  31.19800 53.43800 38.63800
H  29.66800 53.66900 39.46400
H  31.22400 54.28600 40.11000
H  29.40900 55.28500 35.98100
H  28.42000 56.70700 36.15300
H  26.57300 54.55200 36.77200
H  27.71600 53.68300 36.06800
H  36.54300 57.11500 38.98000
H  35.12200 56.21300 38.25900
H  35.29000 56.36300 39.90100
H  37.63400 61.83100 39.26500
H  36.19500 62.12300 40.28600
H  36.20900 62.21600 38.47300
H  32.37700 64.60500 39.02900
H  30.37100 64.62400 41.16100
H  33.93800 65.22100 40.47800
H  33.64300 63.89400 41.66000
H  32.55600 65.32100 41.55000
H  29.34800 64.83500 38.52900
H  30.73000 65.77800 38.45200
H  29.87900 67.34000 39.78900
H  28.86200 66.16800 40.76800
H  28.32500 66.71000 39.11800
H  24.47900 61.77700 39.92100
H  24.98600 62.43100 38.48000
H  25.62100 63.14300 40.09500
H  26.14500 57.27000 37.43800
H  23.32100 55.65400 40.21400
H  24.72700 54.62600 40.51600
H  23.57600 54.12200 39.27000

