158

Mg 49.44800 45.67400 42.76300
C  45.94500 45.60700 42.13400
C  49.50900 42.30400 41.87200
C  52.71500 45.82300 42.55700
C  49.21300 49.04700 43.22000
N  47.86300 44.14300 42.10100
C  46.50600 44.33200 41.96200
C  45.73800 42.94200 41.77500
C  46.92500 41.95800 41.87500
C  48.17800 42.85900 41.96200
C  46.95700 40.91700 43.08200
C  44.96200 42.75800 40.44100
C  45.60800 43.36400 39.25300
H  45.63500 42.56600 37.94500
N  50.91600 44.21600 42.36900
C  50.73600 42.92100 42.08400
C  52.02200 42.28400 41.88500
C  53.02600 43.27100 42.11300
C  52.26400 44.53000 42.32000
C  52.23800 40.79200 41.43100
C  54.52200 43.03200 41.83200
O  54.92700 41.89100 41.79900
C  55.39800 44.22500 41.53900
N  50.71100 47.33900 42.71000
C  52.04400 47.05500 42.85600
C  52.81000 48.29900 43.30800
C  51.75300 49.36600 43.41400
C  50.46500 48.56900 43.15000
C  53.64500 48.17700 44.60800
C  52.00600 50.65800 42.52100
C  51.69100 52.04200 43.21800
N  47.87100 47.10100 42.69000
C  47.93700 48.43600 42.88500
C  46.59700 48.99700 42.77100
C  45.75300 47.87500 42.50900
C  46.62300 46.79700 42.37600
C  46.11900 50.41000 42.90500
C  44.35300 47.38300 42.32000
O  43.30400 47.93300 42.24500
C  44.46500 45.85700 42.14000
C  43.70800 45.11200 43.14200
O  42.80600 44.32000 42.91300
O  44.26900 45.38000 44.40700
C  43.67000 44.47900 45.47000
H  49.52700 41.22100 41.73100
H  53.80100 45.91200 42.62300
H  49.14700 50.13000 43.34200
H  45.00200 42.68800 42.53700
H  47.06200 41.46400 40.91300
H  46.10700 41.04700 43.75200
H  47.93500 40.85000 43.55800
H  46.85900 39.91500 42.66300
H  43.99100 43.22800 40.59100
H  44.87900 41.69400 40.21700
H  46.65400 43.54300 39.50400
H  45.00400 44.23900 39.01400
H  52.99900 40.88800 40.65600
H  51.35100 40.27300 41.06700
H  52.71700 40.20100 42.21100
H  55.54100 44.74700 42.48500
H  54.93900 44.95200 40.86800
H  56.32900 43.94300 41.04700
H  53.53200 48.35300 42.49400
H  51.74700 49.55800 44.48700
H  53.30600 47.38100 45.27200
H  53.80400 49.14900 45.07500
H  54.59900 47.85400 44.19300
H  51.32300 50.58200 41.67400
H  53.03300 50.72800 42.16400
H  51.19500 52.64500 42.45700
H  52.63200 52.48900 43.54000
H  51.15700 52.10600 44.16600
H  45.04500 50.51400 43.05900
H  46.44800 51.03000 42.07100
H  46.67900 50.81900 43.74600
H  43.90100 45.62100 41.23800
H  43.36200 43.49000 45.13300
H  42.85200 45.03500 45.92800
H  44.43500 44.26200 46.21600
Mg 29.92900 57.74100 41.07500
C  27.09500 55.77300 40.14300
C  31.89000 55.26600 39.55200
C  32.46100 59.84700 41.38000
C  27.66300 60.34500 41.93100
N  29.57000 55.69400 40.05500
C  28.31200 55.09100 39.81400
C  28.45500 53.71400 39.21300
C  29.96800 53.63100 38.93300
C  30.52700 54.87200 39.60300
C  30.60400 52.21900 39.23200
C  27.53200 53.52900 37.90100
C  27.40900 54.79200 36.95200
H  27.73700 54.68300 35.47600
N  31.88300 57.52500 40.70200
C  32.50500 56.47600 40.07100
C  33.97300 56.75600 40.03300
C  34.14700 58.01000 40.59800
C  32.76500 58.55200 40.87900
C  34.91700 55.68800 39.60300
C  35.48700 58.68700 40.83100
O  36.51900 58.06800 40.57600
C  35.68800 60.13700 41.23800
N  30.03900 59.81800 41.56800
C  31.20600 60.40100 41.70700
C  31.04000 61.89700 41.82900
C  29.57300 62.05500 42.26100
C  29.02100 60.64300 41.87400
C  32.02100 62.70200 42.69800
C  28.88000 63.36700 41.63600
C  27.97600 64.22100 42.58800
N  27.82700 58.01600 41.07700
C  27.06100 59.12200 41.49900
C  25.66600 58.80900 41.25400
C  25.66500 57.45900 40.89000
C  26.98800 57.06000 40.72700
C  24.47900 59.71200 41.36700
C  24.76200 56.46600 40.46100
O  23.52100 56.45000 40.44400
C  25.64900 55.25900 39.94400
C  25.38200 54.15700 40.84600
O  25.73000 54.15500 42.03900
O  24.82000 53.08800 40.23300
C  24.57900 51.88100 41.07800
H  32.59800 54.57700 39.08600
H  33.30800 60.53600 41.34900
H  27.00700 61.20200 42.09700
H  28.19200 53.02000 40.01100
H  30.07000 53.71200 37.85100
H  30.19800 51.56600 38.45900
H  30.22800 51.80400 40.16800
H  31.68900 52.30100 39.18000
H  26.52000 53.29200 38.22700
H  27.87000 52.72400 37.24900
H  28.22300 55.42500 37.30400
H  26.49200 55.38200 36.93700
H  35.96900 55.97500 39.58500
H  34.66800 55.25800 38.63200
H  34.81800 54.87600 40.32300
H  35.36700 60.73600 40.38600
H  36.75200 60.37000 41.27800
H  35.17200 60.35600 42.17200
H  31.21600 62.31000 40.83600
H  29.67600 62.07800 43.34600
H  32.29100 63.65800 42.24900
H  32.97100 62.18100 42.81400
H  31.72600 62.86000 43.73500
H  28.21500 63.12200 40.80800
H  29.69200 63.97300 41.23400
H  27.02100 64.42800 42.10400
H  28.51200 65.14300 42.81000
H  27.70900 63.69500 43.50400
H  24.23500 60.13300 40.39200
H  24.66100 60.48300 42.11600
H  23.65700 59.05100 41.64200
H  25.46400 55.07700 38.88500
H  25.29200 51.07100 40.92300
H  23.58800 51.47000 40.88500
H  24.61900 52.01600 42.15900

