158

Mg 8.48200 3.39500 27.78500
C  9.96200 1.95100 30.72200
C  6.48200 5.09800 30.17400
C  7.06200 4.68700 25.28600
C  10.40300 1.33900 25.84500
N  8.13200 3.30200 30.29300
C  8.92200 2.73300 31.22100
C  8.44800 3.02700 32.63100
C  7.34200 4.10800 32.34000
C  7.28300 4.11400 30.85600
C  5.86100 3.71300 32.94500
C  9.55800 3.39100 33.60800
C  9.26900 4.53400 34.60400
H  9.97000 4.29800 35.96100
N  6.94200 4.66600 27.70500
C  6.27300 5.27300 28.78500
C  5.31500 6.27000 28.19100
C  5.57500 6.27800 26.80100
C  6.55600 5.14100 26.58000
C  4.29400 7.12700 28.96700
C  5.04900 7.15100 25.72400
O  5.49700 7.18300 24.54300
C  3.88100 7.98600 26.01600
N  8.59500 2.95400 25.74900
C  7.93500 3.70000 24.88600
C  8.34800 3.36400 23.45900
C  9.58600 2.47000 23.70500
C  9.49300 2.17200 25.19500
C  7.20400 2.56500 22.66500
C  10.88700 3.14100 23.32600
C  11.72300 3.92100 24.32400
N  9.81700 1.90700 28.12600
C  10.49500 1.11400 27.21400
C  11.43000 0.26600 27.83600
C  11.28300 0.57500 29.21700
C  10.28900 1.58800 29.37500
C  12.30700 -0.83900 27.26100
C  11.77900 0.21000 30.52200
O  12.72700 -0.50900 30.77400
C  10.91300 1.10500 31.53600
C  10.09000 0.16700 32.30200
O  9.17800 -0.45800 31.89600
O  10.49900 0.18200 33.61000
C  9.82200 -0.67100 34.58100
H  5.87100 5.78500 30.76400
H  6.64800 5.12800 24.37800
H  11.16400 0.86200 25.22400
H  8.10200 2.02200 32.87300
H  7.58100 5.11600 32.67900
H  5.18500 3.21900 32.24700
H  5.44600 4.66100 33.28700
H  5.91800 3.09000 33.83700
H  10.42800 3.53900 32.96900
H  9.65300 2.53500 34.27700
H  8.18900 4.64700 34.70100
H  9.69000 5.47400 34.24700
H  3.33800 6.60800 28.90000
H  4.30700 8.15000 28.59300
H  4.52200 7.24700 30.02700
H  3.58800 8.40200 25.05200
H  4.27600 8.81400 26.60500
H  3.11400 7.44800 26.57400
H  8.54000 4.20600 22.79400
H  9.66300 1.52800 23.16200
H  6.40800 2.59000 23.40900
H  7.31800 1.51400 22.39900
H  6.86200 3.17900 21.83200
H  10.69800 3.85400 22.52400
H  11.53700 2.39600 22.86600
H  11.15500 4.35800 25.14400
H  12.30100 4.71000 23.84400
H  12.38100 3.09500 24.59500
H  12.20600 -1.64700 27.98600
H  13.35500 -0.57600 27.39900
H  12.06300 -1.18400 26.25600
H  11.58900 1.64300 32.20100
H  9.53900 -0.01900 35.40700
H  10.48200 -1.34900 35.12200
H  8.93500 -1.08400 34.09900
Mg -11.25800 17.37100 41.47800
C  -7.92400 16.51100 41.90800
C  -10.29900 20.62800 40.98400
C  -14.48000 18.13600 40.68900
C  -12.07300 13.84800 41.42200
N  -9.32000 18.33800 41.31200
C  -8.06600 17.82200 41.57800
C  -7.02700 18.86800 41.27200
C  -7.81300 20.24100 41.47400
C  -9.22500 19.71200 41.19700
C  -7.75400 20.98400 42.85100
C  -6.37000 18.72700 39.84100
C  -4.84800 18.42800 39.70800
H  -4.51500 17.09000 38.96600
N  -12.30400 19.13900 40.93400
C  -11.67900 20.33900 40.81400
C  -12.64400 21.24800 40.42900
C  -13.92400 20.60000 40.43800
C  -13.66700 19.22800 40.74100
C  -12.32600 22.71000 40.16500
C  -15.26400 21.22600 40.05300
O  -15.39100 22.42800 39.68900
C  -16.61900 20.44600 40.11600
N  -12.94300 16.18500 41.04400
C  -14.18200 16.76600 40.78800
C  -15.21100 15.62500 40.54900
C  -14.36400 14.31900 40.56500
C  -13.07400 14.79900 41.10500
C  -16.29400 15.46900 41.64600
C  -14.08900 13.66900 39.12800
C  -14.58000 12.15400 38.94800
N  -10.28500 15.48000 41.78100
C  -10.70800 14.14800 41.73700
C  -9.59200 13.31500 42.01100
C  -8.43100 14.15100 42.13200
C  -8.93900 15.47400 41.92800
C  -9.65500 11.84600 42.24700
C  -6.97700 14.24700 42.39700
O  -6.21000 13.29500 42.70400
C  -6.58800 15.74900 42.25600
C  -5.99400 16.13400 43.58500
O  -6.63600 16.06900 44.65400
O  -4.61100 16.17600 43.57400
C  -3.85100 16.09600 44.76800
H  -10.02700 21.68500 40.98200
H  -15.48300 18.33500 40.30600
H  -12.36100 12.79500 41.39500
H  -6.25200 18.74500 42.02800
H  -7.28400 20.96200 40.85000
H  -7.11800 20.53700 43.61500
H  -8.73900 21.04800 43.31500
H  -7.45800 22.03100 42.78200
H  -6.52100 19.65500 39.28900
H  -6.88200 17.89900 39.35200
H  -4.41900 18.44600 40.71000
H  -4.32800 19.25200 39.22000
H  -11.77300 22.88000 39.24100
H  -11.72600 23.17800 40.94500
H  -13.26600 23.26000 40.11100
H  -17.33900 21.26200 40.18500
H  -16.62000 19.89800 41.05800
H  -17.04300 19.88700 39.28100
H  -15.66100 15.85100 39.58200
H  -14.73400 13.53400 41.22500
H  -16.94700 16.33700 41.73100
H  -15.90600 15.24800 42.64000
H  -16.86400 14.59000 41.34400
H  -13.03600 13.73500 38.85400
H  -14.75500 14.11800 38.39200
H  -14.95700 11.84000 37.97500
H  -15.30800 11.89000 39.71500
H  -13.69900 11.53300 39.11700
H  -8.96800 11.62200 43.06300
H  -9.25200 11.28000 41.40600
H  -10.66800 11.50500 42.45800
H  -5.70800 15.84500 41.61800
H  -2.81100 16.05900 44.44300
H  -4.09900 15.25900 45.42100
H  -4.01200 16.91900 45.46400

