158

Mg 2.34900 -2.79900 44.46700
C  5.52000 -1.39200 44.13100
C  1.22800 0.02100 42.53200
C  -0.73500 -4.13200 44.33600
C  3.69200 -5.72500 45.43900
N  3.31200 -0.95100 43.48700
C  4.62500 -0.61900 43.48800
C  4.94300 0.67700 42.71300
C  3.48100 1.24400 42.45600
C  2.65400 0.01400 42.84800
C  3.05600 2.54300 43.17000
C  5.84500 0.41200 41.46000
C  6.78700 1.56800 41.00000
H  7.67900 1.30000 39.79600
N  0.44200 -2.09400 43.66900
C  0.25600 -0.99500 42.91800
C  -1.12200 -0.93700 42.49300
C  -1.74700 -2.07900 42.99700
C  -0.68800 -2.82900 43.69700
C  -1.82000 0.22800 41.76800
C  -3.24200 -2.45100 42.88200
O  -3.97400 -1.79100 42.16100
C  -3.85800 -3.75900 43.51100
N  1.58400 -4.67300 44.71000
C  0.30000 -4.91400 44.78100
C  0.08700 -6.46200 45.01400
C  1.48300 -6.88000 45.64300
C  2.34700 -5.72400 45.18700
C  -1.22200 -6.87500 45.81700
C  2.00300 -8.31000 45.43600
C  3.02700 -8.87400 46.55600
N  4.22000 -3.50200 44.76600
C  4.61700 -4.69500 45.21700
C  6.03800 -4.61200 45.42600
C  6.44700 -3.30400 45.15000
C  5.30400 -2.67800 44.61600
C  6.84900 -5.74100 45.99000
C  7.52700 -2.32800 45.14200
O  8.71400 -2.46800 45.41700
C  6.95800 -1.03000 44.48400
C  7.12400 0.15000 45.42500
O  6.61000 0.29300 46.50800
O  8.02900 1.08500 44.83500
C  8.35200 2.25000 45.64900
H  0.93900 0.92500 41.99200
H  -1.67300 -4.68600 44.26500
H  4.11500 -6.65100 45.83500
H  5.49400 1.40700 43.30600
H  3.33200 1.47400 41.40100
H  2.01400 2.57700 43.48700
H  3.27700 3.42000 42.56000
H  3.62400 2.76200 44.07400
H  5.12300 0.31700 40.65000
H  6.31900 -0.54200 41.69300
H  7.48000 1.69800 41.83100
H  6.25500 2.50700 40.84600
H  -1.21800 1.12700 41.63600
H  -2.60100 0.60600 42.42800
H  -2.17000 -0.05200 40.77500
H  -3.65300 -4.59000 42.83700
H  -4.91800 -3.51400 43.43700
H  -3.56900 -3.91400 44.55100
H  -0.06200 -6.99100 44.07200
H  1.40100 -6.76100 46.72300
H  -1.93800 -7.47600 45.25700
H  -1.68900 -5.91000 46.01200
H  -0.93000 -7.21700 46.81000
H  2.60500 -8.29400 44.52800
H  1.17400 -9.01000 45.33800
H  2.72000 -9.82700 46.98600
H  3.27100 -8.12100 47.30600
H  3.90300 -9.06600 45.93700
H  7.02900 -6.55000 45.28300
H  6.33400 -6.07600 46.89000
H  7.74200 -5.29300 46.42600
H  7.51600 -1.01500 43.54800
H  7.43500 2.82900 45.76300
H  9.22500 2.73500 45.21100
H  8.62400 1.80700 46.60600
Mg 48.46800 35.59600 27.46800
C  46.58000 34.11200 30.08200
C  48.92200 38.30900 29.60300
C  50.12700 37.24100 25.03700
C  47.67200 33.05400 25.31600
N  47.72200 36.11600 29.63000
C  47.27100 35.23700 30.55100
C  47.43200 35.72500 31.95400
C  47.69700 37.27100 31.59700
C  48.20500 37.26600 30.17600
C  46.42200 38.13400 31.71000
C  48.65100 35.02200 32.58600
C  48.70500 34.98600 34.09900
H  47.62600 35.69500 34.83100
N  49.47000 37.47600 27.36900
C  49.52600 38.43900 28.28800
C  50.26700 39.50100 27.83700
C  50.84000 39.10300 26.59000
C  50.10500 37.94700 26.24100
C  50.47500 40.81100 28.60700
C  51.79400 39.81300 25.68900
O  52.22300 39.36400 24.65900
C  52.58400 40.98200 26.28900
N  49.06700 35.08500 25.48500
C  49.64100 35.95600 24.70500
C  49.59900 35.48600 23.23400
C  48.98400 34.09100 23.32100
C  48.54500 34.04400 24.81900
C  48.93200 36.48900 22.24200
C  50.01800 32.92700 23.15400
C  50.04000 32.11400 21.86600
N  47.35400 33.86800 27.61300
C  47.07800 32.95200 26.64500
C  46.19200 31.96000 27.22600
C  45.91500 32.37600 28.53100
C  46.70100 33.52800 28.74100
C  45.62400 30.86200 26.39900
C  45.24500 32.05300 29.75400
O  44.54800 31.08200 30.08900
C  45.55200 33.24400 30.77700
C  45.91200 32.68000 32.13200
O  46.89700 31.91200 32.38900
O  44.95300 33.06200 33.06000
C  45.08200 32.52900 34.45600
H  49.13400 39.18500 30.21900
H  50.50600 37.82300 24.19400
H  47.36900 32.28300 24.60500
H  46.52400 35.50200 32.51400
H  48.45900 37.61800 32.29500
H  45.53700 37.58600 32.03300
H  46.32300 38.66100 30.76000
H  46.71900 38.86000 32.46700
H  49.57200 35.34800 32.10200
H  48.56200 34.00900 32.19300
H  49.51800 35.60500 34.48100
H  48.84200 33.95700 34.43300
H  50.46500 41.60800 27.86400
H  51.43200 40.84900 29.12700
H  49.63600 40.93600 29.29300
H  51.90300 41.83000 26.36500
H  53.32200 41.48300 25.66200
H  53.01100 40.73900 27.26200
H  50.63800 35.43600 22.90700
H  48.04000 33.86500 22.82400
H  48.14800 36.02100 21.64700
H  49.67300 36.80600 21.50700
H  48.57400 37.34700 22.80900
H  49.96800 32.27500 24.02600
H  50.99300 33.40900 23.23000
H  49.30100 32.53200 21.18300
H  49.77600 31.06600 22.00900
H  51.02700 32.24300 21.42200
H  46.33400 30.32300 25.77200
H  44.85500 31.26600 25.74100
H  45.05000 30.18200 27.02900
H  44.64600 33.84500 30.86000
H  44.43900 31.66900 34.64400
H  44.69200 33.30900 35.10900
H  46.11300 32.35100 34.76200

