158

Mg 25.31700 1.55500 29.15800
C  27.31000 1.32800 32.13500
C  22.61300 1.84000 31.13900
C  23.71000 1.41800 26.42300
C  28.41000 0.62100 27.37900
N  25.06700 1.73900 31.38900
C  25.98700 1.72500 32.36300
C  25.31000 2.07900 33.69700
C  23.76700 2.13900 33.37500
C  23.78600 1.88100 31.88500
C  22.93900 1.09700 34.21300
C  25.92100 3.41300 34.28000
C  25.17400 4.03700 35.58600
H  26.09300 4.21500 36.86100
N  23.34200 1.67100 28.87000
C  22.34100 1.75700 29.78100
C  21.06500 1.57000 29.05400
C  21.39300 1.50800 27.61500
C  22.83700 1.49800 27.60000
C  19.76200 1.37000 29.79600
C  20.44900 1.35300 26.43900
O  20.87400 1.36300 25.28100
C  18.99400 1.14900 26.68000
N  25.92300 1.06400 27.17200
C  25.05500 1.23400 26.19500
C  25.64300 0.97900 24.80800
C  27.20600 0.88100 25.06700
C  27.23200 0.86300 26.66300
C  25.09000 -0.31400 24.13600
C  28.06500 2.03900 24.48400
C  27.56200 3.47100 24.84200
N  27.41700 1.19000 29.59800
C  28.52700 0.82800 28.78800
C  29.66100 0.65300 29.59900
C  29.24800 0.75400 30.91100
C  27.90700 1.13100 30.86800
C  31.01000 0.12300 29.12700
C  29.62400 0.69100 32.30200
O  30.69400 0.50600 32.83500
C  28.39200 1.18500 33.08000
C  28.14900 0.29700 34.26700
O  27.54600 -0.76800 34.22500
O  28.77300 0.91600 35.37200
C  28.41200 0.25800 36.64900
H  21.78200 2.16300 31.76900
H  23.18100 1.36600 25.47000
H  29.33100 0.59200 26.79400
H  25.49900 1.21200 34.33000
H  23.44700 3.16500 33.55800
H  23.06500 0.09900 33.79300
H  21.89500 1.38900 34.33000
H  23.36400 1.16900 35.21400
H  25.94200 4.14100 33.46900
H  26.93100 3.11800 34.56500
H  24.34800 3.36100 35.80600
H  24.71200 4.97600 35.27900
H  19.41200 0.41300 29.40900
H  19.04000 2.15500 29.57200
H  19.97400 1.35300 30.86500
H  18.67100 1.81300 27.48200
H  18.87200 0.13400 27.05600
H  18.34300 1.27800 25.81400
H  25.37100 1.84700 24.20700
H  27.59400 -0.11000 24.83400
H  24.00100 -0.27000 24.11900
H  25.48000 -1.27300 24.47800
H  25.48900 -0.30900 23.12200
H  28.24200 2.05100 23.40900
H  29.05800 1.88900 24.90800
H  26.59800 3.35800 25.33800
H  27.38400 3.96700 23.88700
H  28.27100 4.11900 25.35700
H  31.26300 -0.92100 29.31200
H  31.76800 0.75400 29.59100
H  31.18000 0.23600 28.05600
H  28.67900 2.19900 33.36100
H  28.42300 -0.82700 36.54700
H  27.43500 0.63100 36.95700
H  29.27600 0.57200 37.23400
Mg 16.83000 51.80100 25.79500
C  18.64400 50.11100 28.30200
C  14.77500 53.10700 28.17700
C  14.73600 52.78100 23.23700
C  18.76100 50.15500 23.44500
N  16.67700 51.57500 27.98400
C  17.53400 50.84800 28.79600
C  16.98300 50.78800 30.22200
C  15.74100 51.79500 30.23400
C  15.69000 52.19400 28.72700
C  14.44100 51.17100 30.82800
C  18.01700 51.31200 31.32100
C  17.74300 50.76300 32.72100
H  16.94400 51.60300 33.66500
N  15.12500 52.98200 25.73300
C  14.46100 53.51700 26.82900
C  13.32300 54.22300 26.39200
C  13.30000 54.20300 24.95500
C  14.41100 53.27000 24.55200
C  12.23800 54.71600 27.34800
C  12.54700 55.01200 23.92000
O  12.86600 54.98600 22.75200
C  11.40300 55.83100 24.44800
N  16.74600 51.56400 23.61100
C  15.80600 52.08900 22.84700
C  16.05300 51.63900 21.34200
C  17.51500 51.05300 21.37400
C  17.71400 50.90000 22.88600
C  15.04500 50.60300 20.77700
C  18.66500 51.80600 20.67300
C  19.90400 52.33300 21.36000
N  18.36200 50.41100 25.84500
C  19.05600 49.86700 24.78200
C  20.15900 49.03700 25.26300
C  20.04000 49.09000 26.63300
C  18.94300 49.96000 26.94000
C  21.17500 48.29800 24.39600
C  20.62500 48.65400 27.90300
O  21.62300 47.99000 28.12200
C  19.76300 49.30600 29.06500
C  19.36300 48.23300 30.06700
O  18.64100 47.33000 29.85400
O  19.97200 48.48200 31.28600
C  19.54500 47.56200 32.36000
H  14.17400 53.46400 29.01600
H  13.98400 52.87100 22.45000
H  19.51000 49.86000 22.70700
H  16.81300 49.72300 30.38500
H  15.90800 52.69100 30.83100
H  14.73400 50.32600 31.45200
H  13.74500 50.90000 30.03400
H  14.04200 51.87000 31.56300
H  18.10800 52.39700 31.36900
H  19.02500 50.89900 31.27300
H  18.70300 50.67400 33.23000
H  17.19300 49.82500 32.65900
H  11.39200 54.02800 27.36200
H  12.01200 55.77100 27.19500
H  12.56700 54.73400 28.38600
H  10.59600 56.11300 23.77200
H  11.67000 56.71300 25.03100
H  10.91700 55.26600 25.24400
H  16.02800 52.49200 20.66400
H  17.61200 50.03500 20.99800
H  14.08000 50.54000 21.28000
H  15.41900 49.59200 20.61800
H  14.85900 50.85200 19.73200
H  18.26200 52.65800 20.12600
H  19.12300 51.12500 19.95600
H  19.91400 52.24700 22.44600
H  20.00300 53.36700 21.03100
H  20.80100 51.81200 21.02500
H  20.68900 47.95800 23.48200
H  21.54200 47.40400 24.90100
H  22.06700 48.88300 24.16900
H  20.29500 50.10000 29.59100
H  18.73200 47.98100 32.95200
H  20.35900 47.51100 33.08300
H  19.33500 46.56500 31.97100

