158

Mg 34.70000 3.16600 29.44300
C  32.68700 4.33700 32.09700
C  37.30500 3.14400 31.63600
C  36.69700 2.78600 26.77900
C  31.85900 3.92300 27.31900
N  34.95600 3.60200 31.66400
C  33.95300 3.90700 32.56300
C  34.42800 3.82300 34.01000
C  36.02400 3.54100 33.83200
C  36.13800 3.49500 32.25900
C  36.85400 4.48600 34.60400
C  33.62400 2.89400 34.91600
C  33.19500 3.22600 36.37600
H  34.04200 4.34200 37.06000
N  36.67300 2.81200 29.25300
C  37.57800 2.74700 30.26100
C  38.85800 2.38400 29.76200
C  38.69400 2.26300 28.35500
C  37.33500 2.64100 28.05700
C  40.04500 2.01700 30.59100
C  39.71800 1.85800 27.24300
O  39.42300 1.74700 26.06300
C  41.17200 1.48300 27.60600
N  34.29700 3.38800 27.43200
C  35.32700 3.06300 26.49000
C  34.79700 3.06800 25.02000
C  33.25300 3.34900 25.28300
C  33.08200 3.52800 26.78000
C  35.44300 4.13100 24.14700
C  32.30600 2.13400 24.79800
C  32.12900 0.95600 25.74200
N  32.70800 3.94000 29.63500
C  31.69600 4.13600 28.70900
C  30.52500 4.67800 29.28300
C  30.86200 4.78200 30.64500
C  32.23800 4.34800 30.80500
C  29.32700 5.00400 28.68400
C  30.39100 5.15700 31.94900
O  29.34700 5.64900 32.37700
C  31.49000 4.78800 32.95700
C  31.68900 5.93500 33.98000
O  32.36000 6.96500 33.79500
O  30.82300 5.72300 34.99000
C  30.59300 6.88100 35.78200
H  37.95400 3.00800 32.50400
H  37.15000 2.40700 25.86000
H  31.03500 4.18400 26.65100
H  34.26100 4.87500 34.24000
H  36.24600 2.49100 34.02300
H  37.61700 4.94400 33.97500
H  37.39700 3.90600 35.35000
H  36.33200 5.28500 35.13100
H  34.26500 2.07000 35.23000
H  32.78100 2.45500 34.38300
H  33.40100 2.38100 37.03300
H  32.11600 3.38200 36.36800
H  39.69600 1.70500 31.57600
H  40.85600 2.74300 30.64500
H  40.48800 1.07700 30.26200
H  41.16100 0.67500 28.33800
H  41.60600 2.36300 28.08000
H  41.73700 1.17000 26.72800
H  34.84800 2.05400 24.62300
H  32.94500 4.26100 24.77100
H  35.87900 3.68200 23.25400
H  36.21000 4.50700 24.82400
H  34.80600 4.96100 23.84200
H  32.68000 1.69000 23.87500
H  31.32400 2.60100 24.71600
H  31.10200 0.83500 26.08400
H  32.78500 0.94900 26.61200
H  32.27300 -0.01500 25.26700
H  28.67100 5.41800 29.45000
H  28.75900 4.24300 28.14900
H  29.51500 5.70000 27.86600
H  31.11300 3.85300 33.37100
H  31.50600 7.22800 36.26600
H  29.86900 6.53300 36.51900
H  30.07700 7.61500 35.16300
Mg 6.57000 54.35700 41.67600
C  5.15300 51.27600 41.03100
C  9.48400 53.27900 40.23800
C  7.81500 57.53700 41.71900
C  3.42400 55.56200 42.47600
N  7.07600 52.54900 40.51100
C  6.40700 51.39300 40.47900
C  7.11700 50.36700 39.65800
C  8.66400 50.93300 39.74400
C  8.40400 52.34100 40.20300
C  9.70200 50.06600 40.52500
C  6.58600 50.30600 38.19100
C  6.41500 48.91400 37.53200
H  7.02500 48.79400 36.15900
N  8.43900 55.23100 41.17800
C  9.44900 54.63300 40.56100
C  10.49800 55.50800 40.31800
C  10.08100 56.72900 40.65300
C  8.74100 56.56400 41.27200
C  11.84700 55.09200 39.58300
C  10.94000 57.94500 40.40900
O  12.01000 57.91500 39.84100
C  10.45500 59.40000 40.74200
N  5.68400 56.29100 41.94500
C  6.46000 57.42200 42.12600
C  5.58300 58.62200 42.62600
C  4.23100 57.91600 42.95300
C  4.45300 56.54700 42.41000
C  6.28300 59.30700 43.89000
C  2.96900 58.73200 42.60600
C  1.89600 58.76600 43.70300
N  4.65300 53.58900 41.80400
C  3.48100 54.24700 42.15900
C  2.40400 53.20100 42.17300
C  2.99100 52.00400 41.84900
C  4.39300 52.34900 41.59100
C  1.01000 53.56200 42.74300
C  2.96600 50.51200 41.70900
O  2.02400 49.76200 41.94400
C  4.27000 50.08100 41.22500
C  3.91900 49.24300 40.05200
O  3.23400 49.48200 39.03800
O  4.33600 47.97600 40.38200
C  3.67600 46.83900 39.81800
H  10.45900 53.05300 39.80100
H  8.20400 58.55600 41.66600
H  2.52500 56.05900 42.84800
H  6.95300 49.40000 40.13400
H  9.04700 51.15800 38.74900
H  9.08200 49.25300 40.90300
H  10.13900 50.56500 41.39100
H  10.38200 49.56800 39.83400
H  7.22100 50.91100 37.54300
H  5.60200 50.76300 38.29000
H  5.43400 48.43800 37.50500
H  6.99200 48.17500 38.08800
H  11.68900 55.11300 38.50500
H  12.23100 54.09000 39.77300
H  12.71500 55.66500 39.91000
H  11.22900 60.13600 40.52900
H  10.14800 59.50300 41.78200
H  9.65400 59.73500 40.08300
H  5.59200 59.38900 41.85200
H  4.32200 57.72700 44.02300
H  7.33100 59.00800 43.92400
H  5.80600 59.10500 44.84900
H  6.19600 60.35400 43.60200
H  2.59700 58.23000 41.71300
H  3.15600 59.77000 42.33200
H  2.20600 58.42300 44.69000
H  1.06400 58.14600 43.36800
H  1.46300 59.76600 43.69400
H  0.35300 52.82500 42.28200
H  0.71500 54.52600 42.32900
H  0.82400 53.37300 43.80100
H  4.75600 49.36600 41.88900
H  2.83100 47.25100 39.26600
H  3.48100 46.16900 40.65600
H  4.38600 46.32500 39.17000

