158

Mg 25.49600 0.68900 29.27800
C  27.14700 0.54200 32.39600
C  22.54800 1.43800 30.92400
C  23.80000 0.56700 26.37300
C  28.28300 -0.35000 27.53600
N  24.96400 0.98900 31.51800
C  25.78000 0.84800 32.60300
C  25.03200 1.27500 33.82600
C  23.54400 1.39600 33.35900
C  23.63100 1.23400 31.83300
C  22.59100 0.30800 33.91300
C  25.59700 2.65000 34.45100
C  26.19500 2.50400 35.88100
H  25.53700 3.31900 37.02800
N  23.50000 0.97700 28.65900
C  22.43700 1.23500 29.49900
C  21.27100 1.20200 28.71900
C  21.69400 1.05300 27.36700
C  23.05500 0.87000 27.39600
C  19.89500 1.27000 29.40400
C  20.71400 1.13900 26.19500
O  20.95400 0.74700 25.04500
C  19.24100 1.61000 26.37200
N  26.06400 0.10900 27.19900
C  25.12600 0.19000 26.29300
C  25.74800 -0.24300 24.92700
C  27.33100 -0.42300 25.18700
C  27.28100 -0.15900 26.66700
C  25.08600 -1.52600 24.32300
C  28.37400 0.41400 24.40200
C  28.00200 1.86200 23.97500
N  27.26200 0.08900 29.80700
C  28.35900 -0.22500 28.97800
C  29.51300 -0.46700 29.86600
C  29.13100 -0.12100 31.17400
C  27.73900 0.18000 31.11100
C  30.92300 -0.71600 29.33300
C  29.52900 -0.06700 32.55500
O  30.62800 -0.33800 33.04400
C  28.28500 0.44100 33.42000
C  28.12300 -0.46000 34.58100
O  27.43000 -1.46800 34.53400
O  28.81300 -0.04700 35.64800
C  28.70500 -0.71800 36.92100
H  21.64600 1.51200 31.53400
H  23.34100 0.51700 25.38300
H  29.25800 -0.67300 27.16500
H  25.14500 0.47700 34.55900
H  23.13200 2.34900 33.68800
H  23.10400 -0.38100 34.58400
H  22.29100 -0.30800 33.06500
H  21.79500 0.79200 34.47900
H  24.73800 3.31400 34.54700
H  26.33100 3.13400 33.80700
H  27.22400 2.86400 35.87100
H  26.24500 1.46100 36.19400
H  19.38200 2.17100 29.06700
H  19.83300 1.31300 30.49100
H  19.27900 0.41100 29.13700
H  18.63000 1.07800 27.10100
H  18.68000 1.58800 25.43700
H  19.22800 2.64600 26.70800
H  25.50800 0.52200 24.18800
H  27.70400 -1.43300 25.01800
H  24.02100 -1.33700 24.45800
H  25.28500 -2.50400 24.75900
H  25.26400 -1.55900 23.24800
H  28.53500 -0.14500 23.48100
H  29.28900 0.35900 24.99200
H  28.76000 2.49300 24.43800
H  27.03800 2.17600 24.37600
H  28.01500 2.12400 22.91700
H  31.13100 -0.06300 28.48600
H  31.03400 -1.77100 29.08400
H  31.58900 -0.50400 30.17000
H  28.53400 1.43800 33.78400
H  27.86600 -1.41300 36.91100
H  28.22600 -0.01300 37.60100
H  29.63100 -1.16200 37.28800
Mg 35.21200 1.43500 29.26500
C  33.13200 2.85800 31.67600
C  37.75300 1.49400 31.60900
C  37.36700 0.48000 26.80200
C  32.71100 1.91800 26.93500
N  35.44900 2.21900 31.31000
C  34.37900 2.53900 32.14800
C  34.87000 2.63200 33.59900
C  36.39100 2.52800 33.47400
C  36.58600 2.11100 32.04400
C  37.15200 3.84500 33.83700
C  34.14400 1.45200 34.41600
C  33.56400 2.00900 35.78000
H  34.21300 3.17300 36.38400
N  37.21500 0.89800 29.28400
C  38.05000 0.91100 30.34800
C  39.27400 0.31000 29.92200
C  39.13800 -0.06500 28.56400
C  37.87000 0.47900 28.14100
C  40.40000 0.19100 30.89600
C  40.18500 -0.76700 27.62500
O  39.98500 -1.07700 26.44100
C  41.47600 -1.31600 28.14700
N  35.16900 1.47200 27.17700
C  36.10500 0.92800 26.40200
C  35.69100 0.80500 24.98800
C  34.13200 0.91200 25.03600
C  33.97000 1.43000 26.48000
C  36.39100 1.82600 24.01700
C  33.24400 -0.43300 24.84700
C  32.18700 -0.29200 23.70400
N  33.30700 2.38900 29.19400
C  32.41600 2.46100 28.17600
C  31.16400 2.95600 28.74100
C  31.38300 3.15400 30.07100
C  32.75000 2.75100 30.30500
C  29.95300 3.13700 27.96000
C  30.81200 3.58700 31.32800
O  29.66300 3.96500 31.49000
C  31.87900 3.33200 32.37200
C  32.05100 4.62100 33.09100
O  32.61200 5.59100 32.60700
O  31.49900 4.54900 34.38100
C  31.39800 5.87200 35.02200
H  38.49100 1.34100 32.40000
H  38.00300 0.04300 26.02900
H  31.94900 1.97300 26.15500
H  34.58300 3.59500 34.02100
H  36.70600 1.63600 34.01500
H  37.83500 4.15700 33.04600
H  37.71100 3.62000 34.74500
H  36.42200 4.60700 34.10900
H  34.86100 0.64800 34.57600
H  33.38500 1.01500 33.76600
H  33.76000 1.24400 36.53100
H  32.50600 2.24500 35.66400
H  41.13400 -0.55900 30.60200
H  39.93600 0.01600 31.86700
H  40.89700 1.16000 30.95600
H  41.22500 -1.99100 28.96500
H  42.01500 -0.41300 28.43500
H  42.00400 -1.89900 27.39300
H  35.90800 -0.21700 24.67700
H  33.86400 1.74100 24.38100
H  37.16800 1.36900 23.40400
H  36.91800 2.53500 24.65600
H  35.68700 2.28900 23.32600
H  32.80200 -0.63400 25.82300
H  33.87600 -1.31300 24.72500
H  32.46200 -0.93800 22.87100
H  31.90300 0.69400 23.33800
H  31.23500 -0.62200 24.11900
H  29.76900 2.29400 27.29400
H  29.95400 4.11100 27.47000
H  29.07100 3.08200 28.59900
H  31.45600 2.53900 32.98900
H  31.01000 6.61700 34.32700
H  32.24700 6.19700 35.62400
H  30.71900 5.88900 35.87500

