158

Mg 53.64700 24.24900 44.18400
C  50.89400 26.53900 43.87700
C  51.53600 21.79900 43.12300
C  56.33800 22.28200 43.90400
C  55.63700 26.98600 45.03400
N  51.54500 24.24800 43.29800
C  50.58600 25.26200 43.42900
C  49.19000 24.72700 43.17600
C  49.36400 23.18900 43.42100
C  50.91800 23.04900 43.32900
C  48.68100 22.77200 44.76500
C  48.64500 25.23500 41.82700
C  48.56500 24.28200 40.59900
H  48.60700 24.84200 39.18800
N  53.91200 22.25300 43.61500
C  52.91800 21.43700 43.20500
C  53.50700 20.10200 43.01000
C  54.94000 20.22300 43.03800
C  55.13400 21.65000 43.51800
C  52.75300 18.91300 42.70900
C  55.98700 19.13600 42.81600
O  55.61900 17.97900 42.40900
C  57.38800 19.47800 42.87200
N  55.70600 24.66200 44.28300
C  56.66200 23.62600 44.21500
C  58.02200 24.12600 44.65700
C  57.74800 25.63100 45.01100
C  56.31000 25.79600 44.72500
C  58.84800 23.30400 45.66400
C  58.57000 26.67900 44.22100
C  59.53400 27.46800 45.12800
N  53.36800 26.27100 44.53700
C  54.28900 27.24100 44.89900
C  53.61200 28.46100 45.17200
C  52.26400 28.16300 44.90800
C  52.17500 26.86100 44.34000
C  54.16700 29.77600 45.72700
C  50.97100 28.73100 44.75300
O  50.59400 29.88500 45.03400
C  50.02800 27.73500 44.05500
C  49.49200 28.34600 42.75100
O  50.17700 28.58800 41.73700
O  48.17600 28.46900 42.92500
C  47.45400 28.98000 41.70600
H  50.92400 20.92700 42.88400
H  57.18300 21.61500 44.09200
H  56.28500 27.74700 45.47300
H  48.60700 25.16900 43.98300
H  48.97600 22.52000 42.65300
H  47.95700 23.50800 45.11300
H  49.53100 22.61700 45.43000
H  48.08300 21.87900 44.58600
H  49.39200 25.94000 41.46000
H  47.83400 25.94700 41.98100
H  47.70100 23.65100 40.80400
H  49.35900 23.53500 40.58200
H  53.04100 18.64300 41.69300
H  51.68600 19.12800 42.77600
H  53.09300 18.12100 43.37500
H  57.60500 20.46000 42.45200
H  57.88600 18.68800 42.31000
H  57.75200 19.38800 43.89500
H  58.55700 24.17500 43.70900
H  57.89600 25.65400 46.09100
H  59.91400 23.17200 45.47400
H  58.58500 22.25700 45.81400
H  58.81100 23.84400 46.61000
H  57.90700 27.40600 43.75100
H  59.15100 26.17700 43.44700
H  59.34400 27.14900 46.15300
H  59.33800 28.53900 45.07500
H  60.55100 27.22500 44.82100
H  53.40100 30.51700 45.50100
H  55.12800 29.87100 45.22000
H  54.26100 29.70200 46.81000
H  49.19200 27.66000 44.75100
H  47.72400 30.01200 41.47700
H  46.39800 28.71900 41.78200
H  47.70800 28.51000 40.75600
Mg 7.14400 53.09100 40.41700
C  6.84000 49.63700 40.23100
C  10.54900 52.70300 39.72100
C  7.12600 56.18700 39.21000
C  3.66000 53.30100 40.96000
N  8.50600 51.30200 40.17500
C  8.16900 50.08500 40.03600
C  9.41200 49.18900 39.79000
C  10.57300 50.21500 40.00600
C  9.81900 51.55400 40.05100
C  11.45800 50.03600 41.30800
C  9.56800 48.54100 38.44500
C  9.25400 49.27500 37.11600
H  8.02800 48.92300 36.26800
N  8.63300 54.44300 39.74600
C  9.98200 54.01700 39.52700
C  10.67600 55.19600 39.11000
C  9.67100 56.31500 39.00100
C  8.39600 55.72400 39.40200
C  12.15000 55.30700 38.75300
C  9.97800 57.75500 38.71000
O  11.11600 58.12400 38.44400
C  8.91800 58.77500 38.72100
N  5.62700 54.47800 40.07300
C  5.89200 55.70700 39.51000
C  4.60900 56.57100 39.46300
C  3.69300 55.79000 40.43700
C  4.28200 54.42300 40.41600
C  4.83600 58.02900 39.93700
C  2.12200 55.87600 40.24300
C  1.45800 56.58200 41.43500
N  5.53200 51.81900 40.58400
C  4.21300 52.04400 40.92000
C  3.51900 50.79500 41.18000
C  4.47900 49.76500 40.79000
C  5.72000 50.45700 40.42900
C  2.17800 50.54800 41.54600
C  4.74000 48.31800 40.69100
O  3.98800 47.37200 40.92200
C  6.24700 48.20900 40.27800
C  6.12700 47.58800 38.87100
O  5.65400 48.17900 37.90900
O  6.54700 46.25500 38.88600
C  6.25100 45.50900 37.62100
H  11.60000 52.64100 39.42800
H  7.07800 57.06000 38.55500
H  2.62400 53.32500 41.30600
H  9.48200 48.45700 40.59400
H  11.25200 50.20000 39.15300
H  11.40100 49.08100 41.83000
H  11.10100 50.89200 41.88200
H  12.52500 50.23800 41.21900
H  8.95700 47.64300 38.53100
H  10.58200 48.17500 38.28400
H  10.10600 49.39600 36.44700
H  9.15100 50.30000 37.47100
H  12.10000 55.71600 37.74400
H  12.60000 54.31600 38.70200
H  12.67500 55.95500 39.45500
H  8.41800 58.76000 39.69000
H  8.17300 58.62900 37.93800
H  9.41200 59.74700 38.71300
H  4.14200 56.62200 38.47900
H  3.80800 56.08600 41.48000
H  4.19300 58.63900 39.30300
H  5.83900 58.42800 39.79200
H  4.48900 58.25500 40.94500
H  1.62100 54.92700 40.04900
H  1.83700 56.52500 39.41500
H  1.75800 57.62600 41.51700
H  1.67600 55.98300 42.31900
H  0.37500 56.53700 41.31300
H  2.02700 49.74400 42.26600
H  1.63600 50.32100 40.62800
H  1.71900 51.39200 42.06100
H  6.85000 47.47700 40.81400
H  6.60100 44.48300 37.73500
H  6.98000 45.82600 36.87500
H  5.22200 45.60900 37.27600

