158

Mg 25.74700 2.12800 29.15500
C  27.80300 1.45800 32.07200
C  23.00700 1.80700 31.20400
C  23.90200 2.19900 26.37800
C  28.57700 1.28500 27.28400
N  25.52800 1.81800 31.42000
C  26.42800 1.60300 32.41200
C  25.80500 1.79700 33.78400
C  24.30400 1.76700 33.48200
C  24.26900 1.79100 31.93500
C  23.53800 0.53400 33.98700
C  26.22400 3.06900 34.63900
C  26.70900 2.65100 36.05600
H  26.22400 3.61700 37.23100
N  23.73900 2.05600 28.82900
C  22.74000 1.92100 29.80100
C  21.42200 1.94100 29.16200
C  21.65800 2.18200 27.75400
C  23.16600 2.19200 27.61500
C  20.17600 1.79400 29.95200
C  20.65400 2.35200 26.67700
O  20.88900 2.70200 25.54900
C  19.19400 2.15400 27.08600
N  26.13400 1.56900 27.08700
C  25.25400 1.96200 26.14400
C  25.82300 1.99000 24.73000
C  27.24800 1.39700 25.02000
C  27.38800 1.46600 26.53500
C  25.02500 1.20300 23.67400
C  28.36400 2.20200 24.26500
C  29.56400 1.40100 23.62600
N  27.85900 1.57600 29.51400
C  28.77200 1.19600 28.63800
C  29.99900 0.91400 29.33400
C  29.68100 1.02600 30.70500
C  28.35400 1.39300 30.74300
C  31.29800 0.51700 28.74900
C  30.17100 0.89400 31.99700
O  31.30000 0.60000 32.34800
C  28.94700 1.12700 32.97300
C  28.70100 -0.02700 33.87800
O  27.97200 -0.98700 33.62600
O  29.24000 0.29700 35.05400
C  28.86200 -0.47400 36.23600
H  22.18100 1.83000 31.91800
H  23.24900 2.43900 25.53700
H  29.48300 1.20800 26.67900
H  26.07700 0.90000 34.33900
H  23.73900 2.65200 33.77600
H  23.29600 -0.11700 33.14700
H  22.64000 0.90200 34.48200
H  24.12600 -0.04700 34.69900
H  25.42800 3.81300 34.68700
H  27.07400 3.46600 34.08500
H  27.79400 2.60400 35.96600
H  26.33200 1.65600 36.29400
H  20.41900 1.45500 30.95900
H  19.54200 1.03600 29.49100
H  19.62400 2.73400 29.96100
H  18.47300 2.31600 26.28500
H  18.90000 2.81100 27.90400
H  19.13200 1.11900 27.42200
H  25.93000 3.04700 24.48700
H  27.33100 0.33700 24.77900
H  24.65300 1.89500 22.91800
H  24.14000 0.71300 24.08100
H  25.66200 0.47600 23.17100
H  28.90200 2.84400 24.96200
H  27.91000 2.87800 23.54000
H  29.38200 1.54600 22.56100
H  29.44800 0.37700 23.98400
H  30.54200 1.76200 23.94400
H  31.38800 0.99400 27.77300
H  31.52600 -0.51100 28.46700
H  32.08300 0.89100 29.40500
H  29.25300 2.00000 33.54900
H  27.93800 -0.07700 36.65600
H  29.67300 -0.47700 36.96400
H  28.76500 -1.51400 35.92600
Mg 48.76000 34.62400 25.76700
C  46.78100 33.24200 28.27300
C  48.96900 37.48600 27.63000
C  50.40300 36.01500 23.27600
C  48.15200 31.72900 23.90300
N  47.92100 35.29300 27.73400
C  47.25900 34.52500 28.59500
C  47.11100 35.22600 29.98000
C  47.54400 36.68100 29.59800
C  48.13800 36.55700 28.20100
C  46.41100 37.78300 29.67300
C  48.13800 34.60000 31.04400
C  47.70400 34.41100 32.42400
H  46.49600 35.24900 32.92000
N  49.75600 36.44900 25.56200
C  49.69400 37.54700 26.38000
C  50.61000 38.55900 25.90900
C  51.10100 38.08200 24.68900
C  50.36500 36.81300 24.44900
C  51.00200 39.74700 26.83400
C  52.28100 38.52200 23.88400
O  52.72000 37.85300 23.02800
C  52.81800 39.89200 24.18800
N  49.22200 33.98600 23.83500
C  49.80800 34.76200 22.95600
C  50.16400 33.96100 21.66200
C  49.51600 32.53700 21.91200
C  48.89300 32.74600 23.33200
C  49.92600 34.65700 20.24900
C  50.44100 31.35500 21.85900
C  51.70100 31.40700 22.74400
N  47.60000 32.87900 25.89200
C  47.54400 31.73800 25.12800
C  46.64400 30.76600 25.71800
C  46.33100 31.30700 26.96800
C  46.86000 32.62100 26.97200
C  46.31700 29.48000 25.18600
C  45.72600 31.03000 28.20700
O  45.16800 30.06500 28.59200
C  46.09600 32.25400 29.09800
C  46.65000 31.70200 30.32600
O  47.78300 31.31900 30.41100
O  45.65800 31.50800 31.27300
C  46.11300 30.60600 32.32300
H  49.05300 38.38300 28.24700
H  51.06100 36.46700 22.53100
H  48.04000 30.89400 23.20800
H  46.11000 35.19700 30.41000
H  48.33400 37.05900 30.24600
H  46.16200 38.41000 28.81700
H  46.79000 38.48400 30.41700
H  45.49400 37.27200 29.96800
H  49.01800 35.24200 31.07000
H  48.47100 33.63500 30.66100
H  48.56800 34.46600 33.08700
H  47.43700 33.37100 32.61400
H  50.54700 39.82100 27.82200
H  50.70000 40.61700 26.25000
H  52.07200 39.83700 27.02100
H  53.62300 39.71300 24.90000
H  52.17700 40.66900 24.60400
H  53.24400 40.33400 23.28700
H  51.23100 33.84700 21.85600
H  48.75200 32.32500 21.16500
H  49.26500 35.51800 20.34200
H  49.52200 33.98400 19.49300
H  50.90300 34.97600 19.88600
H  50.77200 31.26200 20.82500
H  49.98300 30.37200 21.97400
H  51.74100 32.40400 23.18300
H  52.59800 31.25400 22.14400
H  51.90000 30.65400 23.50600
H  46.71100 28.71900 25.86000
H  46.78900 29.36200 24.21100
H  45.23200 29.44500 25.08500
H  45.10900 32.67800 29.28200
H  45.36200 30.72900 33.10300
H  47.01000 30.96000 32.83100
H  46.16300 29.57700 31.96700

