158

Mg 25.18700 1.06600 28.97300
C  27.24900 0.75900 31.73100
C  22.53000 1.80700 31.27100
C  23.21600 1.73600 26.48700
C  27.76300 0.20700 26.76700
N  24.89900 1.11200 31.14900
C  25.93000 1.16200 32.06200
C  25.50500 1.56300 33.46600
C  24.03000 1.84000 33.25400
C  23.79800 1.66400 31.75600
C  22.95900 0.91700 33.97100
C  26.31300 2.75400 34.10600
C  26.73100 2.75700 35.59300
H  26.06800 3.77800 36.51700
N  23.15200 1.45700 28.90500
C  22.23300 1.69400 29.91500
C  20.90400 1.90700 29.33400
C  21.13200 2.08600 27.91000
C  22.55900 1.72400 27.72700
C  19.62200 2.05000 30.25400
C  20.10400 2.45100 26.87500
O  20.30600 2.31900 25.65600
C  18.69000 3.01600 27.11900
N  25.41200 0.83100 26.89700
C  24.42600 1.24700 26.07200
C  24.84600 1.31000 24.56600
C  26.36500 0.96100 24.69800
C  26.52800 0.61800 26.17400
C  24.19300 0.25700 23.71800
C  27.40900 1.95000 24.10600
C  27.75200 3.18100 25.02200
N  27.11200 0.42100 29.20800
C  28.08700 0.10000 28.19100
C  29.30300 -0.10800 28.89800
C  29.02100 0.11800 30.28100
C  27.69100 0.52600 30.36800
C  30.60100 -0.45300 28.29900
C  29.62600 0.07600 31.62100
O  30.71900 -0.19400 31.99900
C  28.44700 0.56400 32.58000
C  28.29600 -0.46100 33.65700
O  27.44100 -1.30400 33.53600
O  28.95500 -0.22300 34.80200
C  28.49700 -0.97400 35.97700
H  21.66800 1.99800 31.91400
H  22.69800 1.92400 25.54400
H  28.54500 0.12600 26.00800
H  25.53800 0.67000 34.09100
H  23.90700 2.89100 33.51500
H  22.65000 0.10200 33.31600
H  22.18600 1.63800 34.23600
H  23.36200 0.48300 34.88600
H  25.75700 3.66600 33.89100
H  27.17400 2.99800 33.48500
H  27.80900 2.79000 35.75300
H  26.41300 1.76800 35.92300
H  19.45100 3.09600 30.50900
H  19.75200 1.41700 31.13200
H  18.78100 1.68400 29.66500
H  18.74000 3.55700 28.06400
H  17.95100 2.21400 27.10600
H  18.35400 3.57600 26.24600
H  24.60700 2.29700 24.17100
H  26.68400 -0.01600 24.33400
H  24.83400 -0.36900 23.09800
H  23.65100 0.74200 22.90600
H  23.40200 -0.21400 24.30200
H  26.93800 2.49000 23.28500
H  28.34700 1.48900 23.79700
H  27.14500 3.20000 25.92800
H  27.71400 4.11500 24.46300
H  28.78700 3.10800 25.35700
H  30.27000 -1.04500 27.44500
H  31.15800 -1.14000 28.93500
H  31.28700 0.37700 28.13000
H  28.82000 1.49400 33.01100
H  27.44800 -0.70700 36.10000
H  29.09100 -0.89200 36.88700
H  28.48500 -2.02700 35.69600
Mg 29.54500 58.62800 39.60700
C  26.77300 56.96700 38.59100
C  31.51200 55.88700 38.93600
C  32.34500 60.59000 39.64500
C  27.54200 61.57800 39.93400
N  29.20400 56.74900 38.60600
C  27.98400 56.15600 38.33400
C  28.11600 54.76700 37.88100
C  29.60800 54.39000 38.15500
C  30.16600 55.74400 38.71000
C  30.01400 53.27600 39.20600
C  27.82500 54.86800 36.43500
C  26.79900 53.89900 35.80000
H  25.97900 54.48800 34.62500
N  31.66800 58.24900 39.28300
C  32.23400 57.07200 38.98100
C  33.65600 57.30400 39.01000
C  33.90100 58.66600 39.19400
C  32.62300 59.27600 39.32900
C  34.60300 56.14800 38.86700
C  35.27300 59.28000 39.08300
O  36.24400 58.56900 38.93900
C  35.58200 60.74800 39.20500
N  29.87100 60.82600 39.36200
C  31.13200 61.33800 39.71700
C  31.13200 62.78900 40.21800
C  29.61000 63.16100 40.08900
C  28.94900 61.77700 39.75200
C  31.71600 63.08800 41.64600
C  29.37200 64.18700 38.95900
C  28.47100 65.37300 39.23200
N  27.60600 59.17400 39.42000
C  26.90600 60.34000 39.69800
C  25.48200 60.11600 39.57200
C  25.37700 58.76700 39.16000
C  26.69500 58.27000 39.11800
C  24.32100 61.02500 39.97300
C  24.42400 57.64900 38.86700
O  23.20500 57.53400 39.04300
C  25.34700 56.43800 38.43600
C  25.00900 55.30900 39.31800
O  25.15400 55.36300 40.52300
O  24.43100 54.29000 38.62700
C  24.06500 53.12400 39.38200
H  32.04100 54.93500 39.02000
H  33.22700 61.17300 39.92100
H  26.98200 62.49700 40.11800
H  27.43300 54.24300 38.55000
H  30.09600 54.02400 37.25200
H  29.06200 52.88900 39.56900
H  30.71300 53.69800 39.92800
H  30.58900 52.49100 38.71600
H  28.72700 54.61800 35.87500
H  27.68200 55.87000 36.03000
H  26.15300 53.48900 36.57600
H  27.47400 53.12900 35.42500
H  34.14100 55.38400 39.49200
H  35.61800 56.28400 39.24200
H  34.68800 55.73500 37.86300
H  35.71800 61.10500 40.22600
H  34.91000 61.32000 38.56500
H  36.54500 60.87900 38.71000
H  31.68800 63.33000 39.45200
H  29.10400 63.44400 41.01200
H  32.13200 62.16200 42.04300
H  30.96200 63.52500 42.30000
H  32.52700 63.81700 41.65800
H  28.91200 63.73300 38.08100
H  30.24500 64.69200 38.54500
H  29.10500 66.25700 39.30800
H  28.04600 65.34800 40.23500
H  27.58300 65.41700 38.60200
H  23.65100 60.65200 40.74700
H  23.79100 61.23700 39.04400
H  24.78600 61.94100 40.33800
H  25.09100 56.15300 37.41500
H  23.07500 52.79700 39.06500
H  24.09000 53.18700 40.47000
H  24.73900 52.34100 39.03400

