158

Mg 47.62900 35.61800 27.68200
C  45.99900 33.87700 30.26100
C  48.08000 38.21600 29.87000
C  49.15400 37.37600 25.28100
C  47.45300 32.78200 25.70500
N  47.20200 35.88700 29.78500
C  46.51800 35.11500 30.68500
C  46.55100 35.64300 32.09500
C  46.68200 37.18300 31.73500
C  47.36300 37.14500 30.34900
C  45.47100 38.15100 31.88100
C  47.74900 35.11600 33.10100
C  49.20100 35.77100 33.06800
H  49.56700 36.61200 34.29500
N  48.59400 37.48700 27.62400
C  48.71600 38.33700 28.65800
C  49.51900 39.45400 28.23400
C  49.71600 39.32900 26.78800
C  49.07900 38.06600 26.47600
C  49.96700 40.55800 29.28400
C  50.40900 40.27400 25.88300
O  50.45500 40.05300 24.70600
C  51.33200 41.43700 26.41600
N  48.18100 35.15100 25.73300
C  48.75700 36.06200 24.93100
C  48.81100 35.44600 23.45300
C  48.72000 33.89800 23.72700
C  48.08200 33.94300 25.12200
C  47.64900 35.99300 22.51400
C  50.03800 33.01300 23.80400
C  50.00600 31.80700 22.76600
N  46.82700 33.66600 27.87800
C  46.79500 32.67100 26.98800
C  46.24400 31.56400 27.58400
C  45.82100 31.98700 28.88400
C  46.25600 33.28700 29.04100
C  45.94900 30.12300 27.06100
C  45.12000 31.65600 30.12500
O  44.58100 30.64700 30.49100
C  45.10900 32.94900 30.95700
C  45.40200 32.68800 32.36800
O  46.38900 32.10400 32.80800
O  44.37800 33.11400 33.15500
C  44.38500 32.77000 34.54500
H  48.15300 39.05700 30.56200
H  49.52900 37.98400 24.45500
H  47.49100 31.79500 25.24000
H  45.60200 35.50400 32.61400
H  47.50600 37.48400 32.38200
H  45.19500 38.13600 32.93500
H  44.63500 37.84500 31.25200
H  45.80600 39.18600 31.81500
H  47.94200 34.07100 32.85700
H  47.20200 35.28900 34.02800
H  49.43100 36.23700 32.11000
H  49.82100 34.87400 33.09000
H  49.47200 41.48500 28.99500
H  51.04600 40.58800 29.13000
H  49.79800 40.35800 30.34200
H  51.80300 41.75800 25.48600
H  52.14500 41.21600 27.10700
H  50.75700 42.33300 26.64900
H  49.75200 35.79700 23.03100
H  47.87500 33.49600 23.16900
H  46.99200 36.59500 23.14100
H  46.95800 35.24600 22.12300
H  48.03200 36.55900 21.66500
H  50.21100 32.55600 24.77800
H  50.85000 33.61600 23.39700
H  49.21400 31.91300 22.02400
H  49.92000 30.86000 23.29800
H  50.93200 31.74700 22.19500
H  45.16000 30.14000 26.31000
H  45.56100 29.47700 27.84800
H  46.81900 29.67500 26.58000
H  44.09800 33.34200 31.06100
H  44.79900 33.59000 35.13200
H  44.89800 31.81700 34.67100
H  43.35100 32.53100 34.79300
Mg 16.93300 51.92700 26.49600
C  19.04800 50.49700 28.96800
C  14.73200 52.80300 28.76300
C  15.02900 52.85300 23.96100
C  19.35400 50.67900 24.09200
N  16.89000 51.61200 28.63300
C  17.87000 51.05700 29.47000
C  17.41700 51.18800 30.90100
C  15.93700 51.71600 30.77400
C  15.82000 52.04300 29.28400
C  14.98600 50.56400 31.16600
C  18.37600 52.14300 31.69400
C  18.53400 51.80100 33.24100
H  17.70000 52.48600 34.28000
N  15.05000 52.64500 26.43200
C  14.28000 53.02100 27.45600
C  13.15000 53.81000 26.94200
C  13.09600 53.53600 25.51000
C  14.48600 52.97700 25.25500
C  12.24400 54.45600 27.99100
C  12.07400 53.77100 24.35900
O  12.17500 53.31000 23.21800
C  10.80300 54.43900 24.62200
N  17.22800 51.85100 24.30100
C  16.18500 52.24000 23.52300
C  16.53300 52.03700 22.09100
C  18.13600 51.75200 22.12000
C  18.29200 51.47300 23.58100
C  15.65600 51.05700 21.30400
C  19.15300 52.91700 21.79200
C  20.36600 52.55400 20.89400
N  18.85700 50.85300 26.48700
C  19.69700 50.40700 25.48600
C  20.85500 49.81500 25.96300
C  20.70800 49.83200 27.31700
C  19.42000 50.49400 27.66000
C  21.92200 49.23300 25.10600
C  21.27900 49.44000 28.60000
O  22.37900 48.97700 28.86800
C  20.26700 49.96600 29.75000
C  20.12400 48.92300 30.77100
O  19.21900 48.04400 30.77400
O  21.03700 49.03900 31.78000
C  20.78400 48.30100 33.05100
H  14.07400 53.07000 29.59300
H  14.46300 53.23600 23.10900
H  20.10100 50.24000 23.42700
H  17.58200 50.17500 31.27000
H  15.71800 52.52500 31.47100
H  15.23200 49.64100 30.64100
H  13.95400 50.74900 30.86700
H  15.08700 50.37800 32.23500
H  17.93800 53.14000 31.74300
H  19.39200 52.13300 31.29900
H  19.54800 51.92200 33.62400
H  18.36900 50.72600 33.31900
H  12.97900 54.90300 28.66000
H  11.67300 53.73600 28.57700
H  11.64000 55.21400 27.49200
H  10.79400 55.50100 24.86600
H  10.32400 53.99700 25.49500
H  10.06100 54.45400 23.82300
H  16.47200 52.96400 21.52100
H  18.28600 50.85800 21.51500
H  14.58100 51.22200 21.37800
H  15.97000 50.07400 21.65400
H  15.97400 51.17200 20.26800
H  19.55400 53.30700 22.72800
H  18.52100 53.69100 21.35700
H  20.21800 53.32600 20.13800
H  20.29500 51.52600 20.53700
H  21.29800 52.72400 21.43300
H  22.42000 49.97600 24.48300
H  21.52300 48.48700 24.41700
H  22.55700 48.75500 25.85100
H  20.64700 50.78800 30.35700
H  21.69600 48.15700 33.63000
H  20.35700 47.31100 32.88600
H  20.14300 48.78900 33.78500

