158

Mg 17.22800 -0.01600 28.24400
C  16.00600 1.73200 30.97700
C  18.99000 -2.02400 30.34600
C  18.27200 -1.76100 25.55500
C  14.94700 1.92500 26.13300
N  17.50200 -0.00200 30.40400
C  16.86400 0.70900 31.33700
C  17.11700 0.17200 32.78500
C  18.22700 -0.85900 32.52800
C  18.24400 -1.01300 30.99700
C  19.56100 -0.45400 33.27300
C  15.83300 -0.38100 33.54300
C  15.29500 0.37800 34.76900
H  16.36000 0.88100 35.73500
N  18.60500 -1.60000 28.00600
C  19.16400 -2.33500 28.99000
C  19.97000 -3.42300 28.38500
C  19.75800 -3.30600 26.99200
C  18.84300 -2.19300 26.76600
C  20.71700 -4.41100 29.23200
C  20.28000 -4.22900 25.82800
O  20.01200 -4.03700 24.63900
C  21.13700 -5.37000 26.09900
N  16.64400 0.12900 26.09800
C  17.28000 -0.78100 25.21600
C  16.84500 -0.42300 23.79600
C  15.55300 0.56600 24.01100
C  15.70600 0.91600 25.48000
C  18.08900 0.25400 23.02200
C  14.21300 -0.08400 23.56300
C  13.49500 0.66800 22.32100
N  15.88800 1.61100 28.46300
C  15.02200 2.30700 27.51700
C  14.33700 3.32300 28.25000
C  14.68900 3.11000 29.61900
C  15.67800 2.11100 29.62900
C  13.43500 4.31600 27.63100
C  14.34700 3.51400 30.97000
O  13.48200 4.25300 31.35500
C  15.25600 2.66700 31.90100
C  16.16500 3.62200 32.59300
O  17.17200 4.14900 32.10300
O  15.76900 3.81000 33.90900
C  16.43600 4.96700 34.62100
H  19.62900 -2.70500 30.91200
H  18.50700 -2.29900 24.63500
H  14.30600 2.58000 25.53900
H  17.49800 1.05100 33.30400
H  17.94700 -1.85400 32.87300
H  19.46600 0.15200 34.17400
H  20.21600 0.04300 32.55700
H  20.07400 -1.33800 33.65300
H  15.95100 -1.39900 33.91500
H  15.00200 -0.32700 32.84000
H  14.71100 -0.33100 35.35500
H  14.70200 1.26500 34.54700
H  20.45700 -4.33400 30.28800
H  21.79800 -4.38400 29.09100
H  20.31100 -5.35200 28.86100
H  20.53700 -6.10200 26.64000
H  21.97100 -5.04000 26.71800
H  21.41700 -5.78800 25.13200
H  16.59700 -1.27900 23.16800
H  15.70300 1.44900 23.39000
H  18.18600 -0.23800 22.05400
H  19.00000 0.03300 23.57800
H  17.90200 1.30500 22.80000
H  13.45200 -0.02000 24.34000
H  14.21400 -1.12800 23.25100
H  12.61200 1.18900 22.68900
H  13.12600 -0.10100 21.64200
H  14.27400 1.23400 21.81000
H  12.54700 3.78600 27.28900
H  13.94200 4.78900 26.79000
H  13.10400 4.98100 28.42900
H  14.66000 2.19800 32.68400
H  16.64700 5.81600 33.97100
H  17.21100 4.41900 35.15600
H  15.71400 5.29200 35.37000
Mg 36.06600 48.27400 25.52300
C  36.46700 46.39100 28.47500
C  35.14700 51.02000 27.43300
C  35.04600 49.72700 22.72900
C  37.04900 45.46500 23.77400
N  35.63900 48.62800 27.71700
C  35.94700 47.67900 28.72500
C  35.75300 48.33000 30.07800
C  35.06600 49.70900 29.70300
C  35.32600 49.82500 28.22400
C  33.52300 49.76500 30.05300
C  36.98500 48.53100 30.87500
C  37.01600 48.35300 32.40900
H  35.70200 48.48400 33.24700
N  35.16900 50.16100 25.09900
C  34.97300 51.20500 25.99000
C  34.48900 52.37300 25.29400
C  34.21700 51.98300 23.92700
C  34.84100 50.60600 23.84900
C  34.25100 53.69000 25.98600
C  33.49500 52.75800 22.82600
O  33.48100 52.29100 21.69600
C  32.89600 54.13000 23.10100
N  36.05300 47.70400 23.57300
C  35.57900 48.45300 22.54400
C  35.78200 47.82200 21.13800
C  36.69200 46.57100 21.57300
C  36.56100 46.52000 23.09000
C  34.55000 47.40900 20.47700
C  38.13400 46.55700 21.04000
C  39.30300 47.10200 21.84100
N  36.67500 46.35400 25.95500
C  37.09300 45.32700 25.16000
C  37.62200 44.26200 25.91700
C  37.28400 44.59300 27.22700
C  36.77100 45.87800 27.23900
C  38.22500 42.93600 25.35800
C  37.36800 44.11200 28.63100
O  37.81300 43.08700 29.11000
C  36.83200 45.33300 29.49200
C  35.74100 44.94100 30.35100
O  34.60800 44.97500 30.02500
O  36.16900 44.71600 31.61900
C  35.09100 44.49600 32.64200
H  35.02100 51.83800 28.14600
H  34.68000 50.26900 21.85500
H  37.39300 44.65700 23.12500
H  35.00000 47.70900 30.56400
H  35.59200 50.49500 30.24500
H  33.29100 50.66300 30.62400
H  33.21200 49.01500 30.78100
H  32.82300 49.69500 29.22000
H  37.35400 49.52100 30.60500
H  37.69500 47.86500 30.38400
H  37.71100 49.17600 32.57900
H  37.46300 47.37400 32.57900
H  34.72200 54.51200 25.44700
H  34.75300 53.72000 26.95300
H  33.18600 53.80400 26.18300
H  32.24800 53.90000 23.94700
H  32.24200 54.45300 22.29200
H  33.71300 54.82500 23.29400
H  36.36300 48.51700 20.53100
H  36.19100 45.65100 21.27400
H  33.72100 47.60100 21.15800
H  34.52700 46.38600 20.10100
H  34.43600 48.12300 19.66200
H  38.08600 47.05900 20.07400
H  38.31100 45.52400 20.74200
H  39.72400 48.02300 21.43800
H  40.06400 46.32100 21.83500
H  39.03700 47.27200 22.88400
H  38.43600 43.00700 24.29100
H  37.62100 42.05000 25.55100
H  39.13600 42.67300 25.89500
H  37.69800 45.45400 30.14200
H  35.47100 44.61700 33.65600
H  34.78400 43.46800 32.45100
H  34.27900 45.21300 32.52800

