158

Mg 36.13500 48.85900 24.10200
C  36.44900 47.30100 27.30800
C  34.61900 51.55300 25.71200
C  35.87200 50.18800 21.15700
C  37.64200 46.06800 22.68700
N  35.56600 49.31100 26.35400
C  35.88200 48.56000 27.44700
C  35.45200 49.30000 28.74400
C  34.95000 50.73600 28.17800
C  34.98600 50.52600 26.62000
C  33.47600 51.14200 28.69600
C  36.70900 49.37200 29.74500
C  36.34300 49.20100 31.26900
H  34.90000 49.11100 31.73000
N  35.25400 50.59500 23.51700
C  34.74500 51.59900 24.24200
C  34.40300 52.70300 23.40200
C  34.79600 52.39500 22.06200
C  35.31900 50.98600 22.14600
C  33.87300 53.93500 23.92400
C  34.82200 53.18800 20.74900
O  34.95900 52.62600 19.64600
C  34.60100 54.69600 20.79800
N  36.51000 48.16200 22.18500
C  36.39400 48.95900 21.14600
C  36.80300 48.30400 19.86100
C  37.46900 47.00600 20.36100
C  37.24900 47.09800 21.82300
C  35.57900 48.07700 18.90500
C  38.91500 46.91700 20.08900
C  39.84000 47.93000 20.79500
N  36.89100 47.00300 24.78400
C  37.41300 45.94900 24.07800
C  37.74300 44.86000 24.97100
C  37.34600 45.34200 26.22900
C  36.95100 46.69600 26.10400
C  38.26300 43.51400 24.63700
C  37.14000 44.99500 27.62500
O  37.31400 43.89800 28.19500
C  36.64500 46.25200 28.40100
C  35.42200 46.00300 29.29500
O  34.25400 45.84400 28.90000
O  35.84300 45.96100 30.58800
C  34.96700 45.21200 31.54900
H  34.30400 52.47900 26.19700
H  35.84800 50.55900 20.13000
H  38.25300 45.27700 22.24700
H  34.58100 48.78300 29.14800
H  35.71600 51.48700 28.37000
H  33.46800 52.15600 29.09700
H  33.15800 50.44800 29.47400
H  32.75200 51.11700 27.88200
H  37.05500 50.40200 29.65800
H  37.47600 48.67500 29.40700
H  36.62900 50.15200 31.71800
H  36.91300 48.51400 31.89500
H  34.20000 54.78700 23.32900
H  34.28600 54.07900 24.92300
H  32.78400 53.89800 23.89300
H  34.75200 55.01300 19.76600
H  35.38900 55.16000 21.39100
H  33.58100 54.88600 21.13300
H  37.50600 49.03400 19.46100
H  36.96000 46.10100 20.02900
H  34.72500 48.02900 19.58100
H  35.63400 47.16700 18.30700
H  35.47900 48.84100 18.13400
H  39.00700 46.91900 19.00300
H  39.16300 45.89000 20.35600
H  39.21700 48.62700 21.35500
H  40.51200 48.43600 20.10200
H  40.41000 47.43700 21.58200
H  39.33200 43.62400 24.45900
H  37.64200 43.06700 23.86000
H  38.02200 42.94100 25.53300
H  37.43100 46.53800 29.09900
H  34.36700 45.84800 32.19900
H  35.49200 44.52200 32.21000
H  34.25900 44.59300 31.00000
Mg -11.31600 16.01100 43.37100
C  -7.93400 17.13800 43.42300
C  -12.19100 19.23100 42.53800
C  -14.44300 14.97000 43.28300
C  -10.13700 12.71400 43.57100
N  -10.16800 17.95700 42.92100
C  -8.83700 18.14700 43.01600
C  -8.45600 19.53400 42.62800
C  -9.84800 20.25700 42.49700
C  -10.81800 19.06800 42.63700
C  -10.12100 21.49500 43.41500
C  -7.67800 19.42100 41.23900
C  -6.38800 20.16400 41.22600
H  -5.38600 19.72900 40.12800
N  -13.09200 17.03000 43.13700
C  -13.23500 18.34000 42.86800
C  -14.63300 18.68100 42.81900
C  -15.40000 17.45500 43.02800
C  -14.32700 16.41700 43.17200
C  -15.08300 20.13000 42.46000
C  -16.84400 17.31300 43.16900
O  -17.53700 18.26900 42.81500
C  -17.49400 16.15600 43.73900
N  -12.17200 14.08200 43.21100
C  -13.50100 13.98400 43.29100
C  -13.84400 12.52300 43.46000
C  -12.47000 11.73100 43.43400
C  -11.49300 12.88800 43.43900
C  -14.76000 12.18800 44.66100
C  -12.24300 10.82400 42.13400
C  -12.31600 9.29500 42.26700
N  -9.45100 15.07700 43.40200
C  -9.13500 13.72800 43.51700
C  -7.76300 13.54900 43.69500
C  -7.23700 14.88400 43.69800
C  -8.29400 15.77700 43.60700
C  -7.00600 12.27900 43.79900
C  -6.04600 15.69700 43.76200
O  -4.87700 15.36700 43.84200
C  -6.40900 17.25700 43.69700
C  -6.14800 17.92700 44.87400
O  -6.14900 17.44300 45.97000
O  -5.87900 19.28100 44.60800
C  -5.76700 20.15600 45.74700
H  -12.36800 20.28800 42.32800
H  -15.44200 14.54300 43.39800
H  -9.80200 11.67800 43.65700
H  -7.98900 19.96900 43.51000
H  -9.99700 20.66000 41.49500
H  -10.44000 22.42500 42.94400
H  -9.16500 21.72900 43.88300
H  -10.77700 21.14400 44.21200
H  -8.16900 19.88900 40.38600
H  -7.58100 18.36000 41.01000
H  -5.93900 20.03200 42.21100
H  -6.60700 21.23100 41.20800
H  -16.13800 20.04300 42.20000
H  -14.48600 20.70000 41.74800
H  -15.01600 20.59400 43.44400
H  -18.45200 16.46800 44.15300
H  -16.82900 15.86300 44.55100
H  -17.74400 15.42900 42.96600
H  -14.42300 12.16300 42.60900
H  -12.31700 11.14300 44.33900
H  -14.71700 12.92600 45.46300
H  -14.68400 11.19000 45.09200
H  -15.80000 12.22900 44.33900
H  -11.29300 11.15900 41.71600
H  -13.06800 11.17000 41.51100
H  -13.23200 8.89100 41.83700
H  -12.08800 8.99700 43.29100
H  -11.52300 8.80700 41.70000
H  -7.01700 11.82900 42.80700
H  -7.35400 11.66500 44.63000
H  -5.98600 12.59000 44.02800
H  -5.87400 17.79100 42.91100
H  -6.75600 20.50700 46.04200
H  -5.28000 21.10700 45.53500
H  -5.25900 19.70000 46.59700

