158

Mg 48.02800 35.41700 27.65000
C  46.34200 33.54000 30.13300
C  48.42200 37.95400 29.69700
C  49.72400 36.90000 25.15100
C  47.29800 32.68800 25.38900
N  47.44300 35.68800 29.66900
C  46.94700 34.76500 30.57900
C  47.03900 35.37500 32.00000
C  47.24100 36.82100 31.72800
C  47.81900 36.85400 30.32100
C  45.98000 37.74100 32.03300
C  48.14500 34.67800 32.79900
C  47.91200 34.41500 34.24600
H  46.91600 35.26700 35.05500
N  48.80400 37.21700 27.39100
C  48.87100 38.15100 28.40500
C  49.53300 39.34300 27.92000
C  50.09000 38.99000 26.62700
C  49.46800 37.69300 26.28700
C  49.78800 40.51100 28.79300
C  51.10500 39.66300 25.66400
O  51.49600 39.14000 24.64000
C  51.71800 40.98900 26.03200
N  48.17900 34.98300 25.47100
C  49.06100 35.68200 24.77800
C  49.37200 35.06800 23.37300
C  48.56900 33.65100 23.46500
C  47.97600 33.80200 24.87000
C  49.06000 35.90200 22.08900
C  49.52600 32.44000 23.33200
C  49.18300 31.43100 22.15500
N  46.93700 33.58600 27.63500
C  46.73500 32.54100 26.66600
C  45.93300 31.50800 27.25700
C  45.77100 31.85700 28.57700
C  46.40500 33.12500 28.79700
C  45.52700 30.23300 26.59300
C  45.10400 31.50000 29.83800
O  44.40900 30.56100 30.09000
C  45.21900 32.74700 30.76300
C  45.50900 32.36200 32.15000
O  46.40600 31.58600 32.48700
O  44.52200 32.81100 32.92900
C  44.49100 32.33100 34.32500
H  48.72900 38.65300 30.47800
H  50.41800 37.20400 24.36400
H  47.20200 31.80700 24.75100
H  46.05600 35.19800 32.43800
H  48.11600 37.17100 32.27500
H  45.71200 37.70400 33.08900
H  45.13400 37.28200 31.52200
H  45.96400 38.71400 31.54300
H  49.10600 35.14100 32.57700
H  48.39100 33.77100 32.24700
H  48.85100 34.44100 34.79900
H  47.57800 33.37800 34.28000
H  50.78100 40.94400 28.66700
H  49.61000 40.37800 29.86000
H  49.27000 41.39800 28.42800
H  50.90900 41.71600 25.95200
H  52.48100 41.22600 25.29100
H  52.31100 40.90500 26.94200
H  50.44300 34.87000 23.31800
H  47.78600 33.59100 22.70900
H  48.23700 35.42600 21.55800
H  49.93700 35.87900 21.44300
H  48.76900 36.87300 22.49000
H  49.59000 31.89500 24.27300
H  50.52500 32.79500 23.08000
H  48.40900 31.82700 21.49800
H  48.78600 30.53800 22.63700
H  50.08600 31.10200 21.64200
H  44.74300 29.79400 27.21100
H  46.35800 29.54900 26.42700
H  44.95900 30.57800 25.72800
H  44.29100 33.28000 30.55700
H  44.02100 31.35700 34.45600
H  43.79500 32.93900 34.90300
H  45.38400 32.34600 34.95000
Mg 27.02000 49.95000 26.04200
C  25.49700 51.45900 28.67200
C  29.81000 49.35700 27.96500
C  28.80000 49.13800 23.17800
C  24.51100 51.28100 23.91500
N  27.55300 50.48100 28.04300
C  26.70200 50.94500 28.99000
C  27.08100 50.55100 30.38400
C  28.56600 50.12300 30.15100
C  28.65000 49.95700 28.67100
C  29.75900 50.93000 30.76900
C  26.17100 49.44100 31.11700
C  25.64000 49.64400 32.55800
H  26.48000 50.37400 33.62000
N  28.99900 49.22900 25.66800
C  29.97500 49.03400 26.59900
C  31.13100 48.51300 26.00200
C  30.94600 48.49000 24.59200
C  29.48200 48.96500 24.42200
C  32.25500 48.05400 26.81700
C  31.94200 48.17500 23.56100
O  31.63300 48.15800 22.36700
C  33.34700 47.82200 23.92000
N  26.76500 50.24800 23.82400
C  27.53400 49.61600 22.92900
C  26.91000 49.48200 21.49200
C  25.50600 50.15400 21.77500
C  25.52000 50.53900 23.26400
C  27.64200 50.23900 20.31300
C  24.27900 49.23200 21.63600
C  23.01000 49.98200 21.11400
N  25.33600 51.11400 26.24700
C  24.39500 51.61000 25.29500
C  23.33900 52.33300 25.97600
C  23.64100 52.25900 27.33100
C  24.88500 51.49600 27.43500
C  22.01800 52.76800 25.47100
C  23.22400 52.56000 28.68500
O  22.16200 53.04200 29.10400
C  24.49300 52.12800 29.61500
C  25.00300 53.22700 30.46800
O  25.87400 53.95800 30.12300
O  24.27400 53.34000 31.59300
C  24.72500 54.13700 32.69600
H  30.60300 49.14700 28.68600
H  29.35900 48.71200 22.34200
H  23.79400 51.58600 23.14900
H  27.09500 51.47800 30.95800
H  28.72500 49.11300 30.53000
H  30.27600 51.57000 30.05400
H  30.47700 50.20600 31.15500
H  29.36500 51.58800 31.54300
H  26.70600 48.49200 31.10200
H  25.32900 49.21400 30.46200
H  25.45300 48.63900 32.93800
H  24.62800 50.04200 32.48500
H  32.02500 47.99900 27.88100
H  33.04600 48.78600 26.65700
H  32.60300 47.09100 26.44300
H  33.36800 46.95900 24.58500
H  33.72300 48.75500 24.34100
H  33.83800 47.51800 22.99600
H  26.82700 48.46500 21.10800
H  25.33100 51.14800 21.36300
H  28.63400 49.82700 20.12600
H  27.71500 51.30600 20.52700
H  27.10700 50.14000 19.36900
H  24.01900 48.79000 22.59800
H  24.54800 48.40700 20.97700
H  23.26700 50.99700 20.80900
H  22.34200 50.14000 21.96100
H  22.53200 49.38600 20.33700
H  21.81300 52.35700 24.48300
H  21.85700 53.84200 25.57100
H  21.21200 52.34900 26.07300
H  24.19600 51.40200 30.37200
H  24.01600 54.02000 33.51500
H  24.67200 55.19600 32.44200
H  25.71500 53.78700 32.99000

