158

Mg -1.71600 17.08000 25.99900
C  -2.50500 14.89900 28.70300
C  -2.67700 19.63300 28.08100
C  -1.40200 18.97400 23.31200
C  -1.46700 14.20700 23.99100
N  -2.51400 17.20300 28.15800
C  -2.69400 16.17700 29.02300
C  -3.09100 16.67300 30.38700
C  -3.41000 18.23900 30.18100
C  -2.89600 18.36700 28.66900
C  -4.87200 18.74700 30.38400
C  -2.08700 16.36800 31.60300
C  -2.08300 17.29300 32.81300
H  -2.42200 16.61900 34.10600
N  -1.85600 19.12000 25.79000
C  -2.21500 20.07800 26.73600
C  -2.04700 21.31700 26.16000
C  -1.62600 21.18500 24.81600
C  -1.58300 19.69600 24.54200
C  -2.47300 22.50000 26.95100
C  -1.36100 22.19800 23.82800
O  -1.14500 21.95800 22.61200
C  -1.41500 23.65900 24.20100
N  -1.52200 16.69700 23.93700
C  -1.40600 17.63400 22.96800
C  -1.04700 17.10900 21.57200
C  -0.88300 15.61800 21.99700
C  -1.27300 15.49100 23.45500
C  -2.11900 17.47800 20.41600
C  0.50900 14.96800 21.80800
C  1.73200 15.79800 22.31000
N  -1.88400 14.96300 26.29100
C  -1.80200 13.88900 25.33700
C  -2.00300 12.62000 26.04700
C  -2.23100 12.99800 27.38100
C  -2.13400 14.38100 27.44000
C  -2.00100 11.30800 25.38900
C  -2.56500 12.36900 28.60400
O  -2.59700 11.20200 28.88600
C  -2.65100 13.63000 29.53600
C  -1.70900 13.32400 30.70400
O  -0.54800 13.61200 30.85100
O  -2.42500 12.78300 31.73900
C  -1.74700 12.43200 33.00000
H  -2.82000 20.35500 28.88800
H  -1.29500 19.57700 22.40800
H  -1.38400 13.32600 23.35000
H  -3.99700 16.13700 30.67400
H  -2.85000 19.02900 30.68100
H  -5.36400 18.87000 29.41900
H  -4.84200 19.74100 30.83000
H  -5.43300 18.16400 31.11400
H  -1.09100 16.29300 31.16600
H  -2.32100 15.35900 31.94000
H  -2.77200 18.13200 32.71100
H  -1.10600 17.73300 33.01600
H  -1.68200 23.21600 27.17400
H  -2.82900 22.23200 27.94600
H  -3.27600 23.03800 26.44700
H  -0.63500 23.83100 24.94300
H  -2.35700 23.96100 24.66000
H  -1.35300 24.20800 23.26200
H  -0.09800 17.60200 21.36000
H  -1.62500 15.14800 21.35200
H  -1.70300 18.30700 19.84500
H  -3.04500 17.76600 20.91500
H  -2.10000 16.63600 19.72400
H  0.68900 14.91400 20.73400
H  0.44900 13.94300 22.17500
H  2.37900 15.16700 22.91900
H  1.50400 16.64400 22.95800
H  2.27500 16.10600 21.41600
H  -1.87700 10.55900 26.17100
H  -1.22400 11.16400 24.63800
H  -2.92400 11.23500 24.81400
H  -3.62000 13.62000 30.03500
H  -0.93600 11.78700 32.66200
H  -2.47100 11.97100 33.67200
H  -1.33200 13.39600 33.29400
Mg 46.57500 15.56900 28.14100
C  44.56200 15.66900 31.04600
C  48.81000 17.67800 29.90300
C  48.47500 15.89400 25.43900
C  44.08300 14.03000 26.41100
N  46.60600 16.68000 30.20000
C  45.68500 16.46700 31.26100
C  46.22100 17.03500 32.63200
C  47.47100 17.85000 32.08000
C  47.66400 17.30100 30.62500
C  47.42800 19.34500 32.31600
C  46.52700 15.97900 33.73800
C  45.74500 16.24800 35.01000
H  45.85300 17.58400 35.68400
N  48.49200 16.46600 27.77300
C  49.24800 17.28900 28.56600
C  50.44800 17.70800 27.92400
C  50.42400 17.08300 26.65100
C  49.08700 16.43000 26.57300
C  51.62500 18.34500 28.64300
C  51.56300 17.00400 25.60900
O  51.50600 16.24700 24.64500
C  52.76200 17.76900 25.80500
N  46.30300 15.06400 26.30000
C  47.23100 15.23300 25.31600
C  46.78800 14.62400 23.96600
C  45.41700 13.98000 24.32900
C  45.21000 14.47700 25.79500
C  46.81500 15.63200 22.79000
C  45.39200 12.40000 24.00500
C  46.02600 11.44500 25.00100
N  44.71500 14.88300 28.57800
C  43.77000 14.28300 27.76600
C  42.56200 14.07100 28.50100
C  42.87400 14.53300 29.85800
C  44.15100 15.04800 29.83300
C  41.33700 13.43900 27.77600
C  42.33300 14.73500 31.22100
O  41.22100 14.31300 31.73900
C  43.47400 15.40400 32.03500
C  42.90400 16.62400 32.75200
O  43.00100 17.79800 32.42500
O  42.29600 16.23900 33.92300
C  41.62900 17.36300 34.61700
H  49.54700 18.32800 30.37800
H  49.03800 16.04400 24.51500
H  43.28300 13.65400 25.77000
H  45.48500 17.77500 32.94600
H  48.36900 17.55200 32.62200
H  46.70500 19.62600 33.08200
H  47.25000 19.85900 31.37100
H  48.39400 19.71000 32.66300
H  47.57800 16.12400 33.98700
H  46.30600 14.94300 33.47900
H  46.10000 15.46800 35.68400
H  44.72500 16.02600 34.69500
H  52.40800 17.59100 28.56400
H  51.48800 18.55900 29.70300
H  51.91000 19.24900 28.10400
H  52.27900 18.66500 26.19400
H  53.28000 18.11700 24.91100
H  53.27200 17.07900 26.47600
H  47.42600 13.78000 23.70400
H  44.61500 14.47500 23.78100
H  47.40800 16.51000 23.04700
H  45.89100 15.98200 22.33100
H  47.49300 15.19100 22.06000
H  45.87200 12.21400 23.04400
H  44.32400 12.22500 23.87100
H  46.31900 11.95200 25.92100
H  46.85500 10.92400 24.52200
H  45.28600 10.67500 25.21600
H  41.73100 12.59000 27.21800
H  40.83300 14.19200 27.17000
H  40.60700 13.00000 28.45600
H  43.76500 14.70400 32.81800
H  42.31400 18.04600 35.11900
H  40.97300 16.95200 35.38400
H  41.01300 17.79000 33.82600

