158

Mg 1.53300 -0.90500 43.60500
C  4.92000 0.17200 43.38200
C  0.47200 1.92200 42.17600
C  -1.41000 -2.49100 42.98300
C  2.91400 -4.07200 44.42500
N  2.62500 0.82000 42.96400
C  3.99500 1.10500 42.89900
C  4.25300 2.44500 42.27500
C  2.74600 3.14100 42.20300
C  1.88800 1.94100 42.49200
C  2.54000 4.41600 43.20000
C  5.07100 2.30200 40.97700
C  6.47000 3.11200 40.86100
H  6.77900 3.87200 39.53400
N  -0.24600 -0.35300 42.75900
C  -0.45400 0.83400 42.22100
C  -1.89400 0.91600 41.77200
C  -2.52100 -0.25100 42.23500
C  -1.37900 -1.10300 42.68000
C  -2.48400 2.15800 41.08500
C  -4.03300 -0.48200 42.24500
O  -4.85100 0.32600 41.85700
C  -4.64800 -1.77500 42.89500
N  0.88100 -2.99500 43.63500
C  -0.40800 -3.36300 43.46900
C  -0.71600 -4.81500 43.98600
C  0.73100 -5.35900 44.26000
C  1.61500 -4.07200 44.02600
C  -1.86100 -4.84900 45.10700
C  1.23400 -6.57500 43.44600
C  2.16000 -7.54100 44.25600
N  3.53100 -1.82100 43.99500
C  3.86100 -3.04500 44.37400
C  5.29900 -3.06500 44.62600
C  5.77100 -1.79800 44.25500
C  4.66100 -1.11400 43.87400
C  5.99900 -4.25200 45.16500
C  6.92700 -0.93100 44.15500
O  8.10100 -1.11200 44.40300
C  6.38800 0.36100 43.61100
C  6.73400 1.39600 44.57300
O  6.14100 1.49200 45.63400
O  7.66600 2.25600 44.07400
C  7.67200 3.68400 44.49400
H  -0.01300 2.84700 41.85600
H  -2.39500 -2.92800 42.80800
H  3.25700 -5.08200 44.65600
H  4.90400 3.01700 42.93700
H  2.42800 3.45500 41.20800
H  3.39000 4.53600 43.87200
H  1.56700 4.39300 43.69200
H  2.36700 5.31200 42.60500
H  4.41500 2.60700 40.16100
H  5.24100 1.24000 40.80100
H  7.32400 2.45700 41.03000
H  6.54700 3.80100 41.70200
H  -2.28500 2.02200 40.02200
H  -2.14600 3.14000 41.41500
H  -3.54600 2.24800 41.31200
H  -5.65300 -1.56200 43.26000
H  -4.08500 -1.83300 43.82700
H  -4.60000 -2.58700 42.16900
H  -1.06300 -5.42300 43.15100
H  0.87500 -5.66300 45.29700
H  -2.80000 -5.32100 44.81500
H  -2.04400 -3.83000 45.44600
H  -1.48200 -5.36300 45.99000
H  1.81500 -6.27600 42.57400
H  0.30300 -7.04200 43.12800
H  3.04700 -7.61300 43.62600
H  1.59000 -8.45900 44.39700
H  2.42900 -7.18200 45.24900
H  5.64300 -4.39300 46.18600
H  7.06000 -4.00800 45.20700
H  5.77100 -5.10700 44.52800
H  6.81400 0.55700 42.62700
H  8.70500 4.01400 44.37600
H  7.44100 3.93800 45.52800
H  6.96200 4.27700 43.91700
Mg 49.65300 34.80300 26.97200
C  47.50800 33.88400 29.54800
C  50.04800 37.93200 28.45200
C  51.47200 35.81100 24.28200
C  48.91500 31.68200 25.31700
N  48.75900 35.88600 28.71600
C  48.10900 35.18900 29.76400
C  48.17100 36.02600 31.09900
C  48.59900 37.49900 30.56500
C  49.12200 37.12700 29.16300
C  47.37500 38.49000 30.47200
C  49.17300 35.35500 32.07400
C  48.64900 35.27000 33.51700
H  47.57900 36.21900 34.06900
N  50.75500 36.53800 26.44200
C  50.73700 37.73700 27.17900
C  51.61800 38.70200 26.53800
C  52.06900 38.07100 25.36700
C  51.40800 36.74900 25.29200
C  51.80600 40.12100 27.09100
C  53.10000 38.65200 24.42500
O  53.43500 38.02900 23.42900
C  53.67900 39.95000 24.60700
N  49.88300 33.99600 24.99000
C  50.78900 34.60700 24.11100
C  51.22100 33.65200 22.95000
C  50.44700 32.32200 23.31300
C  49.72700 32.61900 24.64100
C  50.86200 34.19400 21.57700
C  51.42800 31.05200 23.37400
C  51.34200 30.08700 22.21800
N  48.42700 33.10900 27.29000
C  48.29200 31.89000 26.57800
C  47.27900 31.08000 27.27300
C  47.00500 31.80700 28.47300
C  47.72500 33.00800 28.46300
C  46.83600 29.69500 26.87800
C  46.23500 31.74200 29.66500
O  45.36000 30.94500 29.91300
C  46.66100 32.95000 30.54200
C  47.49400 32.38600 31.59200
O  48.63000 31.97700 31.46800
O  46.72200 32.23200 32.69000
C  47.34600 31.63200 33.90800
H  50.08300 38.94900 28.84800
H  52.15000 36.11200 23.48100
H  48.75600 30.72100 24.82200
H  47.19000 35.99900 31.57400
H  49.45600 37.91900 31.09300
H  47.48900 39.23600 29.68500
H  47.35700 39.14400 31.34400
H  46.44000 37.95400 30.30900
H  50.11800 35.89000 32.17100
H  49.53300 34.37500 31.76200
H  49.55100 35.34400 34.12400
H  48.27600 34.25500 33.65600
H  51.21900 40.72800 26.40300
H  52.83800 40.47200 27.10400
H  51.45000 40.24500 28.11400
H  53.14000 40.89700 24.59300
H  54.41100 40.02700 23.80300
H  54.22400 39.97100 25.55100
H  52.28000 33.40400 23.01800
H  49.78600 32.21000 22.45300
H  51.71400 33.80500 21.02000
H  51.02000 35.27200 21.53400
H  49.90700 33.87100 21.16200
H  51.22600 30.50600 24.29500
H  52.44100 31.44100 23.47300
H  50.87400 29.15900 22.54500
H  52.27800 29.87400 21.70100
H  50.62000 30.49400 21.51100
H  45.85800 29.63000 27.35500
H  47.46600 28.94700 27.36000
H  46.83200 29.57300 25.79500
H  45.71800 33.33600 30.92900
H  47.04400 30.58600 33.85600
H  46.85200 32.13600 34.74000
H  48.41300 31.84000 33.98800

