158

Mg 36.15200 1.08900 29.84200
C  33.89500 1.90200 32.32000
C  38.54300 0.66800 32.39400
C  38.41700 0.30500 27.40700
C  33.67500 1.24700 27.46200
N  36.19500 1.43300 32.09300
C  35.12300 1.77600 32.82300
C  35.48300 1.73100 34.29800
C  37.01400 1.65500 34.29800
C  37.33700 1.29900 32.84500
C  37.85700 2.75100 34.85300
C  34.83000 0.51000 35.00300
C  35.07200 0.43700 36.57600
H  35.70000 1.64200 37.33800
N  38.17100 0.64800 29.91100
C  38.96200 0.50300 31.01900
C  40.33400 0.10100 30.54100
C  40.35600 0.05600 29.15400
C  38.92200 0.45500 28.73900
C  41.46800 -0.18700 31.54900
C  41.55600 -0.34600 28.18500
O  41.38500 -0.35900 26.95500
C  42.77600 -1.06700 28.74000
N  36.04900 0.63300 27.76500
C  37.08900 0.31900 26.92200
C  36.64200 0.23300 25.44100
C  35.10100 0.41500 25.51600
C  34.92400 0.78000 27.00600
C  37.40500 1.18400 24.56800
C  34.28900 -0.78500 25.06800
C  34.00100 -1.75300 26.19300
N  34.18000 1.60800 29.83000
C  33.28900 1.62700 28.77800
C  31.99700 2.08200 29.30400
C  32.18600 2.16900 30.65900
C  33.51400 1.85900 30.92400
C  30.78700 2.24900 28.40100
C  31.51100 2.51500 31.88900
O  30.38300 2.99600 32.08900
C  32.61500 2.34000 32.94000
C  32.61100 3.55600 33.75200
O  32.81200 4.65100 33.29900
O  32.44000 3.24400 35.10400
C  32.34400 4.30100 36.13800
H  39.30200 0.38400 33.12600
H  39.06500 -0.07900 26.61600
H  32.93800 1.49500 26.69500
H  35.26900 2.69900 34.75200
H  37.30200 0.73400 34.80500
H  38.62800 2.29500 35.47400
H  37.29900 3.41300 35.51400
H  38.41300 3.30600 34.09600
H  35.26000 -0.41900 34.63000
H  33.75500 0.49200 34.82300
H  35.61000 -0.48600 36.79100
H  34.04000 0.33000 36.90900
H  41.34700 -1.18100 31.97900
H  41.31800 0.50200 32.38000
H  42.51400 0.00200 31.30600
H  42.56200 -1.76900 29.54600
H  43.57700 -0.36300 28.96600
H  43.27600 -1.78700 28.09200
H  36.87500 -0.80800 25.21800
H  34.83200 1.27700 24.90500
H  37.84300 0.53500 23.80900
H  38.30900 1.61400 25.00000
H  36.79700 1.88800 24.00000
H  34.80300 -1.33700 24.28000
H  33.31100 -0.36400 24.83300
H  33.15300 -1.48300 26.82100
H  34.83000 -1.74600 26.90000
H  33.88900 -2.79000 25.87700
H  30.59900 1.25900 27.98400
H  31.05400 2.98200 27.64000
H  29.91200 2.58100 28.95800
H  32.26400 1.52900 33.57800
H  32.32700 5.24600 35.59500
H  33.22800 4.31700 36.77500
H  31.48100 4.20300 36.79700
Mg 6.60700 56.88700 41.39300
C  4.93700 53.70100 41.74200
C  9.23500 55.25600 40.20400
C  8.07300 59.92900 40.79000
C  3.56600 58.45200 42.36000
N  6.91500 54.70100 40.86800
C  6.17700 53.62300 41.09800
C  6.86800 52.38300 40.80500
C  8.29500 52.85300 40.47700
C  8.16300 54.35000 40.48600
C  9.45500 52.32100 41.28800
C  6.29500 51.60200 39.60200
C  6.90100 50.22500 39.30200
H  6.11400 49.38900 38.26100
N  8.44800 57.48200 40.46700
C  9.36900 56.59000 40.02500
C  10.49000 57.33800 39.47400
C  10.15500 58.76400 39.57100
C  8.83900 58.77700 40.33600
C  11.66100 56.72500 38.75300
C  10.90900 59.94100 39.08000
O  12.01700 59.76900 38.61800
C  10.46500 61.41500 39.13400
N  5.97300 58.85800 41.53600
C  6.74400 59.96900 41.26600
C  6.12700 61.22400 41.82400
C  4.65500 60.82600 42.18900
C  4.69300 59.25700 42.07500
C  6.88600 61.93600 42.95500
C  3.50000 61.40400 41.29400
C  2.45200 62.28600 42.04400
N  4.62700 56.23300 41.89900
C  3.50800 57.03500 42.27800
C  2.49100 56.12800 42.70900
C  3.02900 54.83900 42.59500
C  4.35800 54.98000 42.04100
C  1.19300 56.41800 43.23400
C  2.73400 53.48700 42.94600
O  1.81900 52.94400 43.49700
C  4.04300 52.64800 42.51800
C  3.51900 51.53400 41.75800
O  2.79600 51.63300 40.79500
O  3.78500 50.35900 42.40100
C  3.63700 49.10200 41.58900
H  10.24200 54.84600 40.10600
H  8.42800 60.95700 40.69200
H  2.72000 59.06700 42.67300
H  6.88500 51.80400 41.72800
H  8.44500 52.56400 39.43700
H  9.86400 53.13400 41.88700
H  10.23400 52.06300 40.57000
H  9.16300 51.55900 42.01000
H  6.36500 52.12600 38.64900
H  5.23700 51.50000 39.84500
H  6.86000 49.73300 40.27400
H  7.96000 50.30900 39.06200
H  11.68100 56.87400 37.67300
H  11.65400 55.64200 38.87600
H  12.64100 57.01200 39.13300
H  10.33900 61.74700 40.16400
H  9.52800 61.56900 38.59800
H  11.27400 61.93800 38.62500
H  6.00300 61.95200 41.02200
H  4.35700 61.01800 43.21900
H  6.30000 62.08900 43.86100
H  7.00800 62.95800 42.59700
H  7.88000 61.49100 42.99900
H  2.83500 60.62800 40.91400
H  3.83600 61.93300 40.40200
H  2.55200 63.26200 41.57000
H  2.69000 62.38100 43.10300
H  1.44800 61.87100 41.94800
H  1.20100 56.18000 44.29700
H  0.53800 55.65900 42.80400
H  0.81700 57.42700 43.06800
H  4.56700 52.27100 43.39600
H  4.64900 48.69700 41.56900
H  3.29200 49.05600 40.55700
H  3.07900 48.37200 42.17600

