158

Mg 24.17100 -4.77000 46.02600
C  26.55300 -2.91400 44.24100
C  21.75900 -3.85700 43.63100
C  22.09100 -7.55200 46.97500
C  26.83200 -6.31200 47.82100
N  24.26300 -3.66000 44.00500
C  25.33200 -2.85300 43.58300
C  24.92200 -2.05600 42.32000
C  23.35400 -2.29500 42.32800
C  23.07700 -3.31600 43.40800
C  22.46200 -1.06700 42.62500
C  25.71900 -2.52100 41.09100
C  26.50400 -1.41500 40.39600
H  26.13100 -1.22300 38.88000
N  22.17600 -5.51300 45.52300
C  21.36900 -4.93700 44.50300
C  20.07500 -5.58400 44.42700
C  20.16200 -6.72600 45.36300
C  21.52800 -6.60900 46.05800
C  18.91600 -5.16100 43.54600
C  18.98200 -7.62300 45.67300
O  18.05300 -7.72300 44.88700
C  19.00900 -8.59300 46.89700
N  24.44800 -6.56900 47.39700
C  23.44100 -7.53100 47.50200
C  24.01700 -8.81200 48.17200
C  25.54800 -8.40700 48.47900
C  25.59600 -6.97900 47.95300
C  23.10700 -9.18100 49.46700
C  26.61500 -9.22600 47.66200
C  27.15200 -10.44500 48.42900
N  26.22100 -4.57300 46.25500
C  27.14300 -5.14600 47.08500
C  28.42200 -4.47000 46.88600
C  28.25100 -3.59300 45.79700
C  26.87500 -3.69600 45.43600
C  29.67000 -4.86800 47.60100
C  28.93400 -2.68200 44.92500
O  30.08300 -2.29800 44.90600
C  27.80100 -2.13600 43.88600
C  27.65600 -0.69400 44.10600
O  26.90500 -0.19200 44.92400
O  28.69500 -0.02100 43.45600
C  29.06900 1.31600 43.94500
H  20.97000 -3.50700 42.96200
H  21.56500 -8.50300 47.07400
H  27.71300 -6.59300 48.40300
H  25.04800 -0.98800 42.50100
H  23.06100 -2.63900 41.33600
H  22.99000 -0.13400 42.42800
H  22.22400 -1.09000 43.68900
H  21.60600 -1.23900 41.97300
H  25.08000 -2.85400 40.27400
H  26.41300 -3.27700 41.46100
H  27.52600 -1.76600 40.25500
H  26.41400 -0.38000 40.72600
H  18.79000 -5.93000 42.78300
H  19.08900 -4.22100 43.02400
H  18.16700 -4.99300 44.32000
H  19.29600 -8.12400 47.83900
H  19.61700 -9.49100 46.78200
H  18.02300 -9.05600 46.89500
H  23.87900 -9.61800 47.45100
H  25.72800 -8.38200 49.55400
H  22.18600 -8.60000 49.41200
H  23.56700 -8.93400 50.42300
H  22.80200 -10.21200 49.28600
H  27.45900 -8.64500 47.29200
H  26.18100 -9.51400 46.70500
H  26.82000 -10.44800 49.46700
H  28.24000 -10.37700 48.46200
H  26.84000 -11.34700 47.90200
H  30.10500 -5.78600 47.20400
H  29.57200 -5.04200 48.67200
H  30.43800 -4.12400 47.39200
H  28.04100 -2.29100 42.83400
H  28.34600 1.86700 44.54700
H  29.34800 1.96100 43.11200
H  29.97000 1.24500 44.55400
Mg -12.60700 16.02200 42.31500
C  -9.56600 14.62800 41.55500
C  -11.68400 18.84200 40.44800
C  -15.79500 17.10900 41.93400
C  -13.82100 12.78100 42.98200
N  -10.83200 16.59000 41.13300
C  -9.67100 15.88200 40.96200
C  -8.63300 16.70800 40.21100
C  -9.29600 18.07600 39.86200
C  -10.72700 17.83600 40.48400
C  -8.39600 19.29500 40.31600
C  -8.03000 15.90600 38.95400
C  -6.43500 15.72800 38.91900
H  -5.78800 16.65800 37.78200
N  -13.54600 17.92400 41.66900
C  -12.98400 18.89900 40.93300
C  -13.90400 19.99600 40.72700
C  -15.11500 19.47500 41.08800
C  -14.81500 18.13300 41.61000
C  -13.53600 21.29900 40.14300
C  -16.50500 20.20200 41.02000
O  -16.66600 21.20000 40.34300
C  -17.65300 19.66200 41.80200
N  -14.57100 15.06900 42.25200
C  -15.76100 15.74400 42.22200
C  -16.94100 14.76400 42.43300
C  -16.22600 13.51900 43.17200
C  -14.77600 13.80400 42.78200
C  -18.13900 15.27700 43.30300
C  -16.74700 12.13900 42.69700
C  -16.66200 11.00300 43.72000
N  -11.84400 14.05900 42.42100
C  -12.44300 12.81200 42.73900
C  -11.38300 11.81200 42.95900
C  -10.21200 12.47200 42.54200
C  -10.59300 13.81300 42.11900
C  -11.58400 10.41700 43.48900
C  -8.83700 12.30400 42.30000
O  -8.07900 11.36700 42.49400
C  -8.31700 13.71300 41.65100
C  -7.44700 14.19500 42.68600
O  -7.84000 14.60800 43.77800
O  -6.16300 14.10700 42.26600
C  -5.11400 14.59400 43.21300
H  -11.30800 19.72500 39.92700
H  -16.82800 17.38400 41.71400
H  -14.13500 11.83300 43.42400
H  -7.83300 16.77900 40.94800
H  -9.49900 18.24300 38.80400
H  -8.35200 20.03300 39.51400
H  -7.40900 18.96700 40.63900
H  -8.74800 19.84100 41.19100
H  -8.36000 16.35000 38.01500
H  -8.45800 14.90400 38.97700
H  -6.18100 14.68000 38.76000
H  -5.96400 16.06100 39.84300
H  -13.93700 21.35200 39.13100
H  -12.45300 21.38300 40.05500
H  -13.87800 22.04400 40.86100
H  -18.26900 19.06500 41.12900
H  -18.26100 20.50600 42.12800
H  -17.21000 19.18100 42.67400
H  -17.40000 14.40300 41.51200
H  -16.44500 13.70500 44.22400
H  -18.99200 14.73100 42.89900
H  -18.28700 16.31800 43.01700
H  -18.05200 15.23800 44.38900
H  -16.05400 11.84900 41.90700
H  -17.72100 12.24000 42.21800
H  -15.97400 11.28600 44.51600
H  -16.28700 10.03700 43.38400
H  -17.64500 11.01600 44.19100
H  -11.95200 9.64700 42.81000
H  -12.19500 10.37800 44.39100
H  -10.56800 10.06300 43.66300
H  -7.76300 13.66300 40.71400
H  -5.04600 15.68100 43.21300
H  -4.12900 14.14300 43.09600
H  -5.33000 14.33800 44.25000

