158

Mg 46.78800 34.53600 28.44000
C  45.43700 32.74500 31.07200
C  47.15700 37.22900 30.53700
C  47.79800 36.50000 25.84400
C  46.08700 31.97900 26.36000
N  46.24800 34.85700 30.60000
C  45.83200 33.97700 31.51400
C  45.98900 34.61600 32.96500
C  45.97000 36.14700 32.58600
C  46.53800 36.07600 31.09700
C  44.59600 36.83100 32.57600
C  47.18200 34.11800 33.75000
C  47.16300 33.72400 35.19600
H  46.70800 34.81600 36.10500
N  47.35800 36.62100 28.22600
C  47.54900 37.51400 29.20200
C  48.09500 38.73300 28.68300
C  48.36500 38.52000 27.29700
C  47.81900 37.20100 27.03700
C  48.47100 39.92600 29.47500
C  48.98300 39.47600 26.28200
O  49.24400 39.09300 25.16800
C  49.40400 40.74800 26.68500
N  46.94400 34.31200 26.38300
C  47.47400 35.18900 25.48500
C  47.57400 34.58200 24.02900
C  46.96600 33.12800 24.25100
C  46.60100 33.15300 25.74500
C  46.63500 35.41200 23.10400
C  47.97000 32.00000 23.80200
C  47.45800 31.00500 22.74100
N  45.95500 32.72300 28.60700
C  45.85800 31.74300 27.66900
C  45.34200 30.60800 28.28000
C  45.00700 30.94800 29.59000
C  45.52900 32.20900 29.76100
C  44.92400 29.27700 27.63900
C  44.51700 30.48800 30.89300
O  44.04800 29.42400 31.27600
C  44.51800 31.78200 31.80200
C  44.92100 31.42600 33.12800
O  46.01700 30.99500 33.46700
O  43.90100 31.64300 33.99000
C  44.01500 30.96200 35.25900
H  47.31600 38.03600 31.25500
H  48.04400 37.07900 24.95100
H  45.83300 31.22200 25.61500
H  45.08000 34.41100 33.53000
H  46.72900 36.67600 33.16200
H  44.67400 37.70100 33.22800
H  43.80000 36.21300 32.99100
H  44.20300 37.14300 31.60900
H  48.10800 34.68300 33.63700
H  47.44600 33.12300 33.39400
H  48.05800 33.17900 35.49600
H  46.31200 33.04300 35.20600
H  49.54600 40.06200 29.35800
H  48.21100 39.84500 30.53100
H  48.01700 40.85100 29.12100
H  49.85000 41.22400 25.81200
H  50.16200 40.69800 27.46700
H  48.47100 41.22300 26.98700
H  48.54400 34.59300 23.53300
H  46.05200 33.02400 23.66500
H  46.48400 36.38700 23.56700
H  45.61200 35.03800 23.09400
H  46.96200 35.54800 22.07300
H  48.20300 31.40700 24.68700
H  48.90700 32.45300 23.47800
H  47.15600 30.11900 23.30000
H  48.14800 30.62500 21.98700
H  46.61600 31.35400 22.14300
H  45.41600 29.06800 26.68900
H  43.86200 29.34400 27.40100
H  45.17500 28.48300 28.34200
H  43.47700 32.10500 31.82000
H  44.50300 29.99800 35.11100
H  43.01400 30.64600 35.55300
H  44.47600 31.51900 36.07500
Mg -5.35900 25.19100 26.58700
C  -3.39600 26.71000 29.07400
C  -6.45500 22.85200 29.00300
C  -7.29100 23.62000 24.20400
C  -3.88500 27.27900 24.31500
N  -4.86200 24.78400 28.78500
C  -4.23700 25.70900 29.59400
C  -4.47300 25.43800 31.07700
C  -5.12600 23.92600 31.02900
C  -5.54100 23.84400 29.50200
C  -4.09300 22.91200 31.51800
C  -5.50700 26.50100 31.67200
C  -5.44700 26.74600 33.18400
H  -4.94200 25.52600 34.00400
N  -6.70900 23.44000 26.56100
C  -7.05800 22.70200 27.66800
C  -7.96200 21.65800 27.23000
C  -8.29100 21.93200 25.84400
C  -7.43100 23.02700 25.47500
C  -8.48500 20.54900 28.11600
C  -9.34900 21.28800 24.93200
O  -9.51800 21.53700 23.77100
C  -10.33900 20.10100 25.45000
N  -5.44400 25.29200 24.56300
C  -6.39500 24.68400 23.77300
C  -6.24700 25.04600 22.22800
C  -5.41100 26.35900 22.38100
C  -4.87500 26.36500 23.88300
C  -5.62300 23.94700 21.46500
C  -6.25400 27.68200 22.28700
C  -6.65600 28.09200 20.86800
N  -3.80000 26.51900 26.68600
C  -3.35000 27.36500 25.63500
C  -2.36300 28.33600 26.08900
C  -2.37600 28.13800 27.50800
C  -3.22600 26.99000 27.74700
C  -1.56000 29.38300 25.36000
C  -1.92500 28.64400 28.82300
O  -1.40100 29.66200 29.13200
C  -2.54900 27.67900 29.89100
C  -1.54600 27.03400 30.68500
O  -0.87000 26.09800 30.33800
O  -1.49200 27.56200 31.93100
C  -0.61000 26.94500 32.89200
H  -6.83500 22.14000 29.73700
H  -7.94100 23.17600 23.44700
H  -3.67300 28.06600 23.58900
H  -3.48900 25.45800 31.54700
H  -6.02100 24.04000 31.64000
H  -3.36000 23.29900 32.22500
H  -3.56400 22.72500 30.58400
H  -4.44000 22.03200 32.06000
H  -6.53300 26.26600 31.39200
H  -5.25000 27.44500 31.19300
H  -6.45000 27.03000 33.50400
H  -4.78900 27.59900 33.35100
H  -9.46000 20.84900 28.49900
H  -7.85000 20.45600 28.99700
H  -8.59400 19.57400 27.64000
H  -9.70400 19.46200 26.06300
H  -10.64900 19.58000 24.54500
H  -11.10400 20.51200 26.10900
H  -7.25600 25.27300 21.88600
H  -4.57200 26.38100 21.68600
H  -5.75400 22.97100 21.93300
H  -4.59600 24.12700 21.14700
H  -6.17500 23.73000 20.55000
H  -5.65800 28.49600 22.70000
H  -7.13600 27.68000 22.92700
H  -6.08400 28.94400 20.50000
H  -7.67700 28.47100 20.81900
H  -6.65000 27.26600 20.15600
H  -1.58400 30.26200 26.00400
H  -1.95200 29.52700 24.35300
H  -0.50300 29.12000 25.37600
H  -3.17600 28.30200 30.52900
H  0.33400 26.56800 32.50000
H  -1.12600 26.33900 33.63700
H  -0.33600 27.77400 33.54500

