158

Mg 40.86700 41.22700 27.20500
C  40.24100 43.55600 29.80200
C  41.39000 38.92500 29.67900
C  42.17300 39.21000 24.92900
C  40.68300 43.81000 24.92100
N  40.79000 41.29800 29.44700
C  40.33400 42.25000 30.26500
C  40.26000 41.84600 31.76000
C  40.69200 40.35800 31.67500
C  41.01300 40.16000 30.17900
C  41.98900 39.93700 32.53500
C  38.91100 42.18500 32.50200
C  38.40900 41.21000 33.52400
H  37.87500 41.86000 34.68900
N  41.61400 39.30400 27.29400
C  41.68800 38.48000 28.35900
C  42.33000 37.21800 28.04900
C  42.63300 37.32300 26.69700
C  42.19700 38.68000 26.25500
C  42.59100 36.07600 29.03900
C  43.25200 36.22400 25.78500
O  43.66800 36.35000 24.62900
C  43.39500 34.90800 26.32800
N  41.43500 41.48900 25.19500
C  41.86800 40.46100 24.38800
C  42.01100 40.92000 22.89500
C  41.39100 42.37700 22.98900
C  41.14900 42.57900 24.44300
C  43.36900 40.88000 22.30400
C  40.17700 42.53700 22.10300
C  38.84600 41.83400 22.63700
N  40.40900 43.22400 27.26900
C  40.47100 44.17200 26.28700
C  40.15700 45.46200 26.82800
C  40.06600 45.28600 28.23300
C  40.23000 43.89400 28.40600
C  40.02000 46.75300 26.08900
C  39.80900 45.86100 29.45700
O  39.60300 47.01100 29.81700
C  39.90300 44.77300 30.58800
C  41.01400 45.14000 31.48800
O  42.19500 45.32100 31.25500
O  40.50500 45.27300 32.76400
C  41.42700 45.69500 33.82100
H  41.53200 38.20400 30.48700
H  42.67300 38.50900 24.25700
H  40.73200 44.50300 24.07800
H  41.09500 42.29600 32.29800
H  39.86400 39.69200 31.91700
H  41.68900 39.02200 33.04600
H  42.26900 40.70700 33.25500
H  42.85800 39.75900 31.90200
H  38.07300 42.24800 31.80900
H  39.02600 43.16900 32.95600
H  39.25600 40.62000 33.87300
H  37.71500 40.51100 33.05700
H  42.54000 36.39800 30.08000
H  43.50600 35.49400 28.92700
H  41.88000 35.26500 28.88200
H  42.52700 34.54900 26.88100
H  44.18000 35.06100 27.06900
H  43.61600 34.11200 25.61700
H  41.40400 40.30600 22.23000
H  42.18100 43.06700 22.69400
H  43.39200 41.75900 21.66100
H  43.37800 40.02000 21.63300
H  44.15800 40.83400 23.05500
H  40.40700 41.94900 21.21500
H  40.01000 43.59000 21.87900
H  38.57800 41.09700 21.88000
H  38.05900 42.53000 22.92500
H  39.05300 41.32500 23.57800
H  39.70900 46.55900 25.06300
H  41.01700 47.19300 26.10800
H  39.35400 47.51800 26.48900
H  39.00600 44.70200 31.20400
H  41.98200 46.57300 33.49000
H  42.20100 44.93000 33.88800
H  40.96800 45.92900 34.78100
Mg 35.84300 50.04900 25.56400
C  35.48600 48.49800 28.63000
C  35.12900 53.13000 27.04700
C  35.49800 51.64000 22.46400
C  36.39000 47.07400 23.97700
N  35.18200 50.63900 27.52400
C  35.20800 49.88600 28.67500
C  35.05800 50.66900 29.99800
C  34.90600 52.10600 29.43400
C  35.08400 51.97000 27.90600
C  33.53800 52.81100 29.90200
C  36.16300 50.54400 31.14400
C  35.72600 49.92600 32.44000
H  34.29600 50.21200 33.11500
N  35.39500 52.15300 24.88100
C  35.16200 53.21900 25.64700
C  34.86600 54.36900 24.84700
C  34.94800 53.94800 23.52300
C  35.28100 52.58900 23.56800
C  34.51800 55.76500 25.32900
C  34.84900 54.74100 22.18500
O  34.91100 54.16700 21.09800
C  34.84000 56.22400 22.23400
N  35.81900 49.36900 23.46100
C  35.74600 50.26200 22.40800
C  36.04800 49.57100 21.06000
C  36.40200 48.07700 21.57400
C  36.19700 48.16100 23.11200
C  34.77500 49.54900 20.09500
C  37.80800 47.53700 21.03400
C  38.95000 48.03200 21.96900
N  35.87900 48.14600 26.17700
C  36.24200 47.09700 25.40300
C  36.31500 45.93000 26.33500
C  35.93800 46.43500 27.62900
C  35.74300 47.78300 27.43200
C  36.79500 44.58500 25.93800
C  35.88800 46.11400 29.01700
O  36.02400 45.02400 29.69900
C  35.56200 47.46100 29.75400
C  34.24100 47.10000 30.34400
O  33.20000 47.61900 29.96800
O  34.34900 46.38600 31.54500
C  33.17100 46.02400 32.28100
H  34.94400 54.03100 27.63500
H  35.47700 51.96300 21.42100
H  36.76400 46.14300 23.54700
H  34.10500 50.37600 30.43700
H  35.76000 52.69300 29.77000
H  33.78900 53.85800 30.07300
H  33.10100 52.38100 30.80200
H  32.78200 52.76100 29.11800
H  36.73700 51.46700 31.22600
H  36.85500 49.82400 30.71000
H  36.36200 50.38900 33.19500
H  36.01100 48.87500 32.40900
H  34.35800 55.78500 26.40700
H  33.66900 56.15600 24.76800
H  35.54300 56.12400 25.24000
H  35.46800 56.65300 23.01400
H  33.87600 56.67300 22.47200
H  35.23000 56.48800 21.25100
H  36.92300 49.97900 20.55200
H  35.62300 47.38500 21.25400
H  33.98900 50.24000 20.40000
H  34.22900 48.60900 20.17100
H  35.02900 49.80600 19.06600
H  38.06700 47.79700 20.00800
H  37.70300 46.46800 21.22100
H  39.23300 47.19200 22.60400
H  38.59200 48.74400 22.71300
H  39.70600 48.64100 21.47400
H  36.01800 43.99300 25.45300
H  37.09600 44.12400 26.87900
H  37.63700 44.59100 25.24600
H  36.44400 47.49700 30.39400
H  32.87300 45.00400 32.03700
H  32.33300 46.66800 32.01100
H  33.45700 45.98500 33.33200

