158

Mg -0.16700 7.10600 27.86100
C  0.61400 9.54100 30.20600
C  -0.50500 4.78400 30.32400
C  -0.71700 4.79200 25.53300
C  0.62500 9.45900 25.24800
N  0.01800 7.14400 29.94600
C  0.22400 8.27600 30.75000
C  0.09000 7.89500 32.23000
C  0.03600 6.33600 32.16400
C  -0.17800 6.06200 30.71100
C  1.26100 5.65300 32.82800
C  -1.19900 8.49900 32.82400
C  -1.45200 8.52700 34.28800
H  -0.49900 7.87300 35.29500
N  -0.56300 5.02400 27.94200
C  -0.73800 4.28400 29.03500
C  -0.95100 2.89100 28.65700
C  -0.94100 2.89700 27.21600
C  -0.75400 4.27400 26.82700
C  -0.97300 1.76300 29.57300
C  -0.95300 1.69700 26.19800
O  -0.65500 1.86500 25.05400
C  -1.40000 0.40600 26.60300
N  -0.11500 7.15200 25.75900
C  -0.49700 6.09600 25.02600
C  -0.65500 6.46600 23.52400
C  -0.43300 7.92600 23.47600
C  0.06800 8.20400 24.90400
C  0.25100 5.62500 22.63400
C  -1.66600 8.85600 23.26400
C  -1.55600 9.94800 22.25800
N  0.57400 9.06000 27.76500
C  0.84400 9.88100 26.63100
C  1.30700 11.18900 27.12500
C  1.09500 11.09200 28.52400
C  0.72600 9.81200 28.81900
C  1.72600 12.37600 26.25100
C  1.26600 11.81700 29.72700
O  1.69200 12.93000 29.91000
C  0.77700 10.91900 30.88000
C  1.82600 10.88500 31.93600
O  2.99400 10.49900 31.82000
O  1.37500 11.44100 33.10100
C  2.35200 11.25600 34.19100
H  -0.43500 3.98800 31.06800
H  -0.90900 4.10500 24.70700
H  0.80800 10.12700 24.40400
H  0.93900 8.27000 32.80100
H  -0.82300 5.95200 32.71500
H  1.59200 4.74600 32.32300
H  0.91200 5.29300 33.79600
H  2.05500 6.37100 33.03100
H  -2.04400 7.96900 32.38500
H  -1.16400 9.52200 32.45000
H  -2.46700 8.14100 34.37800
H  -1.48500 9.55000 34.66300
H  -0.41900 0.87900 29.25800
H  -2.00800 1.47700 29.76200
H  -0.54800 2.08800 30.52200
H  -1.62100 -0.06600 25.64600
H  -2.30100 0.56100 27.19600
H  -0.63400 -0.15200 27.14200
H  -1.65900 6.21200 23.18400
H  0.42100 8.03900 22.80700
H  1.20400 5.61900 23.16200
H  0.40700 6.04400 21.64000
H  -0.08700 4.60600 22.44600
H  -1.84000 9.36200 24.21400
H  -2.61900 8.32900 23.22500
H  -2.19500 9.64500 21.42900
H  -0.52000 10.20400 22.03600
H  -1.92200 10.84700 22.75500
H  1.18000 13.28700 26.49500
H  1.44900 12.19200 25.21300
H  2.79900 12.49100 26.40200
H  -0.11600 11.21300 31.43200
H  2.02600 11.81900 35.06500
H  3.32500 11.58200 33.82400
H  2.33400 10.20500 34.48200
Mg 34.63700 2.79900 29.96800
C  32.18200 3.77600 32.29800
C  37.11800 3.24200 32.36400
C  36.88500 1.77500 27.70700
C  32.23500 3.19400 27.43700
N  34.65700 3.69500 32.12000
C  33.53500 3.95100 32.85100
C  33.88100 3.97700 34.30800
C  35.48300 4.09700 34.26800
C  35.81500 3.60500 32.81400
C  36.21900 5.46800 34.48900
C  33.36400 2.59800 34.95500
C  33.38200 2.59100 36.47900
H  33.90900 3.80300 37.28000
N  36.71400 2.52900 30.00000
C  37.57200 2.76100 31.11400
C  38.92400 2.33700 30.80300
C  38.90500 1.86000 29.45300
C  37.46100 2.06600 28.97900
C  40.09800 2.46900 31.74200
C  40.07800 1.28700 28.67600
O  40.02100 0.92300 27.51100
C  41.45500 1.15900 29.29700
N  34.58000 2.49900 27.92100
C  35.62700 2.01900 27.15800
C  35.33800 2.22000 25.70900
C  33.72900 2.31000 25.74000
C  33.47900 2.73100 27.10000
C  36.01700 3.57400 25.35200
C  33.05800 0.96900 25.36000
C  33.15900 0.65500 23.86900
N  32.59200 3.25300 29.88200
C  31.80300 3.48000 28.78000
C  30.44900 3.75000 29.20300
C  30.56900 3.86600 30.57600
C  31.90200 3.60800 30.93300
C  29.20500 3.83900 28.30100
C  29.80200 4.10900 31.78300
O  28.58200 4.31400 31.97800
C  30.83800 4.00300 32.94200
C  30.81600 5.25200 33.66400
O  31.23500 6.36200 33.24900
O  30.15200 5.06200 34.79700
C  30.23400 6.09100 35.81200
H  37.78000 3.25500 33.23200
H  37.65500 1.49000 26.98700
H  31.50100 3.20500 26.62800
H  33.36400 4.86600 34.66900
H  35.82700 3.52300 35.12800
H  35.55400 6.17900 34.98100
H  36.37000 5.89500 33.49800
H  37.14700 5.33400 35.04500
H  34.06600 1.84400 34.59900
H  32.38800 2.27400 34.59400
H  34.07600 1.78000 36.70200
H  32.35800 2.42000 36.81000
H  40.83600 3.08000 31.22300
H  40.53500 1.52400 32.06500
H  39.75700 2.95500 32.65600
H  41.69300 2.13400 29.72200
H  42.16000 0.85500 28.52400
H  41.49200 0.34200 30.01800
H  35.79400 1.41500 25.13300
H  33.43600 3.13600 25.09200
H  36.71500 3.96900 26.09000
H  35.25900 4.31800 25.10600
H  36.60800 3.36600 24.46000
H  32.01000 0.89200 25.64900
H  33.53000 0.22900 26.00700
H  32.39300 1.14600 23.26900
H  33.13300 -0.41400 23.65800
H  34.16300 0.95200 23.56600
H  28.80700 2.83500 28.14900
H  29.45900 4.52400 27.49200
H  28.37300 4.34900 28.78700
H  30.58000 3.18300 33.61200
H  31.23500 6.32400 36.17500
H  29.69000 5.85700 36.72700
H  29.65000 6.96600 35.52700

