158

Mg 41.63100 8.93700 30.14500
C  43.50100 10.09100 32.81400
C  39.17700 7.93700 32.33200
C  39.96000 7.92900 27.44800
C  44.43400 9.48800 28.06500
N  41.34200 9.02900 32.33400
C  42.26600 9.50900 33.23900
C  41.71100 9.49600 34.70200
C  40.31300 8.51600 34.51900
C  40.25100 8.48000 32.96400
C  40.48400 7.08100 35.05400
C  41.49300 10.91600 35.26000
C  42.19400 11.29800 36.60300
H  41.41200 12.04000 37.70700
N  39.84300 8.00000 29.94600
C  38.91400 7.73700 30.93300
C  37.71600 7.25100 30.30800
C  37.95100 7.28100 28.88800
C  39.30300 7.78000 28.72300
C  36.58700 6.67500 31.07500
C  36.91600 7.07200 27.76200
O  37.22900 7.17800 26.54600
C  35.55900 6.73500 28.08800
N  42.12400 8.76800 28.07900
C  41.24400 8.36400 27.13300
C  41.81900 8.49600 25.66600
C  43.29300 8.92000 25.92600
C  43.37000 8.94100 27.45400
C  41.66000 7.21500 24.83400
C  43.76300 10.15800 25.14000
C  43.19700 11.50200 25.53900
N  43.53800 9.71600 30.34900
C  44.48600 9.98900 29.38000
C  45.59100 10.61500 30.05300
C  45.18700 10.74000 31.39000
C  44.03700 10.13500 31.50200
C  46.89500 10.88400 29.43500
C  45.69300 11.13100 32.67900
O  46.78900 11.55500 32.96800
C  44.57700 10.75800 33.72500
C  45.11500 9.76700 34.75400
O  45.28500 8.55300 34.59100
O  45.36200 10.47900 35.83600
C  46.13200 9.73700 36.90900
H  38.32700 7.63700 32.94800
H  39.33700 7.67400 26.58800
H  45.31700 9.68800 27.45400
H  42.41100 8.95000 35.33400
H  39.52000 9.01700 35.07400
H  41.51400 6.99100 35.40000
H  40.37300 6.29300 34.30900
H  39.80800 6.82800 35.87100
H  40.43800 10.88800 35.53200
H  41.57800 11.68100 34.48800
H  42.99400 12.00200 36.37600
H  42.70500 10.40600 36.96400
H  35.74400 7.36400 31.03300
H  36.81700 6.41900 32.10900
H  36.27700 5.71700 30.65700
H  34.96400 6.92000 27.19400
H  35.20600 7.44500 28.83700
H  35.56400 5.69300 28.40700
H  41.30000 9.30900 25.15800
H  43.99100 8.11600 25.69100
H  41.44100 6.32100 25.41600
H  42.51100 7.02700 24.17900
H  40.76300 7.29200 24.21800
H  43.50700 9.97900 24.09600
H  44.84500 10.10500 25.26000
H  42.38200 11.46100 26.26100
H  42.85200 11.93900 24.60200
H  43.96700 12.05800 26.07500
H  47.04600 11.90700 29.09000
H  46.89700 10.41900 28.44900
H  47.68800 10.49900 30.07700
H  44.25700 11.67500 34.21900
H  46.80900 8.94800 36.58100
H  45.43000 9.32500 37.63400
H  46.81300 10.38200 37.46400
Mg 0.55900 44.27000 25.43000
C  2.57100 43.50900 28.40500
C  -2.02600 43.22100 27.36800
C  -1.07700 43.21400 22.73600
C  3.58700 44.21500 23.66800
N  0.36500 43.50100 27.69500
C  1.24500 43.44300 28.72700
C  0.56700 43.20300 30.11700
C  -0.95900 43.08800 29.68900
C  -0.88400 43.23800 28.15800
C  -1.59800 41.69700 30.14500
C  0.77000 44.44100 31.07800
C  0.74200 44.14600 32.60400
H  0.48400 42.72600 33.22400
N  -1.39600 43.79200 25.05800
C  -2.35100 43.45800 26.00300
C  -3.66500 43.27000 25.36400
C  -3.36500 43.27000 23.93700
C  -1.92500 43.45500 23.80600
C  -4.98400 43.33300 26.15000
C  -4.31900 42.96700 22.84600
O  -3.98800 42.90900 21.63400
C  -5.79200 42.77300 23.11400
N  1.21800 43.66700 23.52800
C  0.30300 43.39800 22.58000
C  0.91600 43.24300 21.24400
C  2.27000 43.94700 21.39400
C  2.38000 43.99300 22.97300
C  0.99900 41.74900 20.75600
C  2.40100 45.24900 20.60500
C  1.91400 46.48700 21.22000
N  2.60100 44.18200 25.89600
C  3.67400 44.13000 25.06500
C  4.94500 43.98800 25.82000
C  4.52400 43.75900 27.13500
C  3.08700 43.86200 27.13700
C  6.36000 43.98200 25.31000
C  4.98200 43.46500 28.37700
O  6.13300 43.42200 28.73700
C  3.79100 43.42900 29.30500
C  3.83400 42.21000 30.14100
O  3.41300 41.10100 29.84100
O  4.49500 42.51500 31.37400
C  4.50700 41.43600 32.43000
H  -2.92500 43.05100 27.96400
H  -1.63100 42.94700 21.83400
H  4.51100 44.37400 23.10700
H  0.85600 42.24200 30.54300
H  -1.59400 43.85900 30.12800
H  -1.91100 41.15600 29.25200
H  -2.54000 41.81500 30.68100
H  -0.93200 41.18300 30.83800
H  0.07300 45.26800 30.94300
H  1.74200 44.85700 30.81200
H  0.11600 44.87600 33.11800
H  1.78300 44.23800 32.91300
H  -4.71200 43.44400 27.20000
H  -5.33000 42.30100 26.11100
H  -5.66900 44.09300 25.77400
H  -6.37900 42.66300 22.20200
H  -6.09500 43.73800 23.52100
H  -5.87000 42.08900 23.95900
H  0.19400 43.79600 20.64300
H  2.92600 43.26000 20.86000
H  0.00400 41.55100 20.35900
H  1.37600 41.05000 21.50200
H  1.62900 41.83000 19.87000
H  2.04600 45.16800 19.57700
H  3.47800 45.30800 20.45000
H  1.11600 46.89500 20.59800
H  2.72000 47.21900 21.17800
H  1.45600 46.38800 22.20400
H  7.01300 44.60800 25.91700
H  6.52600 44.30600 24.28300
H  6.79900 42.99700 25.47000
H  3.87100 44.26800 29.99600
H  4.23600 41.74500 33.43900
H  5.53300 41.08600 32.55100
H  3.88300 40.61000 32.08900

