158

Mg 50.50800 45.62000 42.30300
C  47.49100 47.05000 41.04100
C  49.54300 42.59600 41.23400
C  53.70200 44.62700 42.78300
C  51.62300 48.96800 42.82000
N  48.84200 44.99200 41.13600
C  47.71100 45.69600 40.83300
C  46.63500 44.73100 40.31900
C  47.19100 43.38200 40.53500
C  48.62200 43.64900 41.06900
C  46.33200 42.43100 41.50900
C  46.39200 45.05800 38.81000
C  44.91200 45.11800 38.37400
H  44.29500 43.91000 37.59700
N  51.53000 43.77500 42.03500
C  50.88500 42.64000 41.67800
C  51.87600 41.57800 41.70100
C  53.12500 42.15200 42.09100
C  52.85100 43.59200 42.30500
C  51.52600 40.14300 41.30700
C  54.43800 41.42700 42.25700
O  54.48800 40.20800 42.22000
C  55.74500 42.12500 42.46200
N  52.37200 46.75200 42.65000
C  53.48500 46.03200 42.95700
C  54.65300 46.87300 43.46500
C  54.00800 48.20400 43.36800
C  52.51200 48.00200 43.09000
C  55.29800 46.56900 44.89200
C  54.66900 49.30800 42.42500
C  55.64300 50.32200 42.99800
N  49.72400 47.58500 42.04900
C  50.30600 48.86100 42.30200
C  49.36900 49.95600 42.01900
C  48.21700 49.24000 41.66900
C  48.49400 47.83900 41.63100
C  49.61100 51.40600 42.15300
C  46.80200 49.41500 41.34300
O  46.06700 50.38200 41.28400
C  46.37800 48.04100 40.80400
C  45.10300 47.63400 41.55600
O  44.96400 47.44900 42.74500
O  44.11600 47.41600 40.58800
C  42.86700 47.16500 41.21100
H  48.98900 41.71800 40.89400
H  54.71300 44.40800 43.13200
H  52.07600 49.88000 43.21400
H  45.81000 44.84300 41.02300
H  47.41600 42.83200 39.62200
H  45.44200 42.92700 41.89500
H  46.97100 42.05900 42.31000
H  45.95100 41.61900 40.88900
H  46.94200 44.27700 38.28600
H  46.75700 46.04600 38.52800
H  44.73800 46.13900 38.03400
H  44.33800 45.01900 39.29500
H  52.09400 39.78100 40.45000
H  50.48100 39.94900 41.06900
H  51.79300 39.48800 42.13700
H  55.93300 42.57700 43.43600
H  55.84200 42.96300 41.77300
H  56.55800 41.42700 42.26000
H  55.34400 46.63800 42.65500
H  53.90500 48.58100 44.38600
H  56.30000 46.21600 44.65100
H  54.76100 45.64900 45.12400
H  55.14700 47.36100 45.62600
H  53.93100 49.77100 41.77000
H  55.30000 48.72100 41.75700
H  56.61700 50.14700 42.54000
H  55.78000 50.15000 44.06600
H  55.17700 51.28800 42.80300
H  48.72800 52.01300 41.95500
H  50.40500 51.71000 41.47100
H  49.96500 51.67000 43.15000
H  46.07600 48.15200 39.76200
H  42.66700 47.79300 42.07800
H  42.66600 46.12300 41.45900
H  42.16600 47.42600 40.41800
Mg 5.98600 54.45500 39.87500
C  5.57000 50.96300 40.24400
C  9.15400 53.82400 38.69400
C  6.18900 57.71200 39.27900
C  2.52500 54.84400 40.68300
N  7.13600 52.47400 39.32700
C  6.73900 51.23200 39.55100
C  7.69200 50.28700 38.85200
C  9.01600 51.19600 38.75700
C  8.44900 52.60400 38.98500
C  10.10300 50.94800 39.93300
C  7.30500 49.65900 37.47100
C  6.38900 50.47400 36.58800
H  6.86400 51.40500 35.47500
N  7.47700 55.61300 39.03600
C  8.70900 55.23300 38.66000
C  9.44900 56.31800 38.10700
C  8.59500 57.46700 38.17100
C  7.34200 56.96800 38.88100
C  10.81800 56.14300 37.38700
C  8.85300 58.80300 37.65800
O  9.80700 59.00400 36.99400
C  8.08400 60.07500 38.09600
N  4.54500 56.07300 39.93100
C  4.91300 57.30400 39.80600
C  3.88600 58.34500 40.16900
C  2.66500 57.41600 40.49600
C  3.25300 56.01700 40.36100
C  4.34800 59.28100 41.27000
C  1.35600 57.76200 39.63000
C  0.39500 58.77300 40.28400
N  4.38700 53.20700 40.52000
C  3.06600 53.53800 40.83000
C  2.49500 52.36500 41.41500
C  3.43900 51.30200 41.21900
C  4.54600 51.86700 40.60200
C  1.09700 52.12600 41.93600
C  3.69400 49.81600 41.24900
O  3.01500 48.83800 41.55800
C  5.02800 49.60900 40.60800
C  4.76300 48.67200 39.52300
O  4.46100 48.95600 38.32300
O  4.82000 47.38900 39.97400
C  4.45700 46.26200 39.06200
H  10.19200 53.66800 38.39200
H  6.22900 58.80200 39.23100
H  1.58600 54.96000 41.22800
H  7.73000 49.38200 39.45800
H  9.57300 51.10000 37.82500
H  11.11800 51.01500 39.54000
H  9.94400 49.96800 40.38200
H  9.97400 51.82400 40.56900
H  6.99800 48.62100 37.60300
H  8.23900 49.47000 36.94200
H  5.69800 51.10600 37.14600
H  5.67000 49.89600 36.00700
H  10.93700 56.90700 36.61800
H  10.88400 55.19300 36.85700
H  11.59700 56.37900 38.11100
H  7.06100 60.15200 37.72600
H  8.61700 61.01300 37.93700
H  7.99900 60.06700 39.18300
H  3.71400 58.95300 39.28100
H  2.53900 57.56400 41.56900
H  4.37500 60.30600 40.90000
H  5.37900 59.09200 41.56900
H  3.75900 59.15700 42.17900
H  0.82900 56.83900 39.38700
H  1.59000 58.14100 38.63400
H  -0.67800 58.59800 40.20200
H  0.49800 59.75700 39.82800
H  0.66500 58.81800 41.33900
H  0.70600 51.30000 41.34200
H  0.43900 52.99400 41.90300
H  1.20700 51.76700 42.95900
H  5.64200 49.12500 41.36800
H  3.38000 46.26800 38.89200
H  4.68700 45.38900 39.67200
H  4.97000 46.32400 38.10200

