158

Mg 27.27200 50.55200 26.62500
C  25.01500 51.80200 29.13500
C  29.49200 50.02100 29.42200
C  29.46000 49.77900 24.51300
C  24.90100 51.50700 24.30200
N  27.35400 51.12800 28.98800
C  26.20400 51.27500 29.72200
C  26.42600 51.17300 31.24500
C  27.98300 50.84400 31.32800
C  28.32200 50.72800 29.82800
C  28.86600 51.81200 32.22500
C  25.57200 50.05400 31.92400
C  24.62100 50.61800 32.98000
H  24.47300 49.75400 34.30200
N  29.21400 49.96200 26.93000
C  29.94000 49.71500 28.10800
C  31.22200 49.23500 27.71100
C  31.32500 49.20700 26.26300
C  29.95600 49.67000 25.84200
C  32.43800 49.00200 28.70600
C  32.58800 48.75400 25.34700
O  32.53500 48.88700 24.12100
C  33.89500 48.30200 25.92600
N  27.20000 50.70300 24.68100
C  28.26400 50.33500 23.99000
C  27.85000 50.01800 22.53000
C  26.41600 50.57700 22.35500
C  26.14200 51.06500 23.84100
C  28.76600 50.59400 21.49900
C  25.30400 49.63200 21.82900
C  24.44000 50.08700 20.66600
N  25.40000 51.44400 26.64600
C  24.55700 51.74800 25.60200
C  23.22700 52.13100 26.12800
C  23.41700 52.19700 27.48800
C  24.71800 51.78800 27.78100
C  22.08400 52.61200 25.23900
C  22.71700 52.55100 28.68900
O  21.58800 52.86800 28.90800
C  23.72800 52.24300 29.89800
C  23.91600 53.41600 30.83800
O  24.59800 54.41000 30.59300
O  23.15300 53.19200 31.93600
C  23.24100 54.24900 32.89700
H  30.07700 49.66000 30.27100
H  30.16600 49.35000 23.79900
H  24.21700 51.72300 23.47800
H  26.12700 52.19000 31.49800
H  28.10700 49.86000 31.78000
H  28.30200 52.70000 32.51100
H  29.84100 52.03600 31.79200
H  29.05800 51.31300 33.17500
H  26.20200 49.26200 32.32900
H  25.11800 49.52700 31.08500
H  23.62100 50.55400 32.55000
H  24.86800 51.64200 33.26100
H  32.37800 49.56100 29.64000
H  33.35800 49.31100 28.21000
H  32.32600 47.96100 29.00900
H  34.43000 47.56600 25.32700
H  33.64800 47.69100 26.79400
H  34.57400 49.12300 26.15400
H  27.85000 48.93500 22.40700
H  26.48800 51.46400 21.72500
H  29.63500 50.87000 22.09600
H  28.43700 51.53600 21.05900
H  29.08100 49.84100 20.77700
H  24.67100 49.37500 22.67800
H  25.70600 48.66300 21.53200
H  23.40000 50.12200 20.99200
H  24.50100 49.37000 19.84800
H  24.86100 51.00600 20.25900
H  22.12300 52.40300 24.17000
H  22.09800 53.69600 25.34400
H  21.11800 52.29800 25.63600
H  23.35200 51.42100 30.50600
H  23.24600 55.27700 32.53600
H  23.90000 54.06000 33.74400
H  22.32400 54.18000 33.48300
Mg -2.62800 33.78200 25.80300
C  -4.31200 32.46800 28.58700
C  -1.02600 36.08000 27.80800
C  -1.11200 34.94700 23.04000
C  -4.56300 31.54600 23.72800
N  -2.84900 34.39200 27.91700
C  -3.48500 33.55800 28.91300
C  -2.96700 33.86000 30.32000
C  -2.15500 35.28500 30.08400
C  -2.01200 35.30900 28.49800
C  -3.01100 36.52100 30.50200
C  -2.12600 32.79900 31.15600
C  -1.71200 33.24500 32.59000
H  -2.04300 32.36000 33.82300
N  -1.33900 35.33600 25.46900
C  -0.68800 36.11200 26.44500
C  0.34400 36.80700 25.85400
C  0.42300 36.48200 24.49500
C  -0.64800 35.50900 24.30200
C  1.13100 37.88700 26.47400
C  1.39000 36.97600 23.41500
O  1.21000 36.70900 22.21800
C  2.62900 37.76800 23.73900
N  -2.95500 33.37700 23.67800
C  -2.16000 34.00100 22.77900
C  -2.41400 33.55400 21.33900
C  -3.43700 32.42700 21.57700
C  -3.58100 32.31100 23.05300
C  -2.96100 34.74600 20.54500
C  -3.19200 31.02300 20.84700
C  -2.40700 29.88400 21.57900
N  -4.03100 32.18300 26.05000
C  -4.76900 31.41000 25.11900
C  -5.66700 30.49600 25.91800
C  -5.45700 30.85900 27.24800
C  -4.48100 31.88900 27.30300
C  -6.70000 29.53500 25.37800
C  -5.88100 30.52300 28.56900
O  -6.66200 29.67300 29.00600
C  -5.05600 31.58200 29.53000
C  -6.02800 32.16000 30.44900
O  -6.84300 33.08000 30.31000
O  -6.00700 31.37600 31.60200
C  -6.95200 31.69400 32.62700
H  -0.33500 36.55900 28.50400
H  -0.56600 35.21000 22.13100
H  -5.18000 30.93800 23.06300
H  -3.74900 34.09700 31.04100
H  -1.20500 35.35700 30.61400
H  -2.41500 37.00100 31.27800
H  -4.02400 36.20000 30.74400
H  -3.24100 37.37600 29.86700
H  -1.25600 32.47000 30.58900
H  -2.76900 31.93200 31.30600
H  -2.08600 34.23300 32.86000
H  -0.62500 33.30200 32.52600
H  0.78900 38.06800 27.49300
H  1.01000 38.83300 25.94800
H  2.17100 37.57600 26.57300
H  2.47300 38.79700 24.06400
H  3.24800 37.83900 22.84500
H  3.28100 37.18300 24.38800
H  -1.52200 33.17900 20.83800
H  -4.46300 32.64400 21.28200
H  -3.49900 35.44500 21.18500
H  -3.72600 34.39800 19.85100
H  -2.12600 35.17200 19.98800
H  -2.81300 31.18700 19.83800
H  -4.15500 30.59200 20.57300
H  -1.75000 30.16800 22.40100
H  -1.63200 29.55700 20.88600
H  -3.03600 29.06600 21.93100
H  -7.64100 30.02600 25.62700
H  -6.54900 28.54200 25.80300
H  -6.71400 29.47700 24.29000
H  -4.38600 30.89300 30.04400
H  -6.92800 32.77000 32.80200
H  -6.69100 31.31400 33.61500
H  -7.93900 31.29800 32.38900

