158

Mg 36.03100 2.46900 30.13200
C  33.54400 3.46900 32.34500
C  38.40200 2.75400 32.65200
C  38.29100 1.97400 27.75200
C  33.45900 2.62200 27.47500
N  36.03300 3.14700 32.27000
C  34.83400 3.38000 32.98900
C  35.09700 3.56300 34.43700
C  36.71400 3.53900 34.46700
C  37.10600 3.12300 33.05200
C  37.27400 4.91000 34.78500
C  34.41300 2.45500 35.28300
C  33.75300 2.83100 36.60600
H  34.54300 3.87000 37.53700
N  38.08600 2.49900 30.22900
C  38.89100 2.51100 31.35200
C  40.23400 1.97900 30.94300
C  40.20300 1.95200 29.49400
C  38.84700 2.18600 29.06700
C  41.29300 1.49500 31.85900
C  41.31200 1.77100 28.57000
O  41.13200 1.87200 27.39300
C  42.64200 1.35300 29.15500
N  35.86900 2.38900 27.87600
C  36.99600 1.97000 27.22300
C  36.72300 1.88900 25.71900
C  35.13200 1.84700 25.62900
C  34.78200 2.36900 27.09500
C  37.24100 3.02600 24.85300
C  34.56700 0.46300 25.41900
C  33.32900 0.33900 24.47100
N  33.93000 2.86400 29.92900
C  33.02600 2.92400 28.83400
C  31.69200 3.35500 29.28600
C  31.87300 3.62100 30.64700
C  33.24000 3.26100 30.96800
C  30.57300 3.68700 28.44000
C  31.23100 4.09700 31.88900
O  30.12100 4.58800 32.08300
C  32.24900 4.01900 32.97300
C  32.41600 5.41300 33.54700
O  32.99800 6.34100 32.97700
O  31.72200 5.55700 34.73100
C  31.57700 6.99200 35.03400
H  39.19400 2.75100 33.40400
H  38.85200 1.60700 26.89000
H  32.65900 2.69800 26.73600
H  34.69300 4.54700 34.67600
H  37.11300 2.77100 35.12900
H  36.52900 5.69400 34.92500
H  37.98400 5.33100 34.07400
H  37.93900 4.84800 35.64700
H  35.11300 1.62900 35.41000
H  33.60400 2.01100 34.70300
H  33.63500 1.87200 37.11100
H  32.76600 3.19300 36.31500
H  40.97000 1.43500 32.89900
H  42.15200 2.16500 31.83000
H  41.76900 0.56100 31.56100
H  42.99200 2.14500 29.81800
H  43.35200 1.20400 28.34200
H  42.71700 0.35800 29.59500
H  37.17200 0.96100 25.36500
H  34.69900 2.56300 24.93100
H  36.45600 3.65600 24.43600
H  37.92400 2.68700 24.07400
H  37.81800 3.60900 25.57100
H  34.27700 0.02000 26.37200
H  35.37400 -0.12700 24.98400
H  33.19000 1.25200 23.89100
H  32.42600 0.01800 24.99000
H  33.38900 -0.50300 23.78200
H  29.68900 3.72100 29.07800
H  30.61600 2.83100 27.76700
H  30.67400 4.66800 27.97600
H  31.90200 3.45500 33.83900
H  30.94300 7.24900 35.88300
H  31.13500 7.42300 34.13600
H  32.57500 7.37000 35.25400
Mg 49.55300 34.20000 25.74500
C  47.37500 33.03700 28.19300
C  49.62200 37.22500 27.33100
C  51.50700 35.33100 23.26500
C  48.99200 31.29300 23.95700
N  48.58700 35.02900 27.59600
C  47.90100 34.34400 28.51800
C  47.68400 35.15400 29.83000
C  48.05700 36.56600 29.34100
C  48.72800 36.29500 27.96300
C  46.78900 37.47100 29.15000
C  48.69100 34.68000 30.98200
C  48.03400 34.38900 32.31100
H  46.89900 35.33400 32.81100
N  50.49100 36.04000 25.36900
C  50.36500 37.16500 26.17200
C  51.14500 38.19900 25.48000
C  51.60400 37.74100 24.27800
C  51.18300 36.32600 24.27100
C  51.32900 39.53800 26.04400
C  52.31600 38.44100 23.12400
O  52.79600 37.85600 22.13400
C  52.60200 39.91800 23.21500
N  50.02100 33.46500 23.68600
C  50.99000 34.11900 22.95200
C  51.44700 33.22100 21.80800
C  50.71400 31.87300 22.10100
C  49.92000 32.20000 23.36900
C  51.09800 33.71300 20.38800
C  51.74000 30.63300 22.35500
C  52.10700 29.78100 21.16000
N  48.35600 32.50000 25.90100
C  48.17500 31.39500 25.11100
C  47.22100 30.44700 25.65200
C  46.79300 31.07200 26.86100
C  47.55800 32.30600 27.00600
C  46.79600 29.18100 24.97100
C  46.00000 30.98000 28.09700
O  45.22900 30.12000 28.52800
C  46.40300 32.24300 28.99600
C  46.96200 31.54300 30.19400
O  48.05300 31.15000 30.32200
O  46.02400 31.37800 31.13600
C  46.51900 30.66300 32.35800
H  49.54000 38.15400 27.89900
H  52.22000 35.62700 22.49200
H  48.80800 30.38400 23.38000
H  46.65600 35.08500 30.18500
H  48.68000 37.12400 30.04100
H  45.90600 37.12600 29.68700
H  46.57200 37.45000 28.08200
H  46.92500 38.51900 29.41600
H  49.49300 35.38800 31.19000
H  49.08900 33.68900 30.76700
H  48.87700 34.58700 32.97300
H  47.74300 33.40300 32.67200
H  51.03800 39.53200 27.09400
H  50.68500 40.26300 25.54500
H  52.34100 39.90900 25.88500
H  53.35100 40.04000 23.99700
H  51.71500 40.43300 23.58400
H  53.01300 40.28500 22.27500
H  52.52600 33.13900 21.94300
H  49.99300 31.75500 21.29300
H  51.04400 32.93700 19.62400
H  51.84200 34.46900 20.13900
H  50.13300 34.20900 20.48400
H  51.24300 30.07800 23.15100
H  52.60500 31.10600 22.81900
H  53.17700 29.94600 21.03300
H  51.56500 30.24600 20.33700
H  51.75800 28.75300 21.24900
H  45.87600 28.94800 25.50700
H  47.54200 28.38700 24.93300
H  46.50100 29.54900 23.98900
H  45.50800 32.84500 29.15800
H  46.93300 31.51500 32.89800
H  47.22100 29.84800 32.18400
H  45.69600 30.32800 32.98900

