158

Mg 46.66700 16.19100 27.56500
C  44.92900 15.80800 30.50600
C  48.97600 18.29900 29.13700
C  48.01800 17.14600 24.49400
C  44.15400 14.55700 25.88400
N  46.92900 16.95500 29.65400
C  46.16100 16.50900 30.72100
C  46.77800 17.01300 32.03500
C  47.99300 17.91900 31.55300
C  47.96400 17.75800 30.02000
C  47.92700 19.38600 31.96800
C  47.10300 15.83500 33.00000
C  46.39600 16.00100 34.38700
H  46.05100 17.40700 34.87900
N  48.32100 17.39500 26.92800
C  49.21700 18.00700 27.76600
C  50.27500 18.57600 27.01500
C  49.95500 18.45100 25.62300
C  48.69100 17.65600 25.64300
C  51.38800 19.42600 27.66000
C  50.72800 18.89900 24.36200
O  50.33900 18.57100 23.25300
C  51.93500 19.79800 24.56800
N  46.14200 15.88300 25.49700
C  46.89300 16.32100 24.44500
C  46.38900 15.77500 23.15600
C  45.15900 14.86700 23.53300
C  45.14900 15.00700 25.07300
C  46.12200 16.85800 22.06000
C  45.16000 13.44500 22.94600
C  45.22900 13.31100 21.38100
N  44.98100 15.15800 28.11500
C  44.02700 14.60800 27.29300
C  42.89000 14.10600 28.07500
C  43.30100 14.44700 29.37900
C  44.45300 15.24800 29.30400
C  41.60700 13.51300 27.53600
C  42.86100 14.53200 30.75600
O  41.81800 14.15000 31.29600
C  43.93800 15.35700 31.55500
C  43.12000 16.35600 32.34100
O  42.92400 17.49500 31.92200
O  42.80100 15.90500 33.58300
C  41.97400 16.70800 34.44400
H  49.77600 18.83600 29.64900
H  48.38800 17.37500 23.49200
H  43.32400 13.99900 25.44500
H  45.95200 17.61900 32.40500
H  48.92800 17.50000 31.92300
H  48.82200 19.51700 32.57500
H  46.99900 19.51500 32.52600
H  47.99400 20.07300 31.12400
H  48.17500 15.89700 33.18800
H  46.94300 14.89800 32.46600
H  47.08400 15.53500 35.09300
H  45.51200 15.36900 34.30900
H  51.45800 19.43800 28.74800
H  51.19700 20.48800 27.50400
H  52.32500 19.11500 27.19900
H  52.66900 19.25600 25.16400
H  51.54700 20.64800 25.12900
H  52.33500 20.09900 23.60000
H  47.25000 15.17600 22.85900
H  44.27800 15.33600 23.09400
H  45.19500 16.73600 21.50100
H  46.85200 16.71800 21.26300
H  46.22700 17.92200 22.27500
H  44.33100 12.79000 23.21300
H  45.98400 12.97200 23.48100
H  46.15100 12.75900 21.19500
H  45.21600 14.28000 20.88200
H  44.36000 12.77800 20.99600
H  41.97100 12.83400 26.76500
H  40.87000 14.26200 27.24500
H  41.22500 12.83300 28.29700
H  44.38500 14.79400 32.37400
H  42.45900 16.57800 35.41100
H  41.05100 16.16800 34.65500
H  41.63100 17.69000 34.11700
Mg 29.26400 57.91100 40.66400
C  26.53100 56.09100 39.71800
C  31.36200 55.30000 39.47700
C  32.15900 60.02800 40.83500
C  27.38800 60.62100 41.26600
N  28.96100 55.91800 39.73900
C  27.74400 55.33900 39.52900
C  27.79500 53.92100 39.08800
C  29.39000 53.58700 39.24300
C  29.94600 55.05400 39.51500
C  29.93000 52.57000 40.22100
C  27.32200 53.67200 37.58600
C  27.92100 54.40100 36.40300
H  27.08300 55.46000 35.69500
N  31.41500 57.69100 40.28500
C  32.06700 56.56800 39.75600
C  33.47200 56.82000 39.54900
C  33.77400 58.12700 40.06400
C  32.38400 58.68500 40.45600
C  34.41500 55.76500 38.99100
C  35.23400 58.70100 40.25100
O  36.21900 58.05100 39.98100
C  35.50300 60.06500 40.81400
N  29.70900 60.04400 41.01100
C  30.94400 60.66600 41.06100
C  30.85900 62.17200 41.46800
C  29.32900 62.29800 41.75700
C  28.75400 60.90300 41.37900
C  31.80100 62.73700 42.53400
C  28.64300 63.51900 41.04500
C  27.89600 64.42200 42.03600
N  27.38900 58.32500 40.52800
C  26.70700 59.48500 40.80600
C  25.27200 59.33200 40.65600
C  25.16700 57.95300 40.30100
C  26.47000 57.38600 40.20900
C  24.27600 60.33000 40.81100
C  24.19500 56.98500 39.83000
O  23.00400 57.03800 39.66700
C  25.03700 55.64100 39.52500
C  24.47300 54.54600 40.34100
O  24.39500 54.55200 41.55100
O  23.99600 53.53200 39.44500
C  23.18400 52.54400 40.15400
H  31.86100 54.39300 39.12900
H  32.98600 60.73100 40.71400
H  26.75700 61.48700 41.47300
H  27.21000 53.41500 39.85500
H  29.63100 53.21100 38.24900
H  29.08000 52.32600 40.85600
H  30.74100 52.91700 40.86100
H  30.21800 51.65800 39.69800
H  26.24200 53.68400 37.43800
H  27.49600 52.60300 37.46100
H  28.29900 53.65400 35.70600
H  28.76900 54.99800 36.74000
H  33.88200 55.01100 38.41100
H  34.95200 55.25500 39.79100
H  35.12000 56.17800 38.26800
H  35.32400 60.93100 40.17700
H  36.57100 60.04500 41.03200
H  34.83700 60.01400 41.67500
H  31.10400 62.75000 40.57700
H  29.27800 62.44500 42.83500
H  32.31500 61.83200 42.85500
H  31.21000 63.06300 43.39000
H  32.44200 63.55000 42.19400
H  28.08700 63.31000 40.13100
H  29.53000 64.09800 40.78700
H  28.59500 65.25200 42.13500
H  27.66100 63.89400 42.96000
H  26.96500 64.86600 41.68100
H  23.47700 60.11800 40.10000
H  24.63500 61.32900 40.56400
H  23.88900 60.26600 41.82800
H  25.02300 55.38900 38.46500
H  23.64600 51.57700 39.95700
H  22.21800 52.57000 39.65100
H  22.95800 52.64800 41.21600

