158

Mg 41.14200 41.53600 26.41000
C  40.43100 43.63100 28.95400
C  42.48400 39.31800 28.62800
C  41.74600 39.31900 23.82500
C  40.46000 44.06700 24.07700
N  41.49900 41.60000 28.50800
C  40.99700 42.51400 29.44900
C  41.15100 42.05500 30.95500
C  42.00600 40.78100 30.72600
C  42.03900 40.53000 29.18300
C  43.48100 41.00400 31.34100
C  39.66800 41.80800 31.55300
C  39.40800 42.48700 32.90100
H  39.10100 41.60800 34.07800
N  41.97600 39.59000 26.22500
C  42.46300 38.85800 27.29700
C  43.06200 37.60500 26.79300
C  42.87600 37.64400 25.39500
C  42.12800 38.91200 25.07600
C  43.85800 36.58700 27.66100
C  43.37800 36.63600 24.30700
O  42.96400 36.70600 23.13600
C  44.26200 35.58500 24.65600
N  41.42100 41.78300 24.21100
C  41.34300 40.62500 23.39300
C  41.02900 41.00200 21.90400
C  40.80300 42.51700 22.02700
C  40.90800 42.85900 23.56500
C  42.22600 40.68300 20.98500
C  39.53400 43.14400 21.33300
C  38.15000 43.14100 22.07500
N  40.53100 43.40900 26.43700
C  40.34400 44.37600 25.41900
C  39.96000 45.61600 26.08500
C  39.93200 45.34400 27.47600
C  40.31600 44.03100 27.59400
C  39.61600 46.94400 25.42300
C  39.60100 45.96200 28.75400
O  39.12400 47.03400 29.09900
C  39.91200 44.79300 29.76000
C  40.92000 45.39700 30.62800
O  42.04500 45.69500 30.39300
O  40.34500 45.60200 31.86300
C  41.19800 46.08700 32.94300
H  43.02500 38.63600 29.28800
H  41.76400 38.59700 23.00600
H  40.03600 44.84000 23.43300
H  41.70000 42.77600 31.56000
H  41.52500 39.95600 31.25100
H  44.30100 40.87800 30.63400
H  43.54000 40.15600 32.02300
H  43.64500 41.86400 31.99000
H  39.57600 40.73300 31.71200
H  38.96600 42.12400 30.78200
H  38.60800 43.22700 32.86200
H  40.26200 43.10300 33.18100
H  44.13400 36.94100 28.65400
H  44.85800 36.45500 27.24700
H  43.26400 35.67500 27.59500
H  43.64300 34.83100 25.14400
H  45.03900 36.02500 25.28100
H  44.79200 35.24900 23.76500
H  40.13900 40.43100 21.64100
H  41.68500 42.97800 21.58100
H  42.65600 41.48200 20.38000
H  41.93100 39.84200 20.35800
H  42.99700 40.26600 21.63300
H  39.48300 42.55800 20.41600
H  39.82300 44.18300 21.17400
H  38.25900 42.42000 22.88600
H  37.37300 43.05100 21.31600
H  37.90800 44.09000 22.55300
H  38.54900 47.05200 25.22800
H  40.16400 46.99100 24.48200
H  39.94800 47.85100 25.92900
H  39.06200 44.50300 30.37800
H  41.90900 46.80700 32.53600
H  41.51200 45.19300 33.48100
H  40.47800 46.62600 33.55900
Mg 5.28000 54.42400 40.61700
C  5.06500 50.74300 40.51500
C  8.58100 54.06800 39.95600
C  5.20000 57.57200 39.65900
C  1.76600 54.40000 41.09500
N  6.58600 52.61600 39.89800
C  6.37400 51.24400 40.14400
C  7.71300 50.41400 40.18300
C  8.81500 51.50700 40.08300
C  7.93300 52.85000 40.00600
C  9.90900 51.48900 41.16700
C  7.82900 49.22000 39.20900
C  7.17500 49.54500 37.83700
H  8.05800 49.86700 36.58900
N  6.77300 55.72400 40.15300
C  8.03800 55.35300 39.87700
C  8.76400 56.54200 39.51100
C  7.80600 57.59200 39.46000
C  6.50900 57.01800 39.77400
C  10.27900 56.54600 39.13800
C  8.18800 59.02800 39.19500
O  9.31400 59.29600 38.88300
C  7.17200 60.23800 39.23200
N  3.70700 55.72400 40.23700
C  3.96800 57.04500 40.01500
C  2.68500 57.91000 39.91100
C  1.64600 56.88600 40.51700
C  2.36100 55.55800 40.57600
C  2.79200 59.26500 40.60900
C  0.24400 56.82900 39.91000
C  -0.99100 57.17000 40.81200
N  3.72900 53.00200 40.77200
C  2.35600 53.18000 41.10800
C  1.76300 51.88500 41.45600
C  2.86200 51.01200 41.39300
C  3.93900 51.65200 40.76500
C  0.36900 51.64000 41.82200
C  3.22600 49.62500 41.66400
O  2.62900 48.72900 42.23000
C  4.61300 49.35100 40.93800
C  4.48000 48.40300 39.72900
O  4.13400 48.71500 38.59600
O  4.73200 47.14000 40.10800
C  4.57800 46.12000 39.02400
H  9.66800 53.97100 39.93500
H  5.22000 58.55100 39.17600
H  0.70600 54.41200 41.35700
H  7.63800 50.04600 41.20600
H  9.32500 51.32900 39.13600
H  10.86900 51.45200 40.65100
H  9.72000 50.66000 41.84800
H  9.81900 52.36800 41.80600
H  7.46800 48.28300 39.63300
H  8.83700 48.92900 38.91200
H  6.41900 50.33000 37.82000
H  6.67200 48.63400 37.51100
H  10.92900 55.80600 39.60600
H  10.81000 57.45100 39.43200
H  10.51700 56.37000 38.08900
H  7.70000 61.19200 39.24300
H  6.61100 60.18100 40.16400
H  6.58800 60.15600 38.31500
H  2.48800 58.14400 38.86500
H  1.66700 57.22500 41.55300
H  3.68700 59.19900 41.22700
H  2.01900 59.55400 41.32100
H  2.89100 60.07400 39.88500
H  0.14600 55.83100 39.48200
H  0.21600 57.47800 39.03500
H  -1.70900 57.95500 40.57400
H  -0.70400 57.28100 41.85800
H  -1.55100 56.24200 40.93300
H  0.53400 51.08000 42.74300
H  -0.19800 50.95800 41.18900
H  -0.20500 52.55000 41.99500
H  5.35100 48.94500 41.63000
H  4.83400 45.21400 39.57400
H  5.18000 46.33600 38.14100
H  3.55000 45.95000 38.70400

