158

Mg 40.81800 9.89600 28.80800
C  42.73400 10.83000 31.60700
C  38.64300 8.36800 30.97300
C  39.03200 8.92900 26.10700
C  43.36600 11.14100 26.73200
N  40.72500 9.64200 31.06300
C  41.51100 10.20600 31.96700
C  40.95700 10.02500 33.43700
C  39.83000 9.00300 33.11200
C  39.64000 9.03500 31.63700
C  39.98900 7.54000 33.60900
C  40.68800 11.44400 34.15300
C  39.79300 11.38800 35.36500
H  40.32900 11.99100 36.78000
N  39.09100 8.85300 28.57400
C  38.38800 8.29300 29.62300
C  37.25600 7.49300 28.98400
C  37.26400 7.73100 27.55500
C  38.45700 8.61000 27.38200
C  36.20200 6.76600 29.73900
C  36.20800 7.28200 26.50300
O  36.30900 7.62100 25.31500
C  34.92900 6.45400 26.89400
N  41.26100 9.87100 26.72400
C  40.27100 9.49300 25.81800
C  40.66800 9.87400 24.35500
C  41.99800 10.73300 24.56100
C  42.27400 10.55800 26.06600
C  40.75400 8.63300 23.39700
C  41.92100 12.29100 24.17600
C  40.76400 13.04300 24.80900
N  42.70300 10.63700 29.04300
C  43.67100 11.18700 28.19300
C  44.72800 11.78700 28.93700
C  44.37500 11.59900 30.27200
C  43.15600 10.89900 30.27200
C  45.94000 12.47900 28.38300
C  44.81900 11.98600 31.56800
O  45.83700 12.53700 31.97300
C  43.72900 11.50300 32.44500
C  44.27800 10.67700 33.50100
O  44.83400 9.58700 33.38000
O  44.14100 11.28600 34.71100
C  44.50700 10.54500 35.91700
H  38.08800 7.73400 31.66700
H  38.47500 8.75000 25.18500
H  44.08000 11.74700 26.17200
H  41.62200 9.48000 34.10700
H  38.93900 9.40600 33.59300
H  40.03500 6.80300 32.80700
H  39.29700 7.32600 34.42400
H  40.94100 7.42200 34.12800
H  40.22700 12.08000 33.39800
H  41.58000 11.92300 34.55700
H  39.40500 10.40200 35.62200
H  38.98000 12.06200 35.09500
H  36.62700 6.63400 30.73500
H  36.19100 5.80300 29.22900
H  35.24100 7.27500 29.66300
H  34.31400 6.31700 26.00500
H  34.26700 6.93500 27.61300
H  35.32800 5.50100 27.24300
H  39.88000 10.56000 24.04100
H  42.80200 10.29100 23.97300
H  40.49100 7.69700 23.89000
H  41.75200 8.57200 22.96500
H  40.03100 8.79600 22.59700
H  41.94600 12.48400 23.10300
H  42.90700 12.67000 24.44500
H  40.21000 13.41900 23.94900
H  41.20400 13.92500 25.27400
H  40.07000 12.47800 25.43100
H  45.71600 12.91600 27.41000
H  46.76000 11.77500 28.24800
H  46.30100 13.25100 29.06300
H  43.22000 12.32300 32.95200
H  45.58800 10.41000 35.96100
H  44.15700 9.51300 35.91500
H  44.12500 11.07500 36.79000
Mg 53.16500 24.63800 44.57700
C  50.62100 26.83000 43.80300
C  51.30200 22.11100 42.97100
C  55.79700 22.68200 44.67500
C  55.04900 27.24800 45.76900
N  51.29500 24.62100 43.41600
C  50.47900 25.60600 43.20500
C  49.27900 25.16500 42.33400
C  49.32300 23.64600 42.61900
C  50.76700 23.40200 42.96700
C  48.41000 23.22200 43.78600
C  49.30400 25.57800 40.84000
C  50.71700 25.74500 40.29100
H  50.82400 26.46500 38.92500
N  53.57000 22.70800 43.82300
C  52.62000 21.76500 43.33500
C  53.20100 20.45500 43.27000
C  54.55800 20.56500 43.67900
C  54.74100 22.04700 43.99900
C  52.50200 19.32200 42.55200
C  55.62200 19.46700 43.66700
O  55.21600 18.33900 43.45200
C  57.12200 19.76400 43.90900
N  55.28100 24.97900 44.93400
C  56.17400 23.96100 45.00500
C  57.46800 24.41300 45.59900
C  57.22000 25.91200 45.85800
C  55.71200 26.04300 45.57000
C  57.93900 23.57500 46.88000
C  58.24000 26.88900 45.10000
C  58.07500 26.95900 43.57900
N  52.91000 26.62400 44.97100
C  53.73400 27.61100 45.50000
C  52.98100 28.85000 45.57400
C  51.71300 28.61200 44.93600
C  51.74300 27.25800 44.54900
C  53.52700 30.09700 46.29100
C  50.43700 29.17900 44.65700
O  49.91400 30.24800 44.87600
C  49.73100 28.05700 43.81100
C  49.35700 28.62400 42.49100
O  50.13000 28.97600 41.56300
O  47.95700 28.84700 42.39900
C  47.45500 29.43000 41.16200
H  50.51600 21.40400 42.69900
H  56.56800 22.01300 45.06500
H  55.79100 27.95500 46.14600
H  48.33900 25.53900 42.74100
H  48.92500 23.16300 41.72700
H  47.76400 22.40500 43.46200
H  47.85300 24.06200 44.19900
H  49.07000 22.83200 44.56100
H  48.83300 26.54500 40.66600
H  48.66300 24.95000 40.22000
H  51.22900 24.78400 40.33400
H  51.36600 26.29200 40.97500
H  51.51800 19.67900 42.24800
H  52.49500 18.50800 43.27700
H  53.04500 19.09600 41.63400
H  57.72900 18.89600 43.65100
H  57.36100 20.05800 44.93100
H  57.44900 20.66300 43.38500
H  58.25900 24.21400 44.87600
H  57.41400 26.14300 46.90500
H  57.27600 22.72900 47.06300
H  57.96900 24.11100 47.82900
H  58.95500 23.24900 46.65800
H  59.24100 26.52100 45.32400
H  58.32700 27.87600 45.55300
H  57.03300 26.89500 43.26400
H  58.68400 26.22500 43.05300
H  58.36600 27.93100 43.18000
H  54.24000 30.65200 45.68100
H  53.88300 29.66700 47.22700
H  52.79300 30.79200 46.70000
H  48.78700 27.85900 44.31700
H  47.67000 28.80600 40.29500
H  47.81700 30.45600 41.10600
H  46.37000 29.53600 41.17400

