158

Mg 30.84800 58.43600 41.45900
C  28.05900 57.02400 39.88600
C  32.77000 55.85100 40.23500
C  33.65800 60.33600 42.12900
C  28.94300 61.33700 41.95600
N  30.47800 56.68100 40.04400
C  29.25000 56.26500 39.57900
C  29.42900 54.89600 38.85200
C  30.87600 54.43300 39.25300
C  31.41300 55.70300 39.90400
C  30.90500 53.31300 40.26000
C  29.31800 55.08600 37.28600
C  28.19900 54.31300 36.54100
H  27.24000 55.16400 35.77100
N  32.95900 58.08400 41.32200
C  33.54700 56.96400 40.75100
C  34.94900 57.23000 40.68500
C  35.23900 58.44500 41.40500
C  33.90600 58.97800 41.70800
C  35.92700 56.20400 40.13100
C  36.61600 59.07200 41.73800
O  37.63900 58.58500 41.27400
C  36.72000 60.26900 42.63400
N  31.26600 60.49300 42.10800
C  32.51300 61.03800 42.21000
C  32.46200 62.56600 42.46100
C  30.94200 62.82200 42.71600
C  30.26600 61.47500 42.37700
C  33.52200 63.01900 43.60500
C  30.43300 64.13200 42.01100
C  31.12700 65.41700 42.35800
N  28.80400 58.96800 41.37500
C  28.19000 60.22100 41.52800
C  26.80200 60.05800 41.16500
C  26.70900 58.71800 40.67300
C  27.94400 58.20500 40.66100
C  25.61200 60.94400 41.24800
C  25.80200 57.79500 40.02800
O  24.54600 57.80100 39.88400
C  26.62800 56.61700 39.46900
C  26.20400 55.29300 40.07200
O  26.78600 54.77700 41.04300
O  25.17300 54.76900 39.34700
C  24.76200 53.40800 39.78500
H  33.39800 54.99700 39.97400
H  34.48500 61.01300 42.35200
H  28.33300 62.22900 42.11200
H  28.62000 54.18300 39.01800
H  31.51100 54.03800 38.46000
H  30.03200 52.66100 40.26400
H  31.03100 53.72500 41.26200
H  31.77500 52.66700 40.13600
H  30.20400 54.67500 36.80300
H  29.29400 56.13800 37.00400
H  27.53300 53.73900 37.18600
H  28.70300 53.59300 35.89700
H  36.94500 56.57700 40.02000
H  35.52200 55.73900 39.23200
H  36.05900 55.51000 40.96200
H  36.13900 60.25800 43.55600
H  36.31600 60.97800 41.91000
H  37.77800 60.46700 42.80800
H  32.80300 63.27900 41.70900
H  30.78000 62.82600 43.79400
H  33.03400 63.67400 44.32800
H  34.32400 63.55400 43.09600
H  33.87800 62.11800 44.10400
H  29.36100 64.22300 42.18700
H  30.50200 63.89600 40.94900
H  31.99800 65.25300 42.99200
H  30.44400 65.92300 43.04000
H  31.40300 66.02900 41.49900
H  24.73400 60.30000 41.19500
H  25.72500 61.57700 40.36800
H  25.70200 61.47900 42.19400
H  26.47600 56.63200 38.38900
H  25.65000 52.77800 39.73600
H  24.00900 53.00700 39.10600
H  24.31800 53.32300 40.77700
Mg -6.48900 25.33600 25.49500
C  -5.04100 26.82400 28.34500
C  -8.46100 23.42400 27.51400
C  -7.67600 23.84000 22.68600
C  -4.35300 27.22300 23.50100
N  -6.71300 25.13400 27.72300
C  -6.02800 25.88900 28.64300
C  -6.47700 25.36300 29.99900
C  -7.37400 24.15700 29.78100
C  -7.60400 24.24300 28.22300
C  -6.75500 22.74300 30.20700
C  -7.12500 26.49000 30.85600
C  -6.70800 26.67800 32.29400
H  -5.90300 25.53500 32.97200
N  -7.91500 23.91500 25.18900
C  -8.72200 23.31700 26.12800
C  -9.77300 22.55900 25.51100
C  -9.50200 22.57600 24.10700
C  -8.38500 23.54000 23.95000
C  -10.85600 21.81400 26.27600
C  -10.16200 21.80700 22.94800
O  -9.74000 21.81100 21.79800
C  -11.45300 21.06800 23.20700
N  -5.98600 25.41500 23.40400
C  -6.57100 24.60400 22.43200
C  -5.74300 24.82300 21.11800
C  -4.92700 26.11800 21.35900
C  -5.15700 26.33300 22.82900
C  -4.93100 23.61400 20.74300
C  -5.22900 27.32700 20.44400
C  -4.07600 27.64000 19.43200
N  -5.05400 26.76500 25.81300
C  -4.29100 27.43000 24.89800
C  -3.33100 28.26700 25.52200
C  -3.54900 28.00700 26.87800
C  -4.65900 27.13300 27.02200
C  -2.34000 29.20400 24.77700
C  -3.16100 28.42000 28.24900
O  -2.23700 29.19400 28.65400
C  -4.05700 27.60100 29.26300
C  -3.16100 26.64800 29.98400
O  -2.74300 25.64000 29.43300
O  -2.96300 26.93200 31.23900
C  -2.03400 26.00100 31.89300
H  -9.04800 22.84800 28.23200
H  -8.16400 23.56600 21.74800
H  -3.56900 27.74500 22.94700
H  -5.49500 25.12400 30.40600
H  -8.33000 24.23300 30.29800
H  -7.42400 22.27000 30.92500
H  -5.79500 22.83500 30.71500
H  -6.65600 22.12300 29.31600
H  -8.19400 26.34900 30.70200
H  -7.07900 27.46200 30.36400
H  -7.65400 26.72200 32.83400
H  -6.20900 27.62300 32.50500
H  -11.78000 22.16900 25.81800
H  -10.91300 22.04300 27.34000
H  -10.86700 20.72800 26.17900
H  -11.32600 20.07200 23.63000
H  -11.71500 20.82700 22.17700
H  -12.23200 21.65400 23.69500
H  -6.51200 24.95500 20.35700
H  -3.85400 25.93000 21.32100
H  -5.29200 22.69900 21.21300
H  -3.87000 23.75300 20.95200
H  -5.08200 23.30900 19.70800
H  -5.47600 28.25200 20.96500
H  -6.10700 26.98100 19.89900
H  -4.33700 27.63800 18.37400
H  -3.21300 26.97500 19.46800
H  -3.56300 28.55800 19.71700
H  -2.91000 30.04700 24.38600
H  -1.69600 28.75700 24.01900
H  -1.67600 29.59100 25.55000
H  -4.56700 28.24000 29.98300
H  -2.13400 24.94100 31.66000
H  -2.06700 26.17400 32.96900
H  -1.01700 26.25900 31.59900

