158

Mg 53.47200 24.35800 45.75600
C  51.05000 26.23800 44.32700
C  52.21600 21.64100 44.00300
C  56.36700 22.64000 46.39700
C  55.01000 27.37800 46.84400
N  52.02400 24.12300 44.19200
C  51.14400 24.99300 43.77000
C  50.37600 24.53600 42.57700
C  50.28900 22.99700 42.93800
C  51.60400 22.85900 43.75500
C  48.90300 22.60200 43.64000
C  51.01100 24.83900 41.30800
C  50.16800 25.09600 40.09900
H  50.91100 25.46700 38.82400
N  54.15100 22.38400 45.35000
C  53.46400 21.39500 44.68000
C  54.14900 20.14600 44.79000
C  55.36500 20.46700 45.45200
C  55.35000 21.87700 45.75800
C  53.56200 18.81300 44.24500
C  56.32800 19.46000 45.86800
O  55.95900 18.28000 45.83700
C  57.66100 19.74400 46.54800
N  55.36100 24.89300 46.59300
C  56.37600 23.96000 46.78000
C  57.57300 24.61100 47.47300
C  57.27600 26.13500 47.27000
C  55.75300 26.16400 46.87000
C  57.68700 24.13900 48.99000
C  58.16100 26.86500 46.18600
C  58.77000 28.14000 46.63600
N  53.04800 26.36100 45.79700
C  53.69100 27.48100 46.33000
C  52.79000 28.66300 46.35800
C  51.71400 28.13800 45.57500
C  51.99700 26.85400 45.19800
C  52.94300 29.96800 47.04600
C  50.49600 28.48600 44.98900
O  49.77000 29.50400 45.09500
C  49.98000 27.25900 44.11400
C  49.76800 27.71800 42.77200
O  50.61200 28.27100 42.08800
O  48.45700 27.70600 42.43000
C  48.05200 28.53500 41.25300
H  51.72400 20.77000 43.56800
H  57.30800 22.11900 46.59000
H  55.40000 28.28500 47.31000
H  49.42200 25.06300 42.55200
H  50.29700 22.41300 42.01800
H  48.28400 23.48800 43.78100
H  49.10700 22.19900 44.63200
H  48.36600 21.83500 43.08200
H  51.69200 24.04000 41.01500
H  51.65300 25.71900 41.31200
H  49.75500 26.00500 40.53700
H  49.29800 24.50500 39.81600
H  53.96000 17.89700 44.68000
H  53.75900 18.79300 43.17300
H  52.47800 18.76500 44.35000
H  57.43200 20.17900 47.52100
H  58.29400 20.35500 45.90500
H  58.15800 18.78200 46.67800
H  58.45600 24.36000 46.88500
H  57.33500 26.69700 48.20200
H  58.70200 23.83800 49.25100
H  56.95500 23.36800 49.23000
H  57.56600 24.94500 49.71400
H  57.65700 27.08900 45.24600
H  58.88000 26.14300 45.79900
H  59.67300 28.10000 46.02800
H  58.85600 28.18700 47.72100
H  58.12800 29.00000 46.44100
H  53.61600 29.82000 47.89100
H  51.99900 30.36500 47.42000
H  53.38500 30.78200 46.47200
H  49.07700 26.99500 44.66400
H  48.53700 28.14800 40.35700
H  48.32900 29.58300 41.37300
H  46.98500 28.56100 41.03200
Mg -11.80600 39.10500 42.70100
C  -10.00700 36.46000 41.50600
C  -9.28900 41.23600 41.53600
C  -14.00400 41.72400 43.08600
C  -14.48300 36.97200 43.57800
N  -9.92000 38.94900 41.51000
C  -9.39500 37.64400 41.19200
C  -8.08700 37.86000 40.43100
C  -7.78700 39.39800 40.48700
C  -9.01200 39.90300 41.31000
C  -6.36700 39.78000 41.09200
C  -8.02800 37.23200 38.92600
C  -6.80900 36.27000 38.69600
H  -5.86700 36.79200 37.64100
N  -11.67800 41.14600 42.37500
C  -10.55500 41.84700 41.87600
C  -10.82100 43.27000 41.86400
C  -12.16700 43.44000 42.31600
C  -12.70900 42.11700 42.63100
C  -9.82600 44.41400 41.43000
C  -12.82800 44.82900 42.41700
O  -12.29600 45.82800 42.01200
C  -14.21500 44.96800 43.02900
N  -13.98900 39.36200 43.19100
C  -14.65700 40.50300 43.42200
C  -16.04300 40.33100 44.01900
C  -16.18600 38.71900 43.85500
C  -14.78100 38.30900 43.54700
C  -16.16100 40.93800 45.47000
C  -17.17800 38.20900 42.73900
C  -18.23600 37.11500 43.26000
N  -12.15700 37.09600 42.78100
C  -13.22700 36.39100 43.11100
C  -12.86700 34.98400 42.94600
C  -11.59900 35.00800 42.31300
C  -11.29500 36.32000 42.10400
C  -13.66400 33.73800 43.36800
C  -10.55900 34.13100 41.75700
O  -10.51400 32.90700 41.70300
C  -9.48900 35.01900 41.26400
C  -8.33700 34.66000 42.14700
O  -8.37500 34.43200 43.37400
O  -7.24300 34.54400 41.36900
C  -5.98400 34.23900 42.01000
H  -8.51100 41.94500 41.24400
H  -14.62400 42.60000 43.29000
H  -15.18200 36.20600 43.92000
H  -7.39700 37.36200 41.11200
H  -7.65500 39.80200 39.48300
H  -6.00700 38.98700 41.74700
H  -6.60400 40.61100 41.75600
H  -5.62900 40.08000 40.34800
H  -8.02600 38.00700 38.16000
H  -8.90100 36.64700 38.63600
H  -7.21900 35.26800 38.57500
H  -6.18300 36.24700 39.58800
H  -10.24800 44.97100 40.59300
H  -8.83000 43.98300 41.32800
H  -9.75900 45.22800 42.15200
H  -14.85200 44.45600 42.30700
H  -14.50400 46.01700 43.08700
H  -14.25600 44.60600 44.05600
H  -16.74200 40.84900 43.36300
H  -16.39000 38.22900 44.80700
H  -15.23700 41.41900 45.79200
H  -16.36000 40.17300 46.22100
H  -16.96400 41.67500 45.49300
H  -16.63300 37.80200 41.88800
H  -17.84800 39.01000 42.42800
H  -19.16500 37.39300 42.76200
H  -18.37000 37.14500 44.34100
H  -17.92200 36.18200 42.79200
H  -14.13400 33.89200 44.33900
H  -12.96500 32.90200 43.34900
H  -14.43200 33.55700 42.61700
H  -9.28800 34.84900 40.20600
H  -5.95600 33.15100 41.95700
H  -5.89500 34.73500 42.97700
H  -5.35100 34.73600 41.27500

