158

Mg 44.29600 3.91400 47.09400
C  42.55200 6.88500 46.60500
C  41.37100 2.15900 46.68700
C  46.17200 1.15200 46.64000
C  47.28000 5.83400 47.14200
N  42.26100 4.44500 46.45000
C  41.74800 5.72400 46.34200
C  40.26600 5.75300 46.12300
C  39.86100 4.24600 46.35600
C  41.19700 3.56400 46.65800
C  38.82200 4.03500 47.49100
C  39.96500 6.08100 44.55600
C  39.07900 7.27600 44.27700
H  39.48500 8.30500 43.17300
N  43.77400 1.87800 46.83000
C  42.50300 1.35000 46.74500
C  42.62000 -0.05100 46.57900
C  44.07200 -0.34500 46.54300
C  44.76300 0.91800 46.71100
C  41.42500 -0.99300 46.46400
C  44.58800 -1.78800 46.32100
O  43.80600 -2.63200 45.98500
C  46.04300 -2.22300 46.37600
N  46.38600 3.56300 46.92400
C  46.84800 2.32400 46.76500
C  48.36000 2.24900 46.60800
C  48.74700 3.81500 46.73900
C  47.37300 4.47600 46.88500
C  49.15900 1.30200 47.56000
C  49.59400 4.35600 45.60600
C  50.96300 4.95600 46.12500
N  44.84600 5.93900 46.87000
C  46.05900 6.58000 47.01800
C  45.87100 8.05000 47.06400
C  44.50800 8.21800 46.90900
C  43.92100 6.87600 46.81800
C  46.94700 9.11500 47.28100
C  43.48700 9.25500 46.92500
O  43.56900 10.48900 47.00300
C  42.18200 8.37000 46.62000
C  41.18000 8.52600 47.75600
O  41.27900 7.91700 48.84400
O  40.18100 9.47800 47.52400
C  39.27100 9.74500 48.68900
H  40.45400 1.56700 46.65100
H  46.68400 0.23800 46.33200
H  48.24800 6.33600 47.20500
H  39.71000 6.49100 46.70300
H  39.39700 3.82000 45.46700
H  38.57700 4.85500 48.16700
H  39.18800 3.27300 48.18000
H  37.88900 3.59500 47.13900
H  39.47100 5.24300 44.06500
H  40.86200 6.35900 44.00300
H  38.98100 7.84500 45.20200
H  38.04200 7.01600 44.06400
H  41.33600 -1.73700 47.25500
H  41.45900 -1.55900 45.53300
H  40.45200 -0.50100 46.46900
H  46.68100 -1.73300 45.64000
H  46.13100 -3.29900 46.22700
H  46.47200 -2.02300 47.35800
H  48.39800 1.86300 45.58900
H  49.20300 3.92500 47.72300
H  48.55500 0.72200 48.25700
H  49.83200 1.96000 48.11000
H  49.80000 0.66700 46.94900
H  49.01200 5.08900 45.04700
H  49.76400 3.53200 44.91200
H  51.69400 4.30100 45.65200
H  51.03300 5.07200 47.20700
H  51.23200 5.96600 45.81600
H  46.54400 9.96100 47.83900
H  47.25300 9.37900 46.26800
H  47.79000 8.72700 47.85300
H  41.74900 8.77400 45.70500
H  39.80800 10.28900 49.46700
H  38.75600 8.84300 49.02100
H  38.53500 10.43000 48.26800
Mg 30.12800 57.95100 39.92600
C  27.24300 56.04100 38.89700
C  32.04700 55.17300 39.06800
C  32.74200 59.98200 40.18900
C  27.97600 60.71200 40.47300
N  29.68400 55.85900 38.90200
C  28.40700 55.27400 38.72000
C  28.56300 53.85700 38.43700
C  30.06500 53.54900 38.91000
C  30.67200 54.92600 38.92800
C  30.22500 52.83000 40.32500
C  28.20100 53.21700 37.09800
C  28.77100 53.94700 35.93500
H  27.96400 54.71700 34.91600
N  32.13900 57.64500 39.63800
C  32.70900 56.42700 39.30300
C  34.12800 56.70300 39.18400
C  34.38500 58.07700 39.51300
C  33.04900 58.64200 39.75000
C  35.17600 55.64300 38.89800
C  35.71800 58.74900 39.48700
O  36.73800 58.04800 39.45500
C  35.83000 60.26100 39.52200
N  30.33400 60.14300 40.16400
C  31.51900 60.69700 40.30500
C  31.45900 62.18400 40.63700
C  29.93100 62.39500 40.95400
C  29.38400 61.04000 40.42300
C  32.42600 62.75200 41.79700
C  29.34200 63.68000 40.27400
C  28.92600 64.86300 41.18000
N  27.99700 58.33500 39.87600
C  27.33000 59.43800 40.11600
C  25.96300 59.11000 40.16900
C  25.84200 57.84900 39.58900
C  27.10300 57.32400 39.44200
C  24.85200 60.13600 40.33400
C  24.89800 56.77600 39.10100
O  23.65600 56.76200 38.99600
C  25.78700 55.62200 38.61500
C  25.24700 54.43200 39.36700
O  25.32200 54.25500 40.54400
O  24.61200 53.60400 38.43700
C  23.79200 52.64700 39.14100
H  32.67200 54.28000 39.01500
H  33.57800 60.68000 40.26800
H  27.26500 61.51400 40.68300
H  27.85300 53.29200 39.04100
H  30.60300 52.92000 38.20000
H  30.67600 51.84200 40.23400
H  29.27600 52.75500 40.85600
H  30.75400 53.46800 41.03300
H  27.14600 53.00300 36.92800
H  28.71800 52.25900 37.15400
H  29.42700 53.26600 35.39200
H  29.24600 54.79400 36.43000
H  34.76900 54.63800 39.01100
H  35.93300 55.75600 39.67500
H  35.50400 55.74300 37.86300
H  36.81000 60.58300 39.16800
H  35.69100 60.71900 40.50100
H  35.16400 60.64800 38.75100
H  31.71200 62.70900 39.71600
H  29.80400 62.45900 42.03400
H  32.76100 63.75700 41.54200
H  33.32000 62.17900 42.04600
H  31.80200 62.87600 42.68300
H  28.42400 63.47200 39.72300
H  30.01100 64.11700 39.53300
H  27.83800 64.91500 41.22000
H  29.41100 65.82300 40.99900
H  29.09000 64.62700 42.23200
H  23.95200 59.71800 40.78500
H  24.70500 60.53300 39.33000
H  25.18400 60.97800 40.94200
H  25.62400 55.47700 37.54700
H  24.35400 52.18400 39.95200
H  23.57000 51.80200 38.48900
H  22.82200 53.00700 39.48400

