158

Mg 7.84500 3.18100 28.04400
C  9.23000 1.68600 30.93600
C  5.97000 5.13100 30.19500
C  6.17600 4.31200 25.47700
C  9.30300 0.57300 26.12000
N  7.60900 3.29000 30.22800
C  8.32900 2.69700 31.27800
C  8.20200 3.33900 32.69600
C  6.94700 4.25700 32.37700
C  6.74900 4.13700 30.82900
C  5.61700 3.93200 33.16500
C  9.49300 4.04100 33.14200
C  10.34300 3.48600 34.33400
H  10.70000 4.52100 35.36800
N  6.32300 4.54900 27.82200
C  5.72000 5.31300 28.75400
C  4.84500 6.26600 28.17600
C  4.93600 6.07200 26.77700
C  5.82100 4.92000 26.65300
C  3.90300 7.20200 28.88900
C  4.15800 6.80500 25.61900
O  4.08100 6.35500 24.47200
C  3.70300 8.14000 25.84800
N  7.69400 2.54400 26.11300
C  7.01100 3.23600 25.18400
C  7.13200 2.60200 23.82200
C  8.22300 1.53500 24.04700
C  8.45400 1.53600 25.52900
C  5.81000 2.05500 23.27700
C  9.48200 1.87300 23.26200
C  10.36800 0.70300 22.85500
N  9.03700 1.53700 28.45100
C  9.56200 0.59700 27.53000
C  10.32100 -0.33100 28.37500
C  10.31300 0.09200 29.67100
C  9.49300 1.15400 29.69100
C  11.05300 -1.54300 27.79000
C  10.79500 -0.18400 30.98000
O  11.59400 -1.09200 31.25200
C  10.15800 0.87500 31.85900
C  9.40200 0.07800 32.88400
O  8.51900 -0.73300 32.65500
O  9.98400 0.30300 34.15900
C  9.19300 -0.21800 35.32900
H  5.49400 5.87300 30.84000
H  5.65600 4.70500 24.60200
H  9.76000 -0.22000 25.52600
H  7.84300 2.57200 33.38200
H  7.13900 5.32000 32.51700
H  4.72900 3.71300 32.57200
H  5.31900 4.85100 33.66900
H  5.84000 3.04500 33.75800
H  9.34200 5.10600 33.31800
H  10.09800 3.98100 32.23600
H  11.29500 3.02800 34.06400
H  9.71700 2.78000 34.88100
H  3.55100 6.73000 29.80600
H  2.94000 7.24700 28.38000
H  4.33000 8.15500 29.20200
H  4.51100 8.65100 26.37200
H  2.85200 8.13600 26.52900
H  3.44700 8.58800 24.88800
H  7.56400 3.32700 23.13200
H  7.81900 0.61900 23.61600
H  4.88300 2.41600 23.72300
H  5.84800 0.96700 23.21200
H  5.73000 2.28800 22.21500
H  10.21000 2.43600 23.84700
H  9.26100 2.41100 22.34100
H  10.55200 0.62000 21.78400
H  9.95300 -0.22700 23.24500
H  11.37100 0.82000 23.26500
H  10.54400 -1.89800 26.89400
H  11.06700 -2.35100 28.52100
H  12.07900 -1.22900 27.60100
H  10.96700 1.46800 32.28600
H  8.77900 -1.19500 35.08000
H  8.40400 0.49800 35.55700
H  9.88200 -0.27300 36.17200
Mg 0.74000 43.03200 25.37700
C  2.80700 43.08700 28.23900
C  -1.79900 41.92400 27.51000
C  -1.19400 41.97300 22.70700
C  3.58000 42.95900 23.45600
N  0.60100 42.50900 27.62800
C  1.51500 42.75600 28.61900
C  0.92600 42.64100 30.02200
C  -0.53300 42.11600 29.75700
C  -0.62200 42.15700 28.18700
C  -0.86300 40.66400 30.25700
C  0.82500 44.08200 30.73000
C  1.27800 43.99800 32.20200
H  0.08200 43.90200 33.20600
N  -1.25600 42.30200 25.16000
C  -2.11700 41.89600 26.12500
C  -3.37300 41.46300 25.51000
C  -3.20600 41.50400 24.14200
C  -1.86400 42.02900 23.89500
C  -4.57600 41.02700 26.37700
C  -4.19300 41.08900 23.02000
O  -3.98800 41.16900 21.79700
C  -5.54400 40.56000 23.41000
N  1.07400 42.63700 23.40800
C  0.15900 42.24900 22.47600
C  0.80700 42.07900 21.05400
C  2.25900 42.67600 21.23400
C  2.34600 42.72000 22.79700
C  0.84500 40.61200 20.50700
C  2.69200 43.95700 20.46100
C  2.45400 45.28600 21.24600
N  2.75900 43.16100 25.72700
C  3.82700 43.17600 24.86100
C  5.10300 43.39600 25.55000
C  4.72700 43.34200 26.89500
C  3.29600 43.23800 26.93700
C  6.46200 43.37000 24.91600
C  5.25600 43.20100 28.19600
O  6.43100 43.01000 28.65100
C  4.04900 43.22200 29.12100
C  4.15900 42.08700 30.02600
O  3.88700 40.88600 29.85900
O  4.60200 42.52600 31.33000
C  4.73600 41.47800 32.44100
H  -2.58700 41.49000 28.12900
H  -1.66000 41.63600 21.77900
H  4.46000 43.05600 22.81700
H  1.55500 41.92500 30.55100
H  -1.29300 42.76500 30.19200
H  -1.15000 39.95800 29.47800
H  -1.74200 40.72100 30.90000
H  -0.01100 40.19800 30.75200
H  -0.18800 44.44400 30.90500
H  1.43000 44.76100 30.12800
H  1.84300 44.89700 32.45000
H  1.99500 43.19900 32.39200
H  -5.06100 41.88700 26.83900
H  -4.32600 40.39000 27.22600
H  -5.24700 40.38800 25.80400
H  -5.34200 39.56700 23.81000
H  -6.23000 40.70000 22.57500
H  -5.90100 41.27500 24.15100
H  0.38500 42.72700 20.28500
H  2.95400 41.92800 20.85400
H  0.16100 40.04200 21.13500
H  1.79900 40.09800 20.62200
H  0.61900 40.56900 19.44100
H  2.13000 43.96900 19.52700
H  3.72100 43.89000 20.11000
H  2.53600 46.14100 20.57500
H  3.25500 45.36900 21.98000
H  1.51800 45.24900 21.80400
H  6.49100 42.95100 23.91000
H  7.03600 42.77600 25.62800
H  6.91000 44.35900 24.82600
H  4.03000 44.17300 29.65300
H  5.57300 40.80700 32.24500
H  3.83100 40.87600 32.35700
H  4.85100 41.98400 33.39900

