158

Mg 40.45700 40.66500 27.14600
C  39.80200 43.03300 29.59300
C  41.79300 38.65600 29.54900
C  41.52400 38.68800 24.63700
C  39.82400 43.18700 24.69800
N  40.79800 40.84900 29.35300
C  40.36300 41.87700 30.10100
C  40.63900 41.64100 31.62500
C  41.20300 40.13700 31.61200
C  41.36700 39.85500 30.08700
C  42.47300 40.06900 32.45000
C  39.40000 41.64100 32.49700
C  39.28800 42.71000 33.61700
H  38.41300 42.37900 34.82600
N  41.44300 38.85500 27.09800
C  41.94600 38.17600 28.13400
C  42.47200 36.88500 27.74400
C  42.45000 36.91300 26.30900
C  41.79200 38.20900 25.91200
C  43.14800 36.01400 28.73800
C  42.94400 35.80900 25.31700
O  42.81900 35.84000 24.10400
C  43.37700 34.48900 25.87800
N  40.74700 41.01200 24.97700
C  40.91500 39.82400 24.23200
C  40.46200 40.10200 22.79000
C  39.79200 41.51300 22.82300
C  40.13800 41.98100 24.25200
C  41.67800 40.14800 21.82000
C  38.26700 41.66000 22.44300
C  37.26000 40.83500 23.22100
N  39.77200 42.62200 27.09200
C  39.68100 43.59100 26.04100
C  39.26900 44.84500 26.52000
C  39.25700 44.65200 27.90400
C  39.62100 43.31100 28.22500
C  38.82400 45.99600 25.68000
C  38.86700 45.32000 29.12600
O  38.30200 46.39300 29.36400
C  39.27800 44.25300 30.30000
C  40.30200 44.99200 31.14200
O  41.50000 45.04500 30.88500
O  39.69800 45.53400 32.20500
C  40.61000 46.50300 32.97000
H  42.06200 37.88900 30.27800
H  41.78100 37.96700 23.85900
H  39.46500 43.78000 23.85500
H  41.34000 42.36600 32.03900
H  40.54200 39.35200 31.97800
H  42.35600 39.03500 32.77700
H  42.50900 40.82300 33.23600
H  43.33300 40.20900 31.79600
H  39.25800 40.70500 33.03700
H  38.49700 41.86300 31.92700
H  38.68300 43.43800 33.07600
H  40.29300 43.03900 33.88000
H  42.72400 35.01100 28.68100
H  43.18400 36.28700 29.79300
H  44.17300 35.77000 28.45900
H  44.11800 34.56100 26.67400
H  43.75100 33.86900 25.06300
H  42.50400 33.90900 26.17900
H  39.76500 39.27200 22.67600
H  40.33500 42.22100 22.19700
H  41.75300 39.26500 21.18500
H  42.54100 40.09700 22.48400
H  41.90500 41.06700 21.28100
H  38.20000 41.35000 21.40000
H  38.02000 42.72100 22.46800
H  37.71400 40.21300 23.99300
H  36.73500 40.13300 22.57300
H  36.51100 41.47700 23.68400
H  38.31400 45.69300 24.76500
H  39.68300 46.62400 25.44300
H  38.18600 46.60100 26.32300
H  38.33300 43.96300 30.75900
H  40.19700 46.82600 33.92500
H  40.68500 47.30600 32.23600
H  41.55700 46.04700 33.25900
Mg 29.38100 59.38700 40.60300
C  26.35200 57.70700 40.13200
C  30.98600 56.60300 39.22000
C  32.21200 61.08600 40.66400
C  27.55000 62.30800 41.42000
N  28.67000 57.48000 39.58700
C  27.42400 56.93900 39.63900
C  27.39200 55.63700 38.80800
C  28.93300 55.18700 38.78900
C  29.58000 56.47800 39.27500
C  29.28800 53.88600 39.60200
C  26.73800 55.75900 37.42900
C  25.80500 54.60800 37.00000
H  25.81000 54.04400 35.61400
N  31.34700 58.93000 39.96300
C  31.78100 57.69200 39.55800
C  33.19700 57.70800 39.46200
C  33.61700 59.04800 39.99000
C  32.39800 59.71800 40.29000
C  34.08400 56.62400 38.84600
C  34.96300 59.53600 40.16100
O  35.88800 58.82500 39.84900
C  35.27900 60.84500 40.81600
N  29.74900 61.46900 40.82200
C  31.05000 61.87100 40.90400
C  31.06700 63.35100 41.39400
C  29.58000 63.72800 41.55000
C  28.90600 62.44400 41.30400
C  32.09900 63.67400 42.51700
C  29.18000 64.98700 40.70300
C  28.46600 66.14600 41.47800
N  27.42100 59.94700 40.81300
C  26.75900 61.15300 41.17200
C  25.33600 60.91700 41.25600
C  25.13300 59.57400 40.97000
C  26.42000 59.06800 40.61700
C  24.33900 61.93300 41.64400
C  24.07100 58.47300 40.81800
O  22.86300 58.49700 41.06600
C  24.88900 57.29600 40.22700
C  24.71200 56.23400 41.19800
O  24.66600 56.33000 42.39200
O  24.63500 54.99800 40.57400
C  24.80100 53.83000 41.45900
H  31.51700 55.78600 38.72800
H  33.08400 61.73600 40.75600
H  27.08900 63.27800 41.61800
H  26.84200 54.96200 39.46400
H  29.26000 54.94800 37.77700
H  29.76800 54.06900 40.56400
H  29.96200 53.31300 38.96400
H  28.46000 53.18600 39.71000
H  27.56100 55.82600 36.71700
H  26.25600 56.73600 37.38400
H  24.74900 54.85300 37.11600
H  25.88100 53.77000 37.69300
H  33.65600 55.78400 38.29900
H  34.60400 56.21900 39.71300
H  34.89200 57.02400 38.23400
H  35.17100 61.62800 40.06500
H  36.33700 60.69700 41.03300
H  34.77800 60.93300 41.78000
H  31.54400 63.99700 40.65700
H  29.38300 63.94000 42.60100
H  32.39000 62.67500 42.84200
H  31.62500 64.17300 43.36300
H  32.97500 64.21600 42.16200
H  28.45100 64.69800 39.94600
H  29.98800 65.44600 40.13200
H  27.39500 66.15000 41.27200
H  29.02500 67.07600 41.37600
H  28.51500 65.87700 42.53300
H  24.68600 62.88900 41.25400
H  24.23200 61.92300 42.72900
H  23.40400 61.55600 41.23000
H  24.48800 56.86700 39.30900
H  24.46100 52.95500 40.90600
H  24.16700 53.91500 42.34100
H  25.84100 53.57900 41.66500

