158

Mg 1.64100 8.18500 25.52600
C  2.33500 10.29200 28.41000
C  1.54300 5.56800 27.56700
C  0.81100 6.33100 22.82500
C  1.82900 11.05700 23.53600
N  2.16000 7.94500 27.65800
C  2.20500 8.92200 28.71800
C  2.24700 8.25300 30.07900
C  2.30000 6.72000 29.66200
C  1.98700 6.73000 28.18700
C  3.60700 5.92900 30.01500
C  1.11700 8.72500 30.98900
C  1.33000 8.81400 32.42900
H  2.38000 7.91000 33.12500
N  1.07300 6.22900 25.24800
C  1.16400 5.33000 26.26700
C  0.69600 4.03700 25.70300
C  0.35300 4.30100 24.32500
C  0.77900 5.65700 24.08200
C  0.51500 2.69100 26.57400
C  -0.23400 3.33400 23.31600
O  -0.52600 3.73400 22.22900
C  -0.67300 1.88800 23.69800
N  1.53500 8.65300 23.53600
C  1.10900 7.67600 22.62200
C  0.84000 8.34500 21.21100
C  0.75700 9.84400 21.60100
C  1.49100 9.84900 22.98900
C  1.90800 8.10300 20.15200
C  -0.62600 10.35600 21.65700
C  -1.04900 10.98700 20.28300
N  2.01000 10.21200 25.89000
C  2.07200 11.24800 24.94000
C  2.36900 12.49800 25.63900
C  2.39300 12.17000 26.99600
C  2.29100 10.76400 27.09300
C  2.40300 13.89900 25.00900
C  2.64400 12.72000 28.29300
O  2.95200 13.85100 28.59100
C  2.52800 11.52600 29.28600
C  3.66700 11.50700 30.25600
O  4.72600 10.95500 29.96000
O  3.41700 12.17000 31.40300
C  4.39000 11.97700 32.46100
H  1.56300 4.65800 28.17000
H  0.58800 5.83100 21.88100
H  1.70000 11.95200 22.92400
H  3.26700 8.51900 30.35300
H  1.44800 6.18800 30.08700
H  4.40500 6.51200 30.47400
H  3.95300 5.34300 29.16300
H  3.33900 5.22300 30.80100
H  0.45600 7.86000 30.93900
H  0.68800 9.65200 30.60800
H  0.36300 8.71000 32.92000
H  1.68700 9.81000 32.68900
H  1.47100 2.18500 26.70200
H  -0.29900 2.07100 26.19700
H  0.28200 3.02200 27.58700
H  -1.61100 2.04100 24.23200
H  0.05300 1.29700 24.25600
H  -0.79000 1.35800 22.75300
H  -0.14400 7.95500 20.94800
H  1.45200 10.40000 20.97200
H  2.86800 8.20400 20.65800
H  1.68000 8.90100 19.44500
H  1.79900 7.13100 19.67000
H  -0.64300 11.03300 22.51100
H  -1.31600 9.57500 21.97600
H  -0.23400 10.86300 19.57000
H  -1.14900 12.06900 20.36500
H  -1.92700 10.50000 19.85700
H  1.36800 14.15700 24.78300
H  2.99200 13.80600 24.09700
H  2.73800 14.65900 25.71500
H  1.67400 11.68300 29.94600
H  5.42900 12.17900 32.19700
H  4.42000 10.96600 32.86600
H  4.08600 12.61100 33.29400
Mg 26.24700 -0.68900 29.32000
C  28.30800 -1.19300 32.25700
C  23.61300 -0.17900 31.53600
C  24.16400 -0.60700 26.69600
C  28.83100 -1.89500 27.41000
N  26.03500 -0.58200 31.66300
C  26.99600 -0.68100 32.60400
C  26.48200 -0.31500 34.01200
C  24.91200 -0.01900 33.70600
C  24.81600 -0.34300 32.19800
C  23.92000 -0.72600 34.71700
C  27.17900 0.90800 34.74600
C  27.97600 0.57500 36.01800
H  27.37600 1.25000 37.30000
N  24.14600 -0.34100 29.13100
C  23.23900 -0.10900 30.14000
C  21.91400 -0.00900 29.54800
C  22.08200 -0.07700 28.12700
C  23.48600 -0.38300 27.94300
C  20.69900 0.28400 30.47200
C  21.04800 -0.04700 27.03600
O  21.27300 -0.11000 25.83200
C  19.61800 0.16900 27.46900
N  26.41800 -1.20900 27.36700
C  25.52800 -0.88200 26.40500
C  26.11000 -0.85300 25.08000
C  27.58200 -1.41000 25.26500
C  27.62000 -1.48100 26.76900
C  25.27200 -1.61000 23.98700
C  28.72200 -0.59200 24.58500
C  29.02900 0.77500 25.19800
N  28.16500 -1.40400 29.66300
C  29.13600 -1.90600 28.82800
C  30.34000 -2.28800 29.57300
C  30.05700 -1.87500 30.86300
C  28.74600 -1.38000 30.91400
C  31.63000 -2.60600 28.90400
C  30.72700 -1.77800 32.15000
O  31.85900 -2.16900 32.51500
C  29.54100 -1.40700 33.14100
C  29.43900 -2.46100 34.12800
O  28.71600 -3.48000 34.09000
O  30.27100 -2.20400 35.16400
C  30.04500 -3.08500 36.35000
H  22.80700 0.05100 32.23600
H  23.53200 -0.51500 25.81000
H  29.66900 -2.20000 26.78100
H  26.57500 -1.20700 34.63000
H  24.79800 1.05800 33.83200
H  23.65300 -1.75600 34.48300
H  22.94600 -0.23700 34.70500
H  24.45200 -0.74900 35.66900
H  26.49600 1.73000 34.96100
H  27.91300 1.44100 34.14100
H  29.04100 0.73700 35.85300
H  27.96700 -0.49600 36.22100
H  20.01600 -0.56200 30.54500
H  20.13900 1.18300 30.21300
H  20.96200 0.53700 31.50000
H  19.36300 -0.57900 28.21900
H  18.92900 0.16400 26.62400
H  19.46600 1.16500 27.88200
H  26.12600 0.15300 24.66000
H  27.71300 -2.41200 24.85800
H  24.76700 -0.93700 23.29400
H  24.56000 -2.15100 24.61000
H  25.89900 -2.31000 23.43600
H  28.54400 -0.43800 23.52100
H  29.68300 -1.10000 24.66200
H  30.04700 0.71100 25.58100
H  28.33900 0.97300 26.01800
H  28.86100 1.51100 24.41200
H  31.94600 -1.64000 28.51000
H  31.45300 -3.19900 28.00700
H  32.45200 -2.95600 29.53000
H  29.75300 -0.46000 33.63700
H  30.88100 -2.82100 36.99700
H  30.14600 -4.09700 35.95800
H  29.14400 -2.95900 36.95000

