158

Mg 41.38800 41.53500 27.25000
C  40.62700 43.92900 29.63400
C  42.00500 39.13400 29.68100
C  42.30900 39.37900 24.76700
C  41.10100 44.00700 24.72200
N  41.36800 41.56100 29.51700
C  40.90400 42.63100 30.19400
C  40.82900 42.22600 31.67800
C  41.57100 40.78300 31.74100
C  41.68000 40.44300 30.20800
C  43.04100 40.65100 32.39300
C  39.43000 42.27000 32.36900
C  39.35900 41.74400 33.81600
H  38.76400 42.66500 34.85800
N  41.99600 39.59600 27.22800
C  42.17300 38.72000 28.33200
C  42.63100 37.45400 27.87500
C  42.59600 37.41200 26.47000
C  42.26200 38.82400 26.04600
C  43.19300 36.42900 28.86200
C  42.91700 36.26200 25.58900
O  42.88700 36.36900 24.37800
C  43.23500 34.86400 26.09600
N  41.61500 41.64800 25.05700
C  41.97800 40.64300 24.27800
C  41.99000 41.00600 22.77300
C  41.24300 42.39800 22.71300
C  41.36600 42.75700 24.21600
C  43.45500 40.99800 22.17100
C  39.79100 42.29400 22.24900
C  38.86000 41.33700 22.93100
N  41.16000 43.59600 27.17900
C  41.00300 44.45900 26.08800
C  40.69100 45.74800 26.64300
C  40.54600 45.57700 28.02100
C  40.78100 44.24000 28.27100
C  40.51100 46.99300 25.86300
C  40.27700 46.34600 29.24700
O  40.01200 47.53300 29.51700
C  40.33900 45.23800 30.36300
C  41.37700 45.61900 31.42800
O  42.58500 45.85000 31.29200
O  40.73000 45.50600 32.65900
C  41.57300 45.59300 33.77000
H  42.21300 38.41200 30.47300
H  42.53400 38.78000 23.88200
H  40.98000 44.82300 24.00700
H  41.48300 42.89500 32.23900
H  40.88900 40.03900 32.15400
H  43.90400 40.72300 31.73100
H  43.19400 39.70800 32.91800
H  43.16500 41.47600 33.09500
H  38.78100 41.60700 31.79500
H  38.97900 43.25800 32.27300
H  40.30200 41.31100 34.15100
H  38.76200 40.83600 33.90900
H  43.33600 36.76800 29.88800
H  44.16000 36.09300 28.48700
H  42.46600 35.63200 29.01300
H  44.12300 34.77400 26.72200
H  43.38700 34.29300 25.17900
H  42.51100 34.46500 26.80700
H  41.46500 40.20300 22.25700
H  41.79200 43.04700 22.03000
H  43.98500 41.89600 22.48900
H  43.38400 40.89600 21.08800
H  43.96400 40.18400 22.68600
H  39.85700 41.92200 21.22700
H  39.30900 43.26400 22.12400
H  39.31600 40.35300 23.04300
H  37.98000 41.18300 22.30600
H  38.63400 41.65600 23.94800
H  39.66900 46.89900 25.17600
H  41.43300 47.16300 25.30700
H  40.33200 47.85800 26.50200
H  39.36800 45.31700 30.85400
H  42.30100 44.78400 33.70700
H  40.96300 45.55200 34.67200
H  42.13000 46.53000 33.81000
Mg 16.37200 51.58100 25.71900
C  18.41700 50.88400 28.41700
C  13.69000 51.53600 28.03200
C  14.21200 51.70000 23.10100
C  18.99500 50.89100 23.59600
N  16.15900 51.28200 27.85800
C  17.14300 51.19200 28.75800
C  16.67900 51.48200 30.19800
C  15.11300 51.19600 30.10300
C  14.98500 51.38100 28.56200
C  14.68600 49.72100 30.45000
C  16.95800 52.94200 30.47600
C  16.89100 53.29400 31.98200
H  16.17700 52.31800 32.94500
N  14.27200 51.69800 25.58000
C  13.34500 51.59800 26.63300
C  12.04300 51.66900 26.09800
C  12.12300 51.70200 24.67600
C  13.58500 51.70500 24.37000
C  10.80800 51.82600 26.87700
C  10.99800 51.64900 23.66100
O  11.23000 51.76500 22.50000
C  9.46700 51.63100 23.99800
N  16.55400 51.31800 23.60200
C  15.53700 51.44800 22.72600
C  16.07800 51.44600 21.22600
C  17.56700 50.84600 21.53300
C  17.76500 51.11700 23.00700
C  15.33200 50.65300 20.13400
C  18.68800 51.34200 20.61400
C  19.03200 52.88100 20.68100
N  18.38800 51.11200 25.89400
C  19.32200 50.88500 24.95700
C  20.57700 50.41900 25.59900
C  20.32600 50.50900 26.99300
C  18.94300 50.84900 27.09800
C  21.78900 49.99700 24.89600
C  20.85000 50.30100 28.27100
O  21.97900 49.90500 28.53900
C  19.64500 50.58500 29.25300
C  19.42700 49.32100 30.05700
O  19.25700 48.19800 29.60600
O  19.46400 49.63700 31.36900
C  19.02600 48.70400 32.36400
H  12.84300 51.51700 28.72000
H  13.61700 51.75800 22.18700
H  19.75400 50.45100 22.94600
H  17.22000 50.79100 30.84400
H  14.52000 51.87000 30.72100
H  15.57100 49.08700 30.50000
H  14.17600 49.28400 29.59100
H  13.98200 49.63400 31.27700
H  16.23000 53.61200 30.01800
H  17.96300 53.14000 30.10200
H  16.45900 54.27700 32.17000
H  17.95500 53.38700 32.19900
H  10.46200 50.79500 26.80300
H  10.15600 52.53100 26.36200
H  11.00400 52.07800 27.91900
H  9.22300 51.16600 24.95300
H  9.01100 51.05700 23.19000
H  9.04600 52.63300 24.07600
H  16.07600 52.50000 20.94700
H  17.46600 49.77300 21.37100
H  14.56700 50.08600 20.66500
H  16.08200 49.97400 19.72900
H  14.96500 51.20000 19.26500
H  18.43500 51.07300 19.58800
H  19.59700 50.77700 20.81900
H  20.08700 52.86000 20.95300
H  18.51600 53.39600 21.49200
H  18.99100 53.35700 19.70100
H  21.90200 50.78600 24.15200
H  21.69600 49.04500 24.37300
H  22.65200 49.76100 25.51800
H  19.78200 51.48200 29.85700
H  18.85500 49.19000 33.32400
H  19.86600 48.01000 32.32500
H  18.12200 48.20100 32.02000

