158

Mg 41.20900 9.03800 30.87800
C  43.17100 10.16700 33.62600
C  38.92000 7.83700 32.96300
C  39.42400 8.22000 28.21600
C  43.98100 9.67000 28.78300
N  41.19700 8.82500 33.00400
C  41.98500 9.50700 33.89500
C  41.41500 9.41900 35.32800
C  40.16100 8.50500 35.13500
C  40.12800 8.27500 33.61600
C  40.26400 7.18500 35.95300
C  41.00000 10.71100 36.00400
C  41.14300 10.72800 37.50700
H  41.85200 11.93500 38.08500
N  39.40900 8.14100 30.61000
C  38.59600 7.75900 31.63200
C  37.32300 7.28600 31.04500
C  37.37000 7.62100 29.64200
C  38.77500 8.08100 29.44300
C  36.27200 6.56200 31.82800
C  36.40000 7.42600 28.52600
O  36.49900 7.83000 27.36900
C  35.02000 6.92600 28.95700
N  41.77600 8.64900 28.87100
C  40.80700 8.44600 27.94500
C  41.38300 8.37500 26.52500
C  42.87100 8.79400 26.66400
C  42.89500 9.11500 28.19400
C  41.15000 6.95500 25.82900
C  43.46800 9.82700 25.71700
C  42.87400 11.25300 25.86100
N  43.16200 9.88700 31.11000
C  44.15400 10.08500 30.17300
C  45.22800 10.75500 30.76900
C  44.86700 10.87700 32.13000
C  43.67400 10.20500 32.27800
C  46.54700 11.23200 30.08400
C  45.26100 11.40700 33.38300
O  46.16200 12.14900 33.71300
C  44.19000 10.94700 34.43700
C  44.86000 10.09500 35.46600
O  45.75300 9.25200 35.28700
O  44.39400 10.49700 36.69200
C  44.82100 9.66400 37.82500
H  38.08100 7.59500 33.61900
H  38.87700 8.04200 27.28700
H  44.88600 9.78400 28.18300
H  42.17500 8.91400 35.92500
H  39.28900 8.99000 35.57300
H  40.44600 6.28800 35.36100
H  39.39100 7.01000 36.58200
H  41.03200 7.38400 36.70100
H  40.01500 11.01000 35.64600
H  41.66100 11.48600 35.61600
H  41.77200 9.90900 37.85700
H  40.13000 10.71200 37.91100
H  36.54300 6.38400 32.86800
H  36.10500 5.58500 31.37400
H  35.29000 7.03400 31.87200
H  34.58000 7.59900 29.69300
H  34.98200 5.86300 29.19500
H  34.28300 6.92400 28.15400
H  40.90300 9.06900 25.83500
H  43.52800 7.92400 26.65100
H  40.23900 6.79100 25.25500
H  41.15800 6.16300 26.57800
H  41.97400 6.64500 25.18600
H  43.42100 9.48600 24.68200
H  44.50700 9.90300 26.03700
H  42.38100 11.70000 24.99800
H  43.63500 11.95800 26.19400
H  42.09400 11.11500 26.61000
H  46.52100 11.28900 28.99600
H  47.27200 10.47900 30.39100
H  46.84400 12.20200 30.48300
H  43.78700 11.85200 34.89100
H  45.89800 9.73500 37.97900
H  44.55000 8.62400 37.64300
H  44.22800 9.96900 38.68700
Mg 48.28500 15.47300 28.71100
C  46.40800 15.55200 31.68000
C  50.75300 17.23400 30.32000
C  49.67000 15.97400 25.73800
C  45.47800 14.15700 27.11300
N  48.50100 16.41700 30.74400
C  47.65900 16.17100 31.81200
C  48.28000 16.63200 33.15400
C  49.53800 17.41300 32.63200
C  49.62000 17.00700 31.12700
C  49.55300 18.92600 32.68000
C  48.55200 15.39600 34.09900
C  48.29300 15.59000 35.59600
H  48.07000 16.98600 36.17200
N  50.04400 16.35800 28.16400
C  50.97500 16.88900 29.00400
C  52.17200 17.15000 28.18100
C  51.94400 16.74300 26.85000
C  50.50900 16.34000 26.86500
C  53.32100 17.89400 28.81700
C  52.88900 16.80500 25.65800
O  52.52400 16.44200 24.54500
C  54.33000 17.38400 25.79300
N  47.60300 15.11600 26.66000
C  48.41400 15.51200 25.62100
C  47.70600 15.23700 24.21900
C  46.24700 14.63500 24.70100
C  46.42000 14.60800 26.23100
C  47.69000 16.32300 23.09800
C  46.02400 13.26300 24.09700
C  44.89300 13.02200 23.05000
N  46.33600 14.84300 29.20200
C  45.32400 14.36700 28.50000
C  44.12700 14.16400 29.33700
C  44.54000 14.53700 30.59500
C  45.86300 15.06600 30.49600
C  42.77100 13.67400 28.81700
C  44.18100 14.65800 31.98900
O  43.06200 14.44700 32.43000
C  45.34700 15.30200 32.75800
C  44.78300 16.58100 33.35100
O  44.83900 17.68000 32.78200
O  44.13100 16.32000 34.49600
C  43.72800 17.41500 35.28100
H  51.58200 17.76300 30.79600
H  50.17100 16.06400 24.77200
H  44.59000 13.67000 26.70600
H  47.41400 17.13300 33.58700
H  50.40200 17.04000 33.18200
H  49.79600 19.44000 31.75000
H  50.32100 19.20600 33.40100
H  48.56200 19.24400 33.00500
H  49.59500 15.16000 33.88800
H  47.85900 14.61000 33.79800
H  49.12100 15.10100 36.10900
H  47.34700 15.05300 35.67000
H  53.71500 18.69800 28.19500
H  54.08800 17.20300 29.16900
H  52.92900 18.43900 29.67600
H  54.92500 17.18500 24.90200
H  54.90100 16.85400 26.55500
H  54.27700 18.44600 26.03000
H  48.28100 14.39900 23.82600
H  45.47000 15.29900 24.32300
H  46.85100 16.17700 22.41700
H  48.56700 16.20400 22.46100
H  47.64700 17.23300 23.69600
H  45.62300 12.62200 24.88200
H  46.92100 12.83500 23.65000
H  44.39500 13.98000 22.89800
H  44.29800 12.15600 23.34300
H  45.36000 12.83300 22.08300
H  42.64500 13.81200 27.74300
H  41.99800 14.35300 29.17600
H  42.46300 12.67600 29.12900
H  45.61600 14.64700 33.58700
H  42.91900 17.95900 34.79400
H  44.60200 18.03300 35.48600
H  43.38600 17.09900 36.26700

