158

Mg 47.62500 15.40800 28.56800
C  45.54000 15.62900 31.29900
C  50.03200 17.26500 30.49100
C  49.67400 15.51300 26.03700
C  44.96000 14.29200 26.66400
N  47.68000 16.35800 30.58600
C  46.76300 16.22900 31.60500
C  47.31200 16.64300 32.97700
C  48.63300 17.36000 32.60500
C  48.83500 16.93000 31.10700
C  48.62600 18.91500 32.89700
C  47.44200 15.42200 33.92400
C  47.24500 15.67800 35.44600
H  46.78400 17.07000 35.89100
N  49.63400 16.10300 28.25700
C  50.41000 16.82500 29.17400
C  51.64900 17.09700 28.58000
C  51.67000 16.51700 27.28000
C  50.30000 15.99500 27.16800
C  52.77100 17.85900 29.30500
C  52.79100 16.31400 26.22000
O  52.64500 15.88600 25.11900
C  54.13900 16.83900 26.49700
N  47.37100 14.87100 26.62600
C  48.41300 14.94100 25.76800
C  47.90000 14.66500 24.38300
C  46.53200 14.04300 24.56800
C  46.22500 14.44500 26.01000
C  47.93500 15.87000 23.41700
C  46.47600 12.47100 24.42000
C  47.43300 11.60300 25.24500
N  45.63900 14.97400 28.83700
C  44.68100 14.46400 28.03600
C  43.47800 14.22800 28.74700
C  43.71000 14.64500 30.09400
C  45.05000 15.09000 30.09600
C  42.27200 13.62400 28.14000
C  43.22800 14.70900 31.44000
O  42.18500 14.29700 31.92200
C  44.40700 15.29800 32.29300
C  43.87400 16.48800 33.02700
O  44.04900 17.66500 32.71800
O  43.14100 16.08300 34.10500
C  42.27300 16.97000 34.84100
H  50.74300 17.88600 31.03900
H  50.30100 15.64300 25.15200
H  44.21200 13.74500 26.08600
H  46.55100 17.33800 33.33300
H  49.45900 16.99800 33.21600
H  49.43000 19.30400 33.52200
H  47.71700 19.28400 33.37100
H  48.75300 19.43000 31.94500
H  48.40900 14.94800 33.75300
H  46.65600 14.72800 33.62600
H  48.07700 15.43300 36.10600
H  46.54300 14.91700 35.78600
H  53.57400 18.25700 28.68400
H  52.99000 17.28700 30.20600
H  52.25400 18.76000 29.63700
H  54.25800 17.89700 26.26600
H  54.82900 16.37200 25.79400
H  54.42600 16.64800 27.53100
H  48.55200 13.92100 23.92700
H  45.76800 14.54200 23.97100
H  48.17000 16.72400 24.05200
H  46.95900 16.00100 22.95000
H  48.70100 15.76100 22.65000
H  46.61900 12.19100 23.37600
H  45.46200 12.12000 24.61000
H  48.05600 11.05700 24.53700
H  46.89300 10.86600 25.84100
H  48.03200 12.18300 25.94700
H  42.21900 13.74400 27.05800
H  41.43700 13.92900 28.77000
H  42.38900 12.54000 28.14400
H  44.71700 14.59700 33.06800
H  42.41900 17.99400 34.49500
H  42.58200 17.01900 35.88500
H  41.21100 16.74200 34.75500
Mg 48.45000 34.50500 26.43300
C  46.52200 32.99200 29.00300
C  48.85400 37.16000 28.31800
C  50.17900 35.51700 23.82500
C  47.73200 31.42300 24.53300
N  47.90600 34.96900 28.49200
C  47.20200 34.20800 29.36300
C  47.28100 34.77800 30.79100
C  47.64000 36.24900 30.42300
C  48.20700 36.15800 29.04200
C  46.49800 37.39000 30.39600
C  48.46300 33.95300 31.50600
C  48.64800 34.27900 33.04300
H  47.67500 35.39100 33.64100
N  49.32200 36.10700 26.05500
C  49.38400 37.14200 26.91900
C  50.10200 38.16400 26.37900
C  50.57800 37.74500 25.11900
C  50.03700 36.39200 24.93100
C  50.23600 39.47300 27.07600
C  51.52600 38.43400 24.19200
O  51.67400 37.99100 23.05100
C  52.22400 39.70300 24.69200
N  48.66100 33.71400 24.30000
C  49.50900 34.30500 23.53200
C  49.79000 33.50600 22.28300
C  49.16700 32.11800 22.56200
C  48.46000 32.41300 23.85400
C  49.33300 34.27300 21.07900
C  50.16200 30.95900 22.59000
C  50.32400 30.33000 21.16200
N  47.26000 32.67800 26.60600
C  47.03100 31.59100 25.73600
C  46.13500 30.64400 26.38400
C  45.86900 31.18400 27.66000
C  46.56400 32.40700 27.74800
C  45.65500 29.25000 25.86500
C  45.11900 31.00100 28.90800
O  44.26800 30.19200 29.22400
C  45.53200 32.21900 29.80500
C  45.82100 31.74000 31.21900
O  46.60800 30.80000 31.55300
O  45.00300 32.36100 32.11400
C  44.96700 31.79200 33.48300
H  48.90200 38.11200 28.85000
H  50.77000 35.89300 22.98700
H  47.55100 30.52300 23.94300
H  46.33200 34.76400 31.32800
H  48.33100 36.56000 31.20700
H  46.89200 38.27000 30.90600
H  45.51900 37.14600 30.80900
H  46.25200 37.61900 29.35900
H  49.35300 34.21800 30.93500
H  48.21100 32.89400 31.45500
H  49.70300 34.51200 33.19000
H  48.37800 33.35800 33.56000
H  51.27900 39.77400 27.17200
H  49.70000 39.67800 28.00300
H  49.70000 40.27500 26.56700
H  51.64100 40.62000 24.77600
H  52.95800 39.75200 23.88700
H  52.78300 39.50400 25.60600
H  50.84800 33.27700 22.15300
H  48.38500 31.91800 21.83000
H  49.26100 35.35400 21.19500
H  48.33200 33.98500 20.75600
H  50.01200 34.14500 20.23600
H  49.67200 30.24700 23.25400
H  51.07500 31.31100 23.07200
H  49.98300 30.82800 20.25400
H  49.74600 29.40500 21.14000
H  51.38300 30.22400 20.92800
H  45.73000 29.03900 24.79800
H  44.60000 29.10700 26.10100
H  46.18200 28.42200 26.33900
H  44.60100 32.77300 29.92400
H  45.79000 31.14200 33.77800
H  43.94500 31.45400 33.65500
H  44.99500 32.70600 34.07600

