158

Mg 29.94900 57.45900 39.43600
C  27.09200 55.59800 38.40900
C  31.91900 55.17000 37.76100
C  32.47000 59.67900 39.68200
C  27.62800 60.07500 40.05700
N  29.49600 55.61800 38.23000
C  28.30900 55.03600 37.99000
C  28.50900 53.82900 37.10600
C  30.00800 53.58400 37.07400
C  30.51200 54.87600 37.72700
C  30.62500 52.23700 37.61200
C  27.86300 53.90100 35.58300
C  27.75700 55.38600 35.03700
H  27.44200 55.47700 33.56300
N  31.92000 57.35900 39.02400
C  32.56700 56.32800 38.32200
C  33.95600 56.54100 38.28600
C  34.13100 57.89600 38.73100
C  32.81200 58.38500 39.19800
C  34.94000 55.57600 37.71900
C  35.42800 58.58600 38.50900
O  36.41100 58.01800 38.10000
C  35.51200 60.00600 38.83300
N  30.03200 59.58100 39.93400
C  31.22300 60.15500 40.11200
C  31.07900 61.63300 40.52500
C  29.55400 61.71200 40.63800
C  28.96400 60.38900 40.22700
C  31.79100 62.16400 41.77300
C  28.81900 62.99800 40.05900
C  27.76600 63.58600 41.00200
N  27.78400 57.82000 39.35300
C  27.05100 58.88200 39.67700
C  25.63000 58.59200 39.52600
C  25.60000 57.25200 39.04400
C  26.92200 56.84900 38.97300
C  24.39000 59.47700 39.96300
C  24.71500 56.15100 38.59100
O  23.52700 56.13700 38.49100
C  25.73900 55.01800 38.19100
C  25.46600 53.82100 39.05800
O  26.13600 53.37200 39.96200
O  24.35500 53.21400 38.57400
C  23.84200 52.02000 39.22400
H  32.53000 54.37200 37.33400
H  33.35100 60.32400 39.71300
H  26.93200 60.88100 40.30000
H  27.97200 53.00200 37.57100
H  30.37300 53.49500 36.05100
H  31.57000 52.47900 38.09800
H  30.66600 51.53100 36.78200
H  30.05300 51.75400 38.40400
H  26.88300 53.42500 35.54000
H  28.47900 53.30200 34.91200
H  28.61800 55.95400 35.39000
H  26.86900 55.77400 35.53600
H  35.16600 55.71600 36.66200
H  34.54700 54.57600 37.90200
H  35.96000 55.67700 38.08900
H  36.42600 60.43400 38.41900
H  35.59500 60.10900 39.91500
H  34.75900 60.60500 38.32100
H  31.41400 62.22900 39.67600
H  29.26800 61.63900 41.68700
H  32.53000 61.42000 42.07200
H  31.11000 62.34600 42.60400
H  32.39100 63.03700 41.51500
H  28.22600 62.63700 39.21800
H  29.53800 63.77700 39.80400
H  28.15200 64.57100 41.26600
H  27.52500 63.13600 41.96500
H  26.86400 63.57700 40.39000
H  24.65900 60.07500 40.83400
H  23.49100 58.87400 40.08800
H  24.06800 60.10600 39.13400
H  25.58100 54.78000 37.13900
H  24.50400 51.16100 39.33100
H  22.85600 51.78700 38.82200
H  23.76300 52.28800 40.27800
Mg 26.56000 49.52700 25.83000
C  24.47000 50.79300 28.36000
C  28.74100 48.49200 28.10700
C  28.65800 49.02300 23.23900
C  24.42400 51.01800 23.50000
N  26.51600 49.50300 28.10300
C  25.59200 50.12400 28.97300
C  26.05100 50.03100 30.41700
C  27.49100 49.36700 30.21900
C  27.57100 49.05000 28.72400
C  28.61500 50.27300 30.79100
C  25.06800 49.21900 31.30400
C  24.77500 49.81600 32.68200
H  25.94400 50.40000 33.49100
N  28.42200 48.81200 25.69500
C  29.13300 48.33000 26.77800
C  30.37300 47.91700 26.22400
C  30.44500 48.17000 24.82300
C  29.13300 48.63800 24.47900
C  31.48600 47.36400 27.12100
C  31.58100 48.10900 23.82200
O  31.51000 48.54000 22.71400
C  32.86800 47.59800 24.28400
N  26.58600 50.10900 23.68800
C  27.49800 49.65300 22.85300
C  27.09600 49.89600 21.35700
C  25.61900 50.32700 21.49800
C  25.56900 50.51800 22.94600
C  28.03900 50.87200 20.54900
C  24.46900 49.39600 21.00000
C  23.21000 50.05300 20.30800
N  24.70500 50.56700 25.86800
C  24.00600 51.09000 24.87000
C  22.75600 51.71300 25.33900
C  22.94600 51.69900 26.73000
C  24.11600 50.95500 26.98200
C  21.91100 52.61500 24.60400
C  22.40300 52.19900 27.95000
O  21.45900 52.98200 28.07900
C  23.32700 51.64400 29.12700
C  23.91100 52.86500 29.82600
O  24.94200 53.35300 29.61300
O  23.21700 53.05100 30.99500
C  24.03100 53.79000 32.02700
H  29.39200 48.02900 28.85200
H  29.27900 48.92800 22.34500
H  23.63600 51.29300 22.79500
H  26.14800 51.06000 30.76100
H  27.50900 48.39600 30.71300
H  29.29100 50.75500 30.08400
H  29.26600 49.76200 31.50100
H  28.25000 51.11900 31.37200
H  25.29600 48.15400 31.36500
H  24.13000 49.29700 30.75500
H  24.29400 49.07600 33.32100
H  23.96700 50.49800 32.41400
H  31.85600 46.43400 26.68800
H  31.20000 47.12600 28.14500
H  32.32100 48.06400 27.15500
H  32.69300 46.56300 24.57500
H  33.12200 48.10200 25.21700
H  33.62500 47.52600 23.50200
H  27.10600 48.93200 20.84900
H  25.47500 51.27300 20.97500
H  28.81200 51.23600 21.22600
H  27.47100 51.60700 19.97800
H  28.64100 50.22000 19.91700
H  24.19900 48.68500 21.78100
H  25.02100 48.72800 20.33900
H  23.13400 49.90300 19.23100
H  23.13400 51.07100 20.68700
H  22.36200 49.50600 20.71900
H  22.57500 53.41700 24.28000
H  21.31500 53.14600 25.34600
H  21.41400 52.08800 23.79000
H  22.70900 51.01600 29.76900
H  23.62100 53.65500 33.02800
H  23.97900 54.86800 31.87900
H  25.09400 53.55000 32.00500

