158

Mg 41.21000 9.17200 30.02400
C  43.23400 10.34900 32.62200
C  38.97700 8.03500 32.43300
C  39.43300 7.79000 27.62900
C  43.78900 10.06500 27.75400
N  41.24400 9.10100 32.25400
C  42.09600 9.74000 33.09600
C  41.66500 9.78300 34.57700
C  40.43900 8.78100 34.46300
C  40.16400 8.59200 32.92700
C  40.70600 7.37100 35.05500
C  41.38000 11.22000 35.04900
C  40.43000 11.39700 36.25600
H  40.77100 12.41300 37.44100
N  39.38800 8.25300 29.96800
C  38.56200 7.88200 31.06300
C  37.38200 7.30900 30.55100
C  37.48900 7.24400 29.18500
C  38.81700 7.80400 28.86400
C  36.25000 6.82600 31.45000
C  36.49300 6.78500 28.15600
O  36.66800 6.70300 26.98500
C  35.09600 6.52400 28.53800
N  41.62100 8.85600 27.94600
C  40.67600 8.26900 27.16700
C  41.09500 8.24200 25.70300
C  42.55700 8.88800 25.71000
C  42.67500 9.42900 27.14700
C  40.84200 7.07400 24.76200
C  42.75400 9.89100 24.56100
C  42.38700 11.35200 24.95000
N  43.10500 10.00600 30.12800
C  44.04400 10.31900 29.08500
C  45.23200 10.94300 29.76300
C  44.89300 11.07100 31.13700
C  43.63800 10.40800 31.30000
C  46.47400 11.43100 29.09200
C  45.32700 11.57300 32.35800
O  46.26200 12.25500 32.63700
C  44.32000 11.00800 33.39200
C  45.02700 10.10500 34.27500
O  45.44200 9.01300 33.96700
O  44.79300 10.52300 35.52100
C  45.07500 9.66600 36.63600
H  38.21400 7.80300 33.17800
H  38.87000 7.52700 26.73100
H  44.61000 10.27000 27.06200
H  42.47300 9.39900 35.20000
H  39.61500 9.16600 35.06300
H  40.48200 6.56000 34.36200
H  40.13700 7.27500 35.97900
H  41.78100 7.39300 35.23600
H  40.83700 11.70700 34.23900
H  42.28900 11.81500 35.13600
H  40.23700 10.48700 36.82300
H  39.45200 11.70800 35.88900
H  36.57500 6.60700 32.46700
H  35.91300 5.84300 31.12000
H  35.59000 7.66600 31.23700
H  35.06700 5.87300 29.41200
H  34.61400 6.00300 27.71100
H  34.44900 7.38700 28.69600
H  40.48100 8.99000 25.20100
H  43.29000 8.08200 25.68100
H  41.75700 6.94900 24.18300
H  40.03200 7.40300 24.11200
H  40.58300 6.21300 25.37800
H  42.37100 9.43300 23.64900
H  43.81400 9.75000 24.35400
H  43.27200 11.98600 24.99900
H  41.93200 11.44400 25.93600
H  41.67000 11.65300 24.18600
H  47.13600 10.64900 28.72100
H  47.12200 12.00300 29.75600
H  46.26400 12.02900 28.20600
H  43.97700 11.90500 33.90800
H  45.21600 8.62400 36.35200
H  44.32500 9.91700 37.38700
H  46.06600 9.90700 37.02000
Mg 54.64600 23.98900 44.95300
C  52.13600 26.14900 43.89600
C  52.71800 21.28200 43.93600
C  57.51200 22.01200 44.95700
C  56.72000 26.71600 45.61900
N  52.61500 23.79100 44.10900
C  51.81700 24.82300 43.67700
C  50.45100 24.27400 43.25200
C  50.53200 22.69800 43.63300
C  52.05500 22.50300 43.89400
C  49.62900 22.26500 44.88300
C  50.17700 24.46800 41.70300
C  48.73000 24.83800 41.41400
H  48.15800 24.61100 40.05800
N  55.00900 22.00800 44.56100
C  54.03300 21.00100 44.31400
C  54.58900 19.71000 44.33500
C  56.02400 19.92400 44.35100
C  56.26000 21.36300 44.58700
C  53.75300 18.50300 43.99500
C  57.05200 18.85600 44.14500
O  56.72200 17.66900 44.09700
C  58.43100 19.26300 43.84600
N  56.82300 24.39800 45.12400
C  57.75400 23.36600 45.23400
C  59.08200 23.82800 45.95300
C  58.84400 25.42100 46.03500
C  57.36400 25.50500 45.63200
C  59.18200 23.07500 47.39600
C  59.70800 26.23500 45.10900
C  61.25200 25.79900 44.87800
N  54.49700 26.05600 44.83900
C  55.42000 27.01500 45.23500
C  54.63200 28.29900 45.21300
C  53.35300 27.94400 44.68900
C  53.36900 26.62800 44.41700
C  55.15600 29.68300 45.65200
C  52.05600 28.50800 44.47900
O  51.55500 29.61000 44.70600
C  51.17300 27.37500 43.86400
C  50.84200 27.79100 42.52900
O  51.61600 27.89100 41.62400
O  49.57100 28.23200 42.62600
C  48.98400 28.92900 41.41200
H  52.07500 20.42100 43.74200
H  58.31000 21.27200 45.04600
H  57.30000 27.62000 45.81400
H  49.74500 24.85700 43.84300
H  50.20500 22.08500 42.79400
H  49.49500 21.18500 44.82400
H  48.60200 22.62600 44.83300
H  49.99000 22.49400 45.88600
H  50.31700 23.49500 41.23200
H  51.00400 25.12300 41.43000
H  48.67000 25.90300 41.64000
H  48.00300 24.38200 42.08500
H  53.38700 18.55400 42.97000
H  52.93600 18.69100 44.69300
H  54.19200 17.57800 44.36900
H  58.99200 18.52600 43.27200
H  58.98300 19.34800 44.78200
H  58.34100 20.16000 43.23300
H  60.01700 23.64100 45.42500
H  58.94100 25.74900 47.07000
H  59.29900 23.80300 48.19800
H  59.96600 22.32000 47.44900
H  58.22900 22.62000 47.66600
H  59.85000 27.24100 45.50100
H  59.13000 26.41300 44.20200
H  61.40600 24.94800 44.21400
H  61.78900 25.67200 45.81800
H  61.80200 26.53500 44.29100
H  56.23500 29.73100 45.50300
H  55.05500 29.87000 46.72100
H  54.64500 30.38000 44.98700
H  50.30300 27.07400 44.44800
H  49.69600 28.99500 40.59000
H  48.60400 29.94100 41.55300
H  48.12800 28.34000 41.08400

