158

Mg 35.09100 2.34100 29.12900
C  32.84000 3.52500 31.48000
C  37.41400 2.13700 31.56600
C  37.29900 1.51700 26.75300
C  32.71800 2.98200 26.56600
N  35.16800 2.99200 31.32400
C  34.05500 3.26000 32.03400
C  34.36300 3.21400 33.52300
C  35.95500 2.99600 33.59000
C  36.23000 2.70600 32.05800
C  36.86000 4.26900 34.03000
C  33.45200 2.18400 34.32800
C  33.82700 1.84400 35.80800
H  34.44200 2.97800 36.69000
N  37.11500 1.81800 29.23000
C  37.89100 1.77200 30.30300
C  39.26300 1.47200 29.97400
C  39.21800 1.10900 28.56600
C  37.84700 1.49100 28.08100
C  40.39300 1.43800 31.00000
C  40.26800 0.45300 27.63600
O  39.98900 0.04800 26.53000
C  41.62000 0.26100 28.11700
N  34.94500 2.11400 27.06200
C  36.02500 1.72100 26.28600
C  35.69700 1.77900 24.78800
C  34.12500 1.94300 24.85700
C  33.87100 2.32700 26.24200
C  36.37400 3.00000 24.01800
C  33.26300 0.76400 24.30800
C  32.52500 1.04000 23.01700
N  33.10600 3.03700 29.00700
C  32.28500 3.27300 27.93000
C  30.97200 3.70800 28.35700
C  31.14500 3.73700 29.82100
C  32.48900 3.40400 30.13200
C  29.65200 3.91100 27.64100
C  30.51500 4.03700 31.06100
O  29.40300 4.42700 31.37500
C  31.51400 3.82600 32.17500
C  31.47600 5.03600 33.13600
O  31.57100 6.20100 32.77800
O  31.22000 4.57000 34.37500
C  31.55000 5.67800 35.36700
H  38.19800 2.08100 32.32400
H  37.97400 1.32800 25.91500
H  31.96200 3.01300 25.77800
H  34.14300 4.18800 33.96100
H  36.09800 2.18900 34.30800
H  37.57500 4.11700 34.83900
H  36.24500 5.11900 34.32600
H  37.47300 4.46300 33.15000
H  33.67800 1.31600 33.70800
H  32.38500 2.40600 34.32000
H  34.41500 0.92700 35.84800
H  32.94800 1.55000 36.38200
H  40.27400 2.34200 31.59700
H  41.36100 1.52800 30.50800
H  40.42300 0.52900 31.60000
H  41.89900 1.29200 28.33400
H  42.23300 -0.07600 27.28100
H  41.74900 -0.38900 28.98300
H  36.02100 0.86100 24.29800
H  33.85000 2.80800 24.25300
H  37.25200 3.18500 24.63800
H  35.80500 3.92900 24.02400
H  36.78700 2.74500 23.04200
H  32.55300 0.49600 25.09100
H  33.86400 -0.13200 24.15200
H  32.20400 2.07900 22.93700
H  31.58600 0.49800 22.90700
H  33.32900 0.79800 22.32200
H  29.70200 3.61600 26.59300
H  29.32800 4.94700 27.74900
H  28.97900 3.28800 28.23000
H  31.23300 2.92300 32.71700
H  30.74900 6.40300 35.51700
H  32.45400 6.22800 35.10300
H  31.78300 5.16100 36.29800
Mg 6.16900 53.42300 40.64600
C  5.43900 49.92600 40.40700
C  9.33800 52.64600 39.48500
C  6.69200 56.61100 40.09500
C  2.73300 53.96500 41.10700
N  7.22000 51.49200 40.18900
C  6.70200 50.23100 39.98100
C  7.81700 49.21900 39.55300
C  9.15900 50.12600 39.82400
C  8.55200 51.52300 39.75400
C  9.88200 49.83900 41.20700
C  7.66800 48.73400 37.97600
C  6.93300 49.73600 37.01700
H  6.16600 49.24800 35.63900
N  7.83700 54.51000 39.95300
C  9.08400 53.99200 39.54900
C  9.99400 55.02500 39.44800
C  9.21500 56.23200 39.65000
C  7.86600 55.86100 39.91400
C  11.42400 54.83400 39.11100
C  9.88000 57.58000 39.73700
O  11.06000 57.66400 39.63300
C  9.20400 58.80500 39.98600
N  4.85600 55.08800 40.58400
C  5.32400 56.34600 40.37800
C  4.17600 57.41300 40.52700
C  2.96700 56.55000 40.86000
C  3.50500 55.12900 40.86600
C  4.52100 58.52100 41.56500
C  1.70500 56.54500 39.90900
C  0.27400 56.45700 40.51300
N  4.42200 52.24900 40.83400
C  3.09000 52.59400 41.10300
C  2.31000 51.44900 41.36400
C  3.21100 50.40200 41.07800
C  4.45600 50.90400 40.79100
C  0.91400 51.39100 41.80300
C  3.31000 48.94000 40.97600
O  2.49300 48.05700 41.20000
C  4.71800 48.59800 40.43700
C  4.60100 48.01700 39.09700
O  4.24800 48.53500 38.05300
O  4.80100 46.68400 39.29900
C  4.66800 45.77400 38.13600
H  10.39400 52.46500 39.27400
H  6.81400 57.66600 39.84000
H  1.71500 54.27900 41.34700
H  7.66900 48.35900 40.20600
H  9.87100 50.05500 39.00200
H  9.32000 49.19000 41.87800
H  9.99300 50.76300 41.77500
H  10.83700 49.39900 40.92000
H  7.22200 47.74100 37.91500
H  8.71300 48.67400 37.67300
H  7.72900 50.36000 36.61000
H  6.21500 50.35000 37.56100
H  11.77800 53.84300 39.39600
H  12.00000 55.47300 39.78000
H  11.56600 54.98400 38.04100
H  8.51200 58.74200 40.82600
H  8.55000 59.00600 39.13700
H  9.90500 59.63000 40.11600
H  3.87200 57.91800 39.61000
H  2.63700 56.66700 41.89200
H  5.34800 58.18800 42.19200
H  3.68700 58.71200 42.24000
H  4.71500 59.44900 41.02700
H  1.79700 55.73900 39.18100
H  1.66200 57.48400 39.35700
H  0.29600 56.04000 41.52000
H  -0.49600 55.97400 39.91200
H  -0.14100 57.46400 40.55300
H  0.52100 52.38400 42.02300
H  0.94000 50.85800 42.75300
H  0.29300 50.99600 40.99900
H  5.33300 47.99000 41.10000
H  5.47000 45.03600 38.14600
H  4.52100 46.22100 37.15300
H  3.76600 45.20700 38.36600

