158

Mg 45.70400 3.50500 48.53600
C  43.76700 6.24300 47.39500
C  42.85600 1.55700 47.85200
C  47.54800 0.74200 48.88400
C  48.42700 5.53500 48.80600
N  43.47200 3.89500 47.66600
C  42.97200 5.06600 47.35100
C  41.53100 4.92800 46.84800
C  41.31800 3.43100 46.98400
C  42.62700 2.88700 47.59100
C  40.07300 3.03800 47.84600
C  41.17900 5.53100 45.43400
C  39.85100 6.26000 45.29600
H  39.07400 6.01300 43.98700
N  45.29000 1.37900 48.34400
C  44.04900 0.83000 48.12200
C  44.21000 -0.64100 48.13000
C  45.59600 -0.89800 48.43700
C  46.23200 0.42200 48.62600
C  43.06500 -1.64600 47.89100
C  46.18100 -2.28800 48.57000
O  45.54300 -3.33800 48.32100
C  47.54300 -2.55300 49.00700
N  47.75300 3.16200 48.65000
C  48.26000 1.92700 48.87100
C  49.74400 2.04900 49.24400
C  50.03800 3.65400 49.26400
C  48.72700 4.16100 48.88600
C  50.21700 1.28500 50.53400
C  51.04600 4.17400 48.22700
C  52.31200 4.96200 48.68900
N  46.11800 5.46300 48.22500
C  47.28500 6.22600 48.41500
C  47.07500 7.54800 48.27000
C  45.67900 7.58200 47.89300
C  45.10600 6.31000 47.88600
C  47.96500 8.68500 48.26300
C  44.59600 8.55400 47.53700
O  44.60900 9.79000 47.42100
C  43.36200 7.68500 47.31800
C  42.22500 8.01300 48.23000
O  41.79900 7.34700 49.17600
O  41.57600 9.23300 47.86500
C  40.44100 9.82900 48.59100
H  42.01500 0.93200 47.54500
H  48.21200 -0.12000 48.96700
H  49.22500 6.25200 49.00600
H  40.97000 5.50000 47.58600
H  41.28200 2.83700 46.07000
H  39.41400 3.90200 47.76100
H  40.45700 2.86200 48.85000
H  39.57900 2.18300 47.38300
H  41.14600 4.75000 44.67400
H  41.98800 6.16200 45.06500
H  40.08100 7.30400 45.50600
H  39.27500 6.09700 46.20700
H  42.50000 -1.36900 47.00100
H  42.34900 -1.63700 48.71300
H  43.40400 -2.67800 47.80000
H  48.27100 -2.19100 48.28100
H  47.59800 -3.63700 49.10400
H  47.76900 -2.04500 49.94500
H  50.30300 1.67200 48.38700
H  50.16300 3.98300 50.29600
H  50.67200 2.01200 51.20700
H  50.96500 0.51100 50.36200
H  49.28200 0.99800 51.01700
H  50.53700 4.73700 47.44500
H  51.60300 3.40100 47.69700
H  52.45200 5.03600 49.76800
H  52.15400 5.96000 48.28000
H  53.25200 4.58000 48.29000
H  47.56300 9.41200 47.55800
H  48.96700 8.38300 47.95800
H  47.97000 9.12400 49.26100
H  43.07300 7.78900 46.27200
H  40.28600 9.21700 49.48100
H  39.49700 9.79100 48.04600
H  40.69900 10.85100 48.86700
Mg 0.59900 43.06000 25.59300
C  1.84200 43.29600 28.69300
C  -2.59100 42.64500 26.90000
C  -0.53400 42.41000 22.48900
C  3.70500 43.77500 24.38400
N  -0.26400 42.95600 27.57700
C  0.45800 43.04400 28.72700
C  -0.44700 42.96800 29.97700
C  -1.85900 42.61400 29.37900
C  -1.59000 42.81500 27.83900
C  -2.48800 41.32600 29.84200
C  -0.45100 44.35400 30.70700
C  -0.37500 44.37200 32.26900
H  -0.49500 43.01100 33.03600
N  -1.31100 42.61000 24.76700
C  -2.48400 42.49600 25.47300
C  -3.60600 42.39700 24.54500
C  -3.03800 42.36500 23.26600
C  -1.57200 42.46700 23.45600
C  -5.08700 42.32900 24.86600
C  -3.70600 42.17600 21.92600
O  -3.12500 41.97200 20.90900
C  -5.15200 42.44100 21.74200
N  1.42400 43.21100 23.62400
C  0.82400 42.71200 22.51700
C  1.79300 42.64500 21.34000
C  3.04200 43.46200 21.93500
C  2.70000 43.49800 23.42900
C  2.08100 41.21200 20.73300
C  3.17000 44.88100 21.35600
C  2.50500 46.05000 22.17200
N  2.42300 43.35900 26.34400
C  3.63800 43.58100 25.77300
C  4.63600 43.87500 26.70800
C  3.99500 43.77200 27.90100
C  2.60600 43.40500 27.61400
C  6.14000 44.41100 26.47400
C  4.17800 43.85600 29.34800
O  5.12000 44.04100 30.04400
C  2.75700 43.53600 29.95200
C  2.97200 42.34300 30.82400
O  2.60200 41.19500 30.51800
O  3.80800 42.72400 31.87700
C  4.30800 41.70700 32.71500
H  -3.52600 42.59100 27.46100
H  -0.83800 42.07500 21.49500
H  4.69800 44.02900 24.00600
H  0.01200 42.28100 30.68700
H  -2.58800 43.36900 29.67300
H  -1.91300 40.76600 30.57900
H  -2.64400 40.60100 29.04400
H  -3.42500 41.57000 30.34200
H  -1.34600 44.92500 30.46100
H  0.42300 44.88800 30.33500
H  -1.20100 44.95900 32.67100
H  0.51900 44.90100 32.59800
H  -4.95900 41.89700 25.85900
H  -5.58400 41.59500 24.23300
H  -5.61700 43.27900 24.94100
H  -5.65900 41.55600 22.12600
H  -5.39500 42.47800 20.68000
H  -5.48400 43.32800 22.28200
H  1.32000 43.36800 20.67500
H  3.98900 42.94400 21.77800
H  3.01400 41.14300 20.17600
H  1.38100 40.97800 19.93100
H  2.01400 40.40600 21.46400
H  2.87600 44.82800 20.30700
H  4.25000 45.02300 21.37900
H  1.68200 45.77600 22.83200
H  2.02900 46.70100 21.44000
H  3.26700 46.68500 22.62400
H  6.84600 43.60500 26.27200
H  6.51800 44.63600 27.47100
H  6.22600 45.18200 25.70900
H  2.58000 44.39700 30.59700
H  4.32200 42.07500 33.74100
H  5.34600 41.45700 32.49800
H  3.65000 40.83800 32.71400

