158

Mg 40.57800 9.31800 28.82800
C  42.36500 10.02800 31.85400
C  38.27300 7.60700 30.82500
C  39.03400 8.40500 26.11600
C  43.41600 10.24300 27.16800
N  40.28800 8.88400 31.03100
C  41.11500 9.32900 32.03900
C  40.52500 9.05000 33.40400
C  39.50000 7.92200 33.07600
C  39.30800 8.11300 31.55700
C  40.06200 6.57700 33.40500
C  39.85800 10.30300 34.14300
C  40.39900 10.47300 35.54400
H  40.66300 11.92400 36.10200
N  38.78100 8.43600 28.54100
C  37.97200 7.75400 29.43400
C  36.74700 7.23400 28.74100
C  36.95800 7.54900 27.33200
C  38.32900 8.11900 27.26300
C  35.59800 6.35500 29.40400
C  36.03300 7.29100 26.13600
O  36.31600 7.49200 24.96200
C  34.73800 6.71900 26.54800
N  41.23700 9.05000 26.90800
C  40.35600 8.75900 25.88500
C  41.07700 8.90800 24.47500
C  42.33500 9.65200 24.87400
C  42.39500 9.64800 26.39800
C  41.23900 7.58000 23.63500
C  42.59700 11.02500 24.26400
C  41.96200 12.22000 24.91200
N  42.52700 10.06500 29.36700
C  43.53200 10.45500 28.56400
C  44.62600 10.94000 29.30800
C  44.16400 10.92600 30.64000
C  42.88700 10.30400 30.57200
C  45.87100 11.54100 28.73500
C  44.43600 11.28100 32.13700
O  45.39300 11.79100 32.68900
C  43.31500 10.66300 32.91400
C  43.91600 9.64700 33.87500
O  44.26900 8.47100 33.60100
O  43.90300 10.09400 35.20100
C  44.36200 9.30100 36.28400
H  37.58200 6.93900 31.34300
H  38.52200 8.32700 25.15500
H  44.24100 10.65900 26.58600
H  41.34300 8.65300 34.00600
H  38.54200 8.14100 33.54800
H  39.54600 6.17800 34.27900
H  41.14800 6.48600 33.39600
H  39.87700 5.86500 32.60100
H  38.76900 10.25000 34.14400
H  40.09800 11.20000 33.57100
H  41.27700 9.84100 35.67200
H  39.62600 10.07500 36.20100
H  34.71500 6.99000 29.47500
H  35.98000 6.01300 30.36600
H  35.39300 5.42500 28.87300
H  34.90400 5.69600 26.88500
H  34.08800 6.59100 25.68300
H  34.14900 7.31500 27.24500
H  40.52900 9.53500 23.77100
H  43.26900 9.12800 24.67200
H  41.63800 6.86400 24.35300
H  42.01400 7.69300 22.87700
H  40.28200 7.16500 23.31900
H  42.27600 11.10700 23.22500
H  43.68100 11.10800 24.33900
H  41.26400 11.92600 25.69600
H  41.38100 12.75400 24.15900
H  42.76000 12.86300 25.28300
H  45.55300 12.36500 28.09600
H  46.44100 10.81700 28.15300
H  46.60900 11.90000 29.45300
H  42.81200 11.41900 33.51600
H  44.65400 9.98000 37.08600
H  45.23500 8.85200 35.81200
H  43.62800 8.55600 36.59100
Mg -1.54100 34.59900 25.88700
C  -3.17500 32.61800 28.44800
C  -0.18400 36.52000 28.26900
C  -0.21500 36.20800 23.40500
C  -3.49500 32.77900 23.47200
N  -1.57900 34.58500 28.13100
C  -2.34500 33.72900 28.91000
C  -2.12200 34.04300 30.42200
C  -1.36600 35.38600 30.34600
C  -0.98400 35.53700 28.89800
C  -2.18000 36.55300 30.77600
C  -1.28100 32.92600 31.19400
C  -1.98100 32.13100 32.29300
H  -1.23100 32.14000 33.64000
N  -0.26900 36.07800 25.81100
C  0.18200 36.79500 26.89500
C  1.07300 37.79700 26.42400
C  1.21800 37.61800 25.02100
C  0.18900 36.63700 24.68500
C  1.83700 38.69900 27.38200
C  2.21700 38.11700 23.99200
O  2.21600 37.93300 22.73400
C  3.21200 39.01200 24.56000
N  -1.88900 34.60600 23.79100
C  -1.21500 35.42200 22.96600
C  -1.63100 35.33900 21.52800
C  -2.49000 34.07500 21.54700
C  -2.67100 33.78800 23.05000
C  -2.42900 36.60400 21.03800
C  -1.87400 32.86600 20.83700
C  -0.53900 32.46200 21.40200
N  -3.06600 33.08900 25.92400
C  -3.79300 32.46500 24.83800
C  -4.58800 31.41800 25.39300
C  -4.33000 31.38900 26.77300
C  -3.46200 32.44500 27.02200
C  -5.17600 30.33200 24.61300
C  -4.62800 30.71800 28.07200
O  -5.34000 29.76700 28.21900
C  -3.86100 31.43500 29.17600
C  -4.90700 31.73500 30.21700
O  -5.47800 32.77500 30.25300
O  -4.92400 30.80300 31.18300
C  -5.54400 30.99000 32.49400
H  0.27700 37.13600 29.04400
H  -0.15600 36.91600 22.57600
H  -4.09400 32.26900 22.71500
H  -3.14400 34.16500 30.78000
H  -0.41200 35.39600 30.87200
H  -3.04000 36.61000 30.10900
H  -1.57000 37.45200 30.68800
H  -2.47400 36.32900 31.80100
H  -0.37400 33.36900 31.60400
H  -0.99900 32.23600 30.39800
H  -2.14100 31.12200 31.91300
H  -2.92000 32.62000 32.54900
H  2.92400 38.64800 27.32300
H  1.59600 38.67200 28.44400
H  1.77400 39.76600 27.17200
H  3.68100 38.49000 25.39500
H  2.69900 39.91000 24.90300
H  4.06700 39.19700 23.91000
H  -0.75000 35.31200 20.88600
H  -3.47200 34.23000 21.09900
H  -1.75500 37.42100 20.78000
H  -3.12500 36.97300 21.79100
H  -2.95500 36.33600 20.12100
H  -1.68200 33.17500 19.80900
H  -2.53400 32.00700 20.95400
H  0.18000 32.37700 20.58700
H  -0.64000 31.47500 21.85400
H  -0.15800 33.16300 22.14400
H  -4.66500 30.03700 23.69600
H  -6.16000 30.61800 24.24000
H  -5.45500 29.49300 25.25100
H  -3.04800 30.89000 29.65700
H  -4.90200 31.70700 33.00600
H  -5.72400 30.06100 33.03500
H  -6.53800 31.43500 32.53000

