158

Mg 47.13100 25.35700 28.42100
C  48.01400 27.53000 31.07000
C  46.26900 23.02100 30.73100
C  46.57500 23.15500 25.88500
C  48.67900 27.55300 26.21900
N  46.95600 25.42900 30.64600
C  47.41200 26.41000 31.50700
C  47.21100 25.99100 32.96900
C  46.51400 24.53900 32.82600
C  46.53100 24.31700 31.33200
C  47.15900 23.33200 33.66900
C  46.16200 26.96700 33.60900
C  46.70000 27.65300 34.85000
H  45.74200 28.14900 35.92600
N  46.43400 23.36400 28.32000
C  46.09700 22.59300 29.39400
C  45.57900 21.36600 28.89400
C  45.71000 21.34000 27.52900
C  46.25700 22.64400 27.14100
C  45.06900 20.24400 29.78000
C  45.39600 20.19400 26.48700
O  45.48100 20.31300 25.26500
C  44.77700 18.92600 26.93100
N  47.59100 25.37400 26.42200
C  47.21900 24.41400 25.54600
C  47.50500 24.77800 24.10200
C  48.07700 26.13100 24.20300
C  48.14300 26.35600 25.74600
C  48.34200 23.78400 23.33500
C  47.18400 27.22900 23.45700
C  47.65800 27.72100 22.14300
N  48.10600 27.18800 28.56200
C  48.74400 27.91800 27.55500
C  49.25500 29.14100 28.15600
C  49.12500 28.91300 29.49800
C  48.31400 27.82900 29.71000
C  49.97700 30.27100 27.49700
C  49.38600 29.45300 30.81700
O  50.10400 30.41500 31.16100
C  48.68000 28.59000 31.90000
C  49.77000 28.02300 32.80100
O  50.47900 27.15600 32.38600
O  49.83400 28.63800 34.00700
C  51.07600 28.37400 34.79600
H  46.03500 22.39800 31.59600
H  46.43100 22.60700 24.95100
H  49.05400 28.29800 25.51400
H  48.13600 25.92800 33.54200
H  45.50100 24.49900 33.22700
H  46.43600 22.69100 34.17300
H  47.84900 23.70600 34.42500
H  47.74200 22.72700 32.97400
H  45.25200 26.51000 33.99700
H  45.98000 27.82800 32.96700
H  47.21100 28.55200 34.50400
H  47.38800 26.97400 35.35500
H  44.09000 19.89700 29.45100
H  45.08100 20.51100 30.83600
H  45.80500 19.44300 29.70800
H  45.59900 18.33800 27.34100
H  44.38100 18.46900 26.02500
H  43.89700 19.17100 27.52600
H  46.51200 24.84200 23.65700
H  49.09900 26.20400 23.83200
H  48.72700 23.11400 24.10400
H  49.16300 24.28900 22.82700
H  47.71700 23.17400 22.68200
H  47.02100 28.06200 24.14000
H  46.18300 26.86500 23.22700
H  48.57300 27.16800 21.93200
H  47.90300 28.77700 22.26000
H  46.92800 27.55600 21.35100
H  51.05800 30.17700 27.40000
H  49.69200 31.13900 28.09200
H  49.67000 30.36200 26.45500
H  48.01500 29.22100 32.49000
H  52.00700 28.71000 34.33900
H  51.09100 27.30000 34.97900
H  51.00700 28.87700 35.76100
Mg -5.13000 25.03600 25.53900
C  -3.89700 26.71700 28.19800
C  -6.87100 22.71300 27.65200
C  -5.87500 22.95900 22.82000
C  -3.03600 26.78400 23.45100
N  -5.19100 24.67800 27.59600
C  -4.81400 25.62000 28.49700
C  -5.23400 25.25300 29.97600
C  -5.92100 23.85200 29.70100
C  -6.06500 23.77700 28.20500
C  -5.16600 22.62100 30.30900
C  -6.11500 26.34800 30.53100
C  -6.31700 26.39400 32.08600
H  -5.53700 25.39500 32.99300
N  -6.37500 23.23100 25.23600
C  -6.96200 22.45800 26.23600
C  -7.93600 21.47700 25.59500
C  -7.61000 21.50700 24.15900
C  -6.53100 22.57300 24.02300
C  -8.88900 20.59000 26.40200
C  -8.23400 20.78900 23.03800
O  -7.84500 20.97200 21.87700
C  -9.33200 19.82900 23.29800
N  -4.39800 24.77200 23.48300
C  -4.93500 23.91400 22.58000
C  -4.21900 24.03300 21.25100
C  -3.25500 25.21200 21.40900
C  -3.58800 25.67800 22.81600
C  -3.61700 22.77900 20.61100
C  -3.38400 26.32700 20.29900
C  -2.14800 27.03200 19.94300
N  -3.82700 26.56700 25.70100
C  -3.04600 27.23400 24.81000
C  -2.30000 28.27600 25.46700
C  -2.67100 28.15700 26.78800
C  -3.54000 27.06100 26.91100
C  -1.27800 29.20200 24.67900
C  -2.35000 28.57200 28.13700
O  -1.53800 29.38900 28.59500
C  -3.19100 27.68300 29.12400
C  -2.23400 27.03500 30.08000
O  -1.44000 26.12800 29.84700
O  -2.36700 27.78700 31.24500
C  -1.62500 27.32500 32.30600
H  -7.31400 22.04600 28.39400
H  -6.08900 22.34200 21.94500
H  -2.20200 27.16500 22.85900
H  -4.40100 25.19300 30.67600
H  -6.95700 23.88500 30.03800
H  -5.03200 21.82800 29.57300
H  -5.79900 22.32100 31.14400
H  -4.24700 22.95200 30.79300
H  -7.10900 26.20900 30.10700
H  -5.90500 27.34400 30.14100
H  -7.35900 26.24100 32.36700
H  -5.92700 27.36000 32.40500
H  -9.31200 19.85300 25.71900
H  -9.67400 21.25100 26.76900
H  -8.45900 20.13300 27.29300
H  -10.20200 20.34600 23.70400
H  -8.89200 19.02900 23.89400
H  -9.51900 19.30000 22.36300
H  -4.99200 24.38800 20.57100
H  -2.26100 24.78800 21.54800
H  -2.60800 22.94900 20.23400
H  -4.26100 22.33500 19.85200
H  -3.64100 21.99900 21.37200
H  -4.09300 27.05000 20.70300
H  -3.78200 25.81900 19.42000
H  -2.17900 27.11100 18.85600
H  -1.25800 26.49400 20.26900
H  -2.07200 28.07900 20.23700
H  -1.81000 29.71000 23.87400
H  -0.50500 28.60700 24.19400
H  -1.00300 30.06300 25.28800
H  -3.78900 28.39200 29.69700
H  -1.11800 28.18300 32.74800
H  -0.80500 26.60900 32.24400
H  -2.30100 26.93400 33.06600

