158

Mg 42.08300 7.06800 30.54800
C  43.88700 9.23500 32.60300
C  39.87900 6.40900 33.10200
C  40.25600 5.34400 28.41900
C  44.32600 7.89200 27.94500
N  41.88400 7.88500 32.58900
C  42.71200 8.73900 33.22600
C  42.30200 8.82100 34.72700
C  41.05600 7.93400 34.81800
C  40.94600 7.25200 33.42500
C  40.97100 6.90000 35.92000
C  42.09500 10.25400 35.27100
C  41.05900 10.53300 36.42700
H  41.67100 11.34900 37.59100
N  40.41200 5.89000 30.73900
C  39.55100 5.84300 31.82700
C  38.43400 4.92300 31.51900
C  38.56600 4.55900 30.19000
C  39.76200 5.29400 29.69100
C  37.38400 4.49000 32.57000
C  37.76800 3.61400 29.35800
O  38.05400 3.36300 28.15600
C  36.72900 2.77700 29.90200
N  42.34500 6.65700 28.54900
C  41.40200 5.91000 27.86100
C  41.68000 5.78700 26.41200
C  42.77500 6.93900 26.28300
C  43.31500 7.04400 27.64500
C  42.14400 4.31800 25.96000
C  42.11200 8.29600 25.87300
C  42.12400 8.68100 24.36700
N  43.90400 8.19300 30.27500
C  44.64900 8.44900 29.13600
C  45.72900 9.35900 29.46800
C  45.44400 9.70500 30.85100
C  44.36200 8.97200 31.25600
C  46.82100 9.95000 28.59600
C  45.92000 10.47200 31.96200
O  46.80100 11.34400 32.05300
C  45.04000 10.06700 33.18300
C  45.78700 9.41000 34.27800
O  46.21200 8.28800 34.17100
O  45.78200 10.22700 35.36700
C  45.79900 9.41500 36.60000
H  39.15700 6.23000 33.90100
H  39.58400 4.87100 27.69900
H  45.04500 8.27400 27.21600
H  43.13700 8.31500 35.21100
H  40.14200 8.52200 34.90300
H  41.77200 7.09600 36.63300
H  40.96300 5.84800 35.63500
H  40.03600 7.15800 36.41800
H  41.83300 10.82200 34.37800
H  43.07500 10.64800 35.54100
H  40.59800 9.63700 36.84200
H  40.22200 10.95500 35.87100
H  36.59300 5.21100 32.36300
H  37.74400 4.68200 33.58100
H  37.06400 3.45800 32.42000
H  37.18700 1.92200 30.40000
H  36.07600 2.39900 29.11500
H  36.00800 3.28800 30.54100
H  40.78200 6.01300 25.83700
H  43.56600 6.70500 25.57100
H  42.58700 3.82200 26.82400
H  42.97500 4.38300 25.25900
H  41.27000 3.76800 25.61200
H  42.58700 9.11900 26.40700
H  41.04600 8.22000 26.08700
H  42.99200 8.27100 23.85100
H  42.22300 9.76300 24.27500
H  41.31000 8.29800 23.75200
H  47.72800 9.99400 29.19900
H  46.66200 10.96800 28.24000
H  46.96600 9.32400 27.71600
H  44.80200 11.07300 33.52900
H  45.37000 8.41400 36.60700
H  45.15600 10.08500 37.17100
H  46.77100 9.39100 37.09200
Mg -9.92100 17.55800 42.03100
C  -6.49600 16.88100 41.63800
C  -9.36000 20.73900 40.86500
C  -13.22600 17.95100 41.77700
C  -10.44800 14.05300 42.35700
N  -8.13200 18.63200 41.21900
C  -6.83600 18.17200 41.19300
C  -5.90200 19.32900 40.88500
C  -6.80300 20.58000 40.81800
C  -8.18100 19.97600 41.05800
C  -6.30200 21.73300 41.77400
C  -4.91300 19.07100 39.67700
C  -5.33100 18.22900 38.39800
H  -4.92000 18.85800 37.07300
N  -11.13300 19.16400 41.43700
C  -10.73800 20.40500 41.02700
C  -11.86600 21.27200 40.92600
C  -13.01200 20.49700 41.12500
C  -12.48400 19.15600 41.47400
C  -11.71200 22.78500 40.62000
C  -14.52100 21.02500 41.07100
O  -14.80300 22.08000 40.52500
C  -15.62800 20.21400 41.71700
N  -11.59800 16.14900 42.02000
C  -12.88800 16.60700 42.10700
C  -13.89300 15.46900 42.15900
C  -12.90200 14.28000 42.49300
C  -11.57300 14.85800 42.24300
C  -14.99500 15.77500 43.25300
C  -13.40400 13.07800 41.59100
C  -13.39500 11.71200 42.28100
N  -8.76200 15.78300 41.99800
C  -9.10700 14.47000 42.22000
C  -7.88800 13.66100 42.21600
C  -6.85100 14.58800 42.12500
C  -7.42200 15.84900 41.97300
C  -7.76100 12.17000 42.34700
C  -5.45900 14.69300 42.02500
O  -4.55800 13.83900 42.05900
C  -5.16300 16.21900 41.86000
C  -4.35600 16.59400 43.09900
O  -3.19600 16.33600 43.29300
O  -5.17400 17.18800 44.06200
C  -4.65800 17.32000 45.45300
H  -9.19500 21.78100 40.58500
H  -14.31500 17.98500 41.70300
H  -10.58000 12.99000 42.56700
H  -5.28500 19.37300 41.78200
H  -6.77700 21.04000 39.83000
H  -6.06200 22.57900 41.12900
H  -5.53100 21.35300 42.44400
H  -7.14700 22.07700 42.36900
H  -4.06700 18.57000 40.14700
H  -4.46200 19.99000 39.30300
H  -6.35400 17.86200 38.31800
H  -4.68500 17.35300 38.44600
H  -12.66300 23.27700 40.41700
H  -11.15700 22.86100 39.68500
H  -11.05100 23.19500 41.38300
H  -15.85100 19.40900 41.01700
H  -16.53300 20.81000 41.84100
H  -15.33500 19.73200 42.65000
H  -14.36100 15.33400 41.18400
H  -13.01400 14.19100 43.57300
H  -15.05300 15.01600 44.03300
H  -15.95200 15.80400 42.73200
H  -14.70700 16.73700 43.67600
H  -12.73100 13.17300 40.73800
H  -14.36400 13.27800 41.11500
H  -14.26100 11.10000 42.02800
H  -13.33400 11.60500 43.36400
H  -12.55600 11.10700 41.93900
H  -8.68300 11.69500 42.68200
H  -6.93100 11.90600 43.00200
H  -7.51100 11.72800 41.38300
H  -4.39600 16.28500 41.08800
H  -5.45100 17.33600 46.20100
H  -4.05300 18.22300 45.53500
H  -4.14900 16.43500 45.83700

