158

Mg 47.60900 34.67200 27.03300
C  45.65100 33.28500 29.71200
C  47.83500 37.48700 28.91700
C  48.64200 36.03000 24.34700
C  46.44200 31.79000 25.14900
N  46.85500 35.27800 29.07200
C  46.24400 34.52700 29.99600
C  46.57400 35.09300 31.41300
C  47.00500 36.53700 31.14100
C  47.22700 36.48900 29.62300
C  46.01900 37.60700 31.61600
C  47.64800 34.32400 32.24200
C  47.39000 34.25200 33.73700
H  46.58600 35.26100 34.43500
N  48.40600 36.43100 26.77600
C  48.42400 37.46900 27.62000
C  49.06900 38.56200 26.95200
C  49.54300 38.09000 25.69600
C  48.87800 36.79100 25.54800
C  49.17100 39.82300 27.70700
C  50.34700 38.88000 24.57400
O  50.49400 38.37400 23.46400
C  51.06900 40.18500 24.94700
N  47.39100 34.05000 24.91500
C  48.06100 34.76400 24.04600
C  48.21800 34.12700 22.67600
C  47.43500 32.76800 22.92700
C  47.05600 32.85100 24.40500
C  47.78900 35.02000 21.41500
C  48.15300 31.37100 22.75600
C  49.21000 31.06200 23.76000
N  46.29800 32.86700 27.24000
C  45.92700 31.85400 26.45500
C  45.12500 30.87200 27.08100
C  44.95400 31.43000 28.37300
C  45.70300 32.61700 28.45900
C  44.70800 29.54400 26.51900
C  44.26000 31.23400 29.63900
O  43.40700 30.39700 29.94900
C  44.62800 32.46100 30.62200
C  44.95000 31.91300 32.01600
O  46.03700 31.50300 32.40100
O  43.85200 31.92400 32.78200
C  44.02600 31.50800 34.20000
H  48.02100 38.39000 29.50200
H  49.11800 36.56200 23.52100
H  46.07100 30.85900 24.71400
H  45.65400 35.19100 31.98900
H  47.98400 36.77500 31.55700
H  46.49500 38.40800 32.18100
H  45.20000 37.32400 32.27700
H  45.46200 38.02800 30.77900
H  48.56000 34.89500 32.07100
H  47.87500 33.30900 31.91400
H  48.40000 34.30800 34.14200
H  46.97000 33.26300 33.92100
H  49.55000 40.65300 27.11200
H  49.68500 39.70900 28.66100
H  48.17300 40.16800 27.97600
H  51.65200 40.60000 24.12500
H  51.69700 40.04100 25.82600
H  50.23800 40.87800 25.08300
H  49.29000 33.95400 22.58200
H  46.49000 32.76700 22.38300
H  47.10800 34.51900 20.72700
H  48.78300 35.12600 20.98000
H  47.40100 36.00900 21.66000
H  48.64800 31.47800 21.79000
H  47.35800 30.63900 22.61200
H  49.12700 30.07100 24.20600
H  49.26400 31.81200 24.54900
H  50.16800 31.13600 23.24600
H  45.54800 28.85000 26.54100
H  44.36300 29.64500 25.48900
H  43.94900 29.04500 27.12100
H  43.66400 32.94500 30.78400
H  43.41500 30.66400 34.52000
H  43.78800 32.25200 34.96100
H  45.01000 31.13100 34.47700
Mg 7.31800 54.50200 41.99600
C  6.90100 51.01200 41.47600
C  10.54100 54.15400 40.78200
C  7.50700 57.69100 42.22600
C  3.82700 54.60500 42.98800
N  8.49400 52.81700 40.95800
C  8.13600 51.50500 41.01700
C  9.28300 50.61500 40.46800
C  10.53600 51.58700 40.54700
C  9.85600 52.96400 40.76700
C  11.50000 51.26000 41.71200
C  9.02500 50.11700 38.96400
C  8.32900 51.08600 38.02500
H  7.33100 50.49000 37.01700
N  8.85100 55.77200 41.61500
C  10.05900 55.47600 41.11200
C  10.83000 56.75100 41.06900
C  9.96600 57.75700 41.49000
C  8.70000 57.11800 41.78200
C  12.23300 56.85200 40.55000
C  10.34600 59.23900 41.75700
O  11.43400 59.72000 41.41700
C  9.46000 60.18900 42.48600
N  5.81600 55.90300 42.44700
C  6.20500 57.20600 42.44200
C  4.97300 58.12100 42.69400
C  3.81600 57.16200 43.15500
C  4.44700 55.82200 42.81900
C  5.25400 59.28900 43.67100
C  2.45200 57.29300 42.35700
C  1.20500 57.05000 43.18600
N  5.64000 53.14800 42.12600
C  4.38100 53.26000 42.72000
C  3.74900 51.94900 42.78400
C  4.74700 51.02600 42.40200
C  5.84200 51.83500 41.94100
C  2.35900 51.61100 43.26800
C  5.12700 49.59900 42.22300
O  4.51800 48.59000 42.40100
C  6.46400 49.57500 41.52700
C  6.00000 49.02100 40.17800
O  5.26200 49.56000 39.35700
O  6.54200 47.78700 40.00200
C  6.02200 46.97500 38.91100
H  11.62900 54.12600 40.68700
H  7.55900 58.77400 42.35100
H  2.82800 54.40900 43.38300
H  9.45600 49.73300 41.08500
H  11.05500 51.65800 39.59100
H  11.19100 50.50700 42.43600
H  11.67900 52.14900 42.31800
H  12.49900 50.91100 41.45200
H  8.58300 49.12400 39.04500
H  10.02100 49.93900 38.55900
H  9.08100 51.51500 37.36300
H  7.64300 51.70700 38.60000
H  12.53900 57.87900 40.34800
H  12.26400 56.40300 39.55700
H  12.76800 56.36300 41.36400
H  8.68700 60.66600 41.88300
H  10.08200 60.97400 42.91700
H  8.94800 59.73900 43.33500
H  4.77000 58.68200 41.78200
H  3.71400 57.24900 44.23700
H  4.55100 59.17500 44.49600
H  4.99400 60.19800 43.12800
H  6.30700 59.24800 43.94800
H  2.51800 56.67900 41.45900
H  2.31700 58.35900 42.17100
H  0.35500 57.52000 42.69100
H  1.26100 57.47900 44.18600
H  0.99600 55.98000 43.17100
H  2.48100 50.58700 43.62000
H  1.70800 51.56700 42.39500
H  1.89800 52.20900 44.05400
H  7.19900 48.88800 41.94600
H  6.62500 46.07600 38.78800
H  6.03000 47.48200 37.94700
H  4.98700 46.65500 39.03000

