158

Mg 49.38600 45.54400 43.32400
C  46.19300 46.13000 42.32400
C  49.23800 42.42100 42.04600
C  52.66800 45.35500 43.61100
C  49.64300 49.08100 44.16500
N  47.90400 44.49700 42.13300
C  46.68300 44.93300 41.85600
C  45.91800 44.00800 40.89600
C  46.79200 42.67100 41.08300
C  48.04100 43.18300 41.80300
C  46.06400 41.56900 41.90200
C  45.85000 44.58500 39.38100
C  44.47600 44.60600 38.76900
H  44.30800 43.54600 37.64800
N  50.71300 44.07500 43.04600
C  50.45100 42.81600 42.48800
C  51.68200 42.00100 42.48600
C  52.71600 42.80300 43.06100
C  52.08200 44.15000 43.28400
C  51.72500 40.48700 42.10600
C  54.13600 42.37900 43.24400
O  54.47600 41.20900 42.88800
C  55.25000 43.20700 43.82600
N  50.88900 47.05400 43.72800
C  52.19500 46.66400 43.74800
C  53.17200 47.80600 43.92200
C  52.19400 48.91700 44.41300
C  50.82400 48.35300 44.09300
C  54.35900 47.66500 45.01100
C  52.42200 50.35600 43.79600
C  52.43500 51.43200 44.83200
N  48.11700 47.21600 43.42900
C  48.31600 48.52500 43.94000
C  47.07200 49.27600 43.79600
C  46.18300 48.40100 43.22200
C  46.91400 47.17900 42.98600
C  46.87700 50.68700 44.27500
C  44.84400 48.15900 42.69200
O  43.94200 48.93900 42.61800
C  44.79300 46.63600 42.16100
C  43.77400 46.11100 43.17100
O  43.97900 45.87600 44.40000
O  42.59300 45.87700 42.52000
C  41.67500 44.97200 43.18700
H  49.10700 41.40500 41.66700
H  53.74500 45.18000 43.63800
H  49.78500 50.09100 44.55300
H  44.90900 43.73300 41.20500
H  47.05500 42.32600 40.08300
H  44.97800 41.55500 41.80500
H  46.17000 41.46500 42.98200
H  46.38800 40.65400 41.40600
H  46.54800 44.09700 38.70000
H  46.08800 45.64800 39.38500
H  44.36600 45.57900 38.28900
H  43.60800 44.60100 39.42900
H  52.41100 40.26300 41.28900
H  50.77400 40.05400 41.79600
H  52.13800 39.91400 42.93600
H  56.09200 42.53600 44.00000
H  54.94400 43.43900 44.84600
H  55.55500 44.05600 43.21400
H  53.55000 48.06800 42.93400
H  52.30400 48.91800 45.49800
H  54.51100 46.66000 45.40300
H  54.17600 48.35000 45.83900
H  55.29500 47.98700 44.55500
H  51.71600 50.67900 43.03200
H  53.40400 50.37000 43.32400
H  53.45400 51.81800 44.86800
H  52.16500 51.15200 45.85000
H  51.75200 52.13300 44.35100
H  47.60700 51.09500 44.97500
H  45.96200 50.60800 44.86200
H  46.73800 51.29500 43.38000
H  44.38600 46.53900 41.15500
H  41.17800 45.37100 44.07200
H  42.38500 44.17600 43.40900
H  40.94100 44.51200 42.52500
Mg 26.91200 50.66900 26.21300
C  24.86300 51.96400 28.76700
C  29.14800 49.69400 28.57900
C  29.00700 49.89000 23.84200
C  24.68800 52.11800 23.91800
N  26.89600 50.73700 28.44200
C  25.96900 51.29200 29.29900
C  26.34700 51.01800 30.75700
C  27.72700 50.18900 30.66700
C  27.89400 50.14400 29.09200
C  28.88000 50.87700 31.39100
C  25.16800 50.50000 31.68600
C  25.61900 49.90200 33.03100
H  25.64900 50.73800 34.41700
N  28.89900 49.98900 26.24200
C  29.59800 49.61300 27.27300
C  30.87500 49.15600 26.87500
C  30.90100 49.17900 25.47500
C  29.60800 49.71800 25.09400
C  31.82300 48.64500 27.89300
C  31.91600 48.64200 24.42000
O  31.65500 48.73500 23.25500
C  33.29500 48.25400 24.81600
N  26.97700 51.18200 24.18200
C  27.80800 50.45400 23.38700
C  27.43400 50.41300 21.89600
C  26.00800 51.05300 21.96000
C  25.85200 51.49000 23.44600
C  28.45400 51.21300 21.09700
C  24.93800 50.06100 21.50200
C  23.81500 50.60300 20.58900
N  25.12500 51.82500 26.25500
C  24.36200 52.39500 25.23300
C  23.25700 53.13500 25.78500
C  23.43800 53.01400 27.21100
C  24.56200 52.15700 27.42300
C  22.16200 53.79300 24.99800
C  22.93400 53.40800 28.51900
O  22.03000 54.15800 28.83900
C  23.84200 52.75900 29.55900
C  24.25700 53.91700 30.42400
O  25.23900 54.61600 30.14600
O  23.50900 54.01800 31.55000
C  23.88600 54.90600 32.64000
H  29.62300 49.12300 29.37900
H  29.52300 49.41300 23.00700
H  23.87100 52.43300 23.26500
H  26.60100 52.00700 31.13900
H  27.60200 49.20800 31.12600
H  29.50000 51.49000 30.73600
H  29.50400 50.19300 31.96600
H  28.41100 51.51700 32.13800
H  24.52600 49.80400 31.14600
H  24.70600 51.45500 31.93500
H  26.62200 49.49100 32.92300
H  25.04600 48.99400 33.22300
H  31.48000 49.09900 28.82200
H  32.84100 48.93700 27.63300
H  31.85900 47.56400 28.02700
H  33.79000 48.97500 25.46600
H  33.84800 48.26000 23.87700
H  33.13600 47.24500 25.19800
H  27.40500 49.38700 21.52800
H  26.04700 51.95600 21.35200
H  28.94300 52.05000 21.59400
H  27.95200 51.61600 20.21700
H  29.27300 50.51500 20.92200
H  24.55500 49.53100 22.37400
H  25.40800 49.18500 21.05600
H  23.47600 49.79300 19.94200
H  24.18600 51.42500 19.97800
H  22.88200 50.83900 21.10000
H  21.28000 53.61300 25.61200
H  21.98700 53.26000 24.06300
H  22.46400 54.83300 24.87900
H  23.17800 52.03600 30.03400
H  24.56900 55.71300 32.37800
H  24.48400 54.29300 33.31500
H  23.10400 55.34300 33.26200

