158

Mg 5.66700 54.50300 40.93300
C  4.94000 51.04300 40.80000
C  9.05900 53.76600 40.72500
C  6.20900 57.76900 40.68500
C  2.15300 55.12000 41.19200
N  6.80000 52.69400 40.61800
C  6.35400 51.37200 40.69400
C  7.54500 50.40400 40.81400
C  8.68500 51.39400 41.28600
C  8.17400 52.71100 40.82600
C  9.15200 51.31100 42.77100
C  7.82800 49.74700 39.38300
C  7.73600 50.69100 38.16000
H  6.65000 50.29700 37.12600
N  7.41800 55.65800 40.59100
C  8.69000 55.14800 40.50100
C  9.55300 56.29300 40.38800
C  8.81300 57.54100 40.34500
C  7.40900 57.01900 40.56700
C  11.09800 56.15400 40.33100
C  9.30700 58.92600 40.13300
O  10.52500 59.02800 40.13900
C  8.39500 60.14800 39.97700
N  4.36000 56.25800 41.01400
C  4.80400 57.49700 40.87800
C  3.59800 58.55300 41.02400
C  2.34900 57.63100 41.18900
C  2.97300 56.26400 41.06500
C  3.84100 59.48700 42.23100
C  1.14600 57.91800 40.18000
C  -0.31000 58.07900 40.75200
N  3.85100 53.44900 40.81500
C  2.53500 53.76200 41.11500
C  1.69900 52.54800 41.24300
C  2.62000 51.52200 41.23800
C  3.90200 52.08300 40.92800
C  0.21900 52.46200 41.43400
C  2.78000 50.12000 41.44800
O  1.92700 49.31400 41.85100
C  4.24300 49.75700 41.06100
C  4.13400 48.84500 39.86100
O  3.45700 48.95100 38.84600
O  4.88000 47.68800 40.11400
C  5.00700 46.54500 39.17400
H  10.14200 53.64000 40.78700
H  6.42800 58.83000 40.82700
H  1.08700 55.34500 41.26500
H  7.34500 49.63200 41.55700
H  9.54100 50.97900 40.75400
H  10.16100 50.90900 42.68000
H  8.46900 50.93600 43.53400
H  9.29400 52.36000 43.03200
H  7.12300 48.92800 39.24400
H  8.84500 49.35500 39.34700
H  8.75700 50.57700 37.79600
H  7.66700 51.76500 38.33100
H  11.49500 56.43900 39.35700
H  11.52200 55.15600 40.22200
H  11.60800 56.64300 41.16000
H  9.04100 60.94600 39.61200
H  8.09700 60.53400 40.95200
H  7.55200 59.95800 39.31300
H  3.37500 59.18600 40.16600
H  1.90400 57.73300 42.17800
H  4.90900 59.40800 42.43300
H  3.22600 59.31600 43.11500
H  3.61800 60.50400 41.90700
H  1.13800 57.18200 39.37700
H  1.43900 58.79800 39.60900
H  -0.99200 57.34400 40.32400
H  -0.69800 59.09300 40.65600
H  -0.26800 57.85900 41.81800
H  0.02900 51.38900 41.41700
H  -0.25700 52.87200 40.54400
H  -0.10300 52.82400 42.41100
H  4.67400 49.12800 41.84000
H  4.10400 45.94500 39.05600
H  5.61000 45.85300 39.76300
H  5.64800 46.58800 38.29400
Mg -12.21100 37.49500 41.84900
C  -10.32200 34.80800 40.45500
C  -10.11900 39.61100 40.36500
C  -14.46300 39.89400 42.66500
C  -14.55900 35.01000 42.86800
N  -10.48600 37.22600 40.64100
C  -9.85600 36.06300 40.07800
C  -8.66100 36.40000 39.12500
C  -8.52000 37.91800 39.33400
C  -9.79100 38.26000 40.23200
C  -7.15900 38.47600 39.84500
C  -8.71600 35.81300 37.68600
C  -7.41200 35.18000 37.00700
H  -6.71500 35.93600 35.96900
N  -12.23500 39.49900 41.62100
C  -11.23800 40.17000 41.03200
C  -11.58000 41.58300 41.11900
C  -12.73600 41.71500 41.85300
C  -13.22500 40.36700 42.07000
C  -10.75800 42.67100 40.50200
C  -13.53900 43.03900 42.18300
O  -13.18000 44.17400 41.74800
C  -14.71800 43.00200 43.07900
N  -14.34000 37.49500 42.35000
C  -15.02700 38.57100 42.85500
C  -16.34200 38.25200 43.45800
C  -16.26100 36.72200 43.62200
C  -15.02400 36.37200 42.78800
C  -16.74700 39.07700 44.71500
C  -17.50700 35.99200 43.09800
C  -18.19600 34.85700 43.98600
N  -12.42300 35.37300 41.71600
C  -13.36300 34.47100 42.32900
C  -12.87100 33.08000 42.31500
C  -11.72300 33.20500 41.48500
C  -11.46000 34.62000 41.22100
C  -13.45800 31.77300 42.84700
C  -10.65500 32.42200 40.93600
O  -10.52600 31.23100 40.99400
C  -9.72100 33.39600 40.16500
C  -8.23600 33.27200 40.47300
O  -7.44900 32.50900 39.89900
O  -8.05800 33.99800 41.65200
C  -6.80200 33.81200 42.41800
H  -9.38300 40.28400 39.92100
H  -15.22400 40.60300 43.00000
H  -15.24200 34.33600 43.38900
H  -7.76300 36.02200 39.61400
H  -8.66100 38.43300 38.38400
H  -6.50900 37.67000 39.50500
H  -7.26300 38.71400 40.90300
H  -6.99200 39.48500 39.46900
H  -9.11300 36.55900 36.99800
H  -9.34200 34.92000 37.68000
H  -7.58800 34.18200 36.60500
H  -6.65000 35.07200 37.78000
H  -10.63400 43.46900 41.23400
H  -11.21600 42.95400 39.55400
H  -9.74000 42.34700 40.28400
H  -15.57400 42.62300 42.52200
H  -14.85300 43.95800 43.58400
H  -14.53900 42.30800 43.90100
H  -17.18000 38.48200 42.80000
H  -15.97400 36.50400 44.65100
H  -16.11100 39.87800 45.09200
H  -16.89900 38.44300 45.58800
H  -17.76400 39.46200 44.64000
H  -17.14400 35.50100 42.19500
H  -18.25900 36.75800 42.90900
H  -19.27400 34.87700 43.82200
H  -17.97800 35.05600 45.03500
H  -17.71600 33.90300 43.76700
H  -14.49900 31.77300 42.52400
H  -13.37900 31.82800 43.93300
H  -12.91000 30.88800 42.52400
H  -10.02400 32.89100 39.24700
H  -6.78400 34.64500 43.12000
H  -6.03700 33.95500 41.65500
H  -6.62400 32.93000 43.03400

