158

Mg 34.71100 2.43300 29.61700
C  32.52700 3.42500 32.12600
C  37.27900 2.43300 31.80000
C  36.73400 1.46000 27.05500
C  32.11300 2.96800 27.31900
N  34.90600 2.92000 31.63300
C  33.85300 3.23200 32.51100
C  34.32600 3.13000 33.99100
C  35.90200 3.25300 33.79100
C  36.05400 2.81300 32.32200
C  36.46300 4.67700 34.07700
C  33.86700 1.84600 34.72400
C  33.13000 2.09200 36.09900
H  33.72000 3.09000 37.02900
N  36.71700 1.96000 29.47500
C  37.58600 1.95700 30.49000
C  38.85800 1.47600 29.98500
C  38.76100 1.23500 28.64200
C  37.35600 1.49400 28.30900
C  40.01700 1.28200 30.91100
C  39.80500 0.76700 27.66300
O  39.62400 0.68600 26.48200
C  41.18500 0.48700 28.13800
N  34.46300 2.17100 27.54300
C  35.44400 1.80100 26.69100
C  34.98500 1.75600 25.28600
C  33.42300 1.95700 25.44700
C  33.30900 2.43100 26.89800
C  35.58500 2.79600 24.29800
C  32.57000 0.65400 25.27200
C  31.43700 0.71800 24.17200
N  32.80600 3.11900 29.59000
C  31.82500 3.26500 28.67700
C  30.54500 3.71400 29.25500
C  30.79700 3.65800 30.62500
C  32.14600 3.34000 30.78000
C  29.24200 3.92900 28.47900
C  30.18100 3.72000 31.92200
O  29.04000 3.86800 32.34600
C  31.38900 3.66700 32.92400
C  31.51800 5.07700 33.45300
O  31.87400 6.09100 32.84800
O  31.02500 5.15700 34.76100
C  31.21600 6.45400 35.40200
H  38.12000 2.60100 32.47600
H  37.32000 1.07700 26.21700
H  31.28600 3.04500 26.61000
H  33.76800 3.99700 34.34300
H  36.49100 2.56000 34.39200
H  37.37800 4.68000 34.67000
H  35.70400 5.23700 34.62300
H  36.78900 5.27700 33.22800
H  34.74900 1.21800 34.84600
H  33.10400 1.27600 34.19300
H  33.25300 1.20500 36.72000
H  32.05300 2.08400 35.92900
H  40.48100 0.30400 30.78300
H  39.78400 1.37600 31.97100
H  40.78200 2.00900 30.63700
H  41.89800 0.38600 27.32100
H  41.17500 -0.33800 28.85000
H  41.40900 1.42400 28.64800
H  35.23000 0.74900 24.94900
H  33.09700 2.80500 24.84400
H  36.21100 2.21100 23.62400
H  36.13000 3.54100 24.87600
H  34.78500 3.28400 23.74100
H  32.01800 0.51300 26.20200
H  33.17300 -0.24000 25.11600
H  30.46800 0.38400 24.54500
H  31.77000 0.05000 23.37800
H  31.33300 1.73000 23.78100
H  29.55200 4.45300 27.57400
H  28.69700 4.74400 28.95500
H  28.69000 2.99800 28.35100
H  31.15800 2.97900 33.73800
H  30.85100 7.25400 34.75800
H  32.27300 6.49700 35.66400
H  30.65100 6.34700 36.32900
Mg 53.85600 24.46800 42.96700
C  51.48400 26.99400 42.28100
C  51.74600 22.10900 42.00400
C  56.49000 22.30400 42.92100
C  56.05800 27.02700 43.90400
N  51.87000 24.62300 42.05400
C  51.06200 25.67800 41.83500
C  49.66500 25.20800 41.39200
C  49.67700 23.66300 41.83400
C  51.20000 23.45100 42.07800
C  48.80700 23.26600 43.06100
C  49.27800 25.49000 39.91700
C  50.33300 25.16700 38.85800
H  49.85300 24.32000 37.66200
N  54.10700 22.49000 42.38900
C  53.08100 21.69400 42.13000
C  53.52300 20.29700 42.16600
C  54.87500 20.31500 42.60700
C  55.23600 21.74000 42.67800
C  52.64600 19.08300 41.86400
C  55.71100 19.05000 42.79600
O  55.31600 17.94900 42.50000
C  57.04500 19.03100 43.50500
N  56.03100 24.67300 43.12400
C  56.91100 23.60100 43.22900
C  58.39200 24.03600 43.50300
C  58.18300 25.57200 43.95900
C  56.68300 25.80200 43.63500
C  59.11200 23.14800 44.57500
C  59.12300 26.66600 43.35200
C  59.82300 27.49700 44.30300
N  53.81700 26.64600 43.12700
C  54.76200 27.48600 43.57100
C  54.10000 28.74600 43.80100
C  52.81700 28.68900 43.25200
C  52.69200 27.34000 42.84900
C  54.74200 29.90700 44.47600
C  51.58700 29.37300 42.92500
O  51.21100 30.45900 43.23900
C  50.63000 28.27900 42.31600
C  50.01700 28.75700 41.04700
O  50.45900 28.69800 39.96900
O  48.76700 29.19500 41.37400
C  47.90400 29.73600 40.31100
H  50.95100 21.38600 41.81000
H  57.30400 21.58200 43.01000
H  56.79200 27.69400 44.36000
H  48.88700 25.71300 41.96400
H  49.50600 23.07400 40.93300
H  48.06300 22.52300 42.77300
H  48.33900 24.05300 43.65400
H  49.46200 22.86000 43.83100
H  48.89900 26.50700 39.81600
H  48.34700 24.97000 39.69200
H  51.10500 24.59000 39.36600
H  50.77300 26.07000 38.43500
H  52.33900 18.54100 42.75900
H  53.10400 18.26300 41.31000
H  51.77700 19.45700 41.32300
H  57.12700 18.10300 44.07200
H  57.01100 19.86200 44.21000
H  57.92700 19.00000 42.86500
H  58.97200 23.98600 42.58200
H  58.23200 25.56700 45.04800
H  58.64600 22.27800 45.03600
H  59.63900 23.77000 45.29800
H  60.01600 22.78800 44.08400
H  58.59300 27.34700 42.68500
H  59.82100 26.15500 42.68800
H  59.35800 28.48000 44.37100
H  60.85200 27.70900 44.01300
H  59.77600 27.15300 45.33700
H  54.74400 30.78500 43.83100
H  55.74400 29.62100 44.79500
H  54.24100 29.98000 45.44100
H  49.79300 28.12000 42.99500
H  48.28100 30.72700 40.05900
H  46.94600 29.99600 40.76300
H  47.78500 29.06100 39.46300

