158

Mg 1.52500 8.47600 25.79300
C  2.33200 10.37800 28.59600
C  1.95100 5.65100 27.64400
C  1.38700 6.56200 23.06400
C  1.54300 11.34300 23.86800
N  2.00200 8.05900 27.81900
C  2.21700 8.99800 28.81800
C  2.28500 8.37700 30.20800
C  2.35600 6.88600 29.81600
C  2.12600 6.85600 28.30600
C  3.75100 6.11800 30.12300
C  1.07200 8.87600 30.92100
C  1.12600 8.79500 32.49500
H  2.42500 8.15500 33.11000
N  1.39300 6.40400 25.41700
C  1.61600 5.37500 26.27200
C  1.37500 4.10300 25.68500
C  1.16500 4.39400 24.32500
C  1.30500 5.88400 24.19600
C  1.33100 2.83700 26.53600
C  0.83800 3.43900 23.21900
O  0.59000 3.75200 22.07300
C  0.93600 1.93600 23.60100
N  1.44800 8.93100 23.76300
C  1.43800 7.94400 22.81700
C  1.24900 8.56400 21.40700
C  0.96200 10.02000 21.73300
C  1.36700 10.12600 23.22500
C  2.52400 8.26100 20.60300
C  -0.56100 10.45100 21.53800
C  -0.97200 10.95000 20.17200
N  1.89800 10.44400 26.11600
C  1.94000 11.52900 25.21500
C  2.35400 12.74200 25.93100
C  2.41700 12.33600 27.30800
C  2.16900 10.93000 27.36400
C  2.30300 14.08000 25.35600
C  2.75600 12.86200 28.64600
O  3.16400 13.97100 28.96300
C  2.56000 11.64300 29.57000
C  3.79700 11.54400 30.44500
O  4.89400 11.25800 30.06000
O  3.39400 11.90000 31.67600
C  4.48500 12.23900 32.55800
H  2.17400 4.76100 28.23700
H  1.47300 5.78800 22.29800
H  1.33200 12.25100 23.29900
H  3.17100 8.72600 30.73700
H  1.51100 6.28700 30.15500
H  3.50100 5.33000 30.83300
H  4.53100 6.71900 30.59100
H  4.18300 5.69000 29.21800
H  0.28000 8.19300 30.61400
H  0.70000 9.86800 30.66800
H  0.34200 8.12400 32.84700
H  1.05000 9.82000 32.85700
H  1.43400 2.98900 27.61000
H  2.25100 2.34600 26.21700
H  0.53400 2.10400 26.41600
H  1.81800 1.79300 24.22400
H  1.21100 1.54500 22.62200
H  0.01300 1.47500 23.95400
H  0.49000 8.00700 20.85600
H  1.52800 10.56300 20.97700
H  3.21200 8.03800 21.41800
H  2.89300 9.10700 20.02300
H  2.38200 7.32900 20.05600
H  -0.79500 11.13500 22.35400
H  -1.20100 9.64600 21.90100
H  -0.17700 10.67900 19.47700
H  -1.12100 12.01200 19.97700
H  -1.86900 10.38600 19.91700
H  1.22500 14.22400 25.41700
H  2.53700 14.10300 24.29100
H  2.96500 14.84100 25.76800
H  1.63900 11.89200 30.09600
H  5.04000 13.04700 32.08200
H  5.27100 11.53300 32.82700
H  4.08900 12.68600 33.47000
Mg 35.22500 49.17000 25.19800
C  35.31400 47.79500 28.40900
C  33.89800 52.04100 26.63300
C  34.51500 50.21600 22.03600
C  36.29300 46.11500 23.88900
N  34.61500 49.73400 27.27600
C  34.80800 49.09100 28.45500
C  34.29800 49.89700 29.69000
C  33.89600 51.31800 29.09300
C  34.17500 51.04400 27.58300
C  32.51200 51.89100 29.50300
C  35.28300 49.94600 30.85500
C  34.78500 49.67900 32.31000
H  34.88400 50.74000 33.42600
N  34.33600 50.98200 24.45600
C  33.89600 52.05300 25.17200
C  33.41700 53.03600 24.27900
C  33.67400 52.55100 22.91500
C  34.18300 51.18500 23.09000
C  32.90400 54.37100 24.83900
C  33.55700 53.27500 21.61100
O  33.89800 52.78700 20.50500
C  33.01100 54.57000 21.56700
N  35.58400 48.39700 23.28700
C  35.15100 48.99800 22.20100
C  35.60100 48.19100 20.97100
C  36.28300 46.93600 21.51100
C  36.10300 47.15800 22.98100
C  34.43000 47.83900 20.00500
C  37.75000 46.82800 21.14200
C  38.68500 47.93400 21.72500
N  35.81300 47.31000 25.90200
C  36.17100 46.18100 25.30900
C  36.38000 45.11500 26.29000
C  36.20500 45.74800 27.46600
C  35.69600 47.07900 27.24500
C  36.74500 43.62700 26.01400
C  36.31300 45.57100 28.93400
O  36.76100 44.68000 29.65500
C  35.58100 46.83700 29.55200
C  34.34600 46.39500 30.23900
O  33.21700 46.32600 29.78600
O  34.64700 45.95300 31.48900
C  33.57200 45.24600 32.28600
H  33.51000 52.97100 27.05300
H  34.39000 50.45800 20.97800
H  36.61200 45.14800 23.49300
H  33.38200 49.39300 29.99600
H  34.72700 51.96700 29.36800
H  31.97100 51.03100 29.89800
H  32.06300 52.36700 28.63200
H  32.63500 52.62800 30.29700
H  35.80100 50.89200 31.00800
H  36.05600 49.24000 30.54900
H  35.61500 49.05100 32.63400
H  33.83300 49.16700 32.44200
H  32.79300 54.34800 25.92400
H  31.90100 54.51600 24.43800
H  33.50500 55.18000 24.42300
H  33.73800 55.18800 22.09400
H  32.08800 54.52000 22.14400
H  32.73400 54.88500 20.56100
H  36.34400 48.67600 20.33800
H  35.59600 46.11100 21.32200
H  33.47300 48.32500 20.19200
H  34.29600 46.76000 19.91700
H  34.73100 48.30700 19.06800
H  37.98600 46.80600 20.07800
H  38.08000 45.84200 21.47000
H  39.38500 47.62500 22.50100
H  38.26600 48.88300 22.06200
H  39.34800 48.22200 20.90900
H  37.79200 43.46200 26.26700
H  36.58900 43.32600 24.97800
H  36.17700 42.88000 26.56900
H  36.27300 47.19300 30.31600
H  33.28900 44.32500 31.77700
H  32.63100 45.79500 32.25400
H  33.85100 45.17100 33.33700

