158

Mg 35.09500 1.74100 29.22500
C  32.93400 3.15600 31.65600
C  37.65800 1.95100 31.40500
C  37.14100 0.85600 26.73500
C  32.45100 2.04700 26.96000
N  35.29600 2.65600 31.25500
C  34.24000 2.83200 32.12500
C  34.73700 3.00200 33.55900
C  36.26900 2.81200 33.47000
C  36.43400 2.47700 31.95000
C  37.06900 3.97100 34.00200
C  33.91800 2.08500 34.51700
C  33.33200 2.72600 35.73500
H  34.34900 3.66700 36.44200
N  37.08900 1.38900 29.08400
C  37.98000 1.48500 30.12900
C  39.24800 1.08600 29.65600
C  39.15200 0.84300 28.24600
C  37.73500 1.02000 27.94900
C  40.57100 1.04500 30.47700
C  40.21900 0.45700 27.31800
O  40.05000 0.56000 26.11900
C  41.58900 0.07700 27.77100
N  34.84800 1.36800 27.15600
C  35.79900 0.95200 26.27100
C  35.32900 0.82300 24.80300
C  33.79200 1.14700 25.00400
C  33.68100 1.50000 26.51500
C  36.01300 1.78400 23.72500
C  32.92600 -0.09900 24.67700
C  32.00200 0.06800 23.45000
N  33.08100 2.37600 29.27200
C  32.14600 2.42600 28.25600
C  30.97200 3.09700 28.79100
C  31.21500 3.32800 30.16700
C  32.53100 2.94000 30.37400
C  29.82800 3.45000 28.03900
C  30.66100 3.96900 31.26000
O  29.59300 4.46300 31.47500
C  31.72400 3.77900 32.43600
C  32.02600 5.11500 32.97800
O  32.92600 5.89900 32.67300
O  31.17700 5.29800 34.00800
C  31.51600 6.12200 35.17500
H  38.42900 1.89200 32.17600
H  37.82000 0.81200 25.88100
H  31.59700 2.13600 26.28500
H  34.57600 4.03200 33.87500
H  36.59600 1.95600 34.06100
H  36.56100 4.69500 34.63900
H  37.31300 4.45900 33.05800
H  37.95600 3.56600 34.48800
H  34.58200 1.29700 34.86900
H  33.12100 1.63200 33.92700
H  32.81900 2.08500 36.45200
H  32.50400 3.24900 35.25700
H  41.25700 1.71000 29.95300
H  40.99400 0.04200 30.53100
H  40.44100 1.37000 31.51000
H  42.14100 -0.29000 26.90600
H  41.43200 -0.67200 28.54700
H  42.11500 0.93600 28.18900
H  35.52200 -0.24300 24.68500
H  33.52700 1.95300 24.31900
H  36.79900 2.33700 24.23800
H  35.29700 2.39900 23.17900
H  36.45700 1.21200 22.91100
H  32.41600 -0.32400 25.61300
H  33.45400 -1.01000 24.39300
H  31.79100 1.10300 23.18100
H  31.04600 -0.42200 23.63400
H  32.61700 -0.38400 22.67100
H  30.06500 3.72000 27.01000
H  29.47900 4.38600 28.47600
H  29.00200 2.74300 28.11700
H  31.46100 3.11200 33.25600
H  30.82900 6.96100 35.28700
H  32.52700 6.51600 35.06600
H  31.43200 5.47000 36.04500
Mg 0.59700 43.30000 26.37700
C  2.97100 43.38600 29.04700
C  -1.75700 42.65300 28.77700
C  -1.55700 42.40500 23.98500
C  3.08100 43.57800 24.20600
N  0.62200 42.97700 28.70400
C  1.68300 43.09600 29.52400
C  1.14900 43.07700 31.04900
C  -0.27700 42.39400 30.86400
C  -0.50500 42.80400 29.39000
C  -0.41200 40.89600 31.14100
C  1.11000 44.54300 31.68800
C  1.22700 44.80100 33.23200
H  0.99400 43.52700 34.13500
N  -1.43100 42.60800 26.35500
C  -2.21900 42.42500 27.47900
C  -3.56400 42.10400 27.02200
C  -3.54900 42.02700 25.61200
C  -2.15500 42.25300 25.26700
C  -4.73500 41.88700 28.04200
C  -4.67800 41.81000 24.56800
O  -4.44500 41.89800 23.34500
C  -6.02400 41.55500 24.93600
N  0.68900 43.16100 24.41100
C  -0.26400 42.69200 23.60700
C  0.19800 42.69700 22.10800
C  1.59200 43.31200 22.17600
C  1.80700 43.38100 23.71700
C  0.05500 41.36000 21.31700
C  1.81400 44.58000 21.28900
C  1.61800 45.89600 22.10500
N  2.61500 43.56300 26.52500
C  3.53000 43.74600 25.51200
C  4.84400 43.82300 26.11600
C  4.69100 43.65600 27.43300
C  3.27900 43.57900 27.68100
C  6.20000 43.91400 25.51700
C  5.37800 43.50400 28.70400
O  6.58800 43.73200 28.97200
C  4.28500 43.30500 29.76400
C  4.56400 42.09900 30.60200
O  4.71200 40.97700 30.12200
O  4.67000 42.43900 31.86900
C  5.11200 41.43300 32.86300
H  -2.47700 42.49600 29.58200
H  -2.16900 42.15500 23.11600
H  3.93700 43.61600 23.52900
H  1.66700 42.41800 31.74500
H  -0.96000 42.99600 31.46400
H  0.56200 40.50000 31.43100
H  -0.75600 40.36500 30.25400
H  -1.14000 40.81000 31.94700
H  0.17500 44.98500 31.34400
H  1.78700 45.13500 31.07200
H  0.39900 45.46900 33.46700
H  2.11100 45.31300 33.61400
H  -5.17200 40.90200 27.88000
H  -5.62100 42.51800 27.97500
H  -4.40000 41.90300 29.07900
H  -6.65800 41.22700 24.11300
H  -6.47600 42.49500 25.25400
H  -5.95400 40.86900 25.78000
H  -0.37000 43.48000 21.60700
H  2.34200 42.56500 21.91600
H  0.95400 40.75300 21.43200
H  -0.06500 41.71000 20.29200
H  -0.80300 40.74100 21.57700
H  1.17700 44.60400 20.40400
H  2.84500 44.54600 20.93900
H  1.13300 46.58000 21.40800
H  2.58000 46.21600 22.50300
H  0.85700 45.73300 22.86800
H  6.05600 43.60900 24.48000
H  6.93700 43.28200 26.01200
H  6.63000 44.91500 25.51900
H  4.56700 44.11300 30.44000
H  5.01900 40.38300 32.58400
H  4.58200 41.46900 33.81500
H  6.15600 41.62600 33.10800

