158

Mg 24.39000 -7.78400 46.68300
C  27.06700 -5.63700 45.44800
C  22.50700 -6.45900 44.09500
C  22.13600 -10.12100 47.46800
C  26.86300 -9.34600 48.73600
N  24.78400 -6.36400 44.99500
C  25.82200 -5.53500 44.74200
C  25.66100 -4.56100 43.60700
C  24.11300 -4.75100 43.24500
C  23.77100 -5.90600 44.19900
C  23.26100 -3.43700 43.44900
C  26.56900 -4.87200 42.33200
C  27.46200 -3.72200 42.02500
H  27.43000 -3.06100 40.71500
N  22.52100 -8.05300 46.03400
C  21.95500 -7.48200 44.95700
C  20.61000 -8.01600 44.77800
C  20.39200 -9.06300 45.76800
C  21.76600 -9.16500 46.48300
C  19.57600 -7.39700 43.84800
C  19.13900 -9.85200 45.95600
O  18.20300 -9.68400 45.17000
C  18.89300 -10.93200 46.94600
N  24.48500 -9.51900 47.78500
C  23.42300 -10.28400 48.07000
C  23.74000 -11.48000 48.97600
C  25.24000 -11.28100 49.28900
C  25.57400 -9.99300 48.54900
C  22.84600 -11.64900 50.17900
C  26.10200 -12.43700 48.87300
C  27.22800 -12.85600 49.89300
N  26.49600 -7.47700 47.16500
C  27.31000 -8.17100 48.01900
C  28.68000 -7.51900 48.06400
C  28.54800 -6.48600 47.07900
C  27.28900 -6.65200 46.51000
C  29.76400 -7.93000 48.94900
C  29.24200 -5.33100 46.45300
O  30.30800 -4.81200 46.71000
C  28.29800 -4.79400 45.33600
C  28.07300 -3.43300 45.53600
O  27.31500 -3.02300 46.37800
O  28.83000 -2.68300 44.65100
C  28.74200 -1.25200 44.87600
H  21.86900 -6.03000 43.32000
H  21.38200 -10.87400 47.70800
H  27.64300 -9.87000 49.29000
H  25.94600 -3.55300 43.90700
H  23.93400 -5.04600 42.21100
H  22.59100 -3.16500 42.63400
H  24.00500 -2.64000 43.46300
H  22.67600 -3.41500 44.36800
H  25.97900 -5.11400 41.44700
H  27.14900 -5.76000 42.58500
H  28.46600 -4.09600 42.22600
H  27.32900 -2.85700 42.67400
H  18.55700 -7.35500 44.23100
H  19.71300 -7.96700 42.92900
H  19.83700 -6.35800 43.64600
H  19.44000 -11.83000 46.65700
H  17.86300 -11.26500 46.81300
H  19.09800 -10.44100 47.89700
H  23.48000 -12.39200 48.43900
H  25.22000 -11.07000 50.35800
H  22.35200 -12.60600 50.01000
H  22.14300 -10.81700 50.21600
H  23.40700 -11.68000 51.11300
H  26.53300 -12.31600 47.87900
H  25.49800 -13.33500 48.74300
H  26.97000 -13.87700 50.17500
H  27.20800 -12.27200 50.81300
H  28.19200 -12.95300 49.39400
H  30.47400 -7.14000 49.19300
H  30.27200 -8.70900 48.37900
H  29.40600 -8.32800 49.89800
H  28.76400 -4.96700 44.36600
H  27.67600 -1.02300 44.86600
H  29.21200 -0.67600 44.07900
H  29.10400 -1.00100 45.87300
Mg 42.22400 41.43200 26.51500
C  41.37900 43.82400 29.06000
C  43.02300 39.21900 29.00900
C  43.33200 39.45000 24.17900
C  41.77000 44.04400 24.12100
N  42.11600 41.51000 28.74700
C  41.76300 42.55000 29.58600
C  41.92200 42.15000 31.06900
C  42.41000 40.70100 30.97800
C  42.62500 40.48700 29.45100
C  43.67000 40.19100 31.75900
C  40.65300 42.37900 31.97000
C  40.87400 41.95400 33.44100
H  40.40800 43.00500 34.52200
N  43.09800 39.56800 26.60600
C  43.24600 38.77700 27.67900
C  43.55000 37.44500 27.33200
C  43.70900 37.43300 25.87600
C  43.39400 38.88400 25.51100
C  43.73200 36.27300 28.36800
C  43.90800 36.27600 24.83900
O  44.07500 36.49300 23.70600
C  43.97000 34.84500 25.36200
N  42.40500 41.66600 24.38200
C  42.90900 40.64800 23.63100
C  42.77400 40.98300 22.11500
C  42.17500 42.42900 22.16600
C  42.16800 42.80700 23.65100
C  44.08700 40.86500 21.32100
C  40.74200 42.52600 21.66900
C  39.62900 41.62600 22.24200
N  41.74100 43.44400 26.52800
C  41.57400 44.36100 25.46000
C  41.19600 45.67700 26.03100
C  41.10900 45.48800 27.38700
C  41.44400 44.13800 27.67000
C  40.94500 46.95900 25.31100
C  40.84000 46.18800 28.64000
O  40.53500 47.29700 28.91000
C  41.00100 45.11400 29.76900
C  42.04300 45.66200 30.61800
O  43.21500 45.88300 30.28000
O  41.54100 45.72900 31.89100
C  42.49500 46.33900 32.78300
H  43.30200 38.50300 29.78500
H  43.61000 38.69800 23.43700
H  41.51400 44.78000 23.35700
H  42.66200 42.79100 31.55000
H  41.65300 39.93200 31.13200
H  43.29300 39.44600 32.45800
H  44.03800 41.03100 32.34800
H  44.49400 39.81400 31.15300
H  39.83700 41.75200 31.61000
H  40.35700 43.42600 31.91300
H  41.93600 41.75000 33.57900
H  40.39000 40.99300 33.61800
H  44.25400 35.42300 27.92700
H  42.78000 35.85800 28.69800
H  44.34800 36.62200 29.19600
H  43.17500 34.62000 26.07400
H  44.98100 34.71000 25.74500
H  43.99600 34.09500 24.57200
H  42.17000 40.18800 21.67800
H  42.84200 42.97100 21.49500
H  44.90000 40.54100 21.97000
H  44.27700 41.67700 20.61800
H  43.87900 40.02500 20.65800
H  40.82900 42.29200 20.60800
H  40.42500 43.56600 21.75600
H  39.99000 41.16600 23.16200
H  39.24100 40.87900 21.54900
H  38.90800 42.38100 22.55300
H  40.01300 47.40200 25.66000
H  40.94000 46.69700 24.25300
H  41.80100 47.59700 25.53100
H  40.05000 45.02000 30.29300
H  42.59000 47.39500 32.53000
H  43.50900 45.95400 32.67400
H  42.14300 46.21600 33.80700

