158

Mg 9.02400 4.42500 28.04100
C  10.35600 2.80000 30.91200
C  7.46000 6.52000 30.22700
C  7.64100 5.76400 25.37800
C  10.52000 1.95000 26.00500
N  8.94200 4.56300 30.36900
C  9.57600 3.85500 31.29800
C  9.31700 4.41600 32.75600
C  8.42800 5.64000 32.40100
C  8.29900 5.60700 30.89100
C  6.98100 5.42200 33.07400
C  10.66000 4.70000 33.59000
C  10.61200 5.65700 34.80000
H  11.12800 5.18900 36.12700
N  7.81300 6.02200 27.77500
C  7.18500 6.71100 28.83000
C  6.34800 7.65800 28.26100
C  6.40600 7.49400 26.85800
C  7.30200 6.35100 26.61100
C  5.57000 8.72400 29.02100
C  5.68000 8.26300 25.79300
O  5.78900 8.02900 24.58300
C  4.56400 9.33000 26.16400
N  9.20500 3.95600 25.88200
C  8.34600 4.64700 25.09500
C  8.64500 4.24900 23.66700
C  9.52200 2.94600 23.80200
C  9.74400 2.93100 25.29600
C  7.31800 4.07200 22.86100
C  10.76200 2.92900 22.90500
C  10.76800 1.82500 21.79200
N  10.25300 2.78900 28.31500
C  10.74800 1.85600 27.38600
C  11.58400 0.89100 28.12100
C  11.42700 1.24700 29.47800
C  10.63700 2.39400 29.52800
C  12.22700 -0.35600 27.60400
C  11.78600 0.84600 30.82900
O  12.50000 -0.08000 31.19700
C  11.22400 1.86700 31.76600
C  10.34100 1.23100 32.75900
O  9.23300 0.86800 32.52900
O  10.96300 1.18900 33.94800
C  10.12900 0.47200 34.95200
H  6.83300 7.18100 30.83000
H  7.29500 6.34400 24.52100
H  11.00800 1.18700 25.39600
H  8.72600 3.75300 33.38700
H  8.95300 6.52500 32.76100
H  6.63600 6.36500 33.49900
H  7.07900 4.64800 33.83400
H  6.28300 5.12500 32.29200
H  11.40400 4.97200 32.84100
H  10.85700 3.80500 34.18000
H  9.60700 5.96900 35.08300
H  11.13200 6.57100 34.51400
H  5.94300 8.84000 30.03900
H  4.52800 8.41500 28.93800
H  5.60200 9.74000 28.62800
H  3.87100 8.95300 26.91500
H  3.96900 9.64400 25.30600
H  5.02200 10.25100 26.52500
H  9.20300 5.01300 23.12500
H  8.95800 2.03100 23.62400
H  7.31400 3.13800 22.29900
H  7.24200 4.94600 22.21500
H  6.47600 4.15600 23.54800
H  11.63700 2.64100 23.48900
H  10.98800 3.88800 22.43900
H  11.40600 1.06900 22.24900
H  11.21700 2.24000 20.89000
H  9.79400 1.37300 21.60300
H  11.47800 -1.08800 27.30400
H  12.96100 -0.69300 28.33600
H  12.70800 -0.00500 26.69100
H  12.06000 2.38100 32.24000
H  9.21500 1.03300 35.14500
H  10.61300 0.44600 35.92800
H  9.90400 -0.54900 34.64600
Mg 48.07500 15.31500 28.70400
C  46.02600 15.51000 31.46900
C  50.44700 16.97500 30.42100
C  49.75500 15.63700 25.77700
C  45.36800 13.90800 26.89100
N  48.03100 16.35000 30.55300
C  47.22100 16.10700 31.61800
C  47.86500 16.40900 33.00400
C  49.17300 17.23200 32.59600
C  49.23600 16.80800 31.09100
C  49.23100 18.77400 32.76700
C  48.10000 15.13100 33.87500
C  47.80800 15.40400 35.33700
H  47.94700 16.88900 35.83800
N  49.91500 16.06700 28.20300
C  50.75000 16.76400 29.07100
C  51.98900 17.06200 28.41400
C  51.81800 16.55200 27.06400
C  50.45900 16.07300 26.96000
C  53.20900 17.81300 29.09400
C  52.81200 16.64600 25.85800
O  52.52600 16.19600 24.73800
C  54.07700 17.37700 26.00800
N  47.57200 14.88300 26.60200
C  48.43900 15.12100 25.61500
C  47.86400 14.73600 24.32400
C  46.49600 14.01500 24.71700
C  46.48600 14.21600 26.16200
C  47.73900 15.79300 23.13200
C  46.28100 12.54200 24.17700
C  47.39000 11.54400 24.65200
N  46.16400 14.61700 29.15600
C  45.17900 14.09900 28.26100
C  43.97100 13.85300 29.09100
C  44.27500 14.48600 30.35000
C  45.64100 14.83100 30.37800
C  42.76200 13.19500 28.65700
C  43.65600 14.85400 31.67300
O  42.51500 14.65300 32.18400
C  44.83600 15.46200 32.46900
C  44.26800 16.74900 33.00500
O  43.96200 17.78700 32.44800
O  44.13300 16.56600 34.36400
C  43.80900 17.67300 35.28100
H  51.17600 17.49800 31.04200
H  50.41700 15.70900 24.91100
H  44.53900 13.45600 26.34200
H  47.14200 17.06900 33.48400
H  50.02400 16.80400 33.12600
H  48.27700 19.10500 33.17700
H  49.18000 19.25800 31.79100
H  50.05400 19.15000 33.37400
H  49.14500 14.83000 33.95600
H  47.49800 14.31800 33.46900
H  48.44500 14.82100 36.00300
H  46.75500 15.16200 35.47600
H  52.90300 18.78600 29.48100
H  54.11400 17.80500 28.48700
H  53.40500 17.35600 30.06400
H  54.61100 17.62000 25.08800
H  54.76900 16.83500 26.65200
H  53.80700 18.36900 26.37100
H  48.60500 14.03700 23.93500
H  45.69100 14.64500 24.33800
H  46.72900 15.59000 22.77400
H  48.57700 15.63400 22.45300
H  47.79800 16.79500 23.55600
H  46.19000 12.59200 23.09200
H  45.35700 12.14000 24.59400
H  47.21300 11.40500 25.71900
H  48.39900 11.87800 24.40600
H  47.17000 10.66700 24.04500
H  41.86700 13.81100 28.57500
H  42.52500 12.46500 29.43000
H  42.91100 12.88100 27.62400
H  45.03100 14.82900 33.33500
H  44.63600 18.38000 35.23400
H  43.87500 17.30100 36.30300
H  42.86300 18.19500 35.13600

