158

Mg 41.19400 41.36200 27.76600
C  40.44200 43.92500 30.01200
C  41.99000 39.28700 30.41000
C  42.02300 38.90900 25.60400
C  40.91700 43.60700 25.11500
N  41.04400 41.63800 29.88600
C  40.63700 42.73400 30.63200
C  40.63700 42.51100 32.11800
C  41.21500 41.00800 32.24800
C  41.41700 40.62800 30.76800
C  42.36800 40.76200 33.21200
C  39.23000 42.76400 32.78200
C  38.75600 41.99000 34.07600
H  38.27800 42.80500 35.27200
N  41.75200 39.31000 27.97500
C  42.19000 38.69200 29.13400
C  42.77000 37.41800 28.87600
C  42.58800 37.27100 27.49200
C  42.14000 38.54100 26.93800
C  43.36200 36.54600 29.86200
C  42.77600 35.97000 26.71700
O  42.70200 35.85500 25.50700
C  43.00700 34.60700 27.51800
N  41.68500 41.38500 25.69700
C  41.82600 40.18200 25.04000
C  41.78400 40.33300 23.51300
C  41.25900 41.78800 23.40000
C  41.32800 42.33400 24.79800
C  43.08600 40.00800 22.81200
C  39.85800 41.92300 22.81500
C  38.63700 41.61800 23.79400
N  40.93600 43.49600 27.51400
C  40.71800 44.21300 26.37800
C  40.34700 45.57800 26.84800
C  40.31900 45.52100 28.26400
C  40.58500 44.19400 28.60600
C  40.20500 46.70800 25.95000
C  40.01100 46.26100 29.44300
O  39.60900 47.42800 29.61400
C  40.10900 45.21300 30.64800
C  41.22100 45.73500 31.38100
O  42.34200 45.88600 30.97600
O  40.78500 46.16400 32.63000
C  41.95300 46.40500 33.47100
H  42.18600 38.64900 31.27400
H  42.40700 38.13900 24.93200
H  40.89700 44.27000 24.24800
H  41.42700 43.16700 32.48500
H  40.49600 40.31500 32.68500
H  42.30800 41.17700 34.21800
H  43.20100 41.14000 32.62000
H  42.43300 39.67700 33.29100
H  38.41000 42.76000 32.06400
H  39.30800 43.81600 33.05800
H  39.55200 41.37000 34.48800
H  37.94000 41.40500 33.65100
H  44.19600 36.13200 29.29500
H  42.68200 35.72500 30.08700
H  43.72600 37.02800 30.76900
H  42.96300 33.71900 26.88800
H  42.26400 34.55300 28.31400
H  44.02500 34.65300 27.90700
H  41.00600 39.72500 23.05000
H  41.84700 42.42500 22.73800
H  43.72900 39.59200 23.58700
H  43.50800 40.91400 22.37800
H  42.95300 39.39000 21.92300
H  39.76400 41.12900 22.07400
H  39.69500 42.83400 22.23900
H  38.91000 41.80000 24.83300
H  38.37600 40.56000 23.81100
H  37.80400 42.27100 23.53000
H  40.53700 47.59600 26.48800
H  39.22600 47.00100 25.57100
H  40.82100 46.40800 25.10200
H  39.24000 45.26000 31.30400
H  42.45500 47.32100 33.15900
H  42.66200 45.58300 33.36600
H  41.61500 46.51200 34.50100
Mg 7.08500 54.16600 40.21000
C  6.73300 50.69500 39.92000
C  10.31600 53.85200 39.20000
C  7.11200 57.44000 39.44100
C  3.70200 54.31200 41.00100
N  8.34200 52.45200 39.62200
C  8.02300 51.14700 39.57700
C  9.40300 50.32700 39.40000
C  10.39900 51.43400 39.56200
C  9.57400 52.65600 39.42300
C  11.05300 51.33100 41.00900
C  9.49800 49.49700 38.09500
C  9.29700 50.39200 36.88100
H  7.86000 50.67400 36.38800
N  8.55000 55.52700 39.61300
C  9.82200 55.16400 39.29300
C  10.62000 56.32100 39.00100
C  9.68500 57.40400 38.88100
C  8.36800 56.85900 39.36300
C  12.09900 56.35500 38.81200
C  10.09200 58.90300 38.52300
O  11.35600 59.13100 38.39700
C  9.19500 59.99100 38.49000
N  5.56200 55.56700 39.99000
C  5.86200 56.90300 39.82400
C  4.62600 57.82400 40.00800
C  3.50400 56.80500 40.51400
C  4.31700 55.46200 40.57400
C  4.87300 59.09600 41.00400
C  2.22900 56.80900 39.68600
C  0.94300 56.45400 40.38700
N  5.49900 52.75800 40.50800
C  4.22200 53.02100 40.92100
C  3.59000 51.78900 41.24700
C  4.49500 50.82600 40.74600
C  5.64600 51.50500 40.24100
C  2.28200 51.56100 41.87900
C  4.68900 49.40500 40.64300
O  3.94000 48.51900 40.94900
C  6.12200 49.28000 40.12000
C  6.11100 48.52400 38.87000
O  5.69400 48.91100 37.77200
O  6.71700 47.33800 39.00000
C  6.71600 46.45000 37.82900
H  11.32600 53.71400 38.80800
H  7.08800 58.52000 39.28400
H  2.70100 54.38100 41.43000
H  9.44900 49.60000 40.21100
H  11.18600 51.34400 38.81400
H  10.77200 50.41000 41.52100
H  10.91300 52.16300 41.69900
H  12.12100 51.15200 40.88900
H  8.75900 48.69600 38.10900
H  10.50900 49.10400 37.98700
H  9.88600 50.05300 36.02900
H  9.57100 51.41200 37.15100
H  12.20400 56.42400 37.72900
H  12.58000 55.41000 39.06400
H  12.52800 57.17600 39.38700
H  8.36700 59.66100 37.86200
H  9.68300 60.82200 37.98100
H  8.77000 60.14100 39.48300
H  4.41100 58.09800 38.97500
H  3.23100 56.95100 41.55900
H  4.23700 59.13600 41.88800
H  4.62800 60.04200 40.52200
H  5.92400 59.14700 41.29100
H  2.47800 56.01100 38.98600
H  2.16200 57.75900 39.15600
H  0.50700 55.55000 39.96200
H  0.28300 57.31200 40.26300
H  1.05300 56.37000 41.46800
H  1.46800 51.99500 41.29800
H  2.30200 51.92400 42.90700
H  2.00800 50.52600 42.08300
H  6.89500 48.87900 40.77600
H  6.22800 45.50300 38.05900
H  7.73100 46.19200 37.52500
H  6.39100 46.90700 36.89500

