158

Mg 35.53800 1.28900 29.79500
C  33.24000 2.43500 32.32000
C  37.97900 1.42000 32.22600
C  37.81200 0.78300 27.40900
C  32.98600 1.85200 27.41100
N  35.60100 1.93900 31.93100
C  34.54100 2.20300 32.80200
C  34.94100 2.28000 34.24700
C  36.58600 2.36600 34.13700
C  36.73500 1.88500 32.71200
C  37.20900 3.73200 34.48700
C  34.42600 1.12100 34.98600
C  34.43400 1.24700 36.50800
H  35.21100 2.35100 37.22000
N  37.62400 0.83400 29.80200
C  38.42700 1.05300 30.90600
C  39.83300 0.79700 30.50000
C  39.78400 0.53900 29.06500
C  38.36700 0.78900 28.68800
C  40.94100 0.84500 31.47100
C  40.89400 0.30900 28.15100
O  40.79800 0.17000 26.94100
C  42.29400 0.27400 28.70200
N  35.35700 1.14600 27.70800
C  36.47500 0.89700 26.97600
C  36.12600 0.75500 25.45300
C  34.57700 1.10700 25.45300
C  34.27600 1.43400 26.95700
C  37.07400 1.69200 24.55100
C  33.76600 -0.05600 24.89000
C  33.33500 -1.15700 25.83200
N  33.54800 2.08100 29.78700
C  32.61000 2.13300 28.72500
C  31.31500 2.56300 29.25400
C  31.57100 2.66200 30.63800
C  32.91100 2.41300 30.93800
C  30.07500 2.88400 28.45300
C  30.86900 3.00800 31.88300
O  29.66200 3.37600 31.99200
C  31.91400 2.84500 33.03400
C  31.96800 4.15900 33.76300
O  32.30500 5.23400 33.23700
O  31.79300 3.95300 35.10500
C  31.72900 5.23200 35.86300
H  38.75500 1.34700 32.99100
H  38.56200 0.72900 26.61700
H  32.18600 1.92500 26.67200
H  34.56400 3.21200 34.66900
H  37.03900 1.64800 34.82000
H  38.04800 3.67800 35.17900
H  36.50300 4.50600 34.78800
H  37.64700 4.15400 33.58200
H  34.96600 0.21600 34.70400
H  33.42200 0.79300 34.71800
H  34.57700 0.25000 36.92400
H  33.39600 1.50200 36.71900
H  41.40200 -0.13800 31.57100
H  40.57400 1.18600 32.43900
H  41.76800 1.47500 31.14400
H  42.73900 1.22700 28.98700
H  43.00700 -0.21200 28.03600
H  42.29700 -0.40800 29.55300
H  36.34400 -0.28000 25.18800
H  34.27500 1.94500 24.82500
H  37.77100 1.01600 24.05500
H  37.66000 2.43400 25.09300
H  36.58400 2.19900 23.71900
H  34.36400 -0.50600 24.09700
H  32.89200 0.37300 24.40000
H  33.73600 -1.04500 26.84000
H  33.60600 -2.15600 25.49100
H  32.26600 -1.09200 26.03200
H  30.33100 2.82200 27.39500
H  29.67900 3.87100 28.68800
H  29.29200 2.15800 28.67300
H  31.62800 2.01900 33.68500
H  31.03200 5.94000 35.41400
H  32.74100 5.62800 35.95000
H  31.36800 4.83500 36.81100
Mg 28.71900 60.01600 41.87400
C  25.89000 58.12000 41.02900
C  30.64500 57.74400 40.03200
C  31.50300 62.13700 42.14600
C  26.61000 62.47100 43.03900
N  28.28500 58.30700 40.55500
C  27.08300 57.69300 40.46900
C  27.10600 56.55400 39.49800
C  28.72100 56.28200 39.27900
C  29.24000 57.47400 40.05000
C  29.31300 54.90800 39.63900
C  26.28100 56.90300 38.19200
C  25.45500 55.76400 37.69600
H  25.96500 55.29000 36.38400
N  30.81100 59.91300 41.28300
C  31.34400 58.82800 40.61100
C  32.78500 58.99800 40.57800
C  33.11100 60.22100 41.23400
C  31.79500 60.87100 41.55400
C  33.76200 58.09500 39.92700
C  34.55700 60.83800 41.47600
O  35.58700 60.14200 41.13900
C  34.71100 62.19400 42.05400
N  29.01900 62.00000 42.30000
C  30.24500 62.67500 42.39000
C  30.05500 64.06100 43.02900
C  28.58900 64.05600 43.51400
C  27.97700 62.78600 42.83400
C  30.98300 64.57200 44.24200
C  27.64600 65.33800 43.26900
C  27.39700 66.15200 44.55900
N  26.68400 60.29300 42.16000
C  25.95400 61.28000 42.62800
C  24.55500 60.96000 42.67100
C  24.54100 59.73100 42.10400
C  25.81500 59.36300 41.73100
C  23.43000 61.80100 43.23800
C  23.58100 58.68100 41.78200
O  22.33600 58.57300 42.02700
C  24.46700 57.66100 41.07600
C  24.27700 56.38300 41.81600
O  24.62600 56.25800 42.97600
O  23.56700 55.45900 41.13500
C  23.48400 54.01800 41.64800
H  31.19300 56.95300 39.51600
H  32.31700 62.85000 42.29100
H  25.95100 63.17200 43.55600
H  26.59100 55.71000 39.95800
H  29.06600 56.35800 38.24800
H  29.87000 55.27300 40.50200
H  30.07700 54.44500 39.01500
H  28.52600 54.22200 39.95300
H  27.04300 57.22800 37.48400
H  25.59100 57.73200 38.35100
H  24.39800 55.98800 37.55300
H  25.46900 54.84800 38.28600
H  34.35900 58.70600 39.25000
H  33.40600 57.21200 39.39600
H  34.44900 57.65500 40.65000
H  34.33400 62.89500 41.31000
H  35.78000 62.27900 42.24600
H  34.17700 62.35400 42.99000
H  30.10800 64.78300 42.21500
H  28.55200 63.76400 44.56400
H  31.63300 65.39000 43.93200
H  31.68300 63.74100 44.32200
H  30.52700 64.86700 45.18700
H  26.67900 65.22400 42.78100
H  28.28400 65.97500 42.65600
H  26.33800 66.39700 44.64500
H  27.89700 67.11600 44.46700
H  27.63500 65.57900 45.45500
H  23.20700 62.48900 42.42300
H  23.78400 62.34700 44.11300
H  22.54300 61.19700 43.42800
H  24.01300 57.60100 40.08600
H  24.40400 53.70000 42.13800
H  23.31400 53.25600 40.88800
H  22.73900 53.97300 42.44300

