158

Mg -1.52300 17.39000 25.99700
C  -1.88400 15.05400 28.68200
C  -2.74000 19.81300 28.24300
C  -2.06100 19.30400 23.41600
C  -1.34000 14.62800 23.71200
N  -2.34800 17.39300 28.19900
C  -2.27800 16.29600 29.09300
C  -2.65500 16.77200 30.53500
C  -3.10500 18.24100 30.22500
C  -2.71500 18.58300 28.80100
C  -4.63000 18.36600 30.46000
C  -1.41600 16.76500 31.59100
C  -1.61700 15.73800 32.79900
H  -2.22300 16.27600 34.10900
N  -2.01000 19.37500 25.92400
C  -2.50700 20.15600 26.89100
C  -2.50200 21.54800 26.22700
C  -2.22700 21.33100 24.85500
C  -2.08300 19.96900 24.68600
C  -2.94500 22.82400 26.96800
C  -2.14300 22.37200 23.69700
O  -1.88300 22.11000 22.51600
C  -2.38600 23.81100 24.02300
N  -1.85300 16.94900 23.75800
C  -1.99600 18.00100 22.94800
C  -2.19000 17.55900 21.51400
C  -1.71100 16.07300 21.60100
C  -1.64400 15.82800 23.13200
C  -3.65000 17.62600 21.00500
C  -0.21900 15.76900 21.10100
C  0.98300 16.31100 21.87300
N  -1.51200 15.22600 26.16100
C  -1.42400 14.27300 25.14100
C  -1.59500 12.97300 25.76500
C  -1.53600 13.25200 27.14300
C  -1.64800 14.64600 27.34200
C  -1.39700 11.71500 24.99400
C  -1.55100 12.60400 28.44600
O  -1.48200 11.44600 28.71400
C  -1.72600 13.77000 29.48700
C  -0.44800 13.86900 30.27800
O  0.51600 14.52900 29.97700
O  -0.49500 13.10000 31.41700
C  0.79900 12.99400 32.16900
H  -2.96900 20.60100 28.96300
H  -2.25800 19.89200 22.51800
H  -1.19400 13.86700 22.94200
H  -3.40000 15.99800 30.72300
H  -2.55200 18.97100 30.81600
H  -5.08000 17.37800 30.55900
H  -5.13400 18.96100 29.69800
H  -4.68000 18.81700 31.45100
H  -1.40000 17.69400 32.16100
H  -0.44800 16.67500 31.09900
H  -0.64300 15.31500 33.04400
H  -2.31800 14.98900 32.43000
H  -3.44700 22.47700 27.87200
H  -3.71000 23.46800 26.53400
H  -2.16700 23.51300 27.29800
H  -1.63200 24.03500 24.77800
H  -3.40400 23.95800 24.38300
H  -2.30600 24.42700 23.12700
H  -1.52900 18.17400 20.90500
H  -2.45900 15.37500 21.22500
H  -4.31300 17.84400 21.84200
H  -4.03700 16.68100 20.62300
H  -3.63100 18.36800 20.20800
H  -0.07900 16.29700 20.15800
H  -0.13200 14.68400 21.04800
H  0.72300 17.19900 22.44900
H  1.77900 16.56000 21.17100
H  1.36100 15.49100 22.48300
H  -1.13300 11.82100 23.94200
H  -2.37400 11.23400 25.04400
H  -0.76600 11.06600 25.60000
H  -2.54400 13.54900 30.17200
H  0.85300 11.94700 32.46600
H  0.79500 13.60100 33.07400
H  1.69300 13.19500 31.57800
Mg -1.47300 34.44600 26.71300
C  -2.83300 32.82400 29.49500
C  0.12900 36.61900 28.71500
C  -0.71900 36.26100 23.94000
C  -3.41200 32.34000 24.70500
N  -1.59100 34.82100 28.88700
C  -1.99400 33.89600 29.82300
C  -1.56500 34.31900 31.24200
C  -0.63600 35.50700 30.97200
C  -0.65400 35.67300 29.43400
C  -1.05800 36.76000 31.75000
C  -0.78400 33.25600 32.05800
C  -1.40700 32.95100 33.39400
H  -0.40900 32.98400 34.57200
N  -0.36600 36.18900 26.34900
C  0.24100 36.92300 27.31900
C  1.02900 37.91400 26.69800
C  0.70700 37.93900 25.27400
C  -0.10200 36.73800 25.12200
C  1.79300 38.90500 27.50100
C  1.24000 38.78100 24.17800
O  0.92100 38.60400 23.00200
C  2.34000 39.79600 24.49700
N  -2.15900 34.43300 24.63200
C  -1.67100 35.31800 23.71300
C  -2.05600 34.87300 22.29000
C  -2.37800 33.38400 22.50100
C  -2.73500 33.36500 24.03900
C  -3.16200 35.71000 21.54300
C  -1.32600 32.34000 22.23300
C  0.15400 32.67000 22.51100
N  -2.85800 32.86700 26.92100
C  -3.58400 32.13400 26.07000
C  -4.41000 31.15900 26.72600
C  -4.13900 31.35200 28.12000
C  -3.19300 32.39200 28.17800
C  -5.37500 30.12800 26.17400
C  -4.39200 30.90100 29.44200
O  -5.13900 29.99600 29.86800
C  -3.62000 31.88000 30.39700
C  -4.62800 32.54800 31.20400
O  -5.23400 33.59500 30.94700
O  -4.76100 31.76600 32.37700
C  -5.71300 32.34800 33.33600
H  0.64200 37.30400 29.39300
H  -0.55500 36.80200 23.00500
H  -3.99100 31.70200 24.03200
H  -2.49600 34.50100 31.78000
H  0.39900 35.31500 31.25800
H  -0.19200 37.23800 32.20800
H  -1.78200 36.56500 32.54100
H  -1.58200 37.50200 31.14700
H  0.25900 33.53800 32.20900
H  -0.76600 32.39300 31.39300
H  -1.83000 31.94600 33.38200
H  -2.33200 33.47400 33.63800
H  1.19100 39.05800 28.39700
H  1.80600 39.89000 27.03300
H  2.82000 38.55500 27.60300
H  2.84800 39.92600 23.54100
H  3.04900 39.48400 25.26400
H  1.92500 40.74300 24.84200
H  -1.12100 34.89400 21.73000
H  -3.12300 33.12700 21.74700
H  -3.54700 36.41600 22.27800
H  -4.06300 35.23300 21.15700
H  -2.80400 36.35800 20.74300
H  -1.58000 32.18400 21.18400
H  -1.48800 31.45400 22.84600
H  0.44000 33.62400 22.95200
H  0.76600 32.56300 21.61600
H  0.47300 31.98200 23.29400
H  -5.33900 29.75900 25.14900
H  -6.41800 30.43100 26.26300
H  -5.33500 29.28300 26.86200
H  -3.01800 31.20800 31.00800
H  -5.78400 31.66000 34.17800
H  -6.64700 32.57600 32.82400
H  -5.14700 33.22900 33.63900

