158

Mg 7.98100 3.66500 27.96900
C  9.47500 2.24400 30.74700
C  6.33000 5.82100 29.81900
C  6.56900 4.74300 25.09800
C  9.19900 0.89000 26.11600
N  7.81000 3.95600 30.05300
C  8.62500 3.35400 31.03000
C  8.32000 4.00600 32.42900
C  7.16500 4.99500 32.11900
C  7.03500 4.85900 30.58800
C  5.80400 4.76500 32.89800
C  9.61900 4.61800 33.06700
C  10.20600 4.12400 34.34200
H  10.53400 5.13100 35.48600
N  6.67900 5.13600 27.53800
C  6.24400 6.07800 28.41800
C  5.59400 7.19700 27.76400
C  5.66100 6.87400 26.38700
C  6.34400 5.54500 26.29600
C  5.00800 8.42500 28.56500
C  5.16600 7.66000 25.20700
O  5.22000 7.20200 24.05200
C  4.28200 8.81400 25.33800
N  7.87700 2.88000 25.95400
C  7.18000 3.56600 24.96500
C  7.48800 2.95800 23.63300
C  8.31100 1.73400 23.94700
C  8.49400 1.83800 25.45800
C  6.25900 2.65900 22.71100
C  9.61500 1.62600 23.13900
C  9.48500 0.65600 22.01900
N  9.18700 1.89200 28.28000
C  9.56300 0.85200 27.51600
C  10.33500 -0.11200 28.21100
C  10.37900 0.43500 29.50300
C  9.73100 1.64600 29.47300
C  10.87300 -1.41200 27.73300
C  10.88700 0.23700 30.88600
O  11.58600 -0.65000 31.41900
C  10.32400 1.47200 31.76100
C  9.67500 0.92100 32.95400
O  8.59300 0.42600 33.06300
O  10.63000 0.90700 33.95100
C  10.33600 0.37300 35.27800
H  5.99200 6.58200 30.52500
H  6.19400 5.13100 24.14900
H  9.77300 0.10300 25.62300
H  7.97900 3.20700 33.08800
H  7.37300 6.05100 32.29400
H  4.93200 4.64900 32.25400
H  5.58000 5.72200 33.36900
H  5.84700 4.01700 33.69000
H  9.49300 5.69000 33.22200
H  10.38000 4.45400 32.30400
H  11.15300 3.67000 34.04800
H  9.42500 3.48400 34.75300
H  3.93400 8.26600 28.66200
H  5.37600 9.30700 28.04200
H  5.37900 8.39500 29.58900
H  4.15400 9.29500 24.36900
H  4.81600 9.54900 25.94200
H  3.31300 8.44900 25.67700
H  8.02900 3.80300 23.20700
H  7.66700 0.87000 23.78500
H  6.21200 1.59600 22.47500
H  6.37800 3.24000 21.79700
H  5.33900 2.98400 23.19700
H  10.36500 1.33900 23.87600
H  9.97000 2.57700 22.74300
H  10.08300 0.98600 21.17000
H  8.45300 0.43600 21.74400
H  9.83400 -0.24000 22.53100
H  11.88300 -1.53000 28.12500
H  10.84800 -1.66200 26.67200
H  10.27400 -2.18000 28.22400
H  11.11800 2.14500 32.08400
H  9.84800 1.19000 35.81000
H  11.28100 -0.05200 35.61800
H  9.54700 -0.37700 35.33100
Mg 44.25100 5.41400 46.95600
C  42.16200 8.22400 46.93300
C  41.55200 3.52700 46.24200
C  46.22000 2.86400 46.44300
C  47.01400 7.62700 46.79000
N  42.10100 5.84200 46.69700
C  41.48400 7.06500 46.73400
C  39.97200 6.98000 46.49000
C  39.76700 5.39400 46.43600
C  41.20200 4.86700 46.41900
C  38.78300 4.75900 47.41400
C  39.31200 7.73100 45.26600
C  40.32800 7.88400 44.03200
H  39.72000 7.63800 42.62800
N  43.89600 3.39600 46.41700
C  42.69000 2.80300 46.14800
C  42.86900 1.45300 45.77100
C  44.28900 1.18900 46.00600
C  44.90600 2.49400 46.26000
C  41.82400 0.55300 45.30800
C  44.92500 -0.15400 45.97900
O  44.38700 -1.16600 45.62400
C  46.26800 -0.37400 46.56300
N  46.27900 5.31600 46.43300
C  46.86500 4.05900 46.50900
C  48.45700 4.05500 46.60500
C  48.64300 5.59600 46.93400
C  47.19800 6.24800 46.70700
C  49.11100 3.11900 47.70600
C  49.79100 6.37200 46.19700
C  50.55500 7.34600 47.13500
N  44.59200 7.56200 46.89400
C  45.78600 8.27900 46.89300
C  45.45700 9.73600 46.96100
C  44.02700 9.73400 46.95900
C  43.57300 8.38200 46.94400
C  46.42800 10.87400 46.80200
C  42.82100 10.57200 47.06800
O  42.72400 11.78300 47.28800
C  41.57500 9.61200 47.01900
C  40.96300 9.88300 48.33000
O  41.31000 9.35800 49.36300
O  39.74700 10.60200 48.20000
C  38.92100 10.62500 49.41900
H  40.64600 2.96700 46.00100
H  46.87300 1.99000 46.39900
H  47.90800 8.25400 46.81800
H  39.51400 7.24100 47.44400
H  39.38100 5.17500 45.44100
H  39.18000 3.94000 48.01400
H  38.03600 4.25000 46.80700
H  38.25500 5.49100 48.02600
H  38.97100 8.71900 45.57400
H  38.48100 7.10400 44.94500
H  41.12800 7.16100 44.19200
H  40.82500 8.84800 43.92100
H  41.03900 1.02000 44.71400
H  41.27400 0.01500 46.08000
H  42.26300 -0.20900 44.66400
H  46.41000 -1.41200 46.86300
H  46.19400 0.20400 47.48500
H  47.05100 -0.10300 45.85500
H  48.76000 3.74500 45.60500
H  48.85900 5.73400 47.99400
H  48.35100 2.54400 48.23600
H  49.58300 3.72200 48.48200
H  49.87100 2.42200 47.35600
H  49.27100 6.98400 45.46000
H  50.50300 5.67500 45.75200
H  51.49400 6.86600 47.41200
H  49.99200 7.70400 47.99700
H  50.82000 8.15000 46.44900
H  47.12100 10.64200 47.61100
H  46.15400 11.92600 46.87800
H  46.90800 10.72800 45.83400
H  40.86400 9.78000 46.21100
H  39.03000 11.64400 49.79200
H  38.93400 9.75900 50.08000
H  37.92000 10.61200 48.98800

