158

Mg 16.55900 -3.15100 27.65000
C  16.01500 -0.84300 30.31200
C  18.34800 -5.08400 29.79800
C  17.79700 -4.97000 24.93400
C  15.05900 -0.87900 25.47500
N  17.27900 -2.85700 29.79100
C  16.77100 -1.95200 30.71300
C  17.40700 -2.20100 32.09800
C  18.25600 -3.51900 31.88700
C  17.88100 -3.89000 30.40400
C  19.80200 -3.38800 32.12600
C  16.34900 -2.39000 33.16600
C  16.79100 -2.16200 34.55700
H  18.12500 -1.49800 34.96100
N  17.71000 -4.96800 27.43600
C  18.36300 -5.57100 28.44900
C  19.00400 -6.78800 27.90500
C  18.93300 -6.73800 26.48700
C  18.09100 -5.55200 26.24900
C  19.70200 -7.84800 28.74000
C  19.43100 -7.71900 25.36500
O  19.18300 -7.52600 24.21700
C  20.29600 -8.99300 25.65500
N  16.60300 -2.84000 25.52500
C  17.18400 -3.74000 24.64900
C  16.86300 -3.35300 23.17400
C  15.88700 -2.03200 23.39200
C  15.80800 -1.90300 24.92900
C  18.16000 -3.06500 22.36100
C  14.49900 -2.11700 22.64100
C  14.08000 -0.94200 21.72500
N  15.61700 -1.28500 27.81200
C  15.01900 -0.50600 26.84300
C  14.52800 0.65400 27.47700
C  14.88600 0.58800 28.82900
C  15.54800 -0.65200 28.99200
C  13.77400 1.64900 26.85300
C  14.74800 1.30700 30.10400
O  14.36000 2.40600 30.44300
C  15.47200 0.35400 31.14300
C  16.52300 1.08200 31.92900
O  17.68300 1.26300 31.58200
O  15.92100 1.44600 33.09900
C  16.78300 2.29400 33.99200
H  18.90600 -5.62500 30.56400
H  18.16500 -5.41700 24.00800
H  14.58900 -0.12400 24.84100
H  18.10500 -1.41900 32.39800
H  17.80700 -4.27400 32.53200
H  20.42100 -3.21900 31.24500
H  20.19200 -4.33900 32.48800
H  20.00700 -2.67600 32.92600
H  15.92200 -3.38900 33.08800
H  15.55800 -1.65900 33.00000
H  16.62800 -3.06300 35.14900
H  16.06700 -1.44200 34.93900
H  19.67500 -7.44500 29.75300
H  20.72000 -8.02100 28.39200
H  19.24000 -8.83300 28.67600
H  19.93200 -9.60600 26.48000
H  21.29800 -8.60000 25.82600
H  20.51500 -9.54900 24.74300
H  16.13200 -4.00300 22.69300
H  16.52000 -1.19300 23.10200
H  19.02200 -3.52900 22.84100
H  18.36500 -2.03300 22.07500
H  18.08500 -3.56000 21.39300
H  13.69900 -2.30100 23.35800
H  14.54800 -2.96300 21.95500
H  13.82700 -1.38700 20.76300
H  14.83800 -0.17500 21.56600
H  13.12900 -0.54600 22.08100
H  12.83400 1.17500 26.57000
H  14.31000 2.15200 26.04800
H  13.52100 2.41000 27.59200
H  14.79400 -0.00600 31.91700
H  16.19500 3.09100 34.44700
H  17.59100 2.80800 33.47100
H  17.20300 1.70000 34.80400
Mg 47.65500 15.78400 28.35500
C  45.78900 15.36200 31.20300
C  49.72500 17.95500 30.11200
C  49.31400 16.48900 25.45400
C  45.20900 14.13000 26.54900
N  47.68400 16.59700 30.30300
C  46.94600 16.09700 31.31500
C  47.36600 16.76700 32.66000
C  48.42100 17.83600 32.29400
C  48.61600 17.45800 30.78500
C  47.99000 19.27900 32.62300
C  47.91300 15.75400 33.73000
C  47.40100 16.09500 35.14400
H  48.20700 15.73700 36.37600
N  49.37900 16.97500 27.89500
C  50.06700 17.76300 28.72100
C  51.26200 18.27700 28.03800
C  51.17000 17.94500 26.70600
C  49.93100 17.08500 26.64100
C  52.35400 19.07500 28.73500
C  52.03500 18.29000 25.55600
O  51.83100 17.90800 24.42700
C  53.24500 19.21400 25.81400
N  47.33100 15.34400 26.37200
C  48.17900 15.65400 25.32300
C  47.78700 15.00800 23.98000
C  46.45900 14.27600 24.28900
C  46.29800 14.64400 25.82700
C  47.56500 16.03800 22.76200
C  46.42500 12.78900 23.93100
C  45.83900 12.42100 22.58800
N  45.88400 14.80400 28.69600
C  44.96900 14.18700 27.90800
C  43.84600 13.75600 28.65200
C  44.17800 14.21800 29.93600
C  45.40200 14.83800 29.95300
C  42.67300 12.86700 28.41300
C  43.60300 14.29600 31.21100
O  42.57700 13.79600 31.65000
C  44.62400 15.04400 32.12200
C  43.90400 16.18700 32.63200
O  43.50800 17.12500 31.98000
O  43.64200 15.99200 34.00100
C  42.75200 16.89400 34.61200
H  50.35500 18.69500 30.61100
H  49.75900 16.80300 24.50800
H  44.41000 13.75400 25.90600
H  46.51200 17.25100 33.13500
H  49.34200 17.70300 32.86000
H  48.73700 19.76900 33.24700
H  47.08400 19.21000 33.22600
H  47.78800 19.84400 31.71200
H  49.00300 15.78600 33.73500
H  47.61900 14.73500 33.47700
H  46.37500 15.72600 35.12300
H  47.33100 17.18200 35.18200
H  53.33500 18.66600 28.49300
H  52.35900 19.08600 29.82500
H  52.28600 20.11100 28.40600
H  54.02600 18.79600 26.44900
H  52.94500 20.19300 26.18700
H  53.65800 19.43600 24.82900
H  48.59900 14.35100 23.66900
H  45.61600 14.72000 23.75900
H  48.44100 16.63100 22.50000
H  46.74900 16.66400 23.12500
H  47.15300 15.40100 21.97800
H  45.96000 12.11000 24.64500
H  47.47500 12.50500 23.99000
H  46.53200 11.88800 21.93600
H  45.48900 13.34500 22.12800
H  45.02200 11.71800 22.74900
H  42.50900 12.77200 27.34000
H  41.81600 13.35300 28.87800
H  42.98400 11.90100 28.81300
H  44.92900 14.34300 32.89800
H  41.84100 16.30600 34.50400
H  42.53600 17.81600 34.07300
H  42.87200 17.17400 35.65800

