158

Mg 44.43400 4.81400 45.81900
C  42.54800 7.80800 45.84300
C  41.37800 3.14000 45.24200
C  46.18200 1.93300 45.03700
C  47.23000 6.59200 46.26400
N  42.17800 5.45900 45.43000
C  41.70500 6.65800 45.52000
C  40.13700 6.62800 45.36400
C  39.77400 5.13900 45.47900
C  41.19900 4.51400 45.39600
C  38.92400 4.81500 46.74500
C  39.48700 7.43800 44.12100
C  40.41700 7.82600 42.94800
H  40.42800 6.84100 41.71400
N  43.92900 2.83200 45.19600
C  42.59400 2.38400 45.06900
C  42.71800 0.97900 44.80400
C  44.02400 0.61000 44.46600
C  44.82100 1.79600 44.89000
C  41.46700 0.04500 44.72100
C  44.52100 -0.77300 43.95200
O  43.77500 -1.64400 43.77700
C  45.94500 -0.95800 43.62400
N  46.43700 4.38400 45.45200
C  46.90600 3.12600 45.36400
C  48.47200 3.07700 45.70000
C  48.81200 4.59100 45.98900
C  47.41500 5.29700 45.82100
C  48.88200 2.03100 46.71100
C  49.97100 5.13200 45.03400
C  49.52700 5.56500 43.59900
N  44.88900 6.81400 45.81500
C  46.09400 7.38500 46.22800
C  45.88400 8.77100 46.50000
C  44.47900 8.98500 46.34400
C  43.94400 7.75000 45.95800
C  46.99900 9.67400 46.84600
C  43.42900 9.99200 46.41400
O  43.45400 11.16200 46.68700
C  42.05800 9.26500 46.07700
C  41.16500 9.36000 47.28000
O  41.23800 8.67700 48.33400
O  40.17100 10.29300 47.06400
C  39.05500 10.31600 48.01100
H  40.41600 2.62400 45.25200
H  46.91500 1.15900 44.80100
H  48.20600 7.07200 46.35800
H  39.75600 7.17200 46.22800
H  39.21900 4.69700 44.65100
H  39.60300 4.61300 47.57300
H  38.42500 3.89600 46.43900
H  38.28900 5.62500 47.10600
H  38.91500 8.29700 44.47100
H  38.72900 6.73900 43.76700
H  41.47500 7.90400 43.19800
H  40.12200 8.82900 42.63800
H  41.50200 -0.39700 43.72500
H  40.51900 0.57700 44.80000
H  41.48000 -0.73400 45.48300
H  46.18400 -1.94400 43.22600
H  46.53700 -0.88000 44.53600
H  46.15500 -0.22000 42.84900
H  49.00900 2.85700 44.77700
H  49.03000 4.83900 47.02800
H  48.09700 2.09300 47.46500
H  49.85400 2.34500 47.09300
H  48.76800 1.08100 46.19000
H  50.67400 4.33800 44.78300
H  50.53200 5.96200 45.46300
H  48.97600 6.50500 43.62200
H  48.76500 4.88900 43.20900
H  50.39100 5.57800 42.93500
H  47.08700 9.80700 47.92400
H  46.64700 10.61800 46.42800
H  47.93700 9.43900 46.34200
H  41.54400 9.69300 45.21600
H  39.38500 10.53300 49.02700
H  38.67600 9.29500 48.04700
H  38.39700 11.07000 47.58000
Mg 49.32000 35.40900 28.61200
C  47.21200 33.32800 30.57400
C  49.34800 37.70200 31.08300
C  50.66900 37.46800 26.40800
C  48.88400 32.87600 26.03500
N  48.39100 35.53800 30.57900
C  47.75100 34.51200 31.21200
C  47.74300 34.77000 32.77200
C  48.02100 36.34200 32.83200
C  48.68100 36.51400 31.44300
C  46.73600 37.25600 33.07200
C  48.88700 33.90100 33.47900
C  48.78000 33.84700 35.09300
H  47.89700 34.83900 35.90100
N  49.89700 37.29500 28.74800
C  49.89700 38.08100 29.88700
C  50.64300 39.34600 29.58700
C  51.16100 39.19700 28.25100
C  50.58700 37.91700 27.74100
C  50.86500 40.34300 30.68800
C  52.09200 40.02400 27.47200
O  52.51300 39.72500 26.33700
C  52.52800 41.28200 28.03200
N  49.82500 35.14500 26.58600
C  50.30400 36.22600 25.86000
C  50.52500 35.85900 24.36800
C  50.22000 34.29200 24.42300
C  49.60400 34.05900 25.78400
C  49.64500 36.70500 23.49500
C  51.36400 33.35300 23.91400
C  51.25000 32.81600 22.44800
N  48.50400 33.40300 28.35600
C  48.34900 32.50200 27.26100
C  47.57600 31.39200 27.62100
C  47.12500 31.69400 28.90400
C  47.65000 32.90000 29.32300
C  47.14900 30.22400 26.80200
C  46.22300 31.20900 29.94700
O  45.43500 30.21300 29.99900
C  46.24100 32.27900 31.11200
C  46.42600 31.69300 32.45700
O  47.26600 30.92300 32.82800
O  45.50800 32.20400 33.26100
C  45.36800 31.56600 34.57700
H  49.51000 38.34900 31.94800
H  51.08000 38.12900 25.64200
H  48.61400 32.19300 25.22600
H  46.75100 34.37600 32.99300
H  48.80900 36.45100 33.57700
H  46.74400 38.00100 33.86800
H  46.06400 36.45500 33.37900
H  46.36600 37.69300 32.14400
H  49.91700 34.21900 33.31300
H  48.71900 32.86900 33.17100
H  49.84500 33.83700 35.32500
H  48.38400 32.84700 35.27300
H  50.45300 41.26300 30.27500
H  51.84300 40.54700 31.12400
H  50.21700 40.19800 31.55200
H  51.68500 41.91700 28.30400
H  53.10000 41.86300 27.30900
H  53.20000 41.06200 28.86100
H  51.56500 36.08400 24.13300
H  49.40800 34.16900 23.70600
H  50.15900 37.65300 23.33900
H  48.75100 36.98600 24.05300
H  49.47400 36.22400 22.53200
H  51.31800 32.48300 24.57000
H  52.28800 33.92300 24.00400
H  50.38800 33.19900 21.90200
H  51.26500 31.72900 22.53000
H  52.14600 33.19000 21.95100
H  46.36700 30.61800 26.15300
H  46.61500 29.43800 27.33700
H  47.96100 29.76800 26.23500
H  45.25000 32.72800 31.17100
H  44.31500 31.61800 34.85400
H  45.96200 32.08300 35.33100
H  45.57800 30.49900 34.65900

