158

Mg 23.78700 -5.26900 45.95200
C  26.05800 -2.93900 44.45500
C  21.48400 -4.26800 43.65000
C  21.96100 -7.88300 46.89100
C  26.63700 -6.66900 47.64300
N  23.80100 -3.74300 44.36000
C  24.79800 -2.88500 43.84700
C  24.31100 -2.19600 42.54100
C  22.80800 -2.43800 42.54300
C  22.65800 -3.56800 43.62500
C  21.96800 -1.15800 42.86400
C  25.04600 -2.74200 41.26000
C  25.89900 -1.88000 40.33500
H  25.62700 -1.81200 38.82000
N  21.88000 -5.96400 45.34800
C  21.06800 -5.32100 44.46500
C  19.77900 -6.01400 44.49500
C  19.91200 -7.08000 45.50200
C  21.28000 -7.04300 45.98200
C  18.57400 -5.61200 43.76300
C  18.73000 -8.00800 45.90200
O  17.60600 -7.97400 45.36900
C  18.86100 -9.02300 46.98700
N  24.15500 -6.92400 47.18400
C  23.20500 -7.88900 47.40100
C  23.77500 -9.01900 48.32700
C  25.28300 -8.58400 48.57200
C  25.33200 -7.27700 47.81700
C  22.90200 -9.32500 49.60000
C  26.37400 -9.66700 48.20100
C  27.59600 -9.46400 49.06200
N  25.84500 -4.83500 46.20600
C  26.83300 -5.47700 46.96800
C  28.08700 -4.80900 46.73400
C  27.87000 -3.83100 45.80500
C  26.49300 -3.84300 45.47200
C  29.31100 -5.21600 47.39600
C  28.46000 -2.81900 45.02300
O  29.60100 -2.32900 45.03300
C  27.33600 -2.21100 44.08200
C  27.27300 -0.74400 44.09200
O  26.80400 -0.09100 45.01600
O  27.76900 -0.24000 42.90600
C  27.78800 1.24000 42.80500
H  20.69500 -3.87100 43.00800
H  21.29400 -8.69200 47.19500
H  27.53500 -7.09100 48.09800
H  24.52200 -1.13500 42.67500
H  22.41700 -2.78400 41.58600
H  21.61800 -1.36900 43.87500
H  21.23300 -1.10800 42.06100
H  22.54700 -0.27000 43.12000
H  24.32900 -3.43200 40.81600
H  25.76700 -3.46900 41.63500
H  26.89600 -2.31800 40.36300
H  25.82800 -0.85300 40.69500
H  17.77400 -5.26100 44.41400
H  18.16200 -6.47300 43.23600
H  18.85800 -4.82100 43.06900
H  19.30500 -8.57500 47.87600
H  19.38600 -9.91300 46.63900
H  17.87500 -9.34600 47.32000
H  23.66000 -9.95000 47.77200
H  25.37800 -8.22400 49.59600
H  21.95400 -8.83300 49.37900
H  23.33000 -8.96800 50.53700
H  22.73200 -10.40100 49.62300
H  26.68700 -9.65300 47.15700
H  25.99000 -10.63700 48.51600
H  27.63100 -10.14500 49.91200
H  27.58300 -8.49600 49.56200
H  28.52800 -9.60900 48.51500
H  29.17400 -5.37200 48.46600
H  30.09900 -4.46300 47.36100
H  29.59500 -6.13000 46.87500
H  27.70900 -2.50200 43.10100
H  28.66600 1.62800 42.28900
H  27.75900 1.67900 43.80200
H  26.98700 1.57900 42.14700
Mg 6.90100 54.12300 40.91000
C  6.55400 50.53000 40.52200
C  10.24100 53.61700 40.09900
C  7.20600 57.38800 40.25800
C  3.52400 54.34300 41.18400
N  8.19700 52.27600 40.35700
C  7.83300 50.95100 40.18900
C  9.08300 50.10200 39.72500
C  10.25900 51.06500 40.08700
C  9.56300 52.47200 40.15000
C  11.08400 50.73000 41.36600
C  8.98500 49.55200 38.26000
C  8.14400 50.25500 37.14900
H  7.25100 49.38100 36.13100
N  8.58800 55.40700 40.42700
C  9.87100 54.99400 40.17600
C  10.64700 56.18400 39.98400
C  9.77800 57.30100 39.96100
C  8.48900 56.74400 40.28800
C  12.17300 56.08200 39.76500
C  10.15000 58.77600 39.63700
O  11.30700 59.03800 39.36800
C  9.29100 59.86100 39.62100
N  5.56900 55.54900 40.55200
C  5.92900 56.89300 40.47600
C  4.69100 57.74500 40.59600
C  3.64600 56.90800 41.30200
C  4.27700 55.51700 41.04300
C  4.95900 59.19700 41.26100
C  2.24000 57.08600 40.72700
C  1.15800 57.41100 41.71200
N  5.34000 52.70100 40.89200
C  3.94200 52.97600 41.04700
C  3.22900 51.73900 41.18900
C  4.26100 50.76500 41.05000
C  5.47500 51.36700 40.83200
C  1.79600 51.58000 41.50600
C  4.49400 49.28600 41.06700
O  3.77400 48.38000 41.31000
C  5.99900 49.14300 40.65600
C  5.83400 48.43200 39.34700
O  5.45600 49.03000 38.32200
O  5.98300 47.10200 39.48300
C  5.67600 46.29800 38.29400
H  11.30800 53.44000 39.94200
H  7.28800 58.42700 39.93200
H  2.45500 54.40900 41.39300
H  9.09700 49.19000 40.32200
H  10.96800 51.12100 39.26100
H  10.67000 49.86500 41.88300
H  10.96500 51.61900 41.98600
H  12.10700 50.47900 41.08400
H  8.70400 48.50100 38.32800
H  9.98000 49.49300 37.81900
H  8.82200 50.83700 36.52600
H  7.48800 51.01000 37.58200
H  12.73400 56.69600 40.46900
H  12.44200 56.30800 38.73300
H  12.47900 55.03600 39.77100
H  9.77100 60.79600 39.33300
H  8.80700 60.02500 40.58300
H  8.54500 59.79000 38.82900
H  4.44700 57.91500 39.54800
H  3.64600 57.16300 42.36200
H  4.16400 59.32100 41.99600
H  5.02200 59.93500 40.46100
H  5.84400 59.26900 41.89300
H  1.93800 56.19400 40.17700
H  2.12100 57.89300 40.00400
H  0.75200 58.42200 41.71800
H  1.48400 57.20300 42.73200
H  0.32400 56.74900 41.48100
H  1.27400 51.76200 40.56600
H  1.49800 52.29200 42.27500
H  1.46300 50.57600 41.76900
H  6.53800 48.60800 41.43700
H  6.43600 46.40800 37.52000
H  4.74900 46.51500 37.76300
H  5.61100 45.27300 38.66000

