158

Mg 49.57300 45.66300 43.27800
C  46.15500 46.09500 42.34900
C  49.32500 42.35600 42.18200
C  52.88500 45.58200 43.17100
C  49.70300 49.19800 43.82600
N  47.88600 44.36200 42.53700
C  46.61600 44.76600 42.19000
C  45.77900 43.58900 41.59800
C  46.64800 42.31900 41.90600
C  48.06800 42.99400 42.22900
C  46.28000 41.34500 43.11200
C  45.39400 43.79300 40.07800
C  46.49800 43.94000 39.04600
H  46.34800 42.92500 37.84700
N  50.91500 44.15900 42.82100
C  50.60600 42.90500 42.37100
C  51.87500 42.16900 42.26600
C  52.93800 43.01700 42.50600
C  52.27900 44.34700 42.74500
C  51.84900 40.63100 42.02200
C  54.43000 42.59700 42.47600
O  54.72700 41.39400 42.33100
C  55.56400 43.67800 42.65600
N  50.95800 47.18100 43.40000
C  52.29500 46.80700 43.45900
C  53.22100 48.07900 43.58100
C  52.22500 49.20900 43.83900
C  50.84700 48.47900 43.68500
C  54.38100 47.93600 44.58900
C  52.35200 50.51700 42.91400
C  52.65900 51.85100 43.60400
N  48.20100 47.34800 43.23200
C  48.40300 48.69500 43.52900
C  47.16800 49.43200 43.23100
C  46.25100 48.43300 42.82600
C  46.93800 47.19300 42.81600
C  47.12400 50.95400 43.31200
C  44.88700 48.21100 42.33500
O  43.94500 48.97700 42.04400
C  44.80200 46.68800 42.05000
C  43.73800 46.05700 42.81200
O  42.91100 45.28400 42.33600
O  43.58200 46.52700 44.06900
C  42.50000 45.97400 44.82100
H  49.20200 41.29200 41.97000
H  53.97500 45.62900 43.14900
H  49.67800 50.22600 44.19400
H  44.84000 43.42600 42.12800
H  46.86300 41.67500 41.05300
H  46.59300 40.33400 42.84900
H  45.19100 41.39300 43.11800
H  46.78900 41.75000 43.98600
H  44.79200 44.67300 39.85100
H  44.73100 42.93200 39.98200
H  47.47800 43.74900 39.48300
H  46.58300 44.94400 38.62900
H  52.61500 40.34100 41.30200
H  50.90000 40.17900 41.73700
H  52.15600 40.20900 42.97900
H  55.43700 44.45700 41.90400
H  56.46600 43.10100 42.45300
H  55.54400 44.07400 43.67100
H  53.60400 48.18700 42.56600
H  52.32300 49.57500 44.86000
H  55.25500 47.68700 43.98700
H  54.17100 47.04300 45.17800
H  54.44200 48.77600 45.28100
H  51.40000 50.57700 42.38700
H  53.09200 50.46300 42.11500
H  51.70700 52.38100 43.63200
H  53.29200 52.52500 43.02500
H  53.00200 51.67500 44.62400
H  47.27400 51.37300 44.30700
H  46.12900 51.31300 43.04800
H  47.93000 51.17300 42.61200
H  44.53700 46.66700 40.99300
H  41.72700 46.73800 44.90200
H  42.83900 45.70100 45.82000
H  41.83200 45.17000 44.51200
Mg 7.54300 54.49800 41.36200
C  6.92700 51.10500 40.43800
C  10.78800 54.19200 40.35000
C  7.74700 57.83800 41.54300
C  4.00900 54.69700 41.98300
N  8.60500 52.87800 40.31400
C  8.21400 51.60700 40.10700
C  9.30400 50.89400 39.28000
C  10.63800 51.61300 39.68200
C  10.01200 52.98300 40.22800
C  11.50400 50.93300 40.74300
C  9.00500 51.06300 37.74500
C  9.29900 49.78600 36.86800
H  8.77400 49.76400 35.43200
N  9.12200 55.83200 41.18100
C  10.38700 55.53000 40.72100
C  11.16600 56.71300 40.76400
C  10.36000 57.78200 41.18600
C  9.00500 57.20300 41.38300
C  12.66100 56.67400 40.35300
C  10.79200 59.13000 41.41300
O  11.99200 59.36200 41.29400
C  10.00400 60.26900 41.94400
N  6.03200 56.00100 41.71700
C  6.45700 57.33100 41.68400
C  5.18500 58.21400 41.77300
C  4.00600 57.21900 41.85700
C  4.68700 55.95000 41.83500
C  5.28000 59.41700 42.79500
C  2.99500 57.29800 40.66400
C  1.48600 57.35400 40.97900
N  5.81200 53.15200 41.46000
C  4.53600 53.39900 41.74100
C  3.84300 52.18400 41.71200
C  4.72300 51.23800 41.31500
C  5.93900 51.90900 40.98900
C  2.48000 51.98000 42.29800
C  4.96200 49.82400 41.02900
O  4.28100 48.80200 41.18100
C  6.35800 49.72100 40.28600
C  6.24800 49.32800 38.92300
O  5.68200 49.98600 38.07300
O  6.72200 48.02700 38.81100
C  6.41300 47.46600 37.45300
H  11.86200 54.19600 40.15500
H  7.81800 58.92700 41.58700
H  2.93400 54.60400 42.15100
H  9.16600 49.89200 39.68700
H  11.26000 51.77600 38.80100
H  11.71500 51.63000 41.55300
H  12.41300 50.46200 40.36800
H  10.81800 50.20700 41.17900
H  9.52300 51.92900 37.33300
H  7.94700 51.22500 37.53600
H  8.88100 48.94400 37.42000
H  10.37800 49.64300 36.81200
H  12.99800 57.61400 39.91600
H  12.94100 55.88400 39.65500
H  13.22300 56.44800 41.25900
H  9.61600 59.96200 42.91600
H  9.14000 60.59700 41.36700
H  10.60500 61.16200 42.11800
H  5.03000 58.74400 40.83300
H  3.46100 57.26500 42.79900
H  4.96900 60.29100 42.22400
H  6.27900 59.40600 43.23200
H  4.48300 59.38800 43.53800
H  3.18600 56.37200 40.12200
H  3.26700 58.09100 39.96800
H  1.06900 56.40500 40.64300
H  0.90800 58.09000 40.42000
H  1.34200 57.61200 42.02800
H  2.27600 50.91100 42.34600
H  1.77000 52.49100 41.64600
H  2.32000 52.48700 43.25000
H  6.95200 48.95600 40.78500
H  6.26900 46.44200 37.79800
H  7.25600 47.60200 36.77500
H  5.50600 47.83600 36.97500

