158

Mg 7.60100 2.88000 27.27900
C  9.09600 1.61000 30.33500
C  5.61400 4.94300 29.21200
C  6.46100 4.20400 24.45000
C  9.47200 0.50400 25.47000
N  7.36600 3.16400 29.50700
C  8.10300 2.61700 30.52600
C  7.69100 3.23400 31.84800
C  6.53600 4.18600 31.47400
C  6.40900 4.09400 29.94200
C  5.24000 3.81200 32.22400
C  8.78300 4.01600 32.60700
C  8.41200 4.43900 33.97900
H  9.28200 4.06800 35.21500
N  6.26600 4.47300 26.87400
C  5.55800 5.23400 27.78800
C  4.87300 6.27600 27.07700
C  5.08000 6.07900 25.71100
C  5.93100 4.87400 25.65600
C  4.06900 7.28700 27.73800
C  4.50500 6.81900 24.50700
O  4.59900 6.46300 23.34000
C  3.61800 7.95200 24.70200
N  7.79300 2.30500 25.30600
C  7.28200 3.06700 24.32400
C  7.74900 2.65500 22.93900
C  8.78400 1.53300 23.24700
C  8.71900 1.43000 24.81100
C  6.60500 2.21000 22.09100
C  10.22700 1.88700 22.65900
C  11.10000 2.89600 23.35100
N  8.90000 1.26400 27.81000
C  9.64900 0.41400 26.91100
C  10.47900 -0.49400 27.74900
C  10.31700 0.00500 29.06300
C  9.31000 1.03600 29.08200
C  11.54000 -1.53100 27.32600
C  10.69300 -0.27600 30.41200
O  11.38200 -1.19300 30.84300
C  10.02100 0.82900 31.31400
C  9.15200 0.16300 32.35300
O  8.12900 -0.45700 32.15400
O  9.74200 0.42900 33.56700
C  8.91400 0.13900 34.77400
H  5.12500 5.63500 29.90100
H  6.18000 4.54900 23.45300
H  10.14700 -0.11300 24.87200
H  7.54500 2.34600 32.46300
H  6.70700 5.21700 31.78200
H  5.41500 2.92300 32.83100
H  4.53900 3.50600 31.44800
H  4.81100 4.63600 32.79400
H  8.89600 4.96600 32.08500
H  9.74500 3.50400 32.65000
H  7.56400 3.82000 34.27100
H  8.03500 5.46100 34.03700
H  4.04400 7.06200 28.80400
H  3.08400 7.07100 27.32400
H  4.36600 8.27900 27.39700
H  3.92800 8.73700 25.39200
H  2.63900 7.55200 24.96500
H  3.45100 8.53600 23.79800
H  8.25400 3.50100 22.47200
H  8.52700 0.52200 22.93300
H  6.39300 2.94500 21.31400
H  5.67300 2.18800 22.65500
H  6.72500 1.27700 21.53900
H  10.04800 2.25300 21.64800
H  10.76200 0.93700 22.64000
H  10.99700 2.81900 24.43400
H  10.77800 3.87000 22.98100
H  12.15400 2.79100 23.09700
H  12.39800 -1.22700 27.92600
H  11.63900 -1.65000 26.24700
H  11.21000 -2.53500 27.59100
H  10.69300 1.60700 31.67700
H  8.06900 0.82700 34.77900
H  9.53600 0.06700 35.66700
H  8.52300 -0.87800 34.80300
Mg -11.82200 16.73300 40.71600
C  -8.45600 15.60000 40.48400
C  -10.76000 20.01500 40.05900
C  -14.98000 17.73400 40.44700
C  -12.77300 13.52800 41.36800
N  -9.84900 17.66900 40.24900
C  -8.56600 17.02200 40.16400
C  -7.47600 18.07700 39.91000
C  -8.19800 19.43300 39.67800
C  -9.71700 19.06000 40.03700
C  -7.61100 20.63900 40.43000
C  -6.56700 17.61700 38.58800
C  -5.01400 17.64600 38.84900
H  -4.21700 16.36600 38.79300
N  -12.77400 18.62800 40.35100
C  -12.14800 19.84200 40.21400
C  -13.14400 20.81900 40.17900
C  -14.44900 20.25800 40.40200
C  -14.12000 18.80000 40.37700
C  -12.80700 22.33000 39.87400
C  -15.81400 20.98800 40.68700
O  -15.89400 22.20600 40.57800
C  -16.98000 20.27400 41.40600
N  -13.59300 15.68700 40.52600
C  -14.73200 16.35200 40.53400
C  -15.91100 15.49800 40.98800
C  -15.28700 14.07200 41.09500
C  -13.76600 14.46700 41.06000
C  -16.60500 16.12700 42.23900
C  -15.74700 13.14600 39.87400
C  -16.47800 11.85700 40.31900
N  -10.85100 14.85600 40.96600
C  -11.33800 13.65400 41.27800
C  -10.26000 12.68500 41.49700
C  -9.15100 13.39200 41.17200
C  -9.56500 14.71900 40.81700
C  -10.26600 11.22600 41.85100
C  -7.70900 13.38000 41.10100
O  -6.97200 12.39800 41.25200
C  -7.19000 14.74700 40.62300
C  -6.19700 15.18300 41.62200
O  -6.41400 15.71000 42.66900
O  -4.99000 14.53400 41.36400
C  -3.87100 14.60900 42.38500
H  -10.55600 21.07400 39.89200
H  -16.04100 17.99100 40.47800
H  -13.08100 12.50400 41.58700
H  -6.92400 17.98000 40.84500
H  -8.31900 19.50700 38.59700
H  -6.76800 20.19700 40.96000
H  -8.37000 21.06500 41.08600
H  -7.29900 21.44300 39.76300
H  -6.75300 18.29200 37.75400
H  -6.86600 16.59700 38.34600
H  -4.81100 18.01100 39.85500
H  -4.56200 18.31400 38.11500
H  -13.68000 22.94500 39.65800
H  -12.08400 22.42700 39.06300
H  -12.26300 22.75800 40.71600
H  -17.92900 20.25800 40.87000
H  -17.15700 20.94000 42.25100
H  -16.77700 19.30100 41.85400
H  -16.60700 15.49800 40.14900
H  -15.38300 13.56100 42.05400
H  -16.25000 17.11000 42.54800
H  -16.56300 15.38600 43.03800
H  -17.64400 16.29500 41.95600
H  -14.82600 12.89100 39.35100
H  -16.39600 13.61900 39.13700
H  -15.72900 11.06600 40.27900
H  -17.39400 11.56500 39.80700
H  -16.77900 11.95700 41.36200
H  -11.17800 10.68700 41.59400
H  -10.24400 11.08900 42.93200
H  -9.41000 10.82100 41.31100
H  -6.66900 14.68400 39.66800
H  -3.13300 13.90900 41.99400
H  -4.23900 14.33500 43.37400
H  -3.54500 15.62200 42.62100

