158

Mg 53.27000 24.40400 44.66100
C  50.45900 26.35300 44.42100
C  51.36500 21.54700 44.36400
C  56.16200 22.57000 44.24200
C  55.09800 27.37700 44.74100
N  51.15200 23.98700 44.30500
C  50.16800 25.00300 44.39000
C  48.78200 24.35200 44.24000
C  49.07300 22.88100 44.65000
C  50.59500 22.74100 44.40900
C  48.80900 22.47800 46.14500
C  48.02700 24.59500 42.92700
C  48.84000 24.50500 41.61400
H  48.46700 23.30300 40.62900
N  53.73400 22.36800 44.29300
C  52.79400 21.33600 44.27600
C  53.45700 20.09200 44.15400
C  54.86600 20.34100 44.05700
C  54.95500 21.79000 44.21700
C  52.82400 18.71500 44.03000
C  55.96600 19.28600 43.80200
O  55.65100 18.15500 43.41700
C  57.39400 19.59900 43.88600
N  55.28900 24.95100 44.36200
C  56.26400 23.99200 44.24200
C  57.61400 24.70200 43.95700
C  57.31800 26.18400 44.43300
C  55.78300 26.18300 44.53200
C  58.79700 24.09300 44.80600
C  58.03600 27.31800 43.56300
C  58.76200 28.30000 44.42600
N  52.94100 26.50200 44.71800
C  53.74500 27.57400 44.82600
C  52.98500 28.76400 45.07000
C  51.65400 28.34000 44.84500
C  51.75700 26.90100 44.61500
C  53.53400 30.11300 45.33300
C  50.35900 28.79200 44.69700
O  49.94200 29.91500 44.76100
C  49.52800 27.56900 44.42900
C  48.80300 27.78600 43.18300
O  49.31900 27.80700 42.10400
O  47.45900 28.04200 43.44600
C  46.71000 28.20500 42.17500
H  50.70300 20.69400 44.52600
H  57.15800 22.12700 44.18200
H  55.78000 28.22900 44.78600
H  48.20600 24.80800 45.04400
H  48.59000 22.09000 44.07600
H  48.13000 23.01900 46.80300
H  49.77200 22.45300 46.65500
H  48.64100 21.40100 46.14700
H  47.45100 25.52100 42.94400
H  47.30900 23.77500 42.91800
H  49.84300 24.25600 41.96000
H  48.80900 25.41200 41.01000
H  53.08800 18.25400 43.07800
H  51.74400 18.80600 44.14400
H  53.10400 18.03800 44.83700
H  57.99000 18.70300 43.71600
H  57.63000 20.00700 44.86800
H  57.60500 20.38400 43.15900
H  57.88100 24.78100 42.90400
H  57.63600 26.32400 45.46600
H  58.73800 23.01400 44.94800
H  58.97700 24.54500 45.78100
H  59.68100 24.28900 44.19900
H  57.30900 27.80600 42.91400
H  58.70800 26.87100 42.83000
H  58.70800 28.05700 45.48700
H  58.35400 29.30900 44.37500
H  59.75700 28.41300 43.99500
H  52.64600 30.73600 45.44400
H  54.20800 30.48400 44.56100
H  53.98300 30.03100 46.32200
H  48.80200 27.54100 45.24200
H  45.65100 28.45800 42.22500
H  46.88000 27.38000 41.48300
H  47.19200 29.04000 41.66600
Mg 15.64200 51.63300 25.64900
C  17.69500 50.50700 28.23100
C  13.32600 52.49900 27.96600
C  13.56800 52.13500 23.05100
C  18.01000 50.41300 23.34400
N  15.49300 51.41500 27.84800
C  16.53800 51.03500 28.70300
C  16.22700 51.36500 30.20800
C  14.67600 51.91400 30.10300
C  14.50100 51.97700 28.56900
C  13.70400 50.80700 30.68000
C  17.24100 52.39100 30.92900
C  17.43500 52.34000 32.45200
H  16.58500 51.36600 33.23900
N  13.74000 52.30100 25.54400
C  12.93000 52.54400 26.63500
C  11.61100 53.04000 26.05800
C  11.71100 52.75100 24.63700
C  13.06600 52.37900 24.39700
C  10.48300 53.53800 26.90300
C  10.58700 52.81100 23.60400
O  10.62900 52.48100 22.43600
C  9.21800 53.27900 24.15900
N  15.77900 51.31300 23.55200
C  14.77500 51.63200 22.64400
C  15.28900 51.78400 21.17800
C  16.74400 51.28400 21.33400
C  16.84700 50.94400 22.80800
C  14.41900 50.90600 20.20100
C  17.87300 52.36000 20.87600
C  18.78700 51.73800 19.76900
N  17.53500 50.78500 25.68000
C  18.35200 50.31700 24.68100
C  19.59800 49.78500 25.28100
C  19.33400 49.80600 26.69800
C  18.08400 50.43000 26.86000
C  20.83800 49.31900 24.59000
C  19.86700 49.49600 27.99200
O  20.96400 49.03000 28.29200
C  18.82400 49.97900 29.04500
C  18.52200 48.97800 30.07100
O  17.96100 47.92100 29.88700
O  19.13500 49.32600 31.30300
C  19.10000 48.40000 32.37700
H  12.58400 52.86600 28.67800
H  12.92100 52.32400 22.19200
H  18.83300 50.16600 22.67000
H  16.42300 50.44600 30.75900
H  14.58700 52.84000 30.67100
H  13.24700 50.22400 29.88000
H  13.00600 51.36300 31.30600
H  14.39700 50.17500 31.23500
H  16.83400 53.36300 30.65200
H  18.18400 52.33700 30.38500
H  17.35700 53.32400 32.91400
H  18.43900 51.93700 32.58800
H  10.10800 54.49500 26.53800
H  10.83700 53.75000 27.91200
H  9.63300 52.85600 26.92500
H  8.44200 53.45200 23.41400
H  9.33800 54.24100 24.65800
H  8.95600 52.60100 24.97200
H  15.24900 52.86600 21.05500
H  16.89000 50.35100 20.79000
H  13.45600 50.61700 20.62200
H  14.93200 49.96500 20.00300
H  14.12700 51.36300 19.25600
H  18.49200 52.54400 21.75400
H  17.49300 53.35900 20.66500
H  18.62400 52.49100 18.99900
H  18.59700 50.69200 19.52600
H  19.82500 51.64800 20.09100
H  20.99500 49.80700 23.62800
H  20.66200 48.25800 24.41100
H  21.70200 49.61500 25.18400
H  19.33000 50.82600 29.50800
H  18.03700 48.35600 32.61500
H  19.57300 48.77900 33.28300
H  19.47000 47.38700 32.21700

