158

Mg 8.08800 3.36700 27.51200
C  8.99100 1.58500 30.36000
C  6.19900 5.43900 29.47200
C  7.10500 5.02400 24.67600
C  9.72500 1.10300 25.53700
N  7.51100 3.45100 29.73100
C  8.17400 2.72300 30.68600
C  7.84000 3.31800 32.09800
C  7.06400 4.57200 31.72400
C  6.90300 4.48400 30.21700
C  5.66600 4.73800 32.49400
C  9.11100 3.60900 32.99600
C  8.93200 4.71600 34.15100
H  9.55600 4.52200 35.49600
N  6.83300 4.99900 27.18300
C  6.07500 5.61300 28.09600
C  5.15600 6.52600 27.45700
C  5.54000 6.55100 26.04300
C  6.53100 5.54300 25.91300
C  4.00500 7.34900 28.13300
C  4.97900 7.48500 24.99700
O  5.56400 7.51700 23.92100
C  3.83900 8.42400 25.21000
N  8.47000 3.15200 25.30600
C  7.93900 3.93800 24.39000
C  8.12600 3.36100 22.95000
C  9.18300 2.23500 23.26800
C  9.09200 2.10800 24.80900
C  6.75200 2.88700 22.28200
C  10.59300 2.47100 22.68100
C  11.22600 1.15200 22.20400
N  9.21900 1.75600 27.86600
C  9.89200 0.95700 26.93200
C  10.63500 -0.12700 27.68100
C  10.42700 0.20300 29.00900
C  9.35400 1.22500 29.03500
C  11.65500 -1.09300 27.15200
C  10.89100 -0.09100 30.41900
O  11.67500 -0.90800 30.93300
C  9.92500 0.72700 31.29800
C  9.24300 -0.28600 32.21400
O  8.24800 -0.92600 31.87900
O  9.82100 -0.30100 33.40400
C  9.32800 -1.46100 34.26800
H  5.80000 6.26600 30.06300
H  6.80000 5.59000 23.79400
H  10.24700 0.36800 24.92200
H  7.26100 2.49800 32.52100
H  7.69900 5.43900 31.90500
H  5.61500 5.69800 33.00900
H  5.38900 4.00300 33.25000
H  4.90800 4.62400 31.72000
H  9.96200 3.80200 32.34300
H  9.40200 2.68900 33.50300
H  7.86600 4.68500 34.37700
H  9.18800 5.67500 33.70200
H  4.27200 8.40500 28.09000
H  3.96400 7.16400 29.20600
H  3.05400 7.03300 27.70600
H  3.70900 9.00300 24.29600
H  3.96700 9.12600 26.03400
H  2.92700 7.82600 25.20800
H  8.54300 4.05800 22.22400
H  8.77000 1.27900 22.94800
H  5.93500 3.49900 22.66500
H  6.57500 1.82200 22.42800
H  6.91300 3.17500 21.24300
H  11.25400 2.84700 23.46200
H  10.61300 3.26500 21.93400
H  10.62000 0.32100 22.56500
H  12.23100 0.95400 22.57500
H  11.27900 0.90200 21.14400
H  12.14200 -1.73600 27.88600
H  12.35500 -0.53400 26.53100
H  11.15100 -1.83700 26.53500
H  10.64200 1.26400 31.91800
H  10.12500 -1.54800 35.00600
H  9.30300 -2.37000 33.66700
H  8.37400 -1.28700 34.76600
Mg -2.23800 34.25500 26.34100
C  -3.94400 32.66500 28.94000
C  -0.75000 36.39000 28.59600
C  -1.06400 36.15300 23.72000
C  -4.16800 32.45400 24.08900
N  -2.37600 34.45500 28.51000
C  -3.10900 33.71900 29.39500
C  -2.77000 34.04800 30.84400
C  -1.81800 35.30600 30.70100
C  -1.72400 35.50400 29.14000
C  -2.33000 36.63300 31.41800
C  -1.93800 32.92700 31.52100
C  -1.66200 33.29900 33.00700
H  -2.32000 32.35500 34.06000
N  -0.93300 35.99700 26.12500
C  -0.35100 36.67000 27.23400
C  0.59600 37.60900 26.68000
C  0.51700 37.56800 25.24500
C  -0.59200 36.55400 24.97700
C  1.64900 38.33000 27.59200
C  1.37200 38.24300 24.21700
O  1.12000 38.09800 23.05700
C  2.61000 39.05500 24.57700
N  -2.58300 34.41300 24.25800
C  -1.94200 35.18200 23.35100
C  -2.40500 34.87500 21.87800
C  -3.34300 33.67600 22.07300
C  -3.34500 33.47000 23.60000
C  -2.96400 36.09700 21.08400
C  -2.90800 32.36000 21.30200
C  -2.05500 31.34400 22.01400
N  -3.76700 32.87900 26.49200
C  -4.39500 32.14200 25.45700
C  -5.23700 31.12000 26.00700
C  -5.14400 31.36900 27.39300
C  -4.20400 32.34900 27.62500
C  -6.12400 30.07600 25.32500
C  -5.60700 30.88500 28.60000
O  -6.38600 29.93700 28.79700
C  -4.86600 31.70400 29.78500
C  -5.76900 32.40100 30.75300
O  -6.29300 33.52500 30.60900
O  -6.08000 31.49600 31.69400
C  -7.09700 31.87300 32.65700
H  -0.24000 36.98000 29.36000
H  -0.65900 36.68000 22.85400
H  -4.65700 32.00600 23.22200
H  -3.68500 34.31000 31.37500
H  -0.85100 35.02300 31.11500
H  -2.52100 37.46500 30.74100
H  -1.71600 36.87100 32.28600
H  -3.31600 36.38000 31.80700
H  -1.04800 32.86900 30.89500
H  -2.44900 31.96500 31.50800
H  -1.98300 34.30200 33.29100
H  -0.58000 33.27000 33.13500
H  1.63200 39.41900 27.56400
H  2.59600 38.02400 27.14700
H  1.70000 38.10500 28.65700
H  2.32700 39.96000 25.11500
H  2.84200 39.44100 23.58400
H  3.42300 38.44900 24.97800
H  -1.45600 34.67100 21.38200
H  -4.36700 33.94400 21.81600
H  -3.77400 35.80300 20.41700
H  -2.23900 36.52500 20.39200
H  -3.29600 36.89000 21.75500
H  -2.33600 32.74200 20.45700
H  -3.82200 31.99700 20.83300
H  -2.63100 30.47100 22.32100
H  -1.63300 31.86700 22.87100
H  -1.24600 30.93800 21.40700
H  -5.55600 29.70900 24.46900
H  -7.01000 30.65400 25.06200
H  -6.35200 29.28400 26.03800
H  -4.24500 30.98300 30.31800
H  -6.64800 32.53700 33.39500
H  -7.55600 30.98700 33.09800
H  -7.89200 32.40100 32.13100

