158

Mg 31.18500 58.79100 40.67100
C  28.32500 57.21900 39.37300
C  33.03700 56.29600 39.15000
C  33.94300 60.71400 41.01400
C  29.13500 61.52000 41.66700
N  30.70300 57.01300 39.28800
C  29.49400 56.47800 39.09100
C  29.62200 55.05300 38.60200
C  31.16500 54.73400 38.85300
C  31.68000 56.09100 39.12700
C  31.45100 53.75500 39.98000
C  29.28600 54.86400 37.06300
C  27.97400 54.22200 36.61600
H  27.18800 54.81700 35.38700
N  33.20900 58.46300 40.13000
C  33.78800 57.42700 39.57000
C  35.24500 57.59200 39.36000
C  35.54700 58.79100 40.03500
C  34.22200 59.35500 40.49600
C  36.09300 56.56300 38.74800
C  36.87700 59.37500 40.24200
O  37.89200 58.79400 39.86700
C  37.03900 60.74100 40.88000
N  31.49300 60.80300 41.25500
C  32.78200 61.32400 41.30200
C  32.70600 62.76000 41.86900
C  31.18300 63.11900 42.01000
C  30.53500 61.75200 41.68000
C  33.73700 63.03600 43.00800
C  30.71000 64.33800 41.17000
C  29.49800 65.15200 41.67100
N  29.18400 59.27500 40.60100
C  28.53600 60.38400 41.04400
C  27.10700 60.25900 40.85500
C  26.96800 59.02100 40.22400
C  28.24700 58.48700 40.04200
C  26.00700 61.18900 41.35700
C  25.97900 58.00700 39.73600
O  24.72100 58.00200 39.64000
C  26.84500 56.80300 39.18900
C  26.56400 55.63500 40.01800
O  27.14400 55.38600 41.08700
O  25.59500 54.84400 39.41300
C  25.26000 53.65100 40.15700
H  33.55500 55.39800 38.80700
H  34.79900 61.37600 41.16000
H  28.49200 62.32700 42.02600
H  28.95200 54.43400 39.19800
H  31.73600 54.38700 37.99100
H  30.59300 53.73000 40.65200
H  32.32600 53.99200 40.58600
H  31.54800 52.68900 39.77400
H  30.06500 54.32700 36.52300
H  29.20400 55.86900 36.64900
H  27.24900 54.15700 37.42700
H  28.29400 53.19500 36.44100
H  36.64600 57.08100 37.96400
H  35.47800 55.83500 38.21900
H  36.78700 56.12300 39.46400
H  36.55400 61.52300 40.29500
H  38.09100 61.01200 40.96000
H  36.73700 60.77400 41.92700
H  33.10400 63.43400 41.11000
H  31.05800 63.31100 43.07500
H  34.15800 62.15500 43.49300
H  33.34500 63.63000 43.83300
H  34.63500 63.59000 42.73400
H  30.32200 63.86000 40.27100
H  31.65400 64.82500 40.92500
H  29.79100 66.20100 41.72000
H  29.09100 64.66300 42.55600
H  28.71000 65.09600 40.91900
H  26.31800 62.17300 41.00700
H  26.04800 61.14900 42.44600
H  25.03200 60.97800 40.91900
H  26.57900 56.41200 38.20700
H  26.16200 53.08700 40.39500
H  24.61900 52.99200 39.57100
H  24.72300 53.77600 41.09700
Mg -11.78500 17.13900 42.23400
C  -8.62100 15.51200 41.90600
C  -10.18300 19.96200 40.73300
C  -14.79100 18.58500 41.95600
C  -13.20000 14.12200 43.09900
N  -9.64100 17.65000 41.36000
C  -8.53800 16.79600 41.34800
C  -7.29300 17.58700 40.86700
C  -7.82200 18.96400 40.60400
C  -9.26400 18.87100 40.99900
C  -7.04700 20.12400 41.29800
C  -6.72200 16.85500 39.59800
C  -5.28500 16.27400 39.75700
H  -4.78800 15.05000 38.88000
N  -12.37000 19.11400 41.53400
C  -11.58000 20.00800 40.93600
C  -12.45800 21.08700 40.56000
C  -13.76900 20.78400 41.06900
C  -13.68500 19.42700 41.56600
C  -11.91600 22.30300 39.87700
C  -14.90400 21.83800 41.09500
O  -14.77900 22.94100 40.57900
C  -16.19300 21.61700 41.89500
N  -13.69000 16.40100 42.19000
C  -14.83200 17.15900 42.13000
C  -16.13400 16.43400 42.48900
C  -15.51200 15.02900 42.90800
C  -14.05700 15.12800 42.59700
C  -16.84100 17.11900 43.78600
C  -16.13800 13.85500 42.24700
C  -16.45700 12.62000 43.12600
N  -11.18300 15.15200 42.46000
C  -11.79800 14.11100 43.02400
C  -10.84700 13.00100 43.27200
C  -9.59800 13.56600 42.80100
C  -9.85800 14.87000 42.36700
C  -11.25100 11.64900 43.76400
C  -8.25300 13.28100 42.60900
O  -7.60200 12.23600 42.75700
C  -7.52000 14.46200 41.97600
C  -6.40400 14.94300 42.82400
O  -6.43100 15.81900 43.65100
O  -5.29800 14.19100 42.58300
C  -4.02400 14.64800 43.19400
H  -9.73200 20.85100 40.28800
H  -15.76400 19.07200 41.85900
H  -13.63100 13.27200 43.63100
H  -6.53000 17.62000 41.64500
H  -7.70400 19.23800 39.55500
H  -6.40000 20.62200 40.57600
H  -6.46300 19.66600 42.09600
H  -7.69300 20.83000 41.82000
H  -6.60600 17.54100 38.75900
H  -7.36300 16.02000 39.31700
H  -5.05100 16.06000 40.80000
H  -4.64200 17.06000 39.36200
H  -12.65700 22.84700 39.29100
H  -11.19300 22.00000 39.12000
H  -11.53500 22.96400 40.65500
H  -16.63200 22.61500 41.92600
H  -16.05100 21.11400 42.85200
H  -16.77900 20.98400 41.23000
H  -16.70600 16.34400 41.56600
H  -15.61600 14.99700 43.99200
H  -16.81800 16.48100 44.66900
H  -17.85100 17.47200 43.58100
H  -16.22100 17.96100 44.09400
H  -15.49600 13.49000 41.44600
H  -17.14800 14.13100 41.94600
H  -15.54400 12.12700 43.46300
H  -17.12600 11.93800 42.60200
H  -17.00400 12.87800 44.03300
H  -10.86000 10.90000 43.07500
H  -12.32500 11.49800 43.87000
H  -10.73200 11.49000 44.70900
H  -7.14800 14.32100 40.96100
H  -3.96600 15.62900 43.66600
H  -3.32200 14.64100 42.36100
H  -3.70900 13.88200 43.90400

