158

Mg 48.13200 15.54800 28.79500
C  45.91000 15.41300 31.58400
C  50.08100 17.66400 30.69800
C  50.01300 15.92700 26.21400
C  45.54500 14.10800 26.90400
N  47.97400 16.28600 30.91000
C  47.09000 16.11600 31.84200
C  47.47900 16.80200 33.17600
C  48.59000 17.75500 32.71800
C  48.92800 17.19500 31.30200
C  48.19300 19.22500 32.91800
C  47.91400 15.61000 34.10800
C  47.68000 15.86600 35.64200
H  47.65200 17.21800 36.38700
N  49.88900 16.50700 28.53500
C  50.59300 17.22600 29.40400
C  51.80400 17.72600 28.76600
C  51.86900 17.09500 27.46900
C  50.54900 16.42600 27.37200
C  52.77100 18.69800 29.44300
C  53.00100 17.24500 26.43900
O  52.96100 16.61100 25.35600
C  54.27900 17.85900 26.83800
N  47.74000 15.24900 26.80900
C  48.74700 15.36700 25.96000
C  48.42900 14.82300 24.51300
C  46.96200 14.40100 24.70300
C  46.69700 14.54400 26.19300
C  48.56700 15.88800 23.43800
C  46.87800 13.01800 24.07500
C  47.50200 11.84400 24.87600
N  46.14400 14.88000 29.12100
C  45.28500 14.20400 28.26800
C  44.05200 13.91300 28.96400
C  44.29100 14.28600 30.27400
C  45.56000 14.91400 30.34600
C  42.76400 13.26100 28.40700
C  43.70400 14.27100 31.58300
O  42.58500 13.90900 31.92800
C  44.75000 14.99900 32.47200
C  44.10700 16.11800 33.16200
O  43.77900 17.16000 32.61800
O  43.81900 15.72000 34.43100
C  42.86100 16.60100 35.12100
H  50.60300 18.45600 31.23900
H  50.70000 15.87100 25.36700
H  44.84000 13.49200 26.34200
H  46.60700 17.29500 33.60500
H  49.55400 17.61700 33.20800
H  47.17600 19.29600 33.30300
H  48.20000 19.74500 31.96000
H  48.89100 19.72100 33.59200
H  48.96900 15.45200 33.88400
H  47.47000 14.65100 33.84000
H  48.46900 15.30600 36.14400
H  46.76900 15.46000 36.08200
H  53.02000 19.46600 28.71100
H  53.54700 17.95600 29.63200
H  52.45200 19.01800 30.43500
H  55.03500 17.77900 26.05700
H  54.66700 17.24000 27.64700
H  54.32400 18.90400 27.14600
H  49.16900 14.05900 24.27300
H  46.21000 15.04300 24.24300
H  49.63800 16.07700 23.37300
H  48.17700 16.88100 23.66500
H  48.10800 15.49000 22.53300
H  47.35300 13.01100 23.09400
H  45.81000 12.89800 23.89300
H  46.74100 11.09700 25.10300
H  47.95500 12.17300 25.81100
H  48.30000 11.40400 24.27800
H  42.31400 12.82400 29.29800
H  43.02500 12.50500 27.66600
H  42.10900 14.05400 28.04500
H  45.08400 14.21500 33.15200
H  43.40200 17.31700 35.74000
H  42.40000 15.95600 35.86900
H  42.02800 17.04400 34.57600
Mg 41.04400 40.85400 26.99300
C  40.54600 43.20100 29.60700
C  42.16700 38.69400 29.27500
C  41.78700 38.71000 24.42900
C  40.40400 43.31200 24.68000
N  41.25700 40.94300 29.22100
C  40.95600 41.95900 30.04900
C  40.98600 41.51400 31.56900
C  41.56200 40.04200 31.39200
C  41.71500 39.85900 29.87700
C  42.89000 39.84800 32.17900
C  39.57600 41.56900 32.23800
C  39.41000 42.43800 33.51200
H  39.05800 41.88100 34.96900
N  41.82300 38.95500 26.88100
C  42.17600 38.25400 27.94900
C  42.62500 36.94400 27.49600
C  42.45500 36.84000 26.08800
C  41.98000 38.19000 25.79100
C  43.26300 35.97900 28.41900
C  42.60400 35.68500 25.20500
O  42.52100 35.87000 23.96900
C  42.88900 34.30000 25.66200
N  41.00600 40.88000 24.88700
C  41.35100 39.89100 23.98200
C  41.09200 40.20800 22.52100
C  40.81700 41.77700 22.62700
C  40.65400 41.99800 24.18500
C  42.17000 39.88500 21.39600
C  39.53900 42.29700 21.92500
C  39.88000 43.45600 21.00000
N  40.34000 42.79200 27.03000
C  40.12400 43.70900 26.02800
C  39.95200 44.97700 26.53800
C  39.95900 44.82300 27.87900
C  40.30600 43.48200 28.20000
C  39.74400 46.26700 25.78200
C  39.80900 45.51800 29.17600
O  39.40100 46.63500 29.42000
C  40.17300 44.49100 30.31200
C  41.31100 45.00400 31.17600
O  42.46600 45.08900 30.84800
O  40.84600 45.28300 32.45300
C  41.73900 45.98700 33.40500
H  42.49800 37.96000 30.01300
H  41.96300 38.02900 23.59400
H  40.20700 44.09900 23.94900
H  41.71300 42.10700 32.12500
H  40.76300 39.40200 31.76900
H  43.12800 40.78200 32.68800
H  43.69000 39.73200 31.44800
H  43.02000 39.02700 32.88500
H  39.12200 40.61600 32.50900
H  38.90500 42.03900 31.51900
H  38.56300 43.08800 33.29400
H  40.30200 43.03100 33.71500
H  42.58800 35.21800 28.81000
H  43.71000 36.44400 29.29800
H  44.03600 35.44000 27.87200
H  42.21400 34.10900 26.49600
H  43.92200 34.30100 26.00800
H  42.76100 33.58100 24.85200
H  40.16600 39.68400 22.28300
H  41.66900 42.41300 22.38500
H  42.62400 40.78000 20.97000
H  41.73400 39.25100 20.62400
H  42.97800 39.40500 21.94800
H  38.76300 42.64700 22.60600
H  39.16700 41.53800 21.23700
H  39.10100 44.20100 21.15900
H  39.93300 43.13700 19.95900
H  40.83500 43.95900 21.15000
H  39.15100 46.99800 26.33200
H  39.28000 46.11400 24.80800
H  40.72600 46.73300 25.70000
H  39.32700 44.23500 30.95000
H  42.72600 46.07900 32.95100
H  41.82500 45.31100 34.25600
H  41.19700 46.91600 33.58200

