158

Mg 42.73700 41.39000 26.44800
C  41.60300 43.71300 28.92000
C  43.68800 39.29300 29.02800
C  43.81800 39.30500 24.09800
C  41.95500 43.77900 23.96300
N  42.69600 41.53200 28.76900
C  42.12600 42.53900 29.52900
C  42.13200 42.09500 30.98300
C  42.90200 40.74500 31.01900
C  43.14600 40.47600 29.50100
C  44.24800 40.70300 31.84100
C  40.81000 42.06000 31.77100
C  40.64200 43.08900 32.96500
H  40.23300 42.56400 34.35400
N  43.59000 39.56700 26.56400
C  43.93400 38.85000 27.69300
C  44.65600 37.71000 27.31800
C  44.62400 37.64500 25.94400
C  44.01000 38.89100 25.46300
C  45.30800 36.78600 28.27500
C  44.93100 36.43900 25.04300
O  44.87500 36.42700 23.80800
C  45.36800 35.20400 25.59000
N  42.85700 41.51000 24.38100
C  43.30100 40.49300 23.63000
C  43.07600 40.74600 22.06500
C  42.53500 42.22100 22.09700
C  42.47700 42.55100 23.57200
C  44.32100 40.52800 21.19500
C  41.09800 42.34900 21.46100
C  41.07400 42.71600 19.99000
N  42.00400 43.32900 26.36500
C  41.69000 44.13700 25.30800
C  41.19700 45.42200 25.85200
C  41.16400 45.20300 27.20100
C  41.63600 43.91200 27.52200
C  40.85200 46.71100 24.99500
C  40.76900 45.79400 28.46400
O  40.29300 46.91300 28.68000
C  41.02300 44.87300 29.54400
C  42.11700 45.45700 30.44500
O  43.27200 45.69600 30.16200
O  41.47800 45.81400 31.64500
C  42.42200 46.23800 32.75400
H  43.92800 38.58200 29.82100
H  44.19800 38.70700 23.26700
H  41.71600 44.52100 23.19800
H  42.77600 42.76200 31.55500
H  42.22500 39.99700 31.43000
H  45.10600 40.81400 31.17900
H  44.41600 39.85500 32.50400
H  44.44600 41.61400 32.40600
H  40.59100 41.07400 32.17900
H  39.98900 42.31600 31.10100
H  39.73600 43.63000 32.69200
H  41.51700 43.73900 32.99700
H  45.49400 37.32000 29.20700
H  46.24900 36.35700 27.93100
H  44.64400 35.96700 28.55100
H  45.55900 34.43300 24.84500
H  44.59300 34.90500 26.29600
H  46.34700 35.31000 26.05800
H  42.30800 40.07900 21.67300
H  43.25000 42.84400 21.56000
H  45.18700 40.86000 21.76800
H  44.13600 41.15300 20.32200
H  44.54600 39.51100 20.87200
H  40.50600 43.08700 22.00000
H  40.58700 41.40600 21.65400
H  40.21700 43.33800 19.73300
H  40.96300 41.80600 19.40000
H  41.96500 43.30200 19.76700
H  40.15600 46.43300 24.20400
H  41.74800 47.15400 24.56000
H  40.34600 47.44400 25.62300
H  40.12900 44.57400 30.09100
H  42.01500 45.97800 33.73100
H  42.40600 47.32800 32.77500
H  43.41800 45.80000 32.81700
Mg 0.74600 42.71400 25.95500
C  1.77200 42.70200 29.21000
C  -2.38900 41.38900 26.96100
C  0.04500 41.90500 22.78000
C  4.06300 43.77200 24.99400
N  -0.16300 42.06600 27.88700
C  0.42200 42.29600 29.10700
C  -0.53300 41.90000 30.25800
C  -1.71100 41.25400 29.50200
C  -1.43000 41.58200 27.97100
C  -1.97800 39.68000 29.74300
C  -0.88400 43.07700 31.18000
C  -0.98700 42.68900 32.67100
H  -1.65900 41.31600 33.11300
N  -1.00900 41.94300 24.98900
C  -2.20600 41.55700 25.56100
C  -3.21800 41.42800 24.55000
C  -2.50200 41.46500 23.27100
C  -1.04700 41.71700 23.61700
C  -4.63200 41.23800 24.85300
C  -2.99500 41.18100 21.87600
O  -2.19100 41.17700 20.90700
C  -4.40200 40.99200 21.56700
N  1.84600 42.77700 24.20200
C  1.36400 42.34500 23.02700
C  2.27500 42.79000 21.90800
C  3.44600 43.58200 22.52300
C  3.11000 43.44900 24.00600
C  2.74900 41.62200 21.08600
C  3.43500 45.08300 22.08900
C  3.60500 45.32500 20.59200
N  2.52400 43.19400 26.87600
C  3.76900 43.63300 26.40000
C  4.68400 43.80100 27.44500
C  3.95600 43.39300 28.57000
C  2.62300 43.11400 28.16600
C  6.14800 44.28000 27.32900
C  4.07100 43.23300 29.98400
O  4.98200 43.39700 30.71400
C  2.67000 42.82700 30.44300
C  2.84900 41.46900 31.03000
O  3.57600 40.55800 30.66000
O  2.15800 41.48400 32.19400
C  2.45300 40.25200 32.96900
H  -3.37000 41.08600 27.33200
H  -0.12300 41.92500 21.70200
H  5.02200 44.19000 24.68000
H  -0.07300 41.18600 30.94100
H  -2.60600 41.77700 29.83900
H  -1.29300 39.23300 30.46300
H  -1.92500 39.23100 28.75100
H  -3.02500 39.53900 30.01000
H  -1.84500 43.53300 30.94600
H  -0.20400 43.91600 31.02800
H  -1.58400 43.50000 33.08700
H  0.06000 42.69900 32.97300
H  -5.27000 42.09400 24.63200
H  -4.77700 40.98000 25.90200
H  -5.03100 40.40000 24.28300
H  -4.70900 39.94900 21.65300
H  -4.61400 41.33000 20.55300
H  -4.94500 41.67900 22.21600
H  1.77900 43.46300 21.21000
H  4.37600 43.05600 22.30600
H  1.94600 41.28600 20.42900
H  2.95400 40.79600 21.76600
H  3.62700 41.86000 20.48500
H  4.18300 45.58800 22.70000
H  2.43300 45.43700 22.33100
H  2.68400 45.51200 20.03900
H  4.12500 44.49500 20.11300
H  4.25300 46.19800 20.51500
H  6.37900 44.42500 26.27400
H  6.85000 43.55300 27.73900
H  6.09800 45.22000 27.87900
H  2.22000 43.50200 31.17100
H  3.49800 40.39600 33.24400
H  2.26100 39.31300 32.45100
H  1.87900 40.37400 33.88800

