158

Mg 47.22000 16.66200 28.51900
C  45.17900 16.57700 31.37200
C  49.44600 18.65300 30.41300
C  48.74300 17.67500 25.62200
C  44.66200 15.31300 26.82200
N  47.25300 17.45100 30.70100
C  46.35700 17.23800 31.69300
C  46.91800 17.56500 33.02500
C  48.13300 18.51400 32.61600
C  48.33400 18.18100 31.13400
C  47.78500 19.99400 32.83800
C  47.38900 16.26800 33.78000
C  47.13900 16.16500 35.29900
H  46.70300 17.41700 36.02100
N  48.97200 17.77700 28.10400
C  49.71700 18.47100 29.01400
C  50.87000 19.12200 28.31000
C  50.66900 18.90100 26.94800
C  49.44000 18.08500 26.80800
C  51.85400 20.05100 29.07500
C  51.49100 19.52000 25.81400
O  51.17600 19.36400 24.64000
C  52.78600 20.36800 25.99200
N  46.79600 16.57600 26.49800
C  47.52200 17.00900 25.48100
C  46.79000 16.87900 24.10600
C  45.77400 15.82400 24.53200
C  45.72900 15.80200 26.06800
C  46.15200 18.16900 23.52100
C  46.02200 14.31900 23.96100
C  45.03600 13.76100 22.97100
N  45.34900 15.95400 28.98700
C  44.42800 15.41500 28.18000
C  43.29100 14.95300 28.91100
C  43.56500 15.41900 30.15400
C  44.75700 16.09500 30.17000
C  42.18900 14.17700 28.32500
C  42.99600 15.45200 31.51500
O  41.92800 15.05000 31.95000
C  44.13200 16.12900 32.39300
C  43.47000 17.27800 33.06700
O  43.31300 18.41400 32.60200
O  42.99800 16.92800 34.33400
C  42.38900 17.93800 35.17700
H  50.08400 19.25600 31.06300
H  49.30700 18.00100 24.74500
H  43.86600 14.75100 26.32800
H  46.15600 18.15400 33.53500
H  49.13800 18.37100 33.01400
H  47.83000 20.67500 31.98700
H  48.41400 20.32400 33.66500
H  46.74900 20.07200 33.16700
H  48.47100 16.16200 33.69900
H  46.95800 15.42300 33.24200
H  48.02900 15.71800 35.74400
H  46.37600 15.39500 35.41200
H  52.86700 19.80600 28.75600
H  51.92100 20.06000 30.16300
H  51.83400 21.04900 28.63700
H  53.27100 20.64200 25.05500
H  53.33400 19.61900 26.56400
H  52.68000 21.28700 26.56800
H  47.54300 16.49900 23.41500
H  44.80600 16.19700 24.19800
H  45.08800 18.29300 23.72200
H  46.30500 18.13700 22.44300
H  46.59600 19.06600 23.95200
H  46.07900 13.72300 24.87200
H  47.05200 14.36800 23.60600
H  44.76600 12.71400 23.10400
H  45.43900 13.72400 21.95900
H  44.15000 14.38700 22.87000
H  42.64700 13.39800 27.71500
H  41.60100 14.83100 27.68200
H  41.58300 13.81600 29.15700
H  44.34900 15.32000 33.09100
H  42.51700 17.65900 36.22300
H  41.34300 18.04300 34.89000
H  42.87300 18.90700 35.05900
Mg 47.62900 35.61800 27.68200
C  45.99900 33.87700 30.26100
C  48.08000 38.21600 29.87000
C  49.15400 37.37600 25.28100
C  47.45300 32.78200 25.70500
N  47.20200 35.88700 29.78500
C  46.51800 35.11500 30.68500
C  46.55100 35.64300 32.09500
C  46.68200 37.18300 31.73500
C  47.36300 37.14500 30.34900
C  45.47100 38.15100 31.88100
C  47.74900 35.11600 33.10100
C  49.20100 35.77100 33.06800
H  49.56700 36.61200 34.29500
N  48.59400 37.48700 27.62400
C  48.71600 38.33700 28.65800
C  49.51900 39.45400 28.23400
C  49.71600 39.32900 26.78800
C  49.07900 38.06600 26.47600
C  49.96700 40.55800 29.28400
C  50.40900 40.27400 25.88300
O  50.45500 40.05300 24.70600
C  51.33200 41.43700 26.41600
N  48.18100 35.15100 25.73300
C  48.75700 36.06200 24.93100
C  48.81100 35.44600 23.45300
C  48.72000 33.89800 23.72700
C  48.08200 33.94300 25.12200
C  47.64900 35.99300 22.51400
C  50.03800 33.01300 23.80400
C  50.00600 31.80700 22.76600
N  46.82700 33.66600 27.87800
C  46.79500 32.67100 26.98800
C  46.24400 31.56400 27.58400
C  45.82100 31.98700 28.88400
C  46.25600 33.28700 29.04100
C  45.94900 30.12300 27.06100
C  45.12000 31.65600 30.12500
O  44.58100 30.64700 30.49100
C  45.10900 32.94900 30.95700
C  45.40200 32.68800 32.36800
O  46.38900 32.10400 32.80800
O  44.37800 33.11400 33.15500
C  44.38500 32.77000 34.54500
H  48.15300 39.05700 30.56200
H  49.52900 37.98400 24.45500
H  47.49100 31.79500 25.24000
H  45.60200 35.50400 32.61400
H  47.50600 37.48400 32.38200
H  45.19500 38.13600 32.93500
H  44.63500 37.84500 31.25200
H  45.80600 39.18600 31.81500
H  47.94200 34.07100 32.85700
H  47.20200 35.28900 34.02800
H  49.43100 36.23700 32.11000
H  49.82100 34.87400 33.09000
H  49.47200 41.48500 28.99500
H  51.04600 40.58800 29.13000
H  49.79800 40.35800 30.34200
H  51.80300 41.75800 25.48600
H  52.14500 41.21600 27.10700
H  50.75700 42.33300 26.64900
H  49.75200 35.79700 23.03100
H  47.87500 33.49600 23.16900
H  46.99200 36.59500 23.14100
H  46.95800 35.24600 22.12300
H  48.03200 36.55900 21.66500
H  50.21100 32.55600 24.77800
H  50.85000 33.61600 23.39700
H  49.21400 31.91300 22.02400
H  49.92000 30.86000 23.29800
H  50.93200 31.74700 22.19500
H  45.16000 30.14000 26.31000
H  45.56100 29.47700 27.84800
H  46.81900 29.67500 26.58000
H  44.09800 33.34200 31.06100
H  44.79900 33.59000 35.13200
H  44.89800 31.81700 34.67100
H  43.35100 32.53100 34.79300

