158

Mg 1.00800 7.64400 26.45000
C  1.64000 9.81500 29.19600
C  1.31700 4.99800 28.65500
C  0.50100 5.63600 23.90900
C  1.46300 10.38700 24.32700
N  1.32200 7.43300 28.69000
C  1.54800 8.46100 29.56200
C  1.39000 7.88700 30.96500
C  1.66000 6.39100 30.79000
C  1.43300 6.23500 29.27300
C  3.00500 5.77000 31.19500
C  0.13100 8.36300 31.73100
C  0.44000 8.65900 33.20300
H  1.53600 7.88700 33.84600
N  0.77900 5.64700 26.30700
C  0.95400 4.69200 27.35200
C  0.59200 3.38000 26.84400
C  0.36300 3.50100 25.43000
C  0.58300 4.92000 25.16100
C  0.47200 2.09300 27.75000
C  0.16800 2.45500 24.24000
O  -0.01200 2.76000 23.06900
C  0.24800 0.96000 24.68000
N  1.20200 7.91100 24.39600
C  0.68300 6.98800 23.61500
C  0.48900 7.55500 22.19900
C  0.60500 9.05900 22.40100
C  1.15100 9.12900 23.83500
C  1.42200 6.98900 21.10900
C  -0.74800 9.88400 22.22700
C  -0.66700 11.07100 21.14200
N  1.50000 9.71100 26.62500
C  1.65900 10.71900 25.67500
C  2.12300 11.92100 26.27800
C  2.02200 11.63200 27.67800
C  1.65000 10.30700 27.85900
C  2.30200 13.25700 25.58800
C  2.24900 12.22400 29.00000
O  2.71600 13.31700 29.31000
C  1.96600 11.03700 30.00700
C  3.13200 10.97700 30.95800
O  4.12500 10.33100 30.71600
O  2.92300 11.79600 32.11500
C  4.03400 11.77000 33.09300
H  1.47200 4.19400 29.37800
H  0.32900 5.10100 22.97300
H  1.44900 11.23000 23.63300
H  2.24800 8.24600 31.53400
H  0.85100 5.77600 31.18500
H  3.54300 6.46300 31.84100
H  3.62400 5.54100 30.32800
H  2.81400 4.85000 31.74600
H  -0.56900 7.52700 31.76000
H  -0.23000 9.32800 31.37600
H  -0.42100 8.28500 33.75700
H  0.38800 9.70800 33.49600
H  1.39800 1.52500 27.84300
H  -0.24700 1.35800 27.38900
H  0.06800 2.50100 28.67700
H  0.32300 0.50100 23.69500
H  -0.63200 0.70300 25.26900
H  1.10900 0.71000 25.30000
H  -0.50300 7.33500 21.80400
H  1.43000 9.43500 21.79700
H  1.67400 5.94500 21.29200
H  2.24900 7.62700 20.79600
H  0.82100 6.87700 20.20700
H  -1.03700 10.33200 23.17800
H  -1.61800 9.24000 22.09200
H  -1.16800 10.96900 20.18000
H  0.37000 11.34700 20.94900
H  -1.20300 11.93800 21.52800
H  1.43500 13.88400 25.37600
H  2.69500 12.91500 24.63000
H  2.96200 13.87000 26.20200
H  1.10600 11.22900 30.64800
H  4.86600 11.10800 32.85300
H  3.70300 11.60400 34.11900
H  4.46000 12.76500 32.96800
Mg -11.74900 15.55500 41.88600
C  -8.54200 14.50800 41.14300
C  -10.85100 18.75900 40.66900
C  -15.02000 16.35500 41.74900
C  -12.65800 12.29100 42.70500
N  -9.90600 16.42100 40.87000
C  -8.69100 15.80600 40.77900
C  -7.62300 16.75100 40.29500
C  -8.33100 18.19600 40.43000
C  -9.80400 17.73800 40.66500
C  -7.76400 19.14100 41.59300
C  -7.12500 16.51000 38.77400
C  -5.66400 16.14600 38.61000
H  -4.96000 16.67200 37.33200
N  -12.79600 17.30600 41.30300
C  -12.21400 18.52000 40.88700
C  -13.27400 19.39400 40.47100
C  -14.52800 18.75100 40.72300
C  -14.16600 17.43200 41.31900
C  -13.04000 20.77500 40.00100
C  -15.86200 19.32500 40.44000
O  -15.94500 20.52500 40.08100
C  -17.26300 18.67300 40.60200
N  -13.61200 14.42700 42.00400
C  -14.77100 15.11100 42.23400
C  -15.99100 14.20200 42.74500
C  -15.12900 12.94300 43.13600
C  -13.71200 13.17800 42.51800
C  -16.92300 14.83400 43.90600
C  -15.79900 11.60500 43.00000
C  -16.52600 11.18300 44.32300
N  -10.83000 13.69900 42.04700
C  -11.31500 12.49800 42.45300
C  -10.30800 11.47800 42.36100
C  -9.18000 12.25600 41.90600
C  -9.56600 13.59700 41.69900
C  -10.32400 10.03100 42.62100
C  -7.75900 12.17700 41.61200
O  -6.99500 11.18000 41.63000
C  -7.33700 13.62800 41.17600
C  -6.36800 14.17100 42.11000
O  -6.53500 14.28600 43.33300
O  -5.13300 14.35800 41.54900
C  -3.93100 14.72200 42.40800
H  -10.54800 19.74300 40.30600
H  -16.08700 16.55200 41.63200
H  -12.90200 11.36500 43.23100
H  -6.76600 16.64500 40.96000
H  -8.23200 18.72900 39.48400
H  -7.10700 18.42300 42.08400
H  -8.54300 19.54400 42.24000
H  -7.20400 20.00700 41.23900
H  -7.37300 17.27100 38.03400
H  -7.71600 15.61900 38.56600
H  -5.73100 15.05900 38.58500
H  -5.07500 16.26000 39.52000
H  -13.42500 20.84100 38.98400
H  -12.04100 21.21200 40.03500
H  -13.61700 21.47900 40.60100
H  -18.13600 19.13200 40.13900
H  -17.42800 18.62300 41.67800
H  -17.23100 17.66100 40.19900
H  -16.53200 13.84800 41.86800
H  -14.89000 13.05900 44.19300
H  -17.93400 14.68300 43.52500
H  -16.79100 15.91400 43.96100
H  -16.75500 14.29800 44.84000
H  -15.11100 10.83100 42.65900
H  -16.51000 11.54800 42.17600
H  -17.57600 11.24500 44.03800
H  -16.33300 11.72800 45.24700
H  -16.37500 10.11700 44.49500
H  -9.32900 9.62600 42.80500
H  -10.79800 9.49600 41.79800
H  -10.85600 9.84100 43.55300
H  -6.90100 13.59300 40.17800
H  -3.01700 14.23300 42.07100
H  -4.06600 14.54300 43.47400
H  -3.76700 15.79500 42.31500

