158

Mg 44.63100 3.81600 47.21500
C  42.66700 6.66500 47.05000
C  41.75400 1.91000 46.29600
C  46.61300 1.21000 46.30700
C  47.47800 5.85400 47.22700
N  42.48600 4.28700 46.66800
C  41.91300 5.52300 46.70900
C  40.42800 5.48700 46.38700
C  40.11100 3.92600 46.27700
C  41.51300 3.31900 46.41300
C  39.12600 3.44900 47.33600
C  39.86500 6.35000 45.23200
C  40.64300 6.34500 43.92000
H  40.07300 6.00000 42.58500
N  44.20600 1.82400 46.77700
C  42.96300 1.19200 46.41800
C  43.14400 -0.18400 46.17000
C  44.55300 -0.41000 46.35100
C  45.22200 0.90700 46.45800
C  42.08800 -1.16200 45.63200
C  45.17600 -1.78700 46.30300
O  44.51500 -2.77300 46.00600
C  46.69000 -1.89100 46.54600
N  46.67400 3.60500 46.60800
C  47.29200 2.43300 46.45400
C  48.80500 2.51300 46.38100
C  49.03700 4.04600 46.64200
C  47.63700 4.54400 46.74200
C  49.65500 1.55100 47.27000
C  49.91000 4.81900 45.63000
C  50.84100 4.03000 44.67400
N  45.08800 5.82400 47.26500
C  46.25900 6.52100 47.32500
C  45.97700 7.94600 47.37300
C  44.54400 7.99100 47.29500
C  44.04500 6.72500 47.25000
C  46.96700 9.10600 47.36800
C  43.38400 8.87200 47.33700
O  43.41900 10.13400 47.46500
C  42.11900 8.02500 47.21200
C  41.23700 8.05700 48.42000
O  41.50700 7.46600 49.50700
O  40.08000 8.67900 48.10300
C  38.88500 8.67300 49.02000
H  40.82300 1.39000 46.06000
H  47.26900 0.39900 45.98400
H  48.36800 6.46600 47.39100
H  39.89500 5.86600 47.26000
H  39.72800 3.69200 45.28300
H  38.32700 4.18100 47.45700
H  39.69400 3.40700 48.26500
H  38.60300 2.50600 47.17700
H  39.64400 7.35100 45.60300
H  38.88000 5.97000 44.96300
H  41.58600 5.80200 43.99200
H  40.85200 7.39400 43.71300
H  41.99000 -2.16300 46.05000
H  42.36100 -1.27600 44.58200
H  41.07600 -0.79800 45.80900
H  46.94200 -1.22700 47.37300
H  47.28200 -1.61400 45.67400
H  46.98400 -2.93800 46.62300
H  48.99400 2.34000 45.32200
H  49.60000 4.12200 47.57200
H  49.03000 1.13600 48.06100
H  50.48700 2.08200 47.73300
H  50.05400 0.69500 46.72700
H  50.39700 5.55400 46.26900
H  49.31100 5.37200 44.90600
H  51.70800 4.66000 44.47500
H  50.21900 3.77400 43.81700
H  51.14100 3.06700 45.08600
H  47.90400 8.72800 47.77800
H  46.50300 10.00800 47.76600
H  47.24200 9.41300 46.35900
H  41.53800 8.40700 46.37300
H  39.11100 8.68600 50.08600
H  38.44500 7.68500 48.88900
H  38.17200 9.44000 48.71600
Mg 42.32500 41.02700 26.07500
C  41.43500 43.47700 28.54300
C  43.53900 39.05000 28.54100
C  43.22500 39.05600 23.66900
C  41.44300 43.50200 23.74300
N  42.43600 41.20900 28.25500
C  41.99800 42.29400 29.05600
C  42.09500 41.92000 30.53300
C  42.81900 40.48000 30.55000
C  42.94700 40.21500 29.02200
C  44.17300 40.49200 31.34900
C  40.71200 41.78400 31.27900
C  40.81400 41.69900 32.84400
H  40.19200 42.88700 33.63900
N  43.14800 39.14700 26.11400
C  43.59700 38.47000 27.26700
C  44.10100 37.22100 26.78400
C  43.93100 37.17600 25.33700
C  43.39200 38.45700 24.94300
C  44.80100 36.26700 27.70000
C  44.20800 35.97100 24.36800
O  44.01500 36.07600 23.18600
C  44.69100 34.56500 24.88900
N  42.33600 41.34000 24.03900
C  42.70000 40.25500 23.28700
C  42.35500 40.47300 21.76800
C  41.55400 41.86200 21.85300
C  41.78800 42.28800 23.29000
C  43.61000 40.53400 20.79700
C  40.02900 41.66100 21.49200
C  39.15400 40.99500 22.51200
N  41.65100 43.11500 26.08400
C  41.38100 43.99900 25.03000
C  41.00400 45.28800 25.53000
C  40.94000 45.11300 26.93600
C  41.30700 43.75400 27.19200
C  40.67100 46.47300 24.77200
C  40.61300 45.78400 28.19400
O  40.15500 46.87800 28.41300
C  40.81900 44.70300 29.25100
C  41.69500 45.26900 30.35600
O  42.89600 45.27200 30.29500
O  41.09300 45.78600 31.42000
C  41.84700 46.36200 32.45500
H  43.86100 38.44000 29.38800
H  43.54700 38.43300 22.83200
H  41.25500 44.27900 22.99900
H  42.63500 42.69400 31.07900
H  42.13600 39.77000 31.01700
H  44.38800 39.71900 32.08700
H  44.16600 41.46000 31.85000
H  45.03500 40.43200 30.68500
H  40.22800 40.90900 30.84500
H  40.16300 42.67100 30.96400
H  41.86100 41.59500 33.12700
H  40.33300 40.76500 33.13500
H  44.65600 35.23900 27.36700
H  44.28300 36.36500 28.65400
H  45.84100 36.45900 27.96300
H  44.08500 34.18300 25.71000
H  45.75200 34.70600 25.09800
H  44.69700 33.91800 24.01200
H  41.74600 39.67300 21.34600
H  42.00400 42.55100 21.13700
H  44.46600 40.37700 21.45400
H  43.71600 41.49200 20.28900
H  43.52800 39.70700 20.09200
H  40.01900 41.12300 20.54400
H  39.54800 42.60900 21.25000
H  38.99900 39.97700 22.15600
H  38.18500 41.49200 22.56100
H  39.58300 40.92400 23.51100
H  40.07800 46.38100 23.86200
H  41.62800 46.91000 24.48500
H  40.19400 47.20600 25.42300
H  39.87200 44.41900 29.71000
H  42.72400 46.86000 32.04100
H  42.18400 45.57700 33.13200
H  41.17300 46.98900 33.04000

