158

Mg 25.73100 0.36400 29.41900
C  27.81000 0.21200 32.32100
C  23.01800 0.82100 31.52900
C  23.77000 0.10200 26.71200
C  28.55000 -0.70200 27.50800
N  25.42900 0.47900 31.65400
C  26.42800 0.40100 32.62200
C  25.80300 0.53200 34.03100
C  24.26900 0.65500 33.74800
C  24.21400 0.67300 32.20000
C  23.31600 -0.36800 34.46000
C  26.50100 1.59100 34.94300
C  25.50400 2.09000 36.06300
H  25.95500 1.97800 37.44300
N  23.73100 0.60000 29.12900
C  22.79100 0.79100 30.10200
C  21.48200 0.85100 29.45900
C  21.74600 0.86400 28.02700
C  23.17600 0.46900 27.94300
C  20.20300 1.01800 30.28300
C  20.79200 1.11100 26.82200
O  21.02100 1.11100 25.57700
C  19.52600 1.76300 27.21600
N  26.15300 -0.39700 27.37800
C  25.16100 -0.27800 26.40600
C  25.61200 -0.85500 25.03800
C  27.17400 -0.96600 25.25200
C  27.33100 -0.65500 26.76100
C  24.99300 -2.17000 24.74300
C  28.02000 0.06400 24.40900
C  27.56500 1.46600 24.54900
N  27.76300 -0.05800 29.75300
C  28.73200 -0.52600 28.93800
C  29.98600 -0.62900 29.67600
C  29.65800 -0.37600 31.02100
C  28.28700 -0.10100 31.05700
C  31.23800 -1.07000 29.01300
C  30.18200 -0.25900 32.37000
O  31.36600 -0.33200 32.78200
C  29.02200 0.03200 33.27200
C  28.82400 -1.00900 34.33900
O  28.64000 -2.17800 34.11300
O  29.11400 -0.45900 35.59800
C  29.10200 -1.42600 36.79000
H  22.11800 0.97900 32.12600
H  23.03600 -0.11000 25.93200
H  29.40200 -1.11400 26.96400
H  26.05200 -0.41000 34.52000
H  23.91200 1.64100 34.04400
H  22.51900 0.16800 34.97500
H  23.84800 -1.02700 35.14700
H  22.92700 -1.00400 33.66500
H  26.96500 2.34200 34.30300
H  27.34900 1.03100 35.33700
H  24.59100 1.49700 36.11100
H  25.34400 3.16300 35.95400
H  20.33600 0.59000 31.27700
H  19.26200 0.67600 29.85200
H  19.93200 2.07100 30.37000
H  18.83400 1.08900 27.72000
H  19.02300 2.14400 26.32700
H  19.81300 2.67900 27.73200
H  25.34000 -0.19400 24.21500
H  27.55800 -1.96700 25.05500
H  24.17600 -2.37000 25.43600
H  25.73000 -2.91300 25.04800
H  24.63300 -2.27700 23.71900
H  28.00200 -0.30800 23.38400
H  29.06300 -0.07900 24.69200
H  26.72200 1.67100 25.20900
H  27.35600 1.85800 23.55400
H  28.32200 2.10700 25.00000
H  31.75700 -1.43200 29.90000
H  31.89900 -0.30900 28.59900
H  30.94800 -1.79500 28.25200
H  29.23600 1.01300 33.69600
H  29.03100 -2.47500 36.50000
H  28.23200 -1.36600 37.44400
H  29.97200 -1.33300 37.44000
Mg -4.71800 25.95600 26.34400
C  -3.55800 27.49100 29.18300
C  -6.49300 23.67400 28.25700
C  -5.25900 24.13900 23.65000
C  -2.52700 28.04200 24.39300
N  -4.98000 25.58500 28.47700
C  -4.46100 26.42400 29.46300
C  -5.01700 26.00000 30.82200
C  -5.72100 24.68200 30.53100
C  -5.73800 24.62700 28.99900
C  -5.05400 23.38600 31.18700
C  -6.10500 27.06900 31.28600
C  -6.43300 27.49500 32.72100
H  -5.82000 26.59800 33.84500
N  -5.96800 24.31300 25.92200
C  -6.64000 23.60100 26.87800
C  -7.38700 22.56700 26.13600
C  -6.98000 22.60900 24.79000
C  -6.03400 23.69600 24.74500
C  -8.42700 21.74100 26.87700
C  -7.41100 21.63800 23.70000
O  -6.87800 21.70700 22.61300
C  -8.31400 20.52700 23.92300
N  -3.98200 26.16100 24.27900
C  -4.37500 25.22200 23.39100
C  -3.84900 25.45800 21.96500
C  -3.04300 26.77400 22.23600
C  -3.18600 27.03200 23.69100
C  -2.96100 24.26800 21.45100
C  -3.51500 27.97100 21.32600
C  -2.79300 28.26400 20.03800
N  -3.26800 27.42300 26.67900
C  -2.47200 28.18500 25.81700
C  -1.70900 29.13600 26.60600
C  -2.15700 28.95000 27.96700
C  -3.09600 27.89600 27.90800
C  -0.70000 30.12600 26.09900
C  -2.11600 29.49400 29.28800
O  -1.50700 30.52900 29.66000
C  -3.07600 28.63200 30.20100
C  -2.42000 28.14100 31.44000
O  -1.48900 27.34100 31.39900
O  -2.87000 28.77900 32.62200
C  -2.07400 28.60400 33.76900
H  -7.01900 22.93500 28.86600
H  -5.50100 23.69300 22.68300
H  -1.85500 28.65100 23.78600
H  -4.22400 25.76500 31.53200
H  -6.79000 24.68600 30.74200
H  -5.63600 22.80600 31.90300
H  -4.06000 23.62400 31.56700
H  -4.98800 22.68600 30.35400
H  -7.07300 26.84600 30.83700
H  -5.91600 28.02600 30.79900
H  -7.50000 27.30400 32.83300
H  -6.13100 28.53700 32.82700
H  -7.92900 21.38400 27.77900
H  -9.06500 20.96700 26.45200
H  -9.14900 22.43100 27.31300
H  -8.28700 19.86200 23.05900
H  -9.32900 20.91300 24.01700
H  -7.90100 20.02200 24.79600
H  -4.66400 25.55900 21.24800
H  -1.97200 26.77100 22.03400
H  -2.86300 23.43700 22.14900
H  -1.94900 24.58700 21.20000
H  -3.36400 23.88600 20.51400
H  -3.68400 28.84200 21.95900
H  -4.56200 27.74400 21.12800
H  -3.40100 28.21000 19.13500
H  -1.98600 27.54200 19.91600
H  -2.44100 29.29500 19.98400
H  -1.08800 30.66400 25.23400
H  0.27800 29.68500 25.90700
H  -0.49000 30.89700 26.84000
H  -3.72300 29.40500 30.61400
H  -2.05400 29.52900 34.34500
H  -1.00600 28.47200 33.59500
H  -2.53700 27.82600 34.37600

