158

Mg 0.29500 8.13000 26.26900
C  0.87400 10.14500 29.26200
C  0.78400 5.46300 28.12200
C  0.35900 6.50300 23.49100
C  0.69200 11.21300 24.40000
N  0.84000 7.80400 28.46200
C  0.82400 8.74300 29.48100
C  0.97900 8.00400 30.83300
C  0.96100 6.47600 30.44500
C  0.80100 6.58300 28.93700
C  2.28600 5.73900 30.94900
C  -0.19700 8.42000 31.82700
C  0.09200 8.43700 33.37900
H  1.17500 7.56900 34.00100
N  0.51200 6.18600 25.81700
C  0.66600 5.19700 26.72200
C  0.46300 3.88500 26.04500
C  0.46700 4.18100 24.59400
C  0.38400 5.70000 24.58000
C  0.32500 2.54100 26.78700
C  0.27900 3.28100 23.34400
O  0.02200 3.81200 22.32000
C  0.35900 1.79600 23.46300
N  0.45200 8.78400 24.27900
C  0.31900 7.87100 23.28700
C  0.21100 8.51700 21.87600
C  -0.04600 9.99900 22.22500
C  0.47300 10.00100 23.71200
C  1.58000 8.25300 21.17300
C  -1.54300 10.33100 22.18400
C  -1.87500 11.51900 21.23400
N  0.67900 10.26700 26.72300
C  0.78500 11.31800 25.82500
C  0.92900 12.55400 26.54600
C  1.00300 12.19000 27.93100
C  0.82400 10.74400 27.98200
C  1.09500 13.94100 25.98200
C  1.27200 12.67300 29.24000
O  1.60600 13.78700 29.68600
C  1.08500 11.36000 30.21000
C  2.19300 11.23500 31.15800
O  3.14500 10.51900 30.93500
O  1.96200 11.95300 32.29100
C  3.09500 12.10400 33.18100
H  1.00100 4.56500 28.70300
H  0.30600 6.02900 22.50800
H  0.74100 12.16400 23.86500
H  1.91700 8.29300 31.30600
H  0.09100 5.93500 30.81600
H  1.99500 4.87600 31.54700
H  3.03400 6.32600 31.48200
H  2.85600 5.37100 30.09500
H  -1.02100 7.73700 31.61800
H  -0.54300 9.42700 31.59500
H  -0.77000 8.32400 34.03600
H  0.45800 9.41700 33.68400
H  0.16000 2.68600 27.85500
H  1.21300 1.93800 26.60100
H  -0.63900 2.13600 26.47900
H  -0.38100 1.40200 24.15900
H  1.28700 1.51600 23.96000
H  0.38500 1.33400 22.47600
H  -0.60900 8.18600 21.23800
H  0.59300 10.63300 21.61100
H  2.17400 7.49600 21.68500
H  2.19600 9.15100 21.12500
H  1.49300 8.03100 20.10900
H  -1.79900 10.74300 23.16000
H  -2.18200 9.48700 21.92400
H  -1.99000 12.43600 21.81100
H  -2.87800 11.26400 20.89200
H  -1.25200 11.75100 20.37000
H  0.44600 13.96700 25.10600
H  2.13600 14.15400 25.74000
H  0.75200 14.68300 26.70300
H  0.20800 11.59300 30.81300
H  3.58900 13.03500 32.90100
H  3.69900 11.20000 33.25900
H  2.60400 12.15000 34.15200
Mg -3.19500 34.44500 26.81500
C  -4.95800 32.92200 29.44000
C  -1.93500 36.64500 29.03400
C  -1.47900 35.63700 24.33400
C  -4.85200 32.23900 24.49400
N  -3.41500 34.68200 29.04800
C  -4.13800 33.96000 29.92800
C  -4.04800 34.54400 31.35500
C  -3.27400 35.86500 31.05700
C  -2.83700 35.74700 29.65000
C  -4.13300 37.22300 31.22900
C  -3.53900 33.53200 32.43400
C  -4.25500 33.48500 33.80600
H  -3.52300 33.08200 35.08300
N  -1.95200 35.98600 26.64800
C  -1.54700 36.78400 27.64300
C  -0.64600 37.79800 27.08900
C  -0.49600 37.53600 25.72900
C  -1.35800 36.38400 25.48700
C  -0.09400 38.95000 27.86500
C  0.38000 38.25900 24.67500
O  0.29400 37.92700 23.50100
C  1.31900 39.33000 25.03900
N  -3.42200 34.19400 24.67300
C  -2.39800 34.69700 23.92900
C  -2.31100 34.05000 22.57500
C  -3.27300 32.84900 22.68500
C  -3.99100 33.20700 23.99000
C  -2.79500 35.06300 21.38900
C  -2.55000 31.47000 22.56500
C  -3.31900 30.41100 21.67800
N  -4.59600 32.93100 26.94200
C  -5.16200 32.12500 25.87700
C  -5.93300 31.04700 26.46000
C  -5.92000 31.37500 27.88000
C  -5.09200 32.52200 28.09200
C  -6.54400 29.79900 25.77100
C  -6.43900 30.98700 29.20000
O  -7.09400 30.04600 29.57000
C  -5.83100 31.96200 30.17800
C  -6.93600 32.65000 30.90400
O  -7.37600 33.74900 30.63600
O  -7.33200 31.96500 31.99700
C  -8.34100 32.54300 32.90700
H  -1.57000 37.34500 29.78900
H  -0.73800 35.88200 23.56900
H  -5.14900 31.47200 23.77600
H  -5.02400 34.94300 31.63100
H  -2.40800 35.80000 31.71600
H  -3.48400 38.01300 31.60700
H  -4.99900 36.98000 31.84600
H  -4.61300 37.61500 30.33200
H  -2.48300 33.71400 32.63500
H  -3.54900 32.50600 32.06600
H  -5.10800 32.84300 33.58600
H  -4.68300 34.48400 33.88200
H  -0.18000 38.85200 28.94800
H  -0.71300 39.81100 27.61200
H  0.97200 39.12900 27.72500
H  1.91800 39.55200 24.15600
H  1.87700 38.85800 25.84800
H  0.88100 40.24600 25.43600
H  -1.27400 33.76900 22.39200
H  -4.03700 32.93500 21.91200
H  -3.56500 34.69400 20.71200
H  -1.80900 35.12300 20.92800
H  -3.17300 36.02100 21.74700
H  -2.42200 31.06200 23.56700
H  -1.58100 31.59900 22.08300
H  -2.54400 29.92200 21.08600
H  -4.13500 30.81100 21.07700
H  -3.68900 29.57700 22.27400
H  -6.32600 29.93100 24.71100
H  -7.61500 29.97200 25.87600
H  -6.18100 28.87000 26.21100
H  -5.21700 31.42800 30.90400
H  -8.98400 33.29300 32.44600
H  -7.79700 32.93200 33.76700
H  -8.93200 31.69000 33.23900

