158

Mg 26.18100 1.03300 29.73100
C  28.31200 0.61800 32.55500
C  23.66900 1.60400 32.01400
C  24.09700 0.90800 27.20300
C  28.82800 -0.01100 27.76300
N  26.02700 1.08000 32.05400
C  27.02900 0.90200 32.95700
C  26.54900 1.30500 34.41700
C  25.02000 1.22700 34.17600
C  24.87200 1.38300 32.70100
C  24.28400 0.01200 34.71100
C  27.13800 2.69400 34.91100
C  27.99400 2.76400 36.20500
H  27.40200 3.42500 37.45200
N  24.21500 1.43500 29.57600
C  23.34500 1.59900 30.59200
C  21.97800 1.68000 30.06800
C  22.07500 1.50700 28.69800
C  23.53400 1.30800 28.46900
C  20.73800 1.83800 30.85600
C  20.98500 1.40000 27.70900
O  21.20200 1.28200 26.52400
C  19.59800 1.46400 28.05700
N  26.50900 0.64200 27.77600
C  25.46800 0.67600 26.84700
C  26.05400 0.68900 25.39000
C  27.56600 0.61800 25.62900
C  27.64800 0.45700 27.15400
C  25.38800 -0.37900 24.44500
C  28.40500 1.78600 25.08300
C  29.25100 1.41100 23.94300
N  28.14900 0.33000 30.05300
C  29.06700 -0.05900 29.11800
C  30.34300 -0.32600 29.82200
C  30.09200 -0.08800 31.19400
C  28.74100 0.32100 31.26400
C  31.59800 -0.79000 29.15700
C  30.60300 0.01200 32.57200
O  31.71900 -0.22600 33.05100
C  29.44400 0.46900 33.48000
C  29.33100 -0.69600 34.37500
O  28.63700 -1.68600 34.19800
O  29.99500 -0.48200 35.52200
C  29.79800 -1.31800 36.68900
H  22.83200 1.93500 32.63200
H  23.44300 0.92300 26.33000
H  29.65500 -0.36500 27.14400
H  26.99100 0.60500 35.12600
H  24.50700 2.08100 34.61800
H  25.02000 -0.66400 35.14800
H  23.81800 -0.52400 33.88400
H  23.54300 0.32000 35.44900
H  26.37800 3.45000 35.10900
H  27.66200 3.11700 34.05400
H  28.93800 3.19900 35.87900
H  28.20000 1.75400 36.55900
H  20.17600 2.70400 30.50500
H  20.94400 2.14800 31.88100
H  20.14800 0.92200 30.84800
H  19.43100 0.62600 28.73300
H  19.01300 1.41000 27.13900
H  19.30900 2.42100 28.49100
H  25.87300 1.61600 24.84500
H  27.90000 -0.29100 25.13000
H  24.53300 -0.78600 24.98400
H  25.93400 -1.30700 24.27800
H  24.92500 0.07600 23.56900
H  29.03600 2.18400 25.87800
H  27.87800 2.64900 24.67400
H  29.15300 2.15800 23.15500
H  28.93100 0.46500 23.50600
H  30.26100 1.29100 24.33400
H  32.39800 -1.06300 29.84600
H  31.89600 0.09800 28.60100
H  31.46100 -1.60900 28.45100
H  29.68400 1.37300 34.04000
H  29.88500 -2.29500 36.21300
H  28.81900 -1.07700 37.10300
H  30.56900 -1.15000 37.44100
Mg 47.67200 16.21500 27.58000
C  45.75300 16.25700 30.56000
C  50.06500 17.99600 29.25200
C  49.24500 16.43200 24.76300
C  44.80900 14.87500 26.00500
N  47.82700 16.90700 29.70500
C  47.02400 16.74200 30.79700
C  47.64200 17.22600 32.10200
C  48.93300 18.08100 31.57700
C  48.94200 17.60300 30.01300
C  48.78500 19.60500 31.62900
C  48.06300 15.97400 33.02300
C  47.68900 16.23000 34.55900
H  47.74400 17.62300 35.16500
N  49.53700 17.00700 27.12000
C  50.37800 17.65100 27.92600
C  51.50200 18.09300 27.17500
C  51.32600 17.59200 25.84600
C  49.95000 16.99200 25.82600
C  52.69900 18.61700 27.95000
C  52.17300 17.62800 24.61000
O  51.92800 16.91700 23.55500
C  53.49900 18.41600 24.64600
N  47.04200 15.74300 25.64500
C  47.92800 15.89300 24.62900
C  47.26200 15.41200 23.23200
C  45.89400 14.83800 23.68100
C  45.89500 15.12300 25.18900
C  47.22000 16.60200 22.28500
C  45.73200 13.29200 23.41100
C  44.84800 12.78600 22.23500
N  45.63700 15.70600 28.08700
C  44.70700 15.15400 27.38900
C  43.53000 14.86600 28.28100
C  43.94300 15.25300 29.51700
C  45.18800 15.82700 29.32600
C  42.21700 14.19600 27.91700
C  43.58600 15.29500 30.91400
O  42.51900 14.99300 31.40600
C  44.72600 15.91500 31.65300
C  44.15400 17.01900 32.50100
O  43.78100 18.11200 32.04200
O  44.06300 16.71900 33.85800
C  43.59500 17.72900 34.75600
H  50.76100 18.57300 29.86400
H  49.75400 16.45800 23.79800
H  43.98000 14.33200 25.54600
H  46.93500 17.97700 32.45500
H  49.88700 17.68900 31.92900
H  47.95500 19.81900 32.30200
H  48.46300 20.05300 30.68800
H  49.74600 20.08100 31.82400
H  49.11000 15.67700 32.95900
H  47.36700 15.17200 32.77400
H  48.35500 15.66300 35.21000
H  46.70800 15.78000 34.70600
H  53.32000 17.83200 28.38100
H  52.41400 19.34700 28.70700
H  53.35200 19.17000 27.27500
H  53.39800 19.30500 25.26800
H  53.73700 18.69300 23.61900
H  54.30100 17.79100 25.03800
H  47.91700 14.68200 22.75600
H  45.02900 15.39400 23.31800
H  47.84800 17.46500 22.51000
H  46.19900 16.96800 22.39600
H  47.54700 16.16600 21.34100
H  45.40700 12.74000 24.29300
H  46.74400 12.93200 23.22900
H  45.41300 12.08600 21.61900
H  44.41500 13.58900 21.63800
H  43.93700 12.23700 22.47300
H  42.30100 13.15500 28.23000
H  41.92600 14.33700 26.87600
H  41.34000 14.57400 28.44300
H  45.11400 15.17800 32.35600
H  43.07400 17.22400 35.56800
H  42.92800 18.45600 34.29200
H  44.42700 18.28500 35.18800

