158

Mg 47.06400 24.92900 28.12300
C  48.18200 27.27900 30.56900
C  46.87800 22.58900 30.46700
C  46.19900 23.01400 25.68000
C  47.80900 27.62100 25.77800
N  47.81000 24.88400 30.22900
C  47.89200 25.99500 31.02000
C  47.60800 25.62400 32.53800
C  47.36000 24.13800 32.47200
C  47.41800 23.80200 30.96900
C  48.34000 23.17300 33.27600
C  46.43700 26.46400 33.21900
C  45.67900 25.92000 34.46200
H  45.62700 26.85100 35.76600
N  46.40200 23.08000 28.06600
C  46.41100 22.21900 29.16900
C  45.88700 20.93900 28.74300
C  45.65500 21.07300 27.33200
C  46.11500 22.41200 26.95000
C  45.88000 19.74000 29.60500
C  45.06800 20.07700 26.29900
O  44.69600 20.39700 25.21000
C  44.55800 18.73500 26.75400
N  47.06800 25.23200 25.98600
C  46.75100 24.21100 25.17100
C  46.64900 24.73900 23.64200
C  46.97100 26.27300 23.82800
C  47.24100 26.39800 25.30000
C  47.52400 23.98700 22.50500
C  45.86300 27.22600 23.34100
C  46.24200 28.14400 22.23300
N  48.09000 26.99900 28.13800
C  48.28500 27.91000 27.10800
C  48.83100 29.11200 27.62800
C  48.72700 28.98900 29.06000
C  48.29200 27.67000 29.25800
C  49.25800 30.33000 26.86100
C  48.87800 29.61200 30.40200
O  49.35700 30.68600 30.82200
C  48.33500 28.53700 31.40400
C  49.30100 28.40000 32.44300
O  50.42300 27.81100 32.30800
O  48.84300 28.82000 33.64400
C  49.75400 28.80100 34.85800
H  46.66800 21.79900 31.19100
H  45.74400 22.40200 24.89800
H  48.05900 28.45800 25.12300
H  48.54500 25.76400 33.07700
H  46.32400 23.94500 32.75400
H  48.94500 22.63600 32.54500
H  47.72900 22.45500 33.82400
H  48.94200 23.72200 34.00000
H  45.70100 26.67100 32.44200
H  46.80000 27.43500 33.55900
H  46.11900 24.95000 34.69200
H  44.70100 25.71300 34.02700
H  46.63800 19.05300 29.22800
H  44.98200 19.12300 29.61400
H  46.08700 20.04300 30.63100
H  43.92200 18.74400 27.63900
H  45.37500 18.03200 26.91800
H  43.98700 18.42300 25.88000
H  45.61900 24.65100 23.29700
H  47.90600 26.59800 23.37200
H  47.76600 22.94200 22.69600
H  48.45900 24.49700 22.27100
H  46.93300 24.10800 21.59800
H  45.51200 27.86900 24.14800
H  45.06500 26.57300 22.98700
H  45.58700 27.92000 21.39200
H  47.28900 28.15400 21.92800
H  46.01300 29.18100 22.48000
H  49.06700 31.26800 27.38400
H  48.77500 30.28700 25.88500
H  50.31800 30.20000 26.64400
H  47.39400 28.94700 31.77300
H  49.22500 28.20800 35.60500
H  49.98600 29.79300 35.24400
H  50.69300 28.25500 34.76900
Mg 50.87200 45.43800 42.37900
C  47.54700 46.21800 41.51600
C  50.24100 42.22500 41.25200
C  54.08600 44.72900 42.69200
C  51.39000 48.76500 43.00600
N  49.10300 44.42500 41.30300
C  47.85600 44.92500 41.13800
C  46.90600 43.79900 40.68000
C  47.74500 42.51200 40.96200
C  49.17100 43.06800 41.13700
C  47.31300 41.59500 42.13100
C  46.51500 43.97200 39.19600
C  45.03900 43.74900 38.87700
H  44.70800 42.90600 37.69200
N  51.97000 43.68900 42.05200
C  51.56600 42.47200 41.66600
C  52.62300 41.51100 41.64900
C  53.81100 42.20000 42.06300
C  53.32800 43.61800 42.28100
C  52.34500 40.09100 41.35700
C  55.17900 41.64500 42.27400
O  55.31400 40.42200 42.08500
C  56.38300 42.47200 42.91800
N  52.45900 46.61400 42.65400
C  53.65700 46.03700 43.01100
C  54.65000 47.10600 43.53800
C  53.91200 48.43000 43.36200
C  52.49900 47.93400 42.97700
C  55.16800 46.89100 45.04400
C  54.52200 49.40200 42.28000
C  54.65700 50.91100 42.82900
N  49.74400 47.16900 42.43300
C  50.09400 48.45600 42.68600
C  48.92000 49.35700 42.64700
C  47.88800 48.46600 42.20800
C  48.48800 47.18200 41.97500
C  48.90900 50.79500 42.91600
C  46.51000 48.47100 41.87600
O  45.63200 49.38100 41.88000
C  46.26200 46.98200 41.26500
C  44.97500 46.45800 41.83400
O  44.89600 45.87800 42.91800
O  43.94800 46.72900 40.96300
C  42.61000 46.15900 41.35400
H  50.10400 41.18700 40.94200
H  55.15600 44.57600 42.84500
H  51.50500 49.79900 43.33700
H  45.95000 43.77700 41.20400
H  47.67300 41.72800 40.20800
H  46.43500 41.97500 42.65200
H  48.21400 41.49200 42.73600
H  46.99600 40.58500 41.87400
H  47.08100 43.21100 38.65800
H  46.85000 44.95300 38.86000
H  44.75900 44.78800 38.70000
H  44.48200 43.39700 39.74500
H  51.87700 39.95300 40.38300
H  51.75000 39.63100 42.14600
H  53.27800 39.52700 41.37700
H  56.00500 42.94700 43.82400
H  56.51400 43.26000 42.17500
H  57.29600 41.88700 43.02800
H  55.56900 47.09900 42.95100
H  53.66000 48.97000 44.27400
H  56.25500 46.90200 45.12200
H  54.74700 45.93100 45.34200
H  54.65200 47.54100 45.75100
H  53.84600 49.53700 41.43600
H  55.50600 49.05800 41.96100
H  54.62600 51.05800 43.90900
H  53.92500 51.57500 42.37000
H  55.67400 51.23000 42.60200
H  49.81200 51.00200 43.49000
H  47.92000 51.07100 43.28100
H  49.03200 51.46100 42.06100
H  46.06000 47.04400 40.19500
H  41.97200 46.26500 40.47600
H  42.17700 46.69800 42.19700
H  42.68300 45.08700 41.53700

