158

Mg 17.21500 -1.81800 28.11800
C  16.25300 0.02000 30.96500
C  19.37500 -3.62900 30.26400
C  18.86800 -3.08800 25.47100
C  15.59000 0.44800 26.02800
N  17.88600 -1.68900 30.35200
C  17.25200 -0.94000 31.31500
C  17.69400 -1.31800 32.73800
C  18.83400 -2.37500 32.51600
C  18.71600 -2.62400 30.96300
C  20.27500 -1.95800 32.93500
C  16.59900 -1.89900 33.68600
C  16.36600 -1.07400 34.96100
H  17.57400 -0.64500 35.82400
N  18.77100 -3.28600 27.83300
C  19.48000 -3.95500 28.82600
C  20.35300 -4.93900 28.27700
C  20.25600 -4.74800 26.85400
C  19.25500 -3.71300 26.68900
C  21.19400 -5.91800 29.01000
C  20.86100 -5.49400 25.70700
O  20.50800 -5.34600 24.52800
C  21.88800 -6.51400 25.95900
N  17.23500 -1.37500 26.08500
C  17.92500 -2.06200 25.17700
C  17.60600 -1.65100 23.72500
C  16.32300 -0.82000 23.91900
C  16.41400 -0.53000 25.40000
C  18.83400 -0.85200 23.13000
C  15.00200 -1.61400 23.47300
C  14.36200 -1.36800 22.08100
N  16.12300 -0.05100 28.40900
C  15.49500 0.72800 27.43500
C  14.76200 1.73000 28.20200
C  14.90700 1.43000 29.52100
C  15.83800 0.43100 29.61900
C  13.89900 2.77300 27.63700
C  14.45000 1.75800 30.82800
O  13.59400 2.53800 31.19400
C  15.33500 0.92700 31.79800
C  16.17100 1.93000 32.45800
O  17.23700 2.37000 32.03900
O  15.49200 2.37600 33.57200
C  16.08600 3.35500 34.48100
H  19.97500 -4.21900 30.96000
H  19.42800 -3.39100 24.58400
H  14.93600 0.96800 25.32500
H  18.02400 -0.37200 33.16700
H  18.42500 -3.31000 32.90100
H  21.05300 -2.06600 32.17900
H  20.56900 -2.50100 33.83300
H  20.35800 -0.95500 33.35400
H  16.77700 -2.91900 34.02700
H  15.66400 -1.92300 33.12500
H  15.80500 -1.68900 35.66500
H  15.74400 -0.19700 34.78000
H  20.93000 -6.94900 28.77600
H  20.98900 -5.90800 30.08100
H  22.21000 -5.54100 28.89400
H  22.30700 -6.81100 24.99800
H  21.25800 -7.25400 26.45300
H  22.64100 -6.04400 26.59200
H  17.38400 -2.54900 23.14900
H  16.45300 0.10600 23.35900
H  19.77900 -0.83800 23.67400
H  18.50100 0.17300 22.96600
H  19.00700 -1.34300 22.17200
H  14.21800 -1.27600 24.15100
H  15.17400 -2.67900 23.62600
H  13.57900 -2.10900 21.91900
H  15.17700 -1.43100 21.36000
H  13.99000 -0.34400 22.10600
H  14.40200 3.74000 27.62300
H  13.10300 2.82500 28.37900
H  13.37000 2.48500 26.72900
H  14.70800 0.43700 32.54300
H  15.33400 3.68900 35.19600
H  16.51600 4.23300 33.99900
H  16.92500 2.88000 34.98900
Mg 42.47900 41.78500 26.92000
C  41.81900 44.33300 29.24600
C  43.37700 39.76700 29.50900
C  43.17600 39.51600 24.65000
C  41.82200 44.07500 24.24700
N  42.65000 42.07300 29.03100
C  42.18300 43.10200 29.81900
C  42.17900 42.75400 31.28700
C  42.92600 41.38000 31.31000
C  42.97600 41.03600 29.84800
C  44.25500 41.33100 32.02500
C  40.72800 42.87400 31.85600
C  40.44800 43.69800 33.05600
H  39.87800 43.02800 34.33900
N  43.18000 39.89400 27.06200
C  43.43700 39.18500 28.23900
C  43.79200 37.78700 27.86800
C  43.75500 37.69100 26.43600
C  43.33500 39.08100 25.96500
C  43.98400 36.76600 28.87700
C  44.05500 36.49000 25.52000
O  43.93900 36.46700 24.27500
C  44.43500 35.10700 26.10900
N  42.47300 41.81700 24.68200
C  42.77700 40.68600 24.03200
C  42.58600 40.77600 22.51500
C  42.04500 42.27900 22.35600
C  42.05600 42.78300 23.85600
C  43.88700 40.53800 21.74300
C  40.65600 42.51100 21.62600
C  39.55700 41.70800 22.29500
N  42.05400 43.88400 26.73300
C  41.70500 44.59000 25.57500
C  41.34500 45.90600 25.96500
C  41.29900 45.82200 27.44100
C  41.73600 44.56400 27.80300
C  41.05700 47.07400 25.01100
C  40.99500 46.59900 28.64400
O  40.55800 47.72600 28.83500
C  41.27300 45.62900 29.86600
C  42.28900 46.31300 30.72300
O  43.42500 46.71200 30.43000
O  41.69300 46.39200 31.99500
C  42.38400 47.28400 33.00600
H  43.56700 39.08900 30.34400
H  43.33000 38.64500 24.01000
H  41.58600 44.82100 23.48500
H  42.77000 43.55200 31.73600
H  42.19500 40.73500 31.79700
H  44.37800 40.72300 32.92100
H  44.53300 42.36300 32.23900
H  44.99600 40.98800 31.30400
H  40.20200 41.92900 31.99200
H  40.11000 43.29000 31.06100
H  39.73700 44.49300 32.82700
H  41.45100 44.05600 33.28600
H  43.96600 37.13000 29.90400
H  44.94100 36.27000 28.71400
H  43.19400 36.04500 28.67200
H  43.50300 34.56400 26.26400
H  44.95200 35.12200 27.06900
H  45.17900 34.56500 25.52500
H  41.87300 40.04800 22.12700
H  42.78500 42.86000 21.80500
H  44.73800 40.27200 22.36900
H  44.18400 41.48400 21.29100
H  43.72000 39.79700 20.96100
H  40.72400 42.12200 20.61000
H  40.43600 43.57800 21.64500
H  39.25900 40.94100 21.58000
H  38.73500 42.31700 22.67200
H  39.86100 41.23300 23.22800
H  40.32100 47.84400 25.24300
H  40.73300 46.76600 24.01700
H  41.99500 47.61600 24.89100
H  40.35200 45.50200 30.43600
H  43.23300 47.78400 32.54100
H  42.74700 46.69600 33.84900
H  41.60700 47.90300 33.45500

