158

Mg 27.48100 49.84100 25.88600
C  25.49500 51.00500 28.61800
C  29.77600 48.75100 28.25000
C  29.40100 48.71000 23.38400
C  25.37600 51.36400 23.73400
N  27.51600 49.80100 28.20700
C  26.61800 50.28700 29.11600
C  27.03000 49.98500 30.62400
C  28.55000 49.79100 30.37200
C  28.70500 49.49400 28.81600
C  29.36400 51.12100 30.68000
C  26.36000 48.72300 31.33600
C  25.69300 48.88200 32.69400
H  26.42100 49.61500 33.84000
N  29.28800 48.80100 25.75300
C  30.04200 48.42400 26.90200
C  31.14200 47.55400 26.47300
C  30.98500 47.45800 25.06500
C  29.91600 48.34000 24.67500
C  32.10700 46.83600 27.38200
C  31.65100 46.57200 24.10600
O  31.39200 46.60100 22.88800
C  32.68900 45.62000 24.55200
N  27.59400 50.16600 23.84000
C  28.36300 49.51500 22.98000
C  27.83500 49.47700 21.57400
C  26.40700 50.17800 21.70100
C  26.44000 50.62600 23.13100
C  28.77600 50.23800 20.53200
C  25.28100 49.10100 21.40900
C  25.11000 47.97900 22.47000
N  25.77700 51.01300 26.07600
C  25.05100 51.59200 25.05000
C  23.82200 52.17200 25.58800
C  23.97000 51.97700 27.00400
C  25.22200 51.32200 27.24800
C  22.67300 52.85700 24.71900
C  23.35400 52.30800 28.30900
O  22.39000 53.09900 28.54800
C  24.26500 51.57800 29.44400
C  24.64300 52.58200 30.50100
O  25.18000 53.63900 30.26100
O  24.19200 52.10600 31.74200
C  24.55100 52.86900 32.94600
H  30.50200 48.45000 29.00800
H  29.75100 48.25900 22.45300
H  24.53900 51.40200 23.03300
H  26.82900 50.89200 31.19300
H  28.98300 49.02600 31.01700
H  30.15600 51.26500 29.94500
H  29.79000 51.07700 31.68300
H  28.69200 51.96900 30.55300
H  27.06900 47.89800 31.40300
H  25.51800 48.47200 30.69000
H  25.41000 47.87600 33.00200
H  24.79600 49.49500 32.61100
H  31.84400 46.98300 28.43000
H  33.14500 47.14900 27.27000
H  32.00500 45.76800 27.19400
H  32.10900 44.99500 25.23000
H  33.54000 46.13600 24.99600
H  33.05000 45.04700 23.69800
H  27.73300 48.45400 21.21300
H  26.40700 50.98500 20.96900
H  29.80400 50.06600 20.84800
H  28.55100 51.29700 20.40100
H  28.61300 49.71000 19.59200
H  25.61400 48.58300 20.51000
H  24.33000 49.57100 21.15800
H  25.51200 48.28000 23.43700
H  25.66800 47.08500 22.19400
H  24.09400 47.68500 22.73400
H  22.60800 52.38000 23.74100
H  23.01100 53.89000 24.64300
H  21.71100 52.79300 25.22800
H  23.88000 50.66000 29.88800
H  23.93800 53.76600 33.02900
H  25.62500 53.05100 32.99900
H  24.48000 52.13900 33.75200
Mg 17.26000 52.12400 26.33700
C  19.17200 50.77300 28.99000
C  14.84500 52.82800 28.70700
C  15.11500 52.92700 23.83900
C  19.42100 50.75000 24.07500
N  17.09800 51.80200 28.59200
C  17.97900 51.34500 29.45100
C  17.52000 51.56600 30.97200
C  16.07400 51.98500 30.75200
C  16.00400 52.28900 29.22600
C  15.04600 50.92700 31.19400
C  18.45900 52.56200 31.78500
C  18.72900 52.23800 33.31200
H  17.62300 51.63300 34.03600
N  15.33000 52.94100 26.30700
C  14.49300 53.14400 27.34000
C  13.28800 53.73700 26.85300
C  13.33500 53.80400 25.43100
C  14.63800 53.18900 25.13400
C  12.18600 54.11600 27.86100
C  12.34000 54.35200 24.44100
O  12.53200 54.51800 23.20900
C  10.99800 54.89200 24.90900
N  17.26700 52.02200 24.27800
C  16.26900 52.26000 23.42800
C  16.61000 51.88400 21.99500
C  18.08700 51.45400 22.09600
C  18.30600 51.44800 23.56700
C  15.77800 50.99000 21.11700
C  18.94200 52.48800 21.36400
C  19.24000 53.91000 21.91500
N  19.01100 51.14700 26.43200
C  19.81300 50.62200 25.40700
C  20.91300 49.92800 25.90800
C  20.73200 49.96800 27.32000
C  19.56100 50.74400 27.60800
C  22.09600 49.39800 25.09800
C  21.31000 49.54800 28.55000
O  22.26900 48.87200 28.81800
C  20.41700 50.18600 29.68000
C  20.12300 49.04200 30.76700
O  19.51000 48.00300 30.64300
O  20.56900 49.43300 31.96800
C  20.51100 48.49500 33.06900
H  14.09700 53.00200 29.48300
H  14.55900 53.29000 22.97300
H  20.07000 50.35800 23.28900
H  17.48400 50.60500 31.48700
H  15.83200 52.90700 31.28000
H  15.52100 50.13500 31.77300
H  14.66300 50.38000 30.33300
H  14.23600 51.34800 31.78900
H  18.06200 53.57100 31.67400
H  19.40800 52.51000 31.25100
H  18.99200 53.22600 33.69000
H  19.55200 51.54400 33.48000
H  12.37300 55.18300 27.97900
H  12.32700 53.51200 28.75800
H  11.17200 53.93500 27.50700
H  11.14300 55.70200 25.62400
H  10.48400 54.03400 25.34300
H  10.45200 55.35800 24.09000
H  16.60700 52.88200 21.55800
H  18.33300 50.47200 21.69200
H  16.22400 50.10300 20.66600
H  15.26500 51.61500 20.38600
H  14.99300 50.59100 21.75900
H  18.46900 52.65500 20.39600
H  19.92600 52.03300 21.24900
H  20.23800 54.08900 22.31500
H  18.43600 54.29100 22.54500
H  19.13100 54.58800 21.06900
H  22.10500 49.99400 24.18600
H  21.79600 48.35900 24.96200
H  23.02700 49.37900 25.66500
H  21.07100 50.96400 30.07200
H  21.22700 48.91300 33.77700
H  20.66300 47.41700 33.03300
H  19.55300 48.46300 33.58700

