158

Mg 3.05300 -1.56000 44.70300
C  6.55200 -0.84500 44.51200
C  2.59600 1.16300 42.65600
C  -0.07500 -2.59600 44.69700
C  3.99200 -4.85300 46.06800
N  4.51800 0.07900 43.80000
C  5.84400 0.06500 43.69100
C  6.34800 1.23600 42.76300
C  4.96700 1.90200 42.27600
C  3.92900 1.01800 42.96400
C  4.76600 3.44500 42.64100
C  7.15500 0.74700 41.54000
C  8.54200 1.31300 41.30400
H  8.58100 2.30000 40.04600
N  1.51900 -0.82900 43.74400
C  1.44400 0.31900 43.06100
C  0.09800 0.57700 42.75500
C  -0.68900 -0.47000 43.25300
C  0.21100 -1.37800 43.98400
C  -0.32500 1.95400 42.11300
C  -2.18000 -0.52100 43.18300
O  -2.80300 0.36200 42.60000
C  -3.04100 -1.61700 43.85400
N  2.12100 -3.54200 45.37100
C  0.81700 -3.60000 45.17300
C  0.30300 -5.00700 45.73300
C  1.61200 -5.76300 45.94500
C  2.62400 -4.68600 45.83300
C  -0.58900 -4.78600 46.98400
C  1.86300 -6.93400 44.89400
C  2.84800 -8.06200 45.15800
N  4.84400 -2.62400 45.23600
C  5.00300 -3.85300 45.88800
C  6.44200 -3.90900 46.22200
C  7.04000 -2.73700 45.73400
C  5.99900 -2.05000 45.10800
C  7.07800 -4.97300 47.04500
C  8.26900 -2.02600 45.65600
O  9.37800 -2.32900 46.06500
C  8.02600 -0.75900 44.83000
C  8.22200 0.37400 45.70700
O  7.46800 0.73400 46.60200
O  9.21200 1.23600 45.28700
C  9.08900 2.69800 45.68500
H  2.45600 1.87200 41.83800
H  -1.09400 -2.98600 44.74400
H  4.21400 -5.77600 46.60700
H  6.90000 1.92800 43.39900
H  4.87700 1.78900 41.19600
H  4.45600 3.57800 43.67800
H  4.03600 3.95800 42.01600
H  5.70900 3.99000 42.67500
H  6.60500 0.82200 40.60200
H  7.20100 -0.33800 41.63000
H  9.08000 0.48900 40.83600
H  9.01300 1.63500 42.23300
H  0.51300 2.39300 41.57100
H  -0.60000 2.64200 42.91300
H  -1.15900 1.84300 41.42000
H  -4.11200 -1.41700 43.84100
H  -2.74200 -1.41900 44.88300
H  -2.79300 -2.66600 43.68900
H  -0.21300 -5.40100 44.85700
H  1.90200 -6.04400 46.95700
H  -1.06500 -3.84900 47.27400
H  -0.06000 -5.08000 47.89000
H  -1.35500 -5.55100 46.85500
H  2.26700 -6.45800 44.00100
H  0.87300 -7.32500 44.65500
H  3.44400 -7.91600 46.05900
H  3.45000 -8.19000 44.25900
H  2.41800 -9.06000 45.24900
H  7.20000 -5.79700 46.34100
H  6.33100 -5.07300 47.83200
H  8.03700 -4.58500 47.39000
H  8.71000 -0.77800 43.98100
H  8.14100 2.92600 46.17100
H  9.15400 3.31700 44.79100
H  9.97200 2.99900 46.24900
Mg 25.97300 0.85700 29.05000
C  28.03000 0.37600 31.93300
C  23.39700 1.34100 31.19500
C  24.00100 0.81600 26.37400
C  28.73500 -0.00000 27.10200
N  25.81500 0.60100 31.38000
C  26.75300 0.61900 32.32600
C  26.06200 0.91300 33.74900
C  24.58200 1.14200 33.36300
C  24.62700 1.09800 31.83100
C  23.52400 0.18400 33.87600
C  26.67700 2.19900 34.42500
C  26.06500 2.70300 35.73400
H  26.98400 2.88600 36.96900
N  23.95400 0.99700 28.85200
C  23.04600 1.22800 29.81700
C  21.67200 1.27000 29.27700
C  21.90600 1.14500 27.81300
C  23.34600 1.08400 27.60900
C  20.44800 1.41300 30.10800
C  20.88200 1.32400 26.71500
O  21.17300 1.22100 25.53500
C  19.45100 1.65600 27.02500
N  26.38500 0.63100 26.98700
C  25.34800 0.54700 26.07400
C  25.95400 0.29400 24.65800
C  27.48200 0.19000 24.92900
C  27.60000 0.36200 26.42500
C  25.28700 -0.85100 23.83800
C  28.32800 1.20100 24.23700
C  28.05300 2.72100 24.60300
N  28.02300 0.35400 29.34600
C  29.02900 0.01400 28.51400
C  30.19400 -0.34500 29.25000
C  29.86400 -0.11500 30.62100
C  28.56100 0.29700 30.56300
C  31.58100 -0.72700 28.72300
C  30.38100 -0.29800 32.03200
O  31.44900 -0.63200 32.51900
C  29.15300 0.26900 32.86300
C  28.98100 -0.81000 33.85400
O  28.35400 -1.82200 33.62100
O  29.63700 -0.48700 34.99500
C  29.24900 -1.37600 36.10300
H  22.51700 1.40500 31.83800
H  23.40000 0.80600 25.46200
H  29.59000 -0.38800 26.54300
H  26.23100 0.06200 34.40800
H  24.35100 2.18000 33.60300
H  23.05800 -0.44000 33.11300
H  22.67900 0.73800 34.28600
H  23.92300 -0.35300 34.73600
H  26.77900 2.95100 33.64400
H  27.69900 1.87600 34.62400
H  25.33100 1.97500 36.08200
H  25.64800 3.67300 35.46600
H  20.00400 2.35200 29.77800
H  20.69600 1.38100 31.16900
H  19.86900 0.53800 29.81300
H  19.28700 1.03100 27.90300
H  18.93600 1.36000 26.11100
H  19.36100 2.70600 27.30600
H  25.79600 1.19200 24.06100
H  27.84500 -0.81800 24.72800
H  24.76900 -0.49400 22.94800
H  24.49500 -1.16700 24.51600
H  26.07400 -1.59000 23.68700
H  28.42500 0.90600 23.19200
H  29.35700 0.97400 24.51500
H  27.08800 2.96800 25.04400
H  27.99100 3.37000 23.73000
H  28.86000 3.11400 25.22200
H  31.50600 -1.00300 27.67200
H  32.05600 -1.48300 29.34900
H  32.20700 0.15400 28.86800
H  29.40000 1.19300 33.38600
H  29.07600 -2.37400 35.70000
H  28.30800 -1.00900 36.51200
H  30.09700 -1.40000 36.78700

