158

Mg 48.61100 44.90300 42.95000
C  45.18900 45.15600 41.77000
C  48.42200 41.53500 42.39800
C  51.97500 44.79300 43.30500
C  48.74200 48.30400 42.99100
N  46.88300 43.46400 42.15600
C  45.63500 43.76700 41.79000
C  44.88300 42.52100 41.32300
C  45.92900 41.33600 41.68900
C  47.15700 42.15100 42.13400
C  45.49500 40.31700 42.77500
C  44.38500 42.57300 39.89800
C  45.08800 43.50300 38.80500
H  45.49700 42.77500 37.41800
N  49.99300 43.37600 42.89300
C  49.69200 42.07400 42.71000
C  50.85400 41.34000 42.80500
C  51.92600 42.19500 43.08000
C  51.36300 43.54400 43.10800
C  50.92100 39.87700 42.60900
C  53.37400 41.76300 43.24700
O  53.78400 40.60000 43.14300
C  54.42200 42.70800 43.61900
N  50.21300 46.35500 43.09700
C  51.49700 46.06700 43.27400
C  52.32100 47.38300 43.28900
C  51.23800 48.51700 43.22300
C  49.93300 47.68200 43.06600
C  53.30100 47.46100 44.41500
C  51.38300 49.51600 42.05500
C  51.02200 50.97200 42.26600
N  47.10700 46.44600 42.73100
C  47.42200 47.81300 42.73200
C  46.27800 48.55800 42.34500
C  45.32000 47.54200 41.96600
C  45.93900 46.29500 42.22500
C  46.07500 50.06300 42.21200
C  44.04400 47.27700 41.37800
O  43.18300 48.05200 40.95400
C  43.92200 45.71700 41.15100
C  42.68900 45.25700 41.80900
O  41.84200 44.56700 41.26300
O  42.53300 45.78800 43.04300
C  41.12300 45.79500 43.67200
H  48.35000 40.46500 42.19300
H  53.04500 44.62400 43.16600
H  48.76000 49.39200 43.07900
H  44.02200 42.47700 41.99000
H  46.08100 40.75900 40.77700
H  45.27700 39.35900 42.30300
H  44.56100 40.53600 43.29200
H  46.28500 40.11700 43.50000
H  43.33500 42.86600 39.88800
H  44.40800 41.55200 39.51800
H  45.90500 43.99700 39.33200
H  44.30700 44.13200 38.37900
H  51.61700 39.43200 43.32000
H  51.38400 39.66000 41.64600
H  49.98100 39.32700 42.65100
H  55.32100 42.16300 43.90700
H  54.05900 43.36100 44.41300
H  54.66900 43.37300 42.79200
H  52.92800 47.45100 42.38700
H  51.26900 49.09400 44.14700
H  53.10700 46.74700 45.21600
H  53.39000 48.48800 44.76900
H  54.26200 47.13400 44.01800
H  50.74700 49.20200 41.22800
H  52.39100 49.66600 41.66800
H  51.71800 51.60700 41.71800
H  51.03800 51.28800 43.30900
H  50.09600 51.21300 41.74400
H  46.39200 50.59800 43.10700
H  45.04600 50.42500 42.20800
H  46.65100 50.31000 41.32000
H  43.84500 45.51800 40.08300
H  40.41100 46.35700 43.06800
H  41.16500 46.37900 44.59200
H  40.80200 44.76000 43.78900
Mg 36.56400 49.44900 24.87800
C  36.83100 47.41600 27.69600
C  35.63100 52.02200 27.05900
C  36.40000 51.35800 22.22100
C  37.97100 46.80000 23.00900
N  36.12000 49.61400 27.18200
C  36.46400 48.70100 28.10600
C  36.45200 49.34800 29.47000
C  35.86200 50.75700 29.26500
C  35.86400 50.85400 27.72300
C  34.44700 51.08500 29.91500
C  37.92200 49.33200 30.04300
C  38.06600 49.26600 31.54000
H  36.90600 49.00600 32.50600
N  35.82800 51.37100 24.72500
C  35.57100 52.31300 25.66500
C  35.08300 53.57400 24.97800
C  35.33100 53.40000 23.56700
C  35.91900 52.03200 23.41600
C  34.38000 54.54600 25.77300
C  34.99100 54.33900 22.36800
O  35.23600 54.00300 21.21000
C  34.27100 55.69200 22.45400
N  36.80500 48.97500 22.72700
C  36.80000 50.05300 21.90500
C  37.30100 49.62300 20.54100
C  38.12800 48.36300 20.87200
C  37.64900 47.98400 22.28400
C  36.13100 49.49700 19.49800
C  39.63500 48.54900 20.71300
C  40.33600 47.21900 20.40600
N  37.06500 47.43500 25.18300
C  37.58200 46.46400 24.31300
C  37.85900 45.27000 25.07400
C  37.49000 45.57900 26.35400
C  37.11100 46.94500 26.42100
C  38.60900 44.11200 24.67900
C  37.50100 45.00700 27.63500
O  37.68000 43.87800 27.99200
C  37.19300 46.26000 28.58900
C  36.06900 45.94800 29.54100
O  34.90000 46.15700 29.32300
O  36.59000 45.51400 30.70700
C  35.64800 44.97300 31.65600
H  35.47100 52.82900 27.77700
H  36.48100 51.98400 21.32900
H  38.71300 46.11200 22.59700
H  35.81100 48.76000 30.12700
H  36.51400 51.58500 29.54400
H  33.78600 51.33700 29.08600
H  34.45500 51.92800 30.60500
H  33.87000 50.25400 30.32100
H  38.24500 50.33200 29.75400
H  38.54100 48.59100 29.53600
H  38.59700 50.17400 31.82300
H  38.83500 48.50300 31.66200
H  33.71100 54.11300 26.51700
H  33.78600 55.25700 25.19800
H  35.16300 55.11000 26.27900
H  34.88800 56.36900 23.04500
H  33.33000 55.42700 22.93700
H  34.16300 56.09100 21.44500
H  38.03200 50.37800 20.25300
H  37.82400 47.67200 20.08500
H  35.23300 49.40300 20.10900
H  36.01100 48.63000 18.84900
H  36.10600 50.38800 18.87100
H  40.09900 48.73000 21.68300
H  39.99300 49.24400 19.95400
H  39.75700 46.69000 19.64900
H  40.35400 46.65100 21.33600
H  41.34900 47.42200 20.05700
H  38.91500 44.17700 23.63500
H  37.95600 43.24300 24.75600
H  39.57700 43.86800 25.11600
H  38.00700 46.64100 29.20500
H  35.24600 44.01100 31.33800
H  34.82300 45.66400 31.83200
H  36.17900 45.00800 32.60700

