158

Mg -13.06700 38.29000 42.08200
C  -11.19300 35.41900 40.90600
C  -11.01300 40.32000 40.11400
C  -15.18000 40.90000 42.82100
C  -15.31300 36.06900 43.55600
N  -11.39300 37.84400 40.57500
C  -10.65500 36.64800 40.45500
C  -9.34900 36.80800 39.67900
C  -9.30700 38.43700 39.52500
C  -10.62700 38.92300 40.12900
C  -8.11100 39.09100 40.27800
C  -9.22200 36.00800 38.35800
C  -8.01400 34.95000 38.39100
H  -7.20200 34.77400 37.02500
N  -13.13300 40.28000 41.55800
C  -12.16400 40.89800 40.79700
C  -12.47600 42.28900 40.76000
C  -13.61200 42.56300 41.59100
C  -14.04900 41.23400 42.00800
C  -11.71000 43.33600 39.93000
C  -14.09600 43.99300 41.86500
O  -13.65000 44.99500 41.27400
C  -15.23300 44.17800 42.85100
N  -15.07500 38.46800 43.02300
C  -15.70400 39.65700 43.19300
C  -17.03000 39.38900 43.87600
C  -17.05600 37.85500 44.09000
C  -15.73900 37.42100 43.50800
C  -17.26400 40.09600 45.21500
C  -18.30800 37.11600 43.49800
C  -19.42800 36.91600 44.58000
N  -13.36600 36.13800 42.17600
C  -14.26700 35.39600 42.86700
C  -13.92200 33.96600 42.75000
C  -12.77100 33.97200 42.00000
C  -12.42800 35.31900 41.70800
C  -14.65400 32.87100 43.44500
C  -11.76700 33.14500 41.44500
O  -11.76700 31.92700 41.44000
C  -10.61800 34.01600 40.83600
C  -9.25700 33.72900 41.46400
O  -8.50000 32.75900 41.13600
O  -9.00700 34.59700 42.44300
C  -7.76600 34.34900 43.20500
H  -10.34800 40.99300 39.56900
H  -15.87900 41.71600 43.01400
H  -16.05900 35.36000 43.92100
H  -8.51400 36.50500 40.31100
H  -9.31900 38.86100 38.52100
H  -7.32600 39.09200 39.52200
H  -7.85400 38.41900 41.09700
H  -8.38400 40.04900 40.72000
H  -9.11000 36.52000 37.40200
H  -10.14400 35.42700 38.33600
H  -8.36300 33.94200 38.61600
H  -7.27900 35.29000 39.12100
H  -11.21200 44.10100 40.52400
H  -12.51800 43.77400 39.34400
H  -11.04600 42.81100 39.24300
H  -16.23000 44.27400 42.42200
H  -15.00300 45.13900 43.31100
H  -15.06200 43.41400 43.61000
H  -17.90300 39.67400 43.28800
H  -16.94500 37.59300 45.14200
H  -16.38500 40.65400 45.53600
H  -17.65100 39.43900 45.99400
H  -18.04200 40.85600 45.13100
H  -18.06200 36.09600 43.20400
H  -18.71500 37.50400 42.56500
H  -19.15300 37.60500 45.37900
H  -19.42600 35.95000 45.08500
H  -20.42400 37.10300 44.18000
H  -14.27300 31.94400 43.01700
H  -15.71000 32.91100 43.17800
H  -14.55400 32.92600 44.52900
H  -10.69000 33.57400 39.84300
H  -7.76800 33.34200 43.62400
H  -7.79000 35.07100 44.02100
H  -6.83000 34.61600 42.71300
Mg -13.36400 16.02200 42.05300
C  -10.19200 14.59500 41.32800
C  -12.21100 19.07300 40.67200
C  -16.52500 17.13200 41.95000
C  -14.58700 12.75600 42.74200
N  -11.41500 16.71300 40.99100
C  -10.19200 15.98000 40.99800
C  -8.97900 16.86800 40.56500
C  -9.64800 18.25400 40.60800
C  -11.21000 18.05900 40.77400
C  -9.13700 19.30500 41.68300
C  -8.25400 16.50400 39.27500
C  -6.84900 15.98800 39.31100
H  -6.53500 14.69100 38.61900
N  -14.22700 17.83700 41.55500
C  -13.56100 18.98900 40.99600
C  -14.50000 20.03600 40.66000
C  -15.79300 19.55100 41.12100
C  -15.55600 18.12500 41.67700
C  -14.15000 21.34700 40.04600
C  -17.06100 20.34800 41.07400
O  -17.09800 21.44500 40.43600
C  -18.35900 19.82200 41.65700
N  -15.34600 15.15100 42.58700
C  -16.47400 15.80300 42.38800
C  -17.74400 14.88100 42.60300
C  -17.05800 13.49600 42.96200
C  -15.54100 13.80800 42.72500
C  -18.75400 15.41500 43.68700
C  -17.68000 12.26700 42.18900
C  -17.12600 11.93300 40.74300
N  -12.62900 14.06500 42.22900
C  -13.18300 12.85500 42.57600
C  -12.21300 11.84800 42.76300
C  -11.02800 12.43000 42.23300
C  -11.30700 13.80600 41.94100
C  -12.48800 10.57500 43.27500
C  -9.65600 12.25700 41.94800
O  -8.97500 11.21600 42.13000
C  -9.05100 13.59700 41.32500
C  -8.05800 13.98100 42.33100
O  -8.38100 14.54600 43.36700
O  -6.78600 13.63400 41.92700
C  -5.65400 13.63900 42.91200
H  -11.89000 20.10000 40.48600
H  -17.55100 17.48900 41.84000
H  -14.94100 11.74400 42.94600
H  -8.25400 16.68400 41.35800
H  -9.53800 18.75200 39.64400
H  -8.89000 20.26100 41.22100
H  -8.32600 18.82000 42.22700
H  -9.93200 19.36200 42.42600
H  -8.12900 17.49000 38.82700
H  -8.78400 15.88100 38.55500
H  -6.45100 15.81600 40.31100
H  -6.12600 16.72900 38.97000
H  -13.75800 21.99700 40.82900
H  -14.89100 21.93000 39.49900
H  -13.37200 21.21500 39.29500
H  -18.99100 20.70600 41.74400
H  -18.26000 19.46600 42.68200
H  -18.78100 19.05700 41.00600
H  -18.26200 14.73900 41.65500
H  -17.00800 13.31600 44.03600
H  -19.72900 15.48300 43.20400
H  -18.62100 16.45700 43.97500
H  -18.88700 14.72600 44.52100
H  -18.75400 12.42200 42.08900
H  -17.44400 11.41300 42.82400
H  -16.74000 10.92100 40.62200
H  -16.22800 12.50700 40.51200
H  -17.89900 12.04600 39.98300
H  -12.90700 10.72500 44.27000
H  -11.54000 10.03800 43.27200
H  -13.24300 10.04200 42.69700
H  -8.54800 13.41300 40.37600
H  -5.31000 14.67400 42.91400
H  -4.91200 12.87800 42.67400
H  -5.89500 13.42000 43.95200

