158

Mg 0.56500 8.67200 27.23400
C  1.33800 10.63700 29.93000
C  0.14400 5.97500 29.43400
C  0.04000 6.63200 24.59000
C  1.37800 11.33700 25.07100
N  0.92600 8.34500 29.43900
C  0.95900 9.38500 30.37600
C  0.85000 8.81700 31.82200
C  0.69800 7.26500 31.56400
C  0.54100 7.11100 30.02000
C  1.79300 6.34600 32.09700
C  -0.25100 9.44600 32.70200
C  0.09200 9.90500 34.12000
H  1.17800 9.20400 34.87800
N  0.04700 6.61300 27.06000
C  -0.12600 5.65500 28.03300
C  -0.57400 4.41600 27.51700
C  -0.73700 4.60400 26.10900
C  -0.26500 6.00500 25.80500
C  -0.52600 3.27300 28.50300
C  -1.23100 3.62500 25.12800
O  -1.58000 3.90900 23.98300
C  -1.30400 2.23500 25.55700
N  0.81100 8.89000 25.14700
C  0.51300 7.90300 24.29100
C  0.74800 8.43000 22.85900
C  0.74000 10.00200 23.03300
C  1.00800 10.05100 24.50100
C  2.08500 7.99600 22.15200
C  -0.68500 10.63400 22.79100
C  -1.24900 10.99200 21.37200
N  1.27300 10.66000 27.34400
C  1.48700 11.63800 26.43900
C  1.85200 12.83900 27.10300
C  1.79900 12.50700 28.45600
C  1.49800 11.11800 28.57500
C  2.23500 14.13800 26.41900
C  1.90900 13.08600 29.77600
O  2.07700 14.22100 30.12900
C  1.43400 11.90900 30.75400
C  2.59300 11.73800 31.75200
O  3.61300 11.11200 31.56500
O  2.26200 12.48900 32.85200
C  3.14900 12.55900 33.94400
H  0.16700 5.24200 30.24400
H  -0.14400 5.95800 23.75100
H  1.47200 12.09200 24.28700
H  1.78000 8.94700 32.37500
H  -0.26700 6.96400 31.97200
H  2.67300 6.86900 32.47100
H  2.04200 5.48800 31.47100
H  1.22800 5.92100 32.92700
H  -1.01800 8.71200 32.94900
H  -0.81200 10.29300 32.30800
H  -0.86100 9.75300 34.62700
H  0.25800 10.98200 34.09900
H  -0.54300 2.25800 28.10700
H  -1.42600 3.43900 29.09500
H  0.22600 3.27300 29.29100
H  -1.62200 1.56400 24.75800
H  -1.94000 2.03400 26.41900
H  -0.25200 2.06800 25.78900
H  -0.11400 8.13300 22.26100
H  1.50300 10.43400 22.38600
H  2.70000 8.74100 21.64800
H  1.75800 7.18100 21.50700
H  2.76700 7.58100 22.89400
H  -0.71100 11.58900 23.31400
H  -1.41100 10.01300 23.31500
H  -0.56300 10.59300 20.62500
H  -1.27700 12.08100 21.36900
H  -2.24100 10.55300 21.26700
H  1.32300 14.51900 25.96000
H  2.90200 13.84300 25.60800
H  2.80700 14.73100 27.13200
H  0.50600 12.25200 31.21200
H  3.06000 13.57400 34.33400
H  4.17700 12.26600 33.73000
H  2.67100 11.90300 34.67200
Mg 8.30000 4.37800 27.41500
C  9.62200 2.57300 30.21700
C  6.44200 6.15100 29.54300
C  7.23900 5.84400 24.74700
C  9.84500 1.72500 25.40600
N  7.82100 4.08100 29.64400
C  8.64100 3.54000 30.56400
C  8.22100 3.91800 32.00100
C  7.04800 4.96100 31.72900
C  7.05200 5.06200 30.16700
C  5.66900 4.69000 32.29400
C  9.38200 4.53100 32.80500
C  8.94300 5.29200 34.12900
H  9.87100 5.20100 35.37500
N  7.08500 5.89800 27.20000
C  6.38100 6.60200 28.21500
C  5.70700 7.74000 27.59700
C  5.91000 7.58500 26.19100
C  6.74800 6.38800 25.97900
C  4.77400 8.64500 28.41600
C  5.25600 8.44900 25.11600
O  5.34100 8.16700 23.91600
C  4.55200 9.71000 25.42200
N  8.50200 3.78900 25.38000
C  7.86000 4.59600 24.52500
C  8.05800 4.04900 23.05900
C  9.10600 2.84900 23.26100
C  9.16200 2.75200 24.79500
C  6.62800 3.72100 22.47400
C  10.54300 2.95300 22.60100
C  11.10700 1.63100 21.98800
N  9.50300 2.56700 27.71700
C  9.94700 1.60700 26.81800
C  10.74800 0.59800 27.53400
C  10.66700 0.99700 28.80600
C  9.84000 2.12100 28.91300
C  11.70500 -0.43500 26.94700
C  11.16500 0.66900 30.17100
O  11.84000 -0.21200 30.62500
C  10.56600 1.80600 31.09800
C  9.70600 1.02000 32.10500
O  8.52000 0.66500 32.00400
O  10.54100 0.65500 33.17400
C  9.83400 0.21300 34.39800
H  5.90200 6.69100 30.32400
H  6.75000 6.23700 23.85300
H  10.42600 0.99200 24.84200
H  7.74500 3.04800 32.45500
H  7.40700 5.93000 32.07700
H  5.63500 3.68200 32.70700
H  5.03500 4.56100 31.41600
H  5.21100 5.46300 32.91100
H  10.13000 5.05600 32.21300
H  9.92000 3.64500 33.14100
H  7.95000 5.06100 34.51300
H  8.95100 6.32900 33.79300
H  3.74500 8.71600 28.06200
H  5.17400 9.65800 28.37500
H  4.69800 8.34600 29.46100
H  4.37600 10.43600 24.62900
H  5.25600 10.16300 26.12000
H  3.62100 9.49400 25.94500
H  8.56000 4.79900 22.44800
H  8.76000 1.88600 22.88600
H  5.86000 3.95400 23.21200
H  6.46000 2.67300 22.22700
H  6.29100 4.29400 21.61000
H  11.13700 3.26700 23.45900
H  10.60500 3.63500 21.75300
H  11.51000 1.89300 21.01000
H  10.33700 0.86100 22.03400
H  11.98600 1.34500 22.56600
H  11.75800 -1.31200 27.59200
H  12.66000 0.07200 26.81000
H  11.37600 -0.88400 26.00900
H  11.27800 2.43800 31.63000
H  9.13200 -0.60200 34.22300
H  9.34100 1.05100 34.89000
H  10.58200 -0.24700 35.04400

