158

Mg -1.87400 17.52700 25.72100
C  -2.44500 15.35000 28.59400
C  -2.78400 20.13800 27.84600
C  -1.94500 19.40500 23.07100
C  -1.78900 14.62200 23.76000
N  -2.33500 17.67200 28.01700
C  -2.46400 16.71100 29.00600
C  -2.86400 17.34200 30.32400
C  -3.09500 18.84200 30.02700
C  -2.73300 18.92600 28.54700
C  -4.58200 19.19600 30.34800
C  -1.70000 17.16500 31.35900
C  -1.97200 16.31100 32.58100
H  -2.34800 17.10500 33.80900
N  -2.28000 19.51500 25.44300
C  -2.41400 20.41700 26.49300
C  -2.35600 21.74500 25.85100
C  -2.08500 21.59800 24.44400
C  -2.08100 20.17900 24.30500
C  -2.51100 23.00100 26.61200
C  -1.72800 22.62700 23.45500
O  -1.53200 22.35800 22.28400
C  -1.65900 24.05500 23.80600
N  -2.09700 16.99500 23.71200
C  -1.85400 18.01300 22.83100
C  -1.57700 17.50100 21.40900
C  -1.42700 15.96400 21.66100
C  -1.71200 15.85600 23.17900
C  -2.64000 17.78200 20.35000
C  -0.09800 15.24700 21.28100
C  1.02100 15.52300 22.28000
N  -1.99000 15.36700 26.08900
C  -1.87900 14.35500 25.13800
C  -1.98300 13.04400 25.82800
C  -2.23300 13.38800 27.19000
C  -2.23600 14.80300 27.30000
C  -1.98200 11.71400 25.22700
C  -2.55000 12.88600 28.52700
O  -2.61800 11.75100 28.84200
C  -2.73600 14.07700 29.51300
C  -1.73900 13.84500 30.67600
O  -0.57100 14.20200 30.67100
O  -2.31400 13.11100 31.66000
C  -1.57700 12.89200 32.90900
H  -3.03000 21.01000 28.45700
H  -1.91900 20.03000 22.17500
H  -1.70300 13.71400 23.16000
H  -3.78900 16.81400 30.55700
H  -2.49100 19.60000 30.52600
H  -4.84100 18.83800 31.34400
H  -5.35400 18.66600 29.79000
H  -4.72700 20.27500 30.28800
H  -1.26000 18.14400 31.55100
H  -0.89500 16.64000 30.84500
H  -1.04100 15.77600 32.76600
H  -2.76000 15.56400 32.48600
H  -2.34300 22.92300 27.68600
H  -3.40700 23.60800 26.48400
H  -1.81200 23.76800 26.27600
H  -0.87600 24.50900 24.41300
H  -2.60100 24.35800 24.26300
H  -1.79600 24.63600 22.89300
H  -0.63700 17.93400 21.06600
H  -2.20900 15.41400 21.13700
H  -2.85300 18.84100 20.20500
H  -3.59900 17.37000 20.66200
H  -2.42900 17.28400 19.40300
H  0.22500 15.63200 20.31400
H  -0.35400 14.18800 21.24400
H  0.79500 16.32800 22.98000
H  1.94000 15.70800 21.72300
H  1.25000 14.65900 22.90400
H  -1.49800 11.87700 24.26500
H  -2.97300 11.26300 25.18700
H  -1.36900 10.94900 25.70400
H  -3.72700 14.00900 29.96200
H  -2.18500 12.93500 33.81300
H  -0.75700 13.60000 33.03500
H  -1.25900 11.85000 32.89800
Mg 40.55000 41.49200 27.13200
C  39.98000 43.60600 29.75700
C  41.54500 39.13000 29.33800
C  41.49100 39.63200 24.53000
C  39.76600 44.02800 24.93500
N  40.59600 41.36300 29.27000
C  40.18800 42.33800 30.18300
C  40.11900 41.85500 31.63800
C  40.80200 40.37700 31.43900
C  41.00300 40.30500 29.90300
C  42.09900 40.16800 32.31800
C  38.61700 41.96500 32.14300
C  38.38600 41.17900 33.35600
H  37.62400 41.87500 34.50600
N  41.42400 39.64700 26.98600
C  41.79700 38.81000 28.02200
C  42.30600 37.58700 27.49200
C  42.29400 37.66400 26.08500
C  41.76300 39.03700 25.78500
C  42.73500 36.42300 28.34800
C  42.69500 36.68400 25.01500
O  42.56800 36.94600 23.82600
C  43.37200 35.49600 25.41000
N  40.57500 41.70600 25.01200
C  40.91900 40.77000 24.13000
C  40.75600 41.16900 22.66600
C  39.95200 42.58000 22.84600
C  40.10400 42.79700 24.35900
C  42.16800 41.46300 21.91200
C  38.42100 42.38600 22.41100
C  37.68200 41.19200 22.98400
N  40.02700 43.39600 27.24100
C  39.73100 44.36300 26.29200
C  39.46800 45.65900 26.91100
C  39.57100 45.36000 28.23400
C  39.96100 44.05100 28.40900
C  39.08500 46.89100 26.14700
C  39.49400 45.91500 29.54300
O  39.19500 47.02000 29.92100
C  39.73900 44.77800 30.61100
C  40.90600 45.16300 31.52000
O  41.89900 45.74900 31.13900
O  40.63400 44.75500 32.81300
C  41.72700 44.93600 33.75100
H  41.89500 38.44300 30.11200
H  41.67600 39.00000 23.65900
H  39.58800 44.77900 24.16400
H  40.77800 42.42600 32.29300
H  40.11900 39.55100 31.64100
H  42.84200 39.65700 31.70500
H  41.76400 39.48400 33.09700
H  42.61100 41.05400 32.69500
H  38.03700 41.48500 31.35500
H  38.25700 42.99200 32.19900
H  39.30100 40.76800 33.78200
H  37.76500 40.33100 33.06900
H  42.03700 35.60200 28.18600
H  42.81300 36.67700 29.40500
H  43.74200 36.23400 27.97500
H  42.70300 34.82900 25.95400
H  44.25600 35.71700 26.00700
H  43.83400 34.92400 24.60500
H  40.26900 40.39900 22.06800
H  40.36100 43.45700 22.34400
H  43.05900 41.11000 22.43100
H  42.31800 42.52400 21.70900
H  42.19900 41.10200 20.88400
H  38.47600 42.23200 21.33400
H  37.84700 43.30800 22.50800
H  38.25000 40.57500 23.68000
H  37.36400 40.54200 22.16900
H  36.77800 41.53800 23.48500
H  38.45500 46.73800 25.27000
H  39.99400 47.38700 25.80700
H  38.45300 47.46700 26.82400
H  38.86300 44.87400 31.25300
H  42.73900 45.11500 33.38800
H  41.71100 44.06000 34.39900
H  41.46400 45.77700 34.39200

