158

Mg 46.91800 24.92500 28.41400
C  47.55800 27.01600 31.08500
C  46.22200 22.25200 30.61100
C  47.06100 22.81000 25.82200
C  48.51300 27.36600 26.28100
N  47.01100 24.63100 30.54900
C  47.15600 25.70800 31.47300
C  46.72600 25.39500 32.86000
C  46.43900 23.91800 32.74900
C  46.60300 23.53500 31.20700
C  47.44700 22.97800 33.49900
C  45.47800 26.22800 33.30900
C  45.50500 27.04600 34.66200
H  44.43200 26.85700 35.75300
N  46.62600 22.86900 28.21400
C  46.20900 21.98600 29.23500
C  45.76800 20.69400 28.63100
C  46.04800 20.85000 27.23800
C  46.55700 22.20000 26.99700
C  45.27100 19.49200 29.40400
C  45.81900 19.84700 26.21500
O  46.16100 20.04400 25.06300
C  44.96600 18.63800 26.62000
N  47.70900 25.03600 26.32300
C  47.65700 23.95900 25.50300
C  48.13700 24.33400 24.07800
C  48.55200 25.88700 24.21800
C  48.23300 26.12000 25.68200
C  49.36500 23.45100 23.56600
C  47.83400 26.74000 23.11000
C  46.25400 26.95900 23.28000
N  47.69700 26.83100 28.58800
C  48.26200 27.66500 27.63900
C  48.53900 28.88600 28.33400
C  48.32400 28.70700 29.66900
C  47.86600 27.38500 29.76800
C  49.11000 30.15800 27.75400
C  48.34200 29.27100 30.92600
O  48.58700 30.42600 31.22000
C  48.02400 28.18500 31.99200
C  49.22400 27.97400 32.90400
O  50.23500 27.35600 32.55500
O  48.85900 28.35800 34.20200
C  49.90500 28.12300 35.23300
H  45.85000 21.52800 31.33800
H  47.08100 22.21600 24.90600
H  49.04900 28.18200 25.79300
H  47.49500 25.67700 33.57900
H  45.41900 23.75500 33.09900
H  48.26100 23.57400 33.91200
H  47.89000 22.32100 32.75000
H  46.80000 22.52500 34.25000
H  44.65900 25.52800 33.47300
H  45.16800 26.95600 32.56000
H  45.49500 28.11500 34.44700
H  46.46600 26.95400 35.16700
H  44.22400 19.40900 29.11100
H  45.29800 19.76700 30.45800
H  45.81900 18.56900 29.21200
H  45.34900 17.92500 27.35000
H  44.64700 18.13600 25.70600
H  43.96400 18.93200 26.93300
H  47.38800 24.20300 23.29800
H  49.62000 25.98300 24.02200
H  49.72800 22.80100 24.36100
H  50.16000 23.93000 22.99300
H  48.83300 22.78800 22.88400
H  48.01600 26.17300 22.19700
H  48.21000 27.74300 22.90600
H  45.95300 26.60400 24.26600
H  45.62400 26.47700 22.53300
H  45.92600 27.99800 23.25900
H  48.40200 30.97000 27.58700
H  49.62800 30.01800 26.80500
H  49.89200 30.53200 28.41400
H  47.17500 28.48800 32.60500
H  50.73600 27.46900 34.97100
H  49.40800 27.57500 36.03400
H  50.38300 29.00800 35.65500
Mg -10.52400 40.80900 42.55600
C  -9.19600 37.78900 41.46900
C  -8.26100 42.44000 40.61400
C  -12.26000 43.76400 42.96100
C  -13.31400 39.03400 43.72800
N  -8.93900 40.18400 41.18700
C  -8.55500 38.88800 40.90000
C  -7.43200 38.89500 39.93300
C  -6.94700 40.42300 39.90600
C  -8.07600 41.07800 40.65200
C  -5.47300 40.67700 40.41900
C  -7.79100 38.29000 38.52400
C  -6.96800 37.04000 38.18800
H  -5.78700 37.17000 37.19300
N  -10.15200 42.87600 42.09600
C  -9.11400 43.33500 41.33700
C  -9.16400 44.78700 41.24100
C  -10.39000 45.18000 41.97800
C  -10.99000 43.91200 42.37800
C  -8.19000 45.66900 40.57400
C  -10.88400 46.65100 42.02800
O  -10.23300 47.55800 41.60600
C  -12.11600 47.07400 42.64300
N  -12.47600 41.34200 43.45400
C  -12.97400 42.60500 43.39300
C  -14.39500 42.62000 43.86500
C  -14.76900 41.11600 44.21700
C  -13.44500 40.41900 43.75900
C  -14.73700 43.57300 45.02700
C  -16.00400 40.57900 43.46000
C  -17.03500 39.78100 44.35100
N  -11.05300 38.84900 42.86600
C  -12.19500 38.25300 43.34900
C  -12.07500 36.84300 43.24800
C  -10.85900 36.59800 42.62500
C  -10.30400 37.83500 42.35400
C  -13.01600 35.73600 43.75200
C  -10.06900 35.54600 41.98500
O  -10.27000 34.33100 41.95400
C  -8.85400 36.25200 41.28400
C  -7.60400 35.77000 42.04500
O  -7.19800 36.21000 43.12100
O  -6.85400 34.79000 41.36100
C  -5.50900 34.32800 41.85000
H  -7.49100 43.03600 40.12000
H  -12.91400 44.63800 42.96700
H  -14.20400 38.43900 43.94200
H  -6.64300 38.25000 40.32100
H  -6.92600 40.75600 38.86900
H  -5.12300 39.67400 40.66300
H  -5.42500 41.34800 41.27600
H  -4.83200 41.10900 39.65000
H  -7.58300 39.08300 37.80600
H  -8.83800 38.05600 38.33000
H  -7.61700 36.26100 37.78700
H  -6.40600 36.46700 38.92500
H  -8.58500 46.14900 39.67900
H  -7.30800 45.08000 40.32400
H  -7.92700 46.49200 41.24000
H  -12.06000 46.61400 43.62900
H  -13.01000 46.72200 42.13000
H  -12.35200 48.13200 42.75700
H  -14.92500 42.96600 42.97700
H  -14.92600 40.89400 45.27300
H  -13.85700 44.20500 45.14400
H  -14.94300 43.09200 45.98300
H  -15.60900 44.20800 44.87000
H  -15.67400 39.92200 42.65600
H  -16.50100 41.40500 42.95100
H  -16.65700 39.66500 45.36700
H  -17.08800 38.76500 43.96200
H  -18.00100 40.27700 44.26000
H  -12.84100 35.63800 44.82400
H  -12.78600 34.73900 43.37700
H  -14.06100 35.91100 43.49600
H  -8.74500 35.94000 40.24500
H  -5.49400 33.97700 42.88200
H  -4.76800 35.11900 41.73700
H  -5.28700 33.50600 41.16900

