158

Mg 23.96300 -4.88900 45.42200
C  25.92800 -2.64600 43.54400
C  21.23600 -3.90900 43.58200
C  22.31900 -7.62700 46.35700
C  26.86000 -6.16500 46.93800
N  23.64200 -3.42700 43.84500
C  24.55400 -2.55700 43.31200
C  23.96400 -1.66700 42.27300
C  22.36700 -1.99600 42.33500
C  22.34100 -3.10100 43.43200
C  21.51400 -0.75200 42.69100
C  24.57600 -1.83000 40.83300
C  25.26600 -0.64400 40.13600
H  24.89700 -0.42600 38.63600
N  21.98100 -5.60800 45.10000
C  21.00200 -5.05900 44.33300
C  19.86100 -5.88000 44.25800
C  20.23500 -6.98600 45.07200
C  21.56200 -6.80000 45.51100
C  18.53000 -5.54500 43.52000
C  19.32700 -8.19300 45.25000
O  18.14900 -8.15000 44.87800
C  19.79600 -9.47700 45.77100
N  24.60400 -6.79300 46.39200
C  23.65700 -7.62200 46.81300
C  24.27700 -8.70000 47.69000
C  25.74200 -8.16800 47.97700
C  25.77200 -6.96100 47.09500
C  23.39900 -9.10800 48.88900
C  26.92100 -9.17200 47.69600
C  27.96100 -9.23200 48.86200
N  26.02900 -4.45500 45.39000
C  27.01000 -5.10200 46.08700
C  28.22600 -4.48700 45.62700
C  27.91100 -3.46100 44.68200
C  26.49600 -3.51900 44.51100
C  29.60800 -4.78800 46.10600
C  28.44000 -2.55900 43.82000
O  29.59300 -2.15800 43.49700
C  27.13100 -1.82700 43.14900
C  26.99000 -0.59300 43.90100
O  26.07700 -0.22300 44.65500
O  28.01700 0.23300 43.63500
C  27.96500 1.66100 44.06600
H  20.39000 -3.60700 42.96000
H  21.82700 -8.53100 46.72400
H  27.72900 -6.54900 47.47700
H  24.10800 -0.60800 42.48500
H  21.98200 -2.47000 41.43200
H  22.05200 0.19300 42.76300
H  21.21100 -1.00000 43.70800
H  20.68900 -0.56000 42.00600
H  23.73900 -2.08500 40.18400
H  25.29600 -2.64300 40.92900
H  26.34500 -0.65400 40.28400
H  24.92600 0.31200 40.53600
H  18.22700 -6.34400 42.84400
H  18.72400 -4.71800 42.83700
H  17.69000 -5.44000 44.20600
H  19.16400 -10.30900 45.46200
H  19.96200 -9.53800 46.84700
H  20.78200 -9.56300 45.31300
H  24.43000 -9.56700 47.04700
H  25.80100 -7.84000 49.01500
H  23.92100 -9.25600 49.83500
H  22.76600 -9.94000 48.58100
H  22.70000 -8.30400 49.11700
H  27.41400 -8.92100 46.75700
H  26.44900 -10.13500 47.50300
H  28.46500 -10.19700 48.90700
H  27.38900 -9.25800 49.78900
H  28.69700 -8.42700 48.85400
H  29.42400 -5.78300 46.51300
H  29.80200 -4.12700 46.95100
H  30.15300 -4.73200 45.16500
H  27.27500 -1.58900 42.09500
H  27.19100 2.04500 44.73000
H  28.20700 2.36300 43.26800
H  28.80200 1.76800 44.75600
Mg -10.74400 37.84300 41.61200
C  -8.69500 35.02800 41.33300
C  -8.31700 39.67400 39.84600
C  -12.82400 40.51600 41.32700
C  -13.21200 35.84500 42.88400
N  -8.72000 37.37700 40.64600
C  -8.14000 36.13100 40.59800
C  -6.81400 36.22400 39.90600
C  -6.62800 37.77900 39.69700
C  -8.00600 38.28300 39.99100
C  -5.34200 38.41800 40.39800
C  -6.80500 35.44600 38.57500
C  -5.49800 34.59300 38.32600
H  -4.44200 35.15300 37.29000
N  -10.53200 39.82800 40.90400
C  -9.45300 40.33700 40.21400
C  -9.58000 41.73700 39.99300
C  -10.86800 42.10000 40.45200
C  -11.52300 40.78800 40.92600
C  -8.53900 42.56100 39.19700
C  -11.53500 43.46600 40.44800
O  -10.81000 44.45000 40.04600
C  -12.84500 43.76400 41.01900
N  -12.76400 38.13200 41.90500
C  -13.36900 39.33500 41.88600
C  -14.88100 39.23200 42.27800
C  -14.98800 37.73400 42.84300
C  -13.56900 37.15200 42.46000
C  -15.32500 40.36700 43.32900
C  -16.24300 37.00600 42.32900
C  -16.23000 36.04500 41.16800
N  -10.94500 35.84400 42.14500
C  -11.97900 35.21100 42.68900
C  -11.57000 33.78100 43.01300
C  -10.27100 33.68200 42.46700
C  -9.95100 34.97200 41.92600
C  -12.47400 32.77800 43.68000
C  -9.18900 32.80900 42.24800
O  -9.13000 31.65700 42.56800
C  -8.11400 33.64500 41.46300
C  -6.79300 33.56300 42.08700
O  -6.31800 32.49500 42.34100
O  -6.33200 34.74500 42.59400
C  -5.26000 34.73200 43.56900
H  -7.49200 40.20200 39.36200
H  -13.49100 41.37800 41.40100
H  -14.05600 35.19100 43.11500
H  -6.00200 35.95900 40.58300
H  -6.43300 38.07500 38.66600
H  -4.80800 37.73800 41.06200
H  -5.68800 39.18000 41.09700
H  -4.72500 38.97900 39.69600
H  -6.84200 36.10900 37.71100
H  -7.65200 34.76100 38.52900
H  -5.88300 33.64900 37.94100
H  -4.92700 34.35100 39.22200
H  -8.12700 43.17700 39.99700
H  -8.99600 43.13300 38.39000
H  -7.78900 41.93700 38.70900
H  -13.01100 43.36300 42.01900
H  -13.59400 43.43900 40.29700
H  -13.00300 44.84200 41.07000
H  -15.33500 39.31000 41.29000
H  -15.12500 37.76200 43.92400
H  -15.87800 41.14000 42.79600
H  -14.46900 40.84000 43.81100
H  -15.93600 39.99500 44.15100
H  -16.98000 37.76000 42.05200
H  -16.64000 36.42500 43.16100
H  -16.97200 36.38300 40.44500
H  -16.43500 35.00900 41.43800
H  -15.22600 36.07800 40.74300
H  -12.76500 32.01600 42.95700
H  -13.31300 33.32200 44.11600
H  -11.98300 32.19500 44.45900
H  -8.01800 33.23600 40.45700
H  -5.62900 34.82200 44.59100
H  -4.58400 35.57100 43.40500
H  -4.64200 33.83400 43.55700

