158

Mg 48.81000 34.43800 26.44000
C  46.74700 33.24500 29.04900
C  49.10700 37.43800 28.03400
C  50.00700 35.81700 23.48800
C  47.70000 31.74100 24.48400
N  47.96800 35.21800 28.25800
C  47.28700 34.53700 29.27600
C  47.21700 35.42000 30.59500
C  47.64100 36.83000 30.08100
C  48.30400 36.46900 28.70400
C  46.50600 37.91900 30.00000
C  48.20400 34.88800 31.67200
C  47.53900 34.57300 33.09200
H  46.69800 35.71300 33.70700
N  49.62200 36.28800 25.89300
C  49.76900 37.30900 26.74500
C  50.62900 38.27200 26.07000
C  50.83900 37.81700 24.70700
C  50.12000 36.59300 24.61200
C  50.94200 39.51100 26.75600
C  51.63500 38.52900 23.51200
O  51.57800 38.12200 22.36900
C  52.39400 39.89700 23.62600
N  48.87500 33.83800 24.23200
C  49.38200 34.60800 23.25600
C  49.57100 33.77900 21.86700
C  48.65700 32.58000 22.20900
C  48.42500 32.65500 23.75600
C  49.07700 34.74800 20.71000
C  49.13900 31.20800 21.73000
C  48.94900 31.17200 20.19500
N  47.64300 32.70900 26.74400
C  47.20000 31.72700 25.83100
C  46.39900 30.76600 26.59200
C  46.11100 31.33900 27.82500
C  46.90200 32.52700 27.89000
C  45.83500 29.57400 25.91100
C  45.34300 31.20500 29.12100
O  44.62700 30.31900 29.56000
C  45.68100 32.46200 29.86900
C  46.22000 31.97200 31.10400
O  47.40900 31.65100 31.23500
O  45.26900 31.85800 32.17500
C  45.65000 31.20000 33.43300
H  49.24500 38.36700 28.59100
H  50.45400 36.17300 22.55800
H  47.40100 31.01800 23.72200
H  46.18200 35.28300 30.91000
H  48.30200 37.41300 30.72300
H  46.39200 38.23600 31.03700
H  45.59600 37.49200 29.57800
H  46.90700 38.76100 29.43600
H  48.93200 35.68800 31.80500
H  48.77300 33.99600 31.41200
H  48.28200 34.03300 33.68000
H  46.88800 33.71300 32.93200
H  50.11500 40.20500 26.60600
H  51.84000 39.98900 26.36600
H  51.16200 39.23400 27.78700
H  52.58200 40.36000 22.65700
H  53.27200 39.76300 24.25800
H  51.72400 40.50700 24.23300
H  50.63900 33.57600 21.78100
H  47.69700 32.86500 21.77800
H  48.06200 34.61300 20.33700
H  49.69700 34.68100 19.81600
H  49.11900 35.78500 21.04400
H  48.53200 30.37800 22.09100
H  50.15500 31.11300 22.11100
H  48.66700 32.13700 19.77200
H  48.21200 30.39700 19.98800
H  49.87000 30.82500 19.72500
H  45.20000 29.03000 26.60900
H  46.60800 28.95400 25.45600
H  45.18600 29.91800 25.10600
H  44.76300 33.01900 30.05600
H  44.90000 31.31300 34.21600
H  46.63400 31.44000 33.83500
H  45.73000 30.14200 33.18300
Mg -5.38100 25.85600 26.43100
C  -3.89900 27.03100 29.40600
C  -7.34000 23.83700 28.26100
C  -6.21200 24.35300 23.55600
C  -3.08800 27.77700 24.63800
N  -5.52700 25.41700 28.62100
C  -4.90100 26.09000 29.61200
C  -5.52100 25.67700 30.90800
C  -6.46800 24.55000 30.56300
C  -6.49300 24.60500 29.08400
C  -6.03100 23.11100 31.04200
C  -6.13100 26.87600 31.70800
C  -5.84200 26.98600 33.25200
H  -5.29100 25.65400 33.92800
N  -6.64900 24.37100 25.92500
C  -7.48500 23.77500 26.84100
C  -8.39300 22.91000 26.16400
C  -8.13000 23.02300 24.78700
C  -6.91300 23.95000 24.67200
C  -9.24800 21.97800 26.89300
C  -8.77300 22.39400 23.62700
O  -8.46000 22.58500 22.45700
C  -9.94600 21.44400 23.82400
N  -4.74300 26.06400 24.47400
C  -5.21700 25.33200 23.39300
C  -4.39400 25.42500 22.13800
C  -3.69500 26.82900 22.44900
C  -3.81400 26.94400 23.98300
C  -3.36700 24.33800 21.90600
C  -4.32100 28.08700 21.74000
C  -3.81100 28.46000 20.33400
N  -3.89900 27.25700 26.88100
C  -2.99400 27.95800 26.05900
C  -2.16800 28.89100 26.87100
C  -2.54000 28.51400 28.15600
C  -3.49400 27.53500 28.17100
C  -1.23100 29.91900 26.40700
C  -2.20100 28.70000 29.56700
O  -1.35300 29.49500 30.01600
C  -3.11500 27.88800 30.43100
C  -2.25900 27.14900 31.36100
O  -1.63600 26.15500 31.01000
O  -2.28200 27.77900 32.58300
C  -1.64400 27.01700 33.63800
H  -8.04000 23.20300 28.81100
H  -6.43600 23.84400 22.61600
H  -2.43400 28.48500 24.12500
H  -4.60600 25.41300 31.43800
H  -7.42500 24.60800 31.08100
H  -5.32600 23.08900 31.87400
H  -5.40000 22.74500 30.23200
H  -6.97200 22.58600 31.20600
H  -7.21700 26.83500 31.62500
H  -5.78600 27.77800 31.20300
H  -6.81000 27.11100 33.73800
H  -5.17800 27.80600 33.52400
H  -10.13200 21.61200 26.37200
H  -9.76000 22.51400 27.69200
H  -8.76600 21.13000 27.38000
H  -9.53700 20.57900 24.34500
H  -10.35700 20.95800 22.93900
H  -10.72900 21.97600 24.36500
H  -4.93700 25.62800 21.21500
H  -2.64800 26.68500 22.18100
H  -3.81000 23.43500 21.48500
H  -2.87800 24.08000 22.84500
H  -2.57300 24.55300 21.19100
H  -4.36700 28.92500 22.43500
H  -5.38800 27.89200 21.63000
H  -3.78500 27.65000 19.60400
H  -2.76200 28.69900 20.51000
H  -4.21100 29.34000 19.83100
H  -1.56200 30.86500 25.97700
H  -0.58400 29.41300 25.69100
H  -0.66900 30.16500 27.30800
H  -3.68900 28.66100 30.94200
H  -2.02800 27.47500 34.55000
H  -0.57300 27.08700 33.44800
H  -1.89400 25.95700 33.67400

