158

Mg 41.40900 9.03200 30.13700
C  43.43900 10.00500 32.86300
C  38.92500 8.06100 32.45900
C  39.61300 8.14100 27.66800
C  44.11500 9.62400 27.99700
N  41.23700 9.02800 32.40000
C  42.14400 9.59600 33.27700
C  41.54800 9.64800 34.70400
C  40.18100 8.82000 34.57700
C  40.12800 8.60300 33.06200
C  40.14200 7.52500 35.41900
C  41.49400 11.11900 35.33700
C  40.65400 11.36500 36.59000
H  41.29300 12.34200 37.56600
N  39.51200 8.16200 30.08500
C  38.62300 7.84800 31.10100
C  37.44100 7.23500 30.51000
C  37.63900 7.24700 29.12000
C  38.95100 7.82300 28.85500
C  36.36100 6.60900 31.25700
C  36.72600 6.72100 28.02700
O  37.14400 6.38100 26.97800
C  35.19700 6.63600 28.31700
N  41.78600 8.87200 28.04000
C  40.85900 8.51300 27.25300
C  41.24400 8.67300 25.81100
C  42.64700 9.29300 25.89400
C  42.92400 9.18200 27.40100
C  41.03200 7.48100 24.83300
C  42.79800 10.70400 25.38300
C  44.12300 11.09300 24.78500
N  43.41400 9.63100 30.34400
C  44.42400 9.75700 29.37800
C  45.60800 10.20300 30.02500
C  45.29100 10.34000 31.37800
C  43.93000 9.96300 31.56000
C  46.88700 10.53300 29.40700
C  45.79900 10.82200 32.64700
O  46.85000 11.28600 32.97200
C  44.55200 10.74700 33.61000
C  45.09300 10.17300 34.83100
O  45.49000 9.03400 34.91300
O  45.18700 11.11300 35.83200
C  46.00900 10.91000 37.05400
H  38.13500 7.88300 33.19100
H  39.12800 7.82100 26.74400
H  44.97600 9.95300 27.41100
H  42.30900 9.15700 35.31100
H  39.28200 9.32200 34.93400
H  40.08800 6.63600 34.79200
H  39.29100 7.55000 36.09900
H  40.98400 7.47400 36.11000
H  40.95500 11.59100 34.51600
H  42.51400 11.50300 35.37000
H  40.64300 10.39100 37.08000
H  39.66200 11.68800 36.27400
H  35.42500 7.16000 31.35300
H  36.74500 6.49900 32.27100
H  36.09400 5.65900 30.79400
H  34.64700 7.55900 28.50200
H  34.87100 6.03900 29.16900
H  34.68300 6.19600 27.46300
H  40.61900 9.47000 25.40800
H  43.32000 8.56100 25.44700
H  40.58400 6.65400 25.38300
H  41.97800 7.20900 24.36600
H  40.30800 7.85300 24.10800
H  42.63100 11.39000 26.21400
H  41.99800 10.85300 24.65800
H  44.47900 12.00300 25.26700
H  44.19700 11.33600 23.72500
H  44.87500 10.34700 25.04100
H  47.12700 11.58300 29.24000
H  46.90000 10.13300 28.39300
H  47.72300 10.11500 29.96800
H  44.27800 11.78400 33.80300
H  45.38100 10.95000 37.94300
H  46.84800 11.59000 37.20300
H  46.38900 9.88900 37.07500
Mg -3.13500 35.31600 27.27100
C  -4.95700 33.50800 29.69700
C  -2.16400 37.38900 29.84400
C  -1.56300 37.07300 24.98300
C  -4.24400 33.11400 24.88400
N  -3.46100 35.40800 29.51000
C  -4.20900 34.53100 30.24500
C  -3.93600 34.72200 31.73700
C  -3.22700 36.12100 31.72600
C  -2.99700 36.38300 30.27100
C  -4.18400 37.21300 32.24800
C  -3.27100 33.54400 32.53600
C  -4.17600 32.98600 33.67800
H  -3.83100 33.58700 35.07000
N  -2.05700 36.98700 27.39700
C  -1.65400 37.63000 28.54500
C  -0.58700 38.60600 28.15400
C  -0.44300 38.52400 26.77200
C  -1.34600 37.45700 26.34300
C  0.06300 39.47600 29.16200
C  0.44200 39.35000 25.81700
O  0.55300 39.12500 24.63100
C  1.14800 40.55200 26.25800
N  -3.11500 35.19800 25.17400
C  -2.31800 36.04200 24.46100
C  -2.31000 35.62100 22.97400
C  -2.96200 34.25900 22.97600
C  -3.44400 34.15500 24.43200
C  -3.06200 36.70000 22.08500
C  -2.16600 33.02100 22.44900
C  -2.94000 31.87300 21.96000
N  -4.41300 33.66900 27.27000
C  -4.76300 32.85000 26.19500
C  -5.73000 31.91700 26.57800
C  -5.82800 32.11300 28.02000
C  -4.99400 33.20300 28.33000
C  -6.44000 30.85500 25.74500
C  -6.48500 31.61100 29.17000
O  -7.20500 30.64100 29.26200
C  -5.90900 32.47200 30.35400
C  -7.00700 33.08400 31.09700
O  -7.50300 34.15900 30.80600
O  -7.54400 32.10700 31.95000
C  -8.72200 32.58400 32.69100
H  -1.80900 38.11500 30.57900
H  -1.01500 37.42000 24.10400
H  -4.50700 32.31900 24.18200
H  -4.89700 34.95600 32.19600
H  -2.25700 36.07800 32.22100
H  -5.13400 37.13700 31.71800
H  -3.81100 38.19200 31.94600
H  -4.30700 37.18400 33.33100
H  -2.41000 33.95100 33.06500
H  -2.90000 32.74700 31.89200
H  -4.21200 31.89800 33.74300
H  -5.24700 33.04900 33.48700
H  1.14400 39.59600 29.22700
H  -0.31000 39.49400 30.18600
H  -0.39800 40.38100 28.76600
H  0.49300 41.27000 26.75100
H  1.69700 40.93500 25.39700
H  1.88900 40.34400 27.02900
H  -1.30000 35.46600 22.59400
H  -3.84100 34.39900 22.34600
H  -2.93200 37.67800 22.54700
H  -4.12300 36.55600 21.87600
H  -2.58500 36.63700 21.10700
H  -1.66800 32.73300 23.37500
H  -1.35000 33.36900 21.81500
H  -2.82700 30.96900 22.55900
H  -2.62400 31.55600 20.96600
H  -3.99500 32.13800 22.02700
H  -6.69400 29.94700 26.29100
H  -5.73300 30.70800 24.92800
H  -7.32900 31.25800 25.25900
H  -5.45000 31.78300 31.06300
H  -9.28000 31.70100 33.00300
H  -9.43200 33.17600 32.11500
H  -8.47100 33.20100 33.55400

