158

Mg 36.27700 1.98600 30.72100
C  33.91700 2.83300 33.20100
C  38.73900 2.17300 33.11000
C  38.60200 1.44200 28.32000
C  33.92600 2.37200 28.28500
N  36.26800 2.46400 32.95400
C  35.14400 2.66600 33.75200
C  35.56400 2.78500 35.22400
C  37.14200 2.67400 35.12100
C  37.42400 2.41200 33.66500
C  37.94200 3.89000 35.73300
C  34.98200 1.60500 36.08700
C  34.41400 2.13500 37.44200
H  35.30600 3.17800 38.17300
N  38.40200 1.86000 30.69900
C  39.22700 1.95400 31.76000
C  40.58300 1.74300 31.33600
C  40.62000 1.45700 29.95100
C  39.18200 1.51900 29.64300
C  41.71100 1.90700 32.36100
C  41.74700 1.08900 28.94200
O  41.63300 0.87600 27.74800
C  43.21900 0.93500 29.44100
N  36.30800 1.94600 28.54200
C  37.36800 1.68300 27.81200
C  37.05700 1.78000 26.32300
C  35.47500 1.92000 26.31800
C  35.18900 2.02400 27.81300
C  37.87600 2.87300 25.66100
C  34.66200 0.78000 25.54100
C  33.35300 1.11600 24.85200
N  34.27600 2.50700 30.63500
C  33.44600 2.66900 29.58200
C  32.10200 3.04100 30.07300
C  32.21300 3.17700 31.48900
C  33.59000 2.82000 31.80000
C  30.85500 3.18300 29.24200
C  31.54600 3.35800 32.69400
O  30.37700 3.64200 32.93600
C  32.60900 3.15300 33.82400
C  32.62100 4.41900 34.65600
O  33.03200 5.49800 34.28300
O  32.03600 4.25200 35.90000
C  31.97700 5.43100 36.82300
H  39.51900 2.13600 33.87200
H  39.34800 1.30900 27.53400
H  33.13800 2.31800 27.53100
H  35.26200 3.78000 35.54900
H  37.46500 1.79300 35.67500
H  37.32000 4.45000 36.43100
H  38.33200 4.49400 34.91400
H  38.84200 3.59600 36.27400
H  35.71100 0.81400 36.26300
H  34.06300 1.20700 35.65600
H  34.30300 1.32400 38.16200
H  33.36700 2.41700 37.32800
H  41.30600 2.71100 32.97500
H  42.57600 2.22000 31.77700
H  42.03500 1.00700 32.88400
H  43.14000 0.29700 30.32100
H  43.56600 1.95800 29.58200
H  43.98800 0.63100 28.73100
H  37.34400 0.78000 25.99700
H  35.13700 2.82300 25.80900
H  37.32300 3.62400 25.09700
H  38.64100 2.42000 25.03100
H  38.39200 3.52300 26.36800
H  34.39900 0.14200 26.38500
H  35.42800 0.31000 24.92400
H  32.81800 0.18500 24.66100
H  33.49800 1.58800 23.88100
H  32.66600 1.75800 25.40400
H  30.34600 2.22700 29.37000
H  31.10700 3.57800 28.25800
H  30.16700 3.90300 29.68600
H  32.23700 2.38400 34.50100
H  30.92800 5.72600 36.84900
H  32.65500 6.25700 36.60700
H  32.26900 5.12800 37.82800
Mg 54.72400 22.87400 45.00400
C  52.64600 25.64100 44.39900
C  52.23200 20.77500 44.00800
C  57.06900 20.46800 44.81400
C  57.34700 25.27100 45.81100
N  52.79500 23.18400 44.07600
C  52.01700 24.37700 44.05200
C  50.56300 24.05400 43.48700
C  50.42700 22.58800 44.02200
C  51.90400 22.08800 44.00000
C  49.63400 22.31400 45.33400
C  50.39200 24.19200 41.95800
C  49.01600 24.81700 41.58000
H  48.19800 24.26800 40.39000
N  54.61200 20.89700 44.50000
C  53.52800 20.19700 44.13500
C  53.79000 18.80900 44.14300
C  55.18700 18.68100 44.30900
C  55.70700 20.07100 44.49600
C  52.71200 17.81500 43.98600
C  55.97900 17.33000 44.30500
O  55.45300 16.21300 44.19900
C  57.53300 17.34400 44.27200
N  56.94000 22.89300 45.21300
C  57.60200 21.70700 45.20700
C  58.99100 21.88400 45.74500
C  59.13100 23.46500 45.93200
C  57.71900 23.91800 45.62200
C  59.47200 20.89800 46.88900
C  60.23500 24.15700 45.08700
C  61.39900 24.91800 45.75300
N  55.02300 24.96700 45.11800
C  56.07400 25.79700 45.59600
C  55.65200 27.11500 45.58700
C  54.31700 27.08500 45.27000
C  53.99400 25.77000 44.85400
C  56.47100 28.37700 45.85200
C  53.19200 27.92800 45.13400
O  53.03100 29.09100 45.41800
C  52.07200 27.00400 44.42600
C  51.93300 27.57400 43.08700
O  52.62900 27.54200 42.12300
O  50.65100 28.10400 43.02400
C  50.19500 28.68600 41.80600
H  51.39000 20.10300 43.83000
H  57.88500 19.74300 44.81000
H  58.08700 26.03600 46.05500
H  49.92100 24.79000 43.97100
H  49.81700 22.03400 43.30700
H  49.09700 23.19700 45.68200
H  50.25000 21.97100 46.16500
H  48.93600 21.50700 45.10900
H  50.55700 23.19800 41.54100
H  51.19300 24.83300 41.59000
H  49.15200 25.87900 41.37800
H  48.29300 24.79900 42.39400
H  52.99400 16.77900 43.80000
H  52.00000 18.14200 43.22800
H  52.16000 17.87900 44.92300
H  57.85100 17.96600 43.43600
H  57.90400 16.32600 44.15100
H  57.93800 17.82800 45.16000
H  59.65000 21.62800 44.91600
H  59.30400 23.62700 46.99600
H  59.91600 21.36200 47.77000
H  60.30100 20.23700 46.63800
H  58.60900 20.34500 47.26300
H  59.85000 24.82500 44.31700
H  60.79600 23.39500 44.54500
H  61.20100 25.02200 46.82000
H  61.49000 25.86600 45.22300
H  62.34300 24.37800 45.68500
H  55.75000 29.04600 46.32100
H  57.09600 28.74700 45.03800
H  57.29500 28.09000 46.50600
H  51.08300 26.88600 44.86900
H  50.39900 27.97400 41.00600
H  50.68000 29.65200 41.66900
H  49.11800 28.82000 41.89900

