158

Mg 34.35000 2.28300 29.82300
C  31.92100 3.51600 32.13000
C  36.60300 2.43800 32.54100
C  36.67600 1.36800 27.65500
C  32.02700 2.86500 27.15000
N  34.21200 2.78800 32.00600
C  33.13200 3.26800 32.69200
C  33.40700 3.44900 34.16700
C  34.95800 3.46400 34.21400
C  35.26400 2.84100 32.83600
C  35.55500 4.85100 34.30200
C  32.77800 2.23800 34.96800
C  33.17100 1.99700 36.36100
H  33.60100 3.12200 37.31100
N  36.30900 1.81700 30.09600
C  37.05500 1.88100 31.25900
C  38.38400 1.45100 30.96700
C  38.46000 1.17300 29.56100
C  37.11700 1.43200 29.04700
C  39.45100 1.15600 32.02600
C  39.62300 0.73400 28.66300
O  39.42800 0.43500 27.51100
C  41.09900 0.65200 29.19000
N  34.34300 2.18000 27.74600
C  35.38100 1.77600 27.06900
C  35.19300 1.75000 25.52400
C  33.70200 1.88000 25.49700
C  33.32200 2.45800 26.84500
C  35.98000 2.88200 24.72700
C  32.82400 0.56400 25.12600
C  32.73400 0.31200 23.64900
N  32.35600 2.96300 29.64200
C  31.59200 3.23900 28.50700
C  30.20900 3.55700 28.96300
C  30.35900 3.67000 30.35200
C  31.67500 3.33400 30.73900
C  28.93600 3.92400 28.06600
C  29.53900 3.99200 31.53800
O  28.34900 4.16500 31.75400
C  30.58100 4.00400 32.72300
C  30.61200 5.37300 33.37800
O  30.78500 6.41000 32.77900
O  30.47000 5.20000 34.77000
C  30.76600 6.37600 35.59500
H  37.37400 2.57900 33.30200
H  37.45500 1.22000 26.90400
H  31.29000 2.93200 26.34700
H  32.85800 4.30700 34.55500
H  35.32500 2.91300 35.08000
H  34.74700 5.57800 34.22100
H  36.31300 5.09200 33.55700
H  35.90500 5.02500 35.31900
H  32.96500 1.31700 34.41600
H  31.70300 2.40100 34.89200
H  34.05100 1.37300 36.20600
H  32.56500 1.26800 36.89900
H  40.28100 1.86100 31.97200
H  39.83500 0.13600 32.04300
H  39.16000 1.23900 33.07300
H  41.33900 1.69000 29.42000
H  41.72200 0.28300 28.37600
H  41.17800 0.14300 30.15100
H  35.54500 0.81500 25.09000
H  33.44500 2.54900 24.67600
H  35.27700 3.22800 23.96900
H  36.85000 2.43300 24.24900
H  36.24100 3.72500 25.36700
H  31.79700 0.64200 25.48300
H  33.32400 -0.20900 25.70900
H  32.92300 -0.75000 23.49100
H  33.48800 0.87200 23.09500
H  31.75500 0.58800 23.25800
H  28.20300 4.39500 28.72000
H  28.50700 2.96900 27.76100
H  29.21500 4.45000 27.15400
H  30.18700 3.31300 33.46700
H  29.88500 7.00200 35.74000
H  31.50900 7.04900 35.16800
H  31.12100 5.97300 36.54300
Mg 55.16900 25.04700 43.64200
C  52.08700 26.71700 43.14000
C  53.51700 22.08800 42.94100
C  58.14600 23.63400 43.16600
C  56.64200 28.14000 44.40500
N  53.04300 24.49700 42.81800
C  51.95000 25.33100 42.79000
C  50.68900 24.57800 42.57800
C  51.11400 23.11900 42.80500
C  52.65200 23.18200 42.84700
C  50.49200 22.28700 43.92900
C  49.88700 24.80900 41.26200
C  50.61000 24.98600 39.96800
H  50.01600 24.26700 38.73400
N  55.78600 23.11900 43.29400
C  54.93100 22.04800 43.08200
C  55.77400 20.86200 42.93000
C  57.09700 21.28200 42.83300
C  57.08800 22.71900 43.10100
C  55.09900 19.48300 42.64400
C  58.24600 20.31600 42.47200
O  58.08700 19.12800 42.27100
C  59.63100 20.71300 42.20400
N  57.16200 25.76000 43.80100
C  58.22700 24.98700 43.53100
C  59.56000 25.74600 43.92300
C  59.06300 27.18800 44.21500
C  57.55900 27.07500 44.17700
C  60.35400 25.05400 45.09400
C  59.50400 28.25600 43.12900
C  59.01800 27.78700 41.62700
N  54.57600 27.13400 43.67000
C  55.20500 28.15300 44.31000
C  54.25100 29.22300 44.54700
C  53.04300 28.72200 44.11500
C  53.25600 27.42200 43.53800
C  54.36500 30.53100 45.27100
C  51.70300 29.06400 43.94300
O  51.05500 30.09500 44.17600
C  50.96000 27.81400 43.28000
C  50.35400 28.21300 42.04900
O  51.00100 28.38300 40.99200
O  49.02900 28.48000 42.23800
C  48.31500 29.16500 41.16000
H  53.09100 21.08900 43.05300
H  59.15100 23.24100 42.99600
H  57.18100 29.05700 44.65000
H  50.08800 24.94500 43.41000
H  50.90800 22.47200 41.95200
H  49.49400 22.60200 44.23300
H  51.03700 22.36700 44.87000
H  50.49200 21.24200 43.62000
H  49.22600 25.67300 41.32500
H  49.19700 23.96800 41.19100
H  51.59600 24.56200 40.15400
H  50.74600 26.03300 39.69900
H  55.81000 18.69500 42.89200
H  54.87500 19.46200 41.57700
H  54.15500 19.33100 43.16700
H  60.22800 19.88000 41.83200
H  60.08300 21.07800 43.12600
H  59.43400 21.45500 41.43000
H  60.19700 25.83500 43.04400
H  59.38200 27.59700 45.17400
H  59.86600 24.11300 45.34900
H  60.32300 25.69600 45.97400
H  61.38900 24.86200 44.80800
H  60.57200 28.47300 43.11800
H  58.92100 29.14400 43.37200
H  59.90000 27.46200 41.07500
H  58.57100 28.57800 41.02400
H  58.18800 27.08000 41.61900
H  54.09200 31.45800 44.76700
H  55.40300 30.56200 45.59900
H  53.78800 30.43200 46.19100
H  50.11500 27.58900 43.93000
H  47.62200 28.48300 40.66800
H  48.95000 29.67800 40.43800
H  47.60000 29.79700 41.68600

