158

Mg 2.08200 -1.04700 43.98800
C  5.49800 -0.45400 43.71000
C  1.41600 1.94300 42.75000
C  -1.25000 -2.07200 43.69300
C  2.75700 -4.37300 44.95400
N  3.29600 0.50100 43.21900
C  4.68200 0.56600 43.17100
C  5.17900 1.84500 42.60000
C  3.86300 2.69600 42.61500
C  2.80400 1.67000 42.82700
C  3.87900 3.87700 43.65000
C  5.85600 1.53500 41.21800
C  7.09700 2.39500 40.83400
H  7.11000 2.73000 39.30800
N  0.29300 -0.11500 43.43600
C  0.25300 1.11400 42.88000
C  -1.07300 1.47800 42.69500
C  -1.90800 0.38500 43.04500
C  -0.97200 -0.74000 43.38300
C  -1.54100 2.84600 42.32700
C  -3.44600 0.40600 43.06600
O  -4.05000 1.44100 42.80500
C  -4.19900 -0.74500 43.55300
N  0.93200 -3.00500 44.14300
C  -0.41900 -3.05100 44.17500
C  -0.92200 -4.46900 44.54400
C  0.35900 -5.13900 45.10500
C  1.45100 -4.12400 44.72000
C  -2.22900 -4.58900 45.39800
C  0.64800 -6.61000 44.54200
C  0.81600 -7.69900 45.63800
N  3.77100 -2.17000 44.34400
C  3.88500 -3.53100 44.68000
C  5.28100 -3.83300 44.89200
C  5.95600 -2.69900 44.44300
C  4.99400 -1.67300 44.13700
C  5.69700 -5.21100 45.25100
C  7.25600 -2.17900 44.18500
O  8.39600 -2.63400 44.27200
C  7.04300 -0.64100 43.64800
C  7.65800 0.29900 44.54500
O  7.33800 0.62400 45.70900
O  8.49200 1.07300 43.84400
C  9.23900 2.15300 44.39800
H  1.16300 2.96000 42.44500
H  -2.31000 -2.33000 43.65200
H  2.90600 -5.33000 45.45900
H  5.99000 2.31600 43.15400
H  3.84000 3.20900 41.65400
H  4.86400 3.92900 44.11200
H  3.23000 3.53900 44.45800
H  3.51200 4.69200 43.02600
H  5.08100 1.45000 40.45700
H  6.25000 0.52000 41.25700
H  8.02200 1.87700 41.08900
H  7.13200 3.32700 41.39800
H  -2.52700 2.98000 41.88100
H  -0.83800 3.26800 41.60900
H  -1.45100 3.47800 43.21000
H  -5.24800 -0.45000 43.57700
H  -3.79100 -1.21500 44.44800
H  -4.17200 -1.49600 42.76400
H  -1.14500 -4.86100 43.55200
H  0.33100 -5.10200 46.19400
H  -2.08700 -5.24900 46.25300
H  -2.98200 -5.16000 44.85400
H  -2.60400 -3.60200 45.67000
H  1.61600 -6.60800 44.04100
H  -0.10800 -6.93000 43.82400
H  0.50700 -7.31200 46.60900
H  1.81600 -8.11800 45.74900
H  0.18900 -8.57000 45.44900
H  5.31800 -5.93800 44.53200
H  5.30800 -5.44200 46.24300
H  6.78600 -5.24200 45.24400
H  7.45800 -0.70900 42.64200
H  10.04900 2.37900 43.70400
H  9.65500 1.88600 45.36900
H  8.67400 3.07600 44.52500
Mg 48.02500 16.03800 28.55700
C  45.99300 15.65700 31.35200
C  50.17400 17.95300 30.44500
C  49.81700 16.38800 25.78200
C  45.45800 14.44600 26.61500
N  48.06000 16.69100 30.63200
C  47.17000 16.37600 31.60800
C  47.63300 16.78800 32.96300
C  48.73100 17.83900 32.62600
C  49.02200 17.56100 31.14700
C  48.16200 19.31300 32.93500
C  48.12900 15.59900 33.76800
C  48.15200 15.89000 35.31200
H  47.72000 17.22400 35.85100
N  49.74100 16.93100 28.17900
C  50.48200 17.71100 29.07200
C  51.71500 18.23700 28.41500
C  51.69000 17.66500 27.11700
C  50.32700 17.00100 26.94000
C  52.71800 19.12600 29.09800
C  52.83200 17.66200 26.09200
O  52.71100 17.18300 24.94900
C  54.24000 18.15700 26.39600
N  47.57600 15.68500 26.41100
C  48.57900 15.74000 25.52600
C  48.22500 15.11800 24.17400
C  46.82900 14.51900 24.48400
C  46.58300 14.87700 25.91900
C  48.25500 16.20300 23.02100
C  46.78900 12.92600 24.25900
C  45.57600 12.15900 23.80700
N  46.16500 15.14900 28.86700
C  45.21900 14.64000 27.97500
C  44.07600 14.32100 28.73600
C  44.32000 14.58700 30.09500
C  45.61100 15.19000 30.06900
C  42.85900 13.70500 28.21700
C  43.67500 14.64500 31.40000
O  42.53000 14.30100 31.74500
C  44.84300 15.18000 32.34600
C  44.31000 16.22900 33.24800
O  44.40100 17.44600 32.98400
O  43.84200 15.67400 34.45500
C  43.24900 16.55800 35.45600
H  50.84400 18.55100 31.06600
H  50.53400 16.46100 24.96100
H  44.74000 13.85800 26.04000
H  46.79000 17.23700 33.48800
H  49.64600 17.61900 33.17600
H  47.08300 19.45900 32.88400
H  48.65700 20.00300 32.25300
H  48.40600 19.63300 33.94800
H  49.18700 15.40600 33.59100
H  47.49700 14.75000 33.51000
H  49.13300 15.67600 35.73600
H  47.45700 15.12000 35.64600
H  53.53900 18.54300 29.51500
H  52.35100 19.71700 29.93700
H  53.13500 19.85400 28.40100
H  54.52100 17.83800 27.39900
H  54.19800 19.20600 26.10100
H  54.95200 17.63500 25.75600
H  49.02900 14.38400 24.13000
H  46.00700 14.96300 23.92300
H  48.91700 15.84600 22.23200
H  48.64300 17.11200 23.48000
H  47.25700 16.36100 22.61300
H  47.03700 12.42000 25.19200
H  47.61000 12.61800 23.61100
H  45.38700 11.44000 24.60400
H  45.86500 11.66200 22.88100
H  44.65600 12.72900 23.67300
H  43.10200 12.77500 27.70300
H  42.53800 14.42500 27.46400
H  42.20100 13.61800 29.08200
H  45.04000 14.34200 33.01600
H  42.19600 16.62200 35.18000
H  43.58800 17.59400 35.47400
H  43.24600 16.14100 36.46300

