158

Mg 1.50300 -1.70000 43.47600
C  4.99000 -0.92600 43.30000
C  0.92000 1.39000 41.97800
C  -1.56800 -2.76000 42.80400
C  2.31900 -4.80800 44.74800
N  2.87300 0.11900 42.69200
C  4.26000 0.14400 42.69000
C  4.80400 1.31000 41.89300
C  3.44500 2.15000 41.63800
C  2.32200 1.24200 42.20000
C  3.41500 3.57500 42.23700
C  5.58400 0.87900 40.63100
C  6.72000 1.88200 40.30300
H  6.42100 2.74500 39.01800
N  -0.09400 -0.77400 42.52000
C  -0.19500 0.48900 42.08800
C  -1.53000 0.65100 41.61600
C  -2.23900 -0.54700 41.84100
C  -1.27600 -1.46200 42.40700
C  -2.10800 2.03700 41.20100
C  -3.68900 -0.75400 41.53300
O  -4.31900 0.24800 41.17700
C  -4.42500 -2.13800 41.67300
N  0.51000 -3.56800 43.80700
C  -0.80800 -3.72000 43.47600
C  -1.42100 -5.01300 44.03500
C  -0.12400 -5.69100 44.58700
C  0.95700 -4.66900 44.39100
C  -2.47300 -4.79400 45.15000
C  0.22800 -7.09600 44.03500
C  0.27100 -8.29400 45.07300
N  3.26300 -2.70200 43.91300
C  3.43300 -3.97200 44.43500
C  4.84600 -4.26600 44.60600
C  5.39700 -3.08200 44.21400
C  4.47900 -2.16500 43.73000
C  5.35700 -5.50100 45.29700
C  6.71900 -2.39600 44.23900
O  7.73400 -2.73700 44.78800
C  6.48000 -1.01400 43.50800
C  6.98900 0.18100 44.18400
O  6.84900 0.49400 45.35900
O  7.78900 0.97500 43.35200
C  8.33200 2.20200 43.95300
H  0.59800 2.27100 41.41900
H  -2.61700 -3.04200 42.91200
H  2.55600 -5.82700 45.06100
H  5.37800 1.95000 42.56300
H  3.29200 2.20100 40.56000
H  4.42400 3.96700 42.36400
H  2.83900 3.45300 43.15400
H  2.85200 4.27100 41.61600
H  4.87800 0.80100 39.80300
H  5.89200 -0.15300 40.79600
H  7.59400 1.23900 40.20000
H  6.87600 2.50600 41.18200
H  -2.87300 1.93900 40.43100
H  -1.42600 2.85400 40.96700
H  -2.56000 2.37500 42.13300
H  -3.81800 -2.92100 41.21900
H  -5.38000 -2.08300 41.15200
H  -4.55900 -2.30400 42.74200
H  -1.91300 -5.51300 43.20100
H  -0.25000 -5.86800 45.65500
H  -3.49700 -4.79600 44.77500
H  -2.27800 -3.79900 45.54900
H  -2.33400 -5.46800 45.99500
H  1.18100 -7.03600 43.51100
H  -0.53200 -7.43200 43.33000
H  0.69500 -7.90200 45.99800
H  1.03300 -8.91100 44.59700
H  -0.72700 -8.73100 45.11600
H  6.38400 -5.25700 45.56800
H  5.29200 -6.32200 44.58400
H  4.78700 -5.76800 46.18700
H  7.00600 -1.15200 42.56400
H  8.85100 1.94400 44.87600
H  7.51400 2.86200 44.24100
H  9.07900 2.66200 43.30800
Mg -12.95200 16.97200 41.42900
C  -10.02300 15.30200 40.40600
C  -11.34800 19.95200 40.76200
C  -15.90000 18.27400 41.57500
C  -14.30300 13.58800 41.84800
N  -10.82700 17.56500 40.52100
C  -9.83500 16.67700 40.24500
C  -8.57500 17.52500 39.84800
C  -8.93600 18.97000 40.25800
C  -10.45200 18.84900 40.60400
C  -8.03600 19.59500 41.36800
C  -8.23600 17.33100 38.31800
C  -7.15900 16.34800 37.83400
H  -6.16800 16.76900 36.69300
N  -13.56100 18.97000 41.20900
C  -12.81200 20.04400 40.95400
C  -13.65300 21.25700 40.98600
C  -14.98800 20.78800 41.19400
C  -14.93700 19.26800 41.38800
C  -13.08600 22.62600 40.76600
C  -16.23300 21.71100 41.18100
O  -16.10200 22.89800 40.88300
C  -17.59800 21.23800 41.61600
N  -14.76300 16.08300 41.72500
C  -15.89400 16.88200 41.72500
C  -17.20800 16.05200 41.88500
C  -16.65300 14.54200 42.15100
C  -15.12800 14.73200 41.83500
C  -18.03800 16.54000 43.10400
C  -17.37800 13.48700 41.35200
C  -17.37400 12.01600 41.94000
N  -12.34800 14.86300 41.28600
C  -12.99800 13.66200 41.53600
C  -12.08500 12.58000 41.51900
C  -10.91600 13.13900 40.92700
C  -11.10800 14.51400 40.90300
C  -12.32900 11.10900 41.87500
C  -9.54000 12.88700 40.53600
O  -8.93600 11.85800 40.44700
C  -8.86200 14.32700 40.15900
C  -7.63900 14.53800 41.13400
O  -7.73300 14.79700 42.30600
O  -6.39900 14.34700 40.44500
C  -5.14100 14.56000 41.15900
H  -10.79500 20.88000 40.60200
H  -16.84200 18.82400 41.54500
H  -14.83000 12.63700 41.95200
H  -7.71400 17.26300 40.46400
H  -8.78300 19.60800 39.38800
H  -7.06200 19.86900 40.96100
H  -7.92900 18.93600 42.23000
H  -8.58000 20.45600 41.75600
H  -7.81600 18.29900 38.04400
H  -9.09500 17.13700 37.67600
H  -7.68100 15.51600 37.36200
H  -6.59500 16.10100 38.73300
H  -12.95700 22.86600 39.71100
H  -12.25500 22.95900 41.38800
H  -13.85000 23.26600 41.20700
H  -17.98200 20.55900 40.85400
H  -18.23000 22.12600 41.61500
H  -17.48300 20.69800 42.55600
H  -17.78300 16.18700 40.96900
H  -16.65400 14.19800 43.18500
H  -18.91400 17.08000 42.74400
H  -17.55400 17.25900 43.76500
H  -18.33100 15.73300 43.77500
H  -16.91000 13.44800 40.36800
H  -18.36500 13.94000 41.25000
H  -18.41500 11.69400 41.90800
H  -17.00500 11.90800 42.96000
H  -16.88100 11.41800 41.17300
H  -11.37400 10.59100 41.78900
H  -13.02300 10.47900 41.31800
H  -12.64500 10.97600 42.91000
H  -8.62700 14.43400 39.10000
H  -5.11800 15.59700 41.49400
H  -4.28100 14.43900 40.50100
H  -5.07800 13.80200 41.94000

