158

Mg 46.85200 46.48000 43.91000
C  43.51900 46.40200 43.04500
C  47.19100 43.35200 42.30600
C  50.08700 46.64700 44.43200
C  46.49500 49.96900 44.39200
N  45.60700 45.23500 42.68600
C  44.21400 45.26900 42.64000
C  43.67700 44.25700 41.62800
C  44.79100 43.19200 41.68800
C  46.00500 43.98800 42.22200
C  44.33600 41.93500 42.56100
C  43.34000 44.91400 40.20300
C  42.05500 44.48900 39.56400
H  42.22900 43.42200 38.50500
N  48.40900 45.12800 43.48200
C  48.40900 43.90600 42.78200
C  49.74100 43.35500 42.75600
C  50.61500 44.31600 43.31200
C  49.70500 45.41100 43.80900
C  50.08200 41.97100 42.02000
C  52.11100 44.17100 43.50700
O  52.66300 43.19000 43.10900
C  52.95100 45.37400 43.95000
N  48.08600 48.09400 44.27100
C  49.43900 47.87300 44.60200
C  50.12700 49.24300 45.05200
C  48.95800 50.28100 44.80200
C  47.73800 49.41000 44.45900
C  50.60500 49.27200 46.50200
C  49.25400 51.29700 43.66600
C  49.02800 50.90600 42.18600
N  45.24900 48.00500 43.92600
C  45.26900 49.36600 44.06800
C  43.89700 49.81400 44.05800
C  43.15400 48.68800 43.66500
C  44.01400 47.61900 43.56200
C  43.48900 51.24100 44.23200
C  41.88700 48.16900 43.26900
O  40.89600 48.76700 43.06600
C  42.01400 46.68900 42.95000
C  41.05800 45.88500 43.74600
O  40.03200 45.49400 43.29500
O  41.46000 45.76400 45.06400
C  40.57100 44.99200 45.93900
H  47.25400 42.37500 41.82300
H  51.08800 46.71800 44.86200
H  46.46600 51.04100 44.59500
H  42.71400 43.86600 41.95700
H  45.09900 42.75300 40.74000
H  44.43200 41.01100 41.99100
H  43.29900 41.94700 42.89700
H  44.88700 41.97900 43.50100
H  44.06500 44.56300 39.46800
H  43.43700 45.99600 40.28800
H  41.58800 45.32900 39.04900
H  41.32100 44.07200 40.25400
H  49.18500 41.44700 41.69000
H  50.62300 41.27100 42.65800
H  50.70400 42.28000 41.18000
H  52.75000 46.27100 43.36400
H  54.00300 45.09100 43.96900
H  52.65500 45.55700 44.98300
H  51.00100 49.48900 44.44900
H  48.67100 50.87100 45.67300
H  51.67500 49.47900 46.49700
H  50.42400 48.33600 47.03100
H  50.14300 50.06200 47.09400
H  50.15500 51.91000 43.69300
H  48.52100 52.09400 43.78400
H  47.97800 50.74600 41.94300
H  49.58600 49.99200 41.98400
H  49.41700 51.69200 41.53800
H  44.29900 51.96900 44.20500
H  42.88600 51.29200 45.13800
H  42.97400 51.41600 43.28700
H  41.67800 46.55000 41.92300
H  40.86400 45.34300 46.92800
H  40.77200 43.93000 46.07500
H  39.52500 45.06600 45.64400
Mg 6.46400 56.90800 42.14500
C  5.50700 53.46400 42.57800
C  9.34100 55.64500 40.80000
C  7.08100 59.86000 41.22200
C  3.10600 57.64300 43.03300
N  7.29200 54.73300 41.50800
C  6.73100 53.50800 41.82900
C  7.62800 52.38400 41.30000
C  8.99500 53.16300 41.19800
C  8.54200 54.61800 41.24700
C  10.13800 52.83200 42.20300
C  7.19700 51.97500 39.89900
C  7.73000 50.60300 39.46300
H  6.97100 49.82100 38.43300
N  8.12900 57.71300 41.41900
C  9.17400 57.04400 40.89700
C  10.16000 58.03800 40.47700
C  9.54700 59.34200 40.54000
C  8.17700 59.04300 41.11700
C  11.62800 57.69000 40.07600
C  10.15300 60.65400 40.07400
O  11.21600 60.66600 39.48100
C  9.41200 61.90300 40.36500
N  5.25000 58.53600 42.10600
C  5.76700 59.67000 41.69200
C  4.66800 60.78100 41.76800
C  3.41000 60.06800 42.43000
C  3.89800 58.65900 42.49700
C  5.21200 62.16300 42.26800
C  2.11500 60.35000 41.66900
C  0.93500 60.78500 42.55300
N  4.64800 55.84900 42.71400
C  3.43500 56.35800 43.20500
C  2.66500 55.23100 43.75400
C  3.48800 54.05600 43.56500
C  4.61900 54.50100 42.89900
C  1.24200 55.30900 44.33300
C  3.62100 52.63700 43.85100
O  2.90600 51.81300 44.45200
C  4.93200 52.23700 43.18200
C  4.69800 51.23000 42.17700
O  4.21000 51.47300 41.08900
O  5.15100 50.00900 42.67000
C  5.02700 48.83600 41.82400
H  10.25000 55.26100 40.33200
H  7.21400 60.87100 40.83200
H  2.17000 57.93400 43.51400
H  7.65700 51.55300 42.00400
H  9.42900 53.12900 40.19800
H  9.98900 51.81800 42.57500
H  10.14300 53.51700 43.05100
H  11.07400 52.95900 41.66000
H  7.66900 52.65000 39.18500
H  6.11600 52.01000 39.76400
H  7.76800 49.96300 40.34500
H  8.76600 50.73600 39.15200
H  12.24900 58.44000 40.56600
H  11.85200 57.83000 39.01900
H  11.91900 56.66300 40.29700
H  9.10600 61.95600 41.41000
H  8.59000 62.02300 39.65900
H  10.17900 62.63500 40.11300
H  4.49500 60.93900 40.70300
H  3.45400 60.55900 43.40200
H  6.13000 62.00800 42.83500
H  4.54800 62.68900 42.95400
H  5.33100 62.76200 41.36400
H  1.86600 59.47700 41.06600
H  2.34500 61.13300 40.94600
H  1.07500 60.54400 43.60700
H  0.01400 60.26100 42.29700
H  0.94200 61.87500 42.55300
H  0.97300 56.31900 44.64200
H  1.31500 54.72300 45.24900
H  0.48200 54.89100 43.67300
H  5.65800 51.78700 43.85900
H  4.11600 48.76000 41.23000
H  5.09100 47.93300 42.43100
H  5.86100 48.72200 41.13300

