158

Mg 53.74900 23.02800 45.62400
C  51.41400 25.47800 44.58500
C  51.66500 20.66300 44.35900
C  56.46300 20.75200 45.72600
C  56.06600 25.58300 46.17900
N  51.84300 23.21500 44.49200
C  50.96800 24.26700 44.29400
C  49.60600 23.83200 43.78400
C  49.66800 22.24600 44.08300
C  51.21200 22.01800 44.17300
C  48.98200 21.81900 45.42400
C  49.32500 24.23900 42.31800
C  48.29200 23.41600 41.61800
H  47.71500 23.71900 40.22800
N  54.01100 20.98400 45.23000
C  52.95800 20.18100 44.79500
C  53.46200 18.85400 44.91800
C  54.74100 18.77500 45.44000
C  55.15100 20.24700 45.48800
C  52.53300 17.79700 44.43800
C  55.63500 17.62900 45.83000
O  55.21100 16.49500 45.64200
C  56.91000 17.73400 46.47100
N  55.98100 23.15700 45.68800
C  56.87700 22.10000 45.78900
C  58.26900 22.59900 45.94600
C  58.07400 24.20900 46.12700
C  56.58300 24.31900 45.98000
C  58.86500 21.99900 47.17900
C  59.06800 24.99400 45.22800
C  59.81400 26.16800 46.02400
N  53.71800 25.05300 45.60000
C  54.67000 25.95000 45.97300
C  54.15400 27.27400 45.91600
C  52.83200 27.13700 45.40600
C  52.62400 25.80800 45.09700
C  54.85000 28.53400 46.18400
C  51.66600 27.87700 44.96700
O  51.41900 29.04000 45.02700
C  50.77700 26.81400 44.32200
C  50.68700 27.16200 42.83500
O  51.59600 27.05100 42.07700
O  49.44800 27.68000 42.57300
C  48.92800 27.91400 41.13900
H  50.85300 19.98200 44.09500
H  57.29300 20.05000 45.62500
H  56.82000 26.36400 46.29800
H  48.82300 24.28000 44.39500
H  49.19600 21.60600 43.33800
H  49.74300 21.34700 46.04600
H  48.29200 21.01200 45.17700
H  48.49600 22.65700 45.92300
H  50.25700 24.48600 41.80800
H  48.80900 25.19700 42.37700
H  47.52300 23.30200 42.38300
H  48.86000 22.50300 41.43800
H  52.91100 16.77800 44.53100
H  52.33700 17.92500 43.37400
H  51.62900 17.85000 45.04500
H  56.90300 18.51900 47.22700
H  57.69300 18.04600 45.78000
H  57.17500 16.81300 46.99200
H  58.84300 22.43800 45.03300
H  58.22000 24.39000 47.19200
H  58.20200 21.30900 47.70200
H  59.20700 22.73000 47.91200
H  59.75200 21.43500 46.89000
H  58.67000 25.53000 44.36600
H  59.80300 24.29800 44.82400
H  59.13600 27.01000 45.89100
H  60.83200 26.31600 45.66100
H  59.79000 25.96200 47.09400
H  55.71000 28.81500 45.57600
H  55.25400 28.44300 47.19200
H  54.13400 29.35200 46.09000
H  49.77300 26.88100 44.74100
H  47.85300 27.74500 41.20700
H  49.34200 27.26500 40.36700
H  49.14100 28.94500 40.85800
Mg 48.05600 34.02400 26.77700
C  46.21500 32.76700 29.40000
C  48.35400 37.01600 28.63100
C  49.18400 35.57900 24.07900
C  47.23600 31.24000 24.93400
N  47.29700 34.85200 28.68100
C  46.84700 33.97500 29.65500
C  46.91400 34.63100 31.06200
C  47.11700 36.05700 30.65800
C  47.64100 35.99500 29.25700
C  45.94000 37.04400 30.91000
C  48.12600 34.05300 31.86100
C  48.14300 34.03200 33.40100
H  47.41100 35.09400 34.15600
N  48.67600 36.06300 26.38900
C  48.85600 37.04600 27.32300
C  49.49000 38.12700 26.62800
C  49.66200 37.79800 25.20200
C  49.15700 36.41900 25.16100
C  49.69900 39.42800 27.23000
C  50.13600 38.63500 23.99300
O  50.09000 38.26300 22.80500
C  50.76300 39.93000 24.34500
N  48.08400 33.54800 24.69400
C  48.74400 34.32000 23.81600
C  48.79300 33.60600 22.39500
C  48.29200 32.17900 22.73600
C  47.78800 32.37400 24.18100
C  47.98100 34.46500 21.36700
C  49.41900 31.10800 22.85300
C  48.88400 29.68800 22.61800
N  47.09100 32.21000 27.10600
C  46.79600 31.20600 26.26000
C  45.92600 30.19900 26.88100
C  45.67500 30.84800 28.14400
C  46.38400 32.05500 28.17700
C  45.40800 28.89600 26.35000
C  44.95400 30.65200 29.40400
O  44.25200 29.75000 29.80400
C  45.24300 31.94000 30.25100
C  45.48900 31.67700 31.67800
O  46.25800 30.83700 32.15400
O  44.71100 32.51900 32.45500
C  44.58800 32.24800 33.87000
H  48.41300 37.88900 29.28400
H  49.56100 35.85100 23.09100
H  46.92000 30.31000 24.45700
H  45.96900 34.60300 31.60400
H  47.89700 36.46500 31.30100
H  45.96800 37.86100 30.18800
H  46.05600 37.48000 31.90200
H  44.97700 36.53400 30.91100
H  49.08600 34.54900 31.72100
H  48.15900 32.98000 31.67200
H  49.18600 34.07000 33.71600
H  47.77000 33.06200 33.73000
H  50.62100 39.86200 26.84400
H  49.84000 39.29300 28.30300
H  48.82200 40.07100 27.16200
H  51.66300 39.73700 24.92900
H  49.96100 40.50600 24.80600
H  50.93900 40.43900 23.39800
H  49.84300 33.50500 22.12100
H  47.43100 31.89100 22.13200
H  47.02100 34.61300 21.86200
H  47.83900 33.91400 20.43700
H  48.38800 35.46400 21.21300
H  49.87300 31.11400 23.84300
H  50.09600 31.44600 22.06800
H  49.45500 29.12400 21.88000
H  47.90100 29.70900 22.14700
H  48.79800 29.17700 23.57700
H  45.73800 28.50200 25.38900
H  44.33300 29.07500 26.38600
H  45.80900 28.21000 27.09700
H  44.34000 32.54800 30.18900
H  45.51000 32.60000 34.33300
H  44.49900 31.20400 34.17100
H  43.81700 32.83400 34.36900

