158

Mg 7.08500 54.16600 40.21000
C  6.73300 50.69500 39.92000
C  10.31600 53.85200 39.20000
C  7.11200 57.44000 39.44100
C  3.70200 54.31200 41.00100
N  8.34200 52.45200 39.62200
C  8.02300 51.14700 39.57700
C  9.40300 50.32700 39.40000
C  10.39900 51.43400 39.56200
C  9.57400 52.65600 39.42300
C  11.05300 51.33100 41.00900
C  9.49800 49.49700 38.09500
C  9.29700 50.39200 36.88100
H  7.86000 50.67400 36.38800
N  8.55000 55.52700 39.61300
C  9.82200 55.16400 39.29300
C  10.62000 56.32100 39.00100
C  9.68500 57.40400 38.88100
C  8.36800 56.85900 39.36300
C  12.09900 56.35500 38.81200
C  10.09200 58.90300 38.52300
O  11.35600 59.13100 38.39700
C  9.19500 59.99100 38.49000
N  5.56200 55.56700 39.99000
C  5.86200 56.90300 39.82400
C  4.62600 57.82400 40.00800
C  3.50400 56.80500 40.51400
C  4.31700 55.46200 40.57400
C  4.87300 59.09600 41.00400
C  2.22900 56.80900 39.68600
C  0.94300 56.45400 40.38700
N  5.49900 52.75800 40.50800
C  4.22200 53.02100 40.92100
C  3.59000 51.78900 41.24700
C  4.49500 50.82600 40.74600
C  5.64600 51.50500 40.24100
C  2.28200 51.56100 41.87900
C  4.68900 49.40500 40.64300
O  3.94000 48.51900 40.94900
C  6.12200 49.28000 40.12000
C  6.11100 48.52400 38.87000
O  5.69400 48.91100 37.77200
O  6.71700 47.33800 39.00000
C  6.71600 46.45000 37.82900
H  11.32600 53.71400 38.80800
H  7.08800 58.52000 39.28400
H  2.70100 54.38100 41.43000
H  9.44900 49.60000 40.21100
H  11.18600 51.34400 38.81400
H  10.77200 50.41000 41.52100
H  10.91300 52.16300 41.69900
H  12.12100 51.15200 40.88900
H  8.75900 48.69600 38.10900
H  10.50900 49.10400 37.98700
H  9.88600 50.05300 36.02900
H  9.57100 51.41200 37.15100
H  12.20400 56.42400 37.72900
H  12.58000 55.41000 39.06400
H  12.52800 57.17600 39.38700
H  8.36700 59.66100 37.86200
H  9.68300 60.82200 37.98100
H  8.77000 60.14100 39.48300
H  4.41100 58.09800 38.97500
H  3.23100 56.95100 41.55900
H  4.23700 59.13600 41.88800
H  4.62800 60.04200 40.52200
H  5.92400 59.14700 41.29100
H  2.47800 56.01100 38.98600
H  2.16200 57.75900 39.15600
H  0.50700 55.55000 39.96200
H  0.28300 57.31200 40.26300
H  1.05300 56.37000 41.46800
H  1.46800 51.99500 41.29800
H  2.30200 51.92400 42.90700
H  2.00800 50.52600 42.08300
H  6.89500 48.87900 40.77600
H  6.22800 45.50300 38.05900
H  7.73100 46.19200 37.52500
H  6.39100 46.90700 36.89500
Mg -9.94600 17.25300 42.49200
C  -6.51400 17.39600 42.59800
C  -9.89300 20.66700 41.60200
C  -13.18100 17.12000 41.71100
C  -9.69500 13.87800 42.56100
N  -8.43000 18.84800 42.05600
C  -7.09000 18.63700 42.32400
C  -6.29400 19.92900 42.29600
C  -7.43100 20.95000 41.95600
C  -8.68600 20.13900 41.92100
C  -7.55000 22.21800 42.80200
C  -5.03400 19.92300 41.26600
C  -4.55700 21.32100 40.87700
H  -4.40000 21.65500 39.41300
N  -11.32800 18.66200 41.77200
C  -11.12200 19.99800 41.58700
C  -12.31900 20.61500 41.14200
C  -13.36900 19.71900 41.29800
C  -12.68600 18.45800 41.60600
C  -12.38100 22.14100 40.81100
C  -14.90000 20.05400 41.16900
O  -15.27300 21.21100 40.93500
C  -15.87200 18.98100 41.47400
N  -11.22100 15.67400 41.92300
C  -12.56900 15.88900 41.91700
C  -13.38200 14.53900 42.07200
C  -12.24800 13.55200 42.32600
C  -10.96900 14.41300 42.24400
C  -14.50300 14.61400 43.16000
C  -12.26300 12.17700 41.54100
C  -12.14500 10.95500 42.46800
N  -8.55500 15.89500 42.62000
C  -8.51500 14.51800 42.71400
C  -7.19600 13.98400 42.89300
C  -6.45100 15.15300 42.96700
C  -7.27700 16.23000 42.70200
C  -6.79200 12.55900 43.04900
C  -5.10500 15.51300 43.11600
O  -4.12300 14.86700 43.43000
C  -5.05900 17.04200 42.90400
C  -4.67200 17.54000 44.22500
O  -5.46100 17.81400 45.14400
O  -3.30100 17.52800 44.40400
C  -2.99400 17.83800 45.79600
H  -9.82100 21.72700 41.35000
H  -14.26800 17.02700 41.74200
H  -9.71300 12.83400 42.88200
H  -5.89500 19.99900 43.30800
H  -7.33200 21.22800 40.90700
H  -6.90400 22.33300 43.67200
H  -8.54100 22.32800 43.24100
H  -7.26200 23.02400 42.12700
H  -5.24000 19.19700 40.47900
H  -4.17200 19.61800 41.85900
H  -3.52700 21.42300 41.21700
H  -5.00200 22.07800 41.52200
H  -11.97400 22.58300 41.72100
H  -13.39800 22.46100 40.58400
H  -11.83600 22.38200 39.89900
H  -15.79100 18.08600 40.85700
H  -16.82800 19.44600 41.23500
H  -15.75500 18.56700 42.47500
H  -13.80600 14.40200 41.07800
H  -12.29400 13.26900 43.37800
H  -14.49500 13.61400 43.59400
H  -15.40200 14.70700 42.55000
H  -14.48400 15.37400 43.94100
H  -11.33200 12.17200 40.97500
H  -13.16300 12.10300 40.93100
H  -13.10600 10.46700 42.62500
H  -11.68800 11.29000 43.40000
H  -11.43500 10.25700 42.02500
H  -6.03400 12.16900 42.37000
H  -7.57300 11.82300 42.85900
H  -6.42300 12.39500 44.06200
H  -4.36100 17.23200 42.08800
H  -3.42300 17.03100 46.39000
H  -3.54700 18.73900 46.06200
H  -1.91600 17.84200 45.95600

