158

Mg 42.25900 41.88400 26.13000
C  41.64600 44.30300 28.37600
C  43.30900 39.85300 28.69800
C  43.05900 39.73800 23.77200
C  41.71700 44.34700 23.49000
N  42.27300 42.00500 28.29700
C  41.93300 43.08900 29.00400
C  41.86900 42.80100 30.52400
C  42.78500 41.54500 30.62200
C  42.77600 41.08400 29.13100
C  44.22800 41.91300 31.05900
C  40.36300 42.68800 31.05000
C  40.15200 43.22300 32.56400
H  40.80400 42.41500 33.67000
N  42.91100 40.03200 26.26000
C  43.40100 39.38300 27.36800
C  43.90100 38.08400 26.98900
C  43.81100 38.01100 25.56700
C  43.23400 39.28500 25.13900
C  44.40800 36.97400 27.97100
C  43.91600 36.85500 24.66600
O  43.53200 36.86700 23.50400
C  44.16000 35.54600 25.27600
N  42.46500 42.08700 23.87900
C  42.66800 41.00200 23.13800
C  42.70400 41.25400 21.72700
C  42.09600 42.66000 21.64100
C  42.05800 43.05300 23.14100
C  44.11900 41.06700 21.08300
C  40.67100 42.73700 21.01900
C  39.56700 41.79300 21.61400
N  41.79600 43.91600 25.92800
C  41.62200 44.73100 24.84300
C  41.33000 46.06200 25.29900
C  41.32200 46.01300 26.68400
C  41.56100 44.63200 26.99500
C  41.08800 47.30900 24.37800
C  41.06800 46.65400 27.94000
O  40.68000 47.77400 28.20100
C  41.26200 45.59000 29.07400
C  42.10400 46.11500 30.17200
O  43.33400 46.13600 30.15600
O  41.34000 46.41900 31.26100
C  41.92600 46.95200 32.52900
H  43.66000 39.07600 29.38000
H  43.32900 39.11800 22.91500
H  41.43100 45.12000 22.77300
H  42.36700 43.61400 31.05400
H  42.38700 40.73900 31.23900
H  44.14900 42.67200 31.83700
H  44.74400 42.22100 30.15000
H  44.61300 41.04100 31.58800
H  40.07800 41.63900 30.96900
H  39.64300 43.20100 30.41200
H  39.08300 43.17600 32.77200
H  40.33900 44.29200 32.65800
H  44.66600 37.37900 28.94900
H  45.28100 36.39000 27.67700
H  43.50100 36.37200 28.02800
H  44.00200 34.76600 24.53100
H  43.47100 35.34600 26.09700
H  45.19100 35.63200 25.61800
H  42.09000 40.52600 21.19600
H  42.77000 43.37600 21.17200
H  44.44800 41.98400 20.59500
H  44.11500 40.27000 20.34000
H  44.75500 40.82900 21.93500
H  40.75100 42.42900 19.97700
H  40.39400 43.79100 21.03700
H  39.06600 41.28700 20.78900
H  38.84200 42.50200 22.01300
H  39.83600 41.06800 22.38200
H  41.84200 47.42300 23.60000
H  41.12800 48.26100 24.90600
H  40.16000 47.22400 23.81300
H  40.23600 45.56700 29.44100
H  41.82200 46.24300 33.35000
H  41.31600 47.82500 32.76200
H  42.93700 47.35900 32.52300
Mg 30.78800 57.73700 40.36400
C  27.88200 56.03000 39.40700
C  32.60500 55.20200 39.13200
C  33.40900 59.82600 40.55900
C  28.70500 60.63800 40.94900
N  30.30600 55.81900 39.55700
C  29.07100 55.25700 39.35500
C  29.18600 53.76300 38.93900
C  30.68100 53.53800 38.77800
C  31.26100 54.95000 39.29100
C  31.27400 52.34100 39.52800
C  28.36900 53.41500 37.63600
C  28.42800 54.51600 36.58700
H  28.90200 54.18600 35.16800
N  32.74000 57.50100 40.00400
C  33.33300 56.40200 39.41000
C  34.70300 56.63000 39.11300
C  34.92700 57.94300 39.59600
C  33.63100 58.47600 40.10600
C  35.61600 55.56300 38.48400
C  36.35000 58.58400 39.61200
O  37.24600 58.03200 38.95500
C  36.83500 59.96500 40.25800
N  31.05200 59.92300 40.74900
C  32.23700 60.50100 40.77200
C  32.15300 62.00800 41.10400
C  30.61600 62.27600 41.40500
C  30.06700 60.87300 41.04200
C  33.26300 62.70400 41.89500
C  30.03700 63.48300 40.67200
C  29.06900 64.32700 41.52800
N  28.75400 58.33900 40.05800
C  28.07800 59.44100 40.46100
C  26.70500 59.25200 40.23800
C  26.52100 57.91900 39.88900
C  27.81000 57.38100 39.70400
C  25.57500 60.19800 40.38300
C  25.57100 56.85700 39.61300
O  24.36800 56.84200 39.61100
C  26.38400 55.60800 39.22500
C  26.06200 54.54100 40.23400
O  26.60400 54.57100 41.32700
O  25.29700 53.50300 39.67300
C  25.09400 52.34200 40.56000
H  33.19500 54.38400 38.71500
H  34.35100 60.36100 40.69800
H  27.97100 61.36300 41.30700
H  28.78200 53.18600 39.77100
H  30.91600 53.28400 37.74400
H  32.16200 52.64300 40.08300
H  31.72400 51.57300 38.89800
H  30.59200 51.84500 40.21900
H  27.34000 53.23200 37.94400
H  28.71600 52.46700 37.22600
H  29.08100 55.34000 36.87600
H  27.41300 54.88400 36.43500
H  35.06400 54.71200 38.08600
H  36.33900 55.22900 39.22800
H  36.19800 55.93000 37.63800
H  36.54800 59.76000 41.28900
H  36.13800 60.69900 39.85400
H  37.89200 60.21100 40.15100
H  32.37200 62.33400 40.08700
H  30.50200 62.35100 42.48600
H  32.79000 63.23100 42.72400
H  33.67300 63.44800 41.21200
H  33.99200 62.00600 42.30800
H  29.61300 62.99600 39.79300
H  30.91400 64.09800 40.47000
H  28.67200 63.72600 42.34600
H  28.21700 64.69000 40.95300
H  29.68800 65.13400 41.92100
H  25.25800 59.95800 41.39700
H  24.87100 60.03500 39.56600
H  25.86700 61.24600 40.31400
H  26.16800 55.20800 38.23400
H  26.10700 51.97000 40.71300
H  24.49200 51.60600 40.02900
H  24.76200 52.67100 41.54400

