158

Mg 1.57600 -1.95500 43.79700
C  4.79900 -0.82900 43.33900
C  0.46900 0.92900 42.23000
C  -1.60500 -3.28400 43.67400
C  2.80600 -5.14600 44.73600
N  2.61900 -0.14100 42.92100
C  3.91200 0.08800 42.86700
C  4.20600 1.46000 42.30600
C  2.78300 2.11600 42.16200
C  1.88300 0.89800 42.39800
C  2.48500 3.30000 43.14100
C  4.93200 1.36200 40.88900
C  6.13700 2.36600 40.65300
H  6.04300 3.05900 39.31100
N  -0.35000 -1.27000 43.21400
C  -0.57700 -0.01600 42.60600
C  -1.99800 0.17600 42.44600
C  -2.56800 -1.06300 42.81600
C  -1.46500 -1.97100 43.22700
C  -2.66200 1.40600 41.93900
C  -4.08400 -1.30600 42.78300
O  -4.92700 -0.48900 42.49500
C  -4.65300 -2.69700 43.08700
N  0.69900 -3.86200 44.20000
C  -0.59600 -4.09300 44.13900
C  -0.93100 -5.56100 44.43700
C  0.42700 -6.14200 44.88600
C  1.42400 -4.99700 44.58900
C  -2.11600 -5.61300 45.52600
C  0.79900 -7.50800 44.20300
C  1.05600 -7.52600 42.74800
N  3.46600 -2.85600 44.08900
C  3.79400 -4.10400 44.58500
C  5.25600 -4.10900 44.82200
C  5.71100 -2.88100 44.31900
C  4.54800 -2.14400 43.85000
C  6.01700 -5.28700 45.48500
C  6.89900 -2.02300 44.06300
O  8.07700 -2.26300 44.18000
C  6.33900 -0.70300 43.41200
C  6.67100 0.41400 44.35700
O  5.98300 0.89500 45.20500
O  7.88500 0.92100 43.97400
C  8.37600 2.13300 44.73900
H  0.02100 1.91500 42.09100
H  -2.58800 -3.74200 43.54400
H  3.10200 -6.06200 45.25100
H  4.80000 2.05400 43.00100
H  2.77200 2.53100 41.15500
H  1.47100 3.22400 43.53300
H  2.39800 4.27900 42.66900
H  3.21300 3.45400 43.93800
H  4.17700 1.49900 40.11500
H  5.15300 0.31300 40.68900
H  7.08000 1.82400 40.72000
H  6.27200 3.01300 41.51900
H  -3.53100 1.83500 42.43600
H  -3.03300 1.10200 40.96000
H  -1.91800 2.17500 41.73000
H  -4.44000 -3.35400 42.24300
H  -5.71600 -2.47400 43.16900
H  -4.23800 -3.06800 44.02400
H  -1.22100 -6.06800 43.51700
H  0.28100 -6.29500 45.95500
H  -2.40600 -4.62000 45.87000
H  -1.84500 -6.36600 46.26600
H  -2.88400 -6.09300 44.92000
H  -0.02400 -8.15700 44.50500
H  1.63000 -7.86300 44.81300
H  0.41900 -8.12500 42.09700
H  2.13400 -7.65600 42.64900
H  0.87900 -6.48200 42.49000
H  6.43700 -5.86100 44.65900
H  5.35200 -5.99600 45.97900
H  6.74900 -5.06000 46.26000
H  6.70900 -0.42200 42.42600
H  7.86500 2.15900 45.70100
H  8.18900 3.12800 44.33500
H  9.44700 2.03000 44.91200
Mg 44.41700 4.98400 48.00700
C  42.28100 7.81000 47.60700
C  41.72700 2.94500 47.52700
C  46.52800 2.39000 47.79200
C  47.16400 7.25300 48.12800
N  42.21300 5.40200 47.63900
C  41.52400 6.57000 47.58200
C  40.03800 6.40100 47.31500
C  39.93700 4.85700 47.72700
C  41.37500 4.28700 47.61700
C  39.34800 4.48500 49.04000
C  39.46300 7.11400 46.01400
C  38.40900 6.20900 45.32500
H  37.84800 6.64900 43.89800
N  44.14700 2.90600 47.76200
C  42.95900 2.28900 47.50600
C  43.25700 0.93600 47.28100
C  44.66800 0.71900 47.32800
C  45.19600 2.08700 47.68600
C  42.13600 -0.10000 47.11800
C  45.26400 -0.65100 47.15900
O  44.55300 -1.67100 46.98400
C  46.79300 -0.87000 47.24400
N  46.64400 4.82500 47.85200
C  47.22800 3.64000 47.94400
C  48.76100 3.75700 47.95400
C  48.92800 5.35600 47.97300
C  47.48700 5.83800 48.00800
C  49.49200 3.04300 49.10100
C  49.93000 5.89300 47.01400
C  50.94800 6.87900 47.64600
N  44.77700 7.07500 47.88000
C  45.85600 7.81900 47.97400
C  45.54900 9.19300 47.73700
C  44.19600 9.22900 47.64400
C  43.69200 7.95300 47.71900
C  46.57800 10.34200 47.43100
C  43.06000 10.14300 47.56700
O  43.03700 11.34900 47.59700
C  41.75800 9.22200 47.52700
C  40.86300 9.57500 48.64800
O  40.91500 9.09500 49.79900
O  39.93400 10.50000 48.27200
C  38.80200 10.82200 49.14900
H  40.94900 2.18900 47.40600
H  47.16100 1.50700 47.90300
H  48.04000 7.87500 47.93200
H  39.52700 6.99100 48.07500
H  39.33400 4.31700 46.99700
H  38.50300 3.80800 48.91700
H  38.98500 5.33000 49.62500
H  40.10800 4.04700 49.68600
H  40.27300 7.19800 45.28900
H  39.06000 8.06400 46.36600
H  37.61600 5.93100 46.02000
H  38.97400 5.30100 45.11500
H  42.08100 -0.38700 46.06800
H  41.16100 0.32000 47.36600
H  42.36400 -0.87200 47.85300
H  47.04600 -1.85900 46.86200
H  46.89800 -0.74400 48.32200
H  47.33800 -0.18100 46.59800
H  49.02900 3.37200 46.97000
H  49.35400 5.65200 48.93100
H  48.71000 2.78600 49.81500
H  50.28100 3.62300 49.58000
H  49.80100 2.11800 48.61500
H  49.45500 6.28200 46.11400
H  50.44300 5.01400 46.62300
H  50.69700 7.22400 48.64900
H  50.99600 7.85300 47.15900
H  51.95500 6.46900 47.71600
H  47.56000 10.21600 47.88700
H  46.20200 11.25300 47.89700
H  46.67600 10.57900 46.37200
H  41.16100 9.46100 46.64700
H  38.56600 11.88500 49.10000
H  38.87100 10.53700 50.19900
H  37.95200 10.28700 48.72700

