158

Mg -1.89000 17.03900 26.12600
C  -1.77700 14.79700 28.89000
C  -2.00800 19.61400 28.25800
C  -2.07300 19.03700 23.44200
C  -2.15100 14.17100 24.09200
N  -2.10100 17.11700 28.32900
C  -1.90900 16.15400 29.25900
C  -2.01000 16.81000 30.68000
C  -2.35800 18.30800 30.35000
C  -2.11500 18.36000 28.85700
C  -3.78800 18.78300 30.68300
C  -0.82200 16.55200 31.57300
C  -0.57200 17.60900 32.72000
H  -0.00100 17.01900 33.97700
N  -1.88800 19.06400 25.89600
C  -1.83800 19.98400 26.89600
C  -1.85200 21.32000 26.27900
C  -1.87900 21.14900 24.90500
C  -1.94900 19.72600 24.72100
C  -1.93200 22.59200 27.16600
C  -1.69700 22.15200 23.84300
O  -1.67500 21.85700 22.66600
C  -1.40500 23.60100 24.13600
N  -2.07100 16.68900 24.13300
C  -2.10000 17.64800 23.20000
C  -2.02700 17.09400 21.74700
C  -1.81800 15.63200 21.96700
C  -2.00600 15.45500 23.49500
C  -3.17800 17.57200 20.79400
C  -0.43000 14.96800 21.51400
C  -0.48400 14.35900 20.06800
N  -1.96900 14.98600 26.38400
C  -2.10600 13.90700 25.46800
C  -1.95000 12.73700 26.13600
C  -1.84400 12.97200 27.47300
C  -1.91900 14.40400 27.59400
C  -2.01300 11.42100 25.47700
C  -1.65400 12.39300 28.77600
O  -1.44700 11.24400 29.05600
C  -1.74700 13.56200 29.78500
C  -0.53000 13.27500 30.65800
O  0.66400 13.58700 30.51900
O  -1.11300 12.72000 31.74600
C  -0.40100 12.62200 33.04300
H  -2.02000 20.51100 28.88100
H  -2.14200 19.61500 22.51800
H  -2.06300 13.31400 23.42100
H  -2.89100 16.41900 31.18800
H  -1.68000 19.06100 30.75300
H  -4.29700 18.40000 31.56700
H  -4.45800 18.63400 29.83700
H  -3.76000 19.87000 30.76100
H  0.07100 16.52200 30.94900
H  -0.96200 15.54400 31.96300
H  -1.46100 18.12300 33.08300
H  0.12300 18.33400 32.29600
H  -2.21700 22.31900 28.18100
H  -2.53000 23.40800 26.76000
H  -0.90900 22.96800 27.14600
H  -2.25100 24.21600 24.44400
H  -1.11500 24.11300 23.21900
H  -0.59700 23.68100 24.86300
H  -1.16900 17.43900 21.17000
H  -2.53400 15.09600 21.34500
H  -3.86100 18.20000 21.36700
H  -3.73100 16.70600 20.42800
H  -2.88800 18.21500 19.96400
H  -0.08300 14.17900 22.18200
H  0.39600 15.67700 21.45900
H  0.53700 14.53600 19.73100
H  -1.09000 14.86400 19.31500
H  -0.68500 13.29100 20.14600
H  -1.63400 11.38900 24.45600
H  -3.01600 11.00700 25.58800
H  -1.40400 10.76400 26.09900
H  -2.67800 13.37800 30.32200
H  -0.64000 13.51200 33.62500
H  0.67500 12.55400 32.88400
H  -0.84200 11.80600 33.61500
Mg 8.45600 3.29900 27.38500
C  9.75700 1.76000 30.33000
C  6.71900 5.39800 29.43800
C  7.21700 4.61300 24.58300
C  9.94700 0.65000 25.56100
N  8.42600 3.62800 29.59900
C  9.00700 2.86600 30.62900
C  8.80700 3.59200 32.04800
C  7.76000 4.66300 31.63000
C  7.60800 4.55900 30.09700
C  6.42900 4.60900 32.40900
C  10.27000 3.96200 32.68900
C  10.27300 4.99900 33.79900
H  10.52600 4.47800 35.19100
N  7.14700 4.85700 27.05300
C  6.43900 5.57900 28.07200
C  5.56000 6.54300 27.38400
C  5.73900 6.34900 25.93800
C  6.74000 5.24300 25.81200
C  4.94000 7.71600 28.09900
C  5.20300 7.15800 24.79300
O  5.37900 6.82500 23.59700
C  4.37200 8.44600 25.06600
N  8.74300 2.84900 25.28600
C  8.10800 3.54200 24.30700
C  8.24000 2.80700 22.93700
C  9.17300 1.64300 23.29900
C  9.31500 1.66900 24.80400
C  6.87900 2.24500 22.43700
C  10.57100 1.63100 22.58800
C  10.65700 0.67100 21.37000
N  9.66800 1.61800 27.81400
C  10.09700 0.60400 26.99100
C  10.73700 -0.52500 27.75000
C  10.66400 -0.01600 29.05800
C  9.89800 1.19700 29.07700
C  11.51300 -1.65800 27.15800
C  11.07700 -0.33700 30.37500
O  11.87300 -1.16900 30.84000
C  10.49300 0.80900 31.27500
C  9.57000 0.05200 32.28400
O  8.61500 -0.64700 31.97600
O  9.99200 0.25800 33.57100
C  9.19700 -0.41700 34.68700
H  6.13600 6.02700 30.11300
H  6.82700 5.12100 23.69800
H  10.19300 -0.28700 25.05700
H  8.40000 2.90900 32.79200
H  8.23300 5.62000 31.84900
H  6.21400 5.57100 32.87400
H  6.46700 3.83100 33.17200
H  5.55800 4.45100 31.77200
H  11.03500 4.17700 31.94300
H  10.54600 3.05900 33.23500
H  9.26100 5.40400 33.80400
H  11.03500 5.75800 33.62200
H  5.36700 7.62000 29.09700
H  3.86100 7.57600 28.04000
H  5.35500 8.64100 27.69800
H  5.10300 9.15000 25.46500
H  3.56900 8.15800 25.74400
H  3.98300 8.76200 24.09800
H  8.66000 3.48300 22.19300
H  8.64700 0.71400 23.08000
H  6.35400 1.87500 23.31800
H  7.16300 1.35200 21.87900
H  6.18500 2.88400 21.89200
H  11.32300 1.31000 23.31000
H  10.89200 2.62400 22.27300
H  9.67300 0.65900 20.90300
H  10.82100 -0.33800 21.75000
H  11.43900 1.00400 20.68800
H  12.27500 -1.24200 26.49900
H  10.79300 -2.27700 26.62300
H  12.01000 -2.31400 27.87200
H  11.35300 1.24600 31.78300
H  8.88900 0.41500 35.32000
H  9.77200 -1.09400 35.31800
H  8.35100 -1.05300 34.42400

