158

Mg 29.51000 59.21600 40.79600
C  26.38100 57.87000 39.90600
C  31.04800 56.56700 39.37000
C  32.39500 60.74800 41.38300
C  27.80600 62.14600 41.86800
N  28.77700 57.51700 39.67800
C  27.48800 57.13200 39.51600
C  27.43000 55.83100 38.68400
C  28.87000 55.28400 38.82900
C  29.62200 56.54600 39.35300
C  29.04900 54.08700 39.75400
C  27.04000 56.20100 37.21800
C  25.93100 55.41100 36.45800
H  26.30700 55.00400 34.96400
N  31.51200 58.78700 40.38800
C  31.93800 57.60600 39.78500
C  33.37900 57.52100 39.81000
C  33.81000 58.77500 40.36100
C  32.57800 59.56500 40.70900
C  34.23300 56.43400 39.30600
C  35.27100 59.15100 40.60600
O  36.16100 58.32900 40.36600
C  35.72900 60.43900 41.23600
N  30.03900 61.17100 41.40600
C  31.27500 61.53500 41.69900
C  31.39800 63.02000 42.16800
C  29.88400 63.52800 42.20200
C  29.22400 62.20200 41.82800
C  32.10400 63.17300 43.58800
C  29.54300 64.59100 41.09200
C  28.38000 65.53600 41.48000
N  27.52100 59.92000 40.92800
C  26.99700 61.07400 41.45800
C  25.52800 60.97600 41.45600
C  25.28500 59.82000 40.76400
C  26.53400 59.12100 40.54600
C  24.55000 62.03600 41.93000
C  24.26000 58.91600 40.31100
O  23.09000 59.00100 40.44800
C  24.86700 57.67200 39.64700
C  24.46400 56.39200 40.28600
O  24.65500 56.10200 41.45700
O  23.80500 55.59600 39.43300
C  23.31000 54.25600 39.83300
H  31.50700 55.61400 39.09700
H  33.35000 61.23100 41.60100
H  27.27300 63.00900 42.27300
H  26.62500 55.20100 39.06400
H  29.29100 55.19500 37.82800
H  29.38900 54.19100 40.78400
H  29.68300 53.36100 39.24500
H  28.09300 53.56400 39.70300
H  27.93500 56.25800 36.60000
H  26.66700 57.22300 37.27900
H  25.11100 56.12400 36.37600
H  25.68000 54.55400 37.08300
H  34.53700 55.82100 40.15500
H  35.03700 56.87600 38.71900
H  33.63500 55.84100 38.61400
H  36.81500 60.45400 41.14800
H  35.40700 60.56300 42.27000
H  35.33100 61.26800 40.65100
H  31.92400 63.60300 41.41100
H  29.46900 63.86400 43.15200
H  33.18300 63.01500 43.59200
H  31.60100 62.43900 44.21700
H  32.02600 64.16900 44.02400
H  29.45500 63.99700 40.18200
H  30.37600 65.22400 40.78500
H  28.02400 65.28500 42.47900
H  27.47100 65.51300 40.87900
H  28.77000 66.55200 41.54100
H  24.68600 62.96900 41.38500
H  24.45800 62.23500 42.99800
H  23.57700 61.61200 41.68400
H  24.60300 57.61800 38.59000
H  22.60800 54.51400 40.62500
H  24.10000 53.56800 40.13300
H  22.72800 53.85900 39.00100
Mg 6.85000 57.41200 41.86200
C  5.77900 54.08000 41.92900
C  9.83000 56.30600 40.51700
C  7.75400 60.66200 41.71000
C  3.66000 58.39200 43.02400
N  7.51600 55.35500 40.87900
C  7.02400 54.13000 41.24200
C  7.86600 53.02100 40.63700
C  9.25000 53.80500 40.63900
C  8.82800 55.26000 40.63400
C  10.11100 53.55400 41.86900
C  7.44900 52.60600 39.26900
C  7.47000 51.10900 38.86600
H  6.52200 50.56600 37.77300
N  8.53300 58.35800 41.13700
C  9.69300 57.76300 40.68500
C  10.65400 58.77200 40.41900
C  10.12500 60.03700 40.87100
C  8.74400 59.78100 41.19600
C  12.06900 58.49500 39.90400
C  10.79400 61.41700 40.71500
O  11.97800 61.48100 40.35200
C  10.09400 62.71100 40.95100
N  5.72300 59.26700 41.99800
C  6.42900 60.41900 42.13200
C  5.50000 61.54100 42.56400
C  4.17000 60.85600 42.98100
C  4.54700 59.41000 42.62800
C  6.13700 62.44200 43.67100
C  2.98600 61.37200 42.11500
C  1.65400 61.39900 42.95300
N  5.07900 56.46300 42.36700
C  3.90900 56.98300 42.92500
C  2.99100 55.92700 43.24600
C  3.77900 54.73300 43.05200
C  4.96400 55.13200 42.35900
C  1.59700 56.07800 43.72600
C  3.75800 53.33200 43.22100
O  2.86100 52.60500 43.68500
C  5.13900 52.84600 42.61400
C  4.88000 51.72700 41.71100
O  4.23700 51.78700 40.68300
O  5.19300 50.49700 42.14600
C  4.61200 49.29100 41.58600
H  10.85000 55.98400 40.29800
H  8.06500 61.70900 41.72000
H  2.71700 58.56400 43.54800
H  7.80900 52.15200 41.29300
H  9.88700 53.57900 39.78300
H  9.63600 52.95600 42.64600
H  10.28500 54.47400 42.42800
H  11.10000 53.11700 41.72800
H  7.92400 53.15200 38.45300
H  6.40200 52.87600 39.13700
H  7.21600 50.59400 39.79300
H  8.49000 50.86300 38.57100
H  12.27600 57.42900 39.99900
H  12.81300 58.92700 40.57400
H  12.26500 58.82000 38.88100
H  10.01900 62.94500 42.01300
H  9.16800 62.75600 40.37700
H  10.70900 63.54700 40.61600
H  5.27700 62.18000 41.71000
H  4.00400 60.97500 44.05200
H  6.91900 61.98100 44.27400
H  5.39600 63.01700 44.22600
H  6.71600 63.21700 43.16900
H  2.87100 60.74900 41.22800
H  3.08400 62.38400 41.72400
H  1.70900 62.17500 43.71600
H  1.54100 60.50100 43.56000
H  0.66600 61.40600 42.49100
H  1.69600 55.75800 44.76300
H  0.93500 55.51800 43.06600
H  1.26100 57.11500 43.72600
H  5.67700 52.45500 43.47700
H  5.08100 48.41100 42.02600
H  4.91500 49.34700 40.54000
H  3.52600 49.23700 41.65100

