158

Mg 41.17000 9.06500 29.66000
C  43.09300 10.24600 32.31700
C  39.02600 7.69000 31.92900
C  39.55200 7.56300 27.15700
C  43.68700 10.02700 27.45800
N  41.10700 8.94200 31.92300
C  41.85600 9.72300 32.75100
C  41.34600 9.73500 34.24800
C  40.13100 8.83200 34.02200
C  40.01800 8.49400 32.57000
C  39.98900 7.68400 34.98800
C  41.20100 11.18100 34.80900
C  42.09200 11.43300 36.10400
H  41.35500 12.01700 37.34400
N  39.56500 7.77600 29.55300
C  38.85500 7.33700 30.60700
C  37.72700 6.54600 30.11900
C  37.77600 6.60600 28.70400
C  39.04500 7.26300 28.40000
C  36.68100 5.85000 31.00700
C  36.78600 6.21900 27.68000
O  36.98600 6.31000 26.49000
C  35.45000 5.66100 28.09400
N  41.60700 8.79000 27.62200
C  40.68700 8.31700 26.77600
C  41.14600 8.46900 25.27600
C  42.35100 9.47300 25.40100
C  42.56200 9.42200 26.92200
C  41.56600 7.07800 24.76600
C  42.20200 10.99200 24.94100
C  40.86500 11.74600 25.07700
N  43.04800 9.85500 29.80800
C  43.97100 10.16800 28.82300
C  45.07900 10.75200 29.44300
C  44.79500 10.92000 30.82400
C  43.51400 10.28700 30.95300
C  46.30900 11.40800 28.81800
C  45.26700 11.44300 32.08600
O  46.28300 12.10900 32.36100
C  44.17800 10.92900 33.10000
C  44.78700 10.00400 34.08700
O  44.98600 8.79900 34.00500
O  45.06000 10.72300 35.26300
C  45.57200 9.93900 36.37000
H  38.23100 7.49800 32.65300
H  39.16700 6.87800 26.39900
H  44.42800 10.43300 26.76700
H  42.07900 9.15000 34.80300
H  39.26900 9.47700 34.19400
H  40.23400 6.76100 34.46300
H  38.96300 7.47600 35.29200
H  40.59600 7.80800 35.88400
H  40.15200 11.23400 35.10000
H  41.39300 11.98900 34.10200
H  42.83400 12.14300 35.73800
H  42.59000 10.50900 36.39800
H  36.86600 4.82200 30.69800
H  35.65500 6.19000 30.86400
H  36.82800 5.99900 32.07700
H  35.71200 4.67500 28.48000
H  34.76800 5.54200 27.25200
H  34.95400 6.35800 28.77000
H  40.28200 8.77500 24.68700
H  43.21300 8.97700 24.95500
H  41.00200 6.82700 23.86800
H  41.27500 6.32400 25.49800
H  42.61500 6.91600 24.51700
H  42.43300 11.12700 23.88400
H  43.02500 11.64700 25.22800
H  40.27600 11.08600 25.71400
H  40.47300 11.84700 24.06500
H  41.08400 12.72500 25.50400
H  46.47100 11.08700 27.79000
H  47.19600 11.18000 29.40900
H  46.19800 12.48900 28.91000
H  43.78500 11.80500 33.61600
H  46.62400 9.77900 36.13400
H  44.98900 9.10300 36.75600
H  45.44100 10.50400 37.29200
Mg 9.34600 47.72800 26.25400
C  7.21400 48.13800 29.03600
C  11.85100 49.08400 28.49300
C  11.55700 47.73900 23.70600
C  6.79500 47.07500 24.24500
N  9.50400 48.46800 28.53300
C  8.50500 48.25100 29.45100
C  8.88400 48.54100 30.90100
C  10.43000 48.93100 30.71800
C  10.63800 48.90500 29.15700
C  10.81200 50.29600 31.38400
C  8.67200 47.36300 31.89100
C  9.62200 46.83500 32.96000
H  8.94800 46.31500 34.23500
N  11.43400 48.24500 26.11800
C  12.24100 48.80800 27.13900
C  13.55800 48.88600 26.57200
C  13.45000 48.39200 25.22200
C  12.12000 48.12400 24.99900
C  14.84000 49.40700 27.21900
C  14.62200 48.33600 24.21300
O  14.50800 47.94800 23.09600
C  16.05100 48.67400 24.61900
N  9.20400 47.42300 24.24300
C  10.19700 47.43400 23.39200
C  9.78000 47.03900 21.94400
C  8.27600 46.97200 22.12200
C  8.05300 47.12000 23.67500
C  10.29700 47.95900 20.79200
C  7.67200 45.63400 21.48800
C  7.34600 45.64600 20.00400
N  7.39100 47.60800 26.53300
C  6.40600 47.27500 25.60000
C  5.08300 47.36900 26.20200
C  5.34000 47.71000 27.55200
C  6.73700 47.84700 27.67900
C  3.69100 47.04300 25.51300
C  4.74200 48.07200 28.78000
O  3.57500 48.12900 29.08500
C  5.91900 48.29600 29.77000
C  5.60900 47.23200 30.83900
O  5.98500 46.06000 30.83200
O  5.04500 47.78600 31.99500
C  4.53900 46.63500 32.77800
H  12.69800 49.41000 29.10000
H  12.22300 47.74900 22.84100
H  5.98600 46.88000 23.53800
H  8.34600 49.44600 31.18400
H  11.05500 48.20900 31.24300
H  11.71100 50.18600 31.99100
H  10.02900 50.63500 32.06200
H  10.93100 51.15600 30.72400
H  8.53700 46.49700 31.24400
H  7.71800 47.64400 32.33700
H  10.39900 47.50900 33.32000
H  10.01500 45.91500 32.52800
H  14.47300 49.66900 28.21100
H  15.17800 50.30900 26.70900
H  15.54500 48.62600 27.50300
H  16.14400 48.00600 25.47500
H  16.04400 49.75800 24.72500
H  16.82900 48.34200 23.93100
H  10.20000 46.05800 21.72600
H  7.89800 47.88600 21.66500
H  11.03400 48.68700 21.13000
H  9.57100 48.52300 20.20700
H  10.72100 47.26800 20.06400
H  6.77600 45.24100 21.96900
H  8.38800 44.83300 21.67300
H  7.57000 46.56400 19.46100
H  6.31400 45.31300 19.89200
H  7.99100 44.97400 19.43700
H  3.87600 46.69000 24.49900
H  3.20400 48.01800 25.47000
H  3.26200 46.28200 26.16500
H  5.79000 49.30900 30.15100
H  3.98100 45.97900 32.11000
H  3.88700 46.97200 33.58400
H  5.29000 45.97300 33.21000

