158

Mg 24.36200 -4.67100 46.25400
C  26.41800 -2.23100 44.98500
C  21.81000 -3.66300 44.16600
C  22.70300 -7.63900 46.85600
C  26.97300 -5.73200 48.47100
N  24.22200 -3.24200 44.54700
C  25.18500 -2.27800 44.25000
C  24.66600 -1.29600 43.16800
C  23.07700 -1.53600 43.36200
C  23.03300 -2.90900 44.08500
C  22.37100 -0.37400 44.14000
C  25.34900 -1.73100 41.80700
C  25.53100 -0.59600 40.79100
H  25.76100 -0.92300 39.32400
N  22.54900 -5.44800 45.65000
C  21.59900 -4.88400 44.84200
C  20.43300 -5.68900 44.67500
C  20.67000 -6.82900 45.54600
C  22.03300 -6.65600 46.11000
C  19.25700 -5.31200 43.80400
C  19.61700 -7.88700 45.82300
O  18.55600 -7.83400 45.24100
C  19.84300 -8.97300 46.84400
N  24.69100 -6.42900 47.48300
C  23.88800 -7.52500 47.62600
C  24.55300 -8.62700 48.44300
C  25.78700 -7.86600 49.10500
C  25.87400 -6.57600 48.27900
C  23.67400 -9.37200 49.48000
C  27.08600 -8.62400 49.33500
C  27.57900 -8.79500 50.77000
N  26.24700 -4.05600 46.73100
C  27.16800 -4.47600 47.70600
C  28.33400 -3.59800 47.68900
C  28.09600 -2.74700 46.57800
C  26.80400 -3.05500 46.07100
C  29.56600 -3.54700 48.71400
C  28.70600 -1.62900 45.82000
O  29.77200 -1.01400 45.83000
C  27.58700 -1.28400 44.76300
C  27.23000 0.16500 45.05900
O  26.23000 0.53600 45.69300
O  28.13800 1.07000 44.35000
C  27.68800 2.47300 44.20100
H  20.88400 -3.20600 43.81200
H  22.34000 -8.66700 46.78900
H  27.79600 -5.98500 49.14200
H  24.87900 -0.25000 43.38700
H  22.70900 -1.48400 42.33800
H  22.07500 -0.62100 45.16000
H  21.50300 -0.06900 43.55500
H  23.01700 0.48200 44.33300
H  24.82100 -2.55300 41.32300
H  26.30100 -2.14000 42.14500
H  26.32300 0.05300 41.16500
H  24.64900 0.04500 40.79300
H  19.19100 -6.03000 42.98700
H  19.23100 -4.29100 43.42200
H  18.35600 -5.32100 44.41700
H  18.86700 -9.41900 47.03700
H  20.20100 -8.53100 47.77400
H  20.60400 -9.54300 46.31000
H  24.91000 -9.36300 47.72400
H  25.40600 -7.58400 50.08600
H  23.46800 -10.41100 49.22600
H  22.72500 -8.83800 49.52500
H  24.05600 -9.28800 50.49800
H  27.83700 -8.13500 48.71500
H  27.06900 -9.62100 48.89400
H  28.43500 -8.15200 50.97900
H  27.77100 -9.84400 50.99300
H  26.84100 -8.38200 51.45800
H  30.44500 -3.85900 48.15000
H  29.36900 -4.38300 49.38500
H  29.83700 -2.60500 49.18900
H  27.96600 -1.27300 43.74100
H  27.22000 2.83700 45.11600
H  27.11100 2.79100 43.33200
H  28.70700 2.84200 44.08900
Mg 25.40900 1.54400 30.74400
C  27.59300 1.37300 33.45800
C  22.74600 1.97000 33.03500
C  23.21000 1.45500 28.11300
C  28.05800 0.83900 28.63400
N  25.15500 1.63800 32.98500
C  26.21000 1.69800 33.81300
C  25.71600 1.96000 35.22900
C  24.17400 2.13200 35.16500
C  24.00000 2.01700 33.63000
C  23.35000 0.95800 35.80200
C  26.47800 3.15600 35.92800
C  27.34200 2.87900 37.10200
H  27.18600 3.84200 38.27400
N  23.30100 1.65200 30.58500
C  22.39400 1.85000 31.59800
C  21.03300 1.93700 31.10200
C  21.17200 1.83200 29.66200
C  22.57600 1.65700 29.40300
C  19.78500 2.26600 31.91900
C  20.14100 1.85800 28.59700
O  20.26900 1.68700 27.38900
C  18.75100 1.93600 29.02400
N  25.57600 1.09000 28.70900
C  24.57400 1.18800 27.79900
C  25.13500 1.17100 26.34300
C  26.65000 1.09200 26.51200
C  26.83000 1.06600 28.02400
C  24.57800 -0.03100 25.61500
C  27.44600 2.22800 25.84500
C  28.46900 1.65500 24.87700
N  27.40900 1.14000 30.95500
C  28.35500 0.85800 30.00700
C  29.59200 0.56000 30.62000
C  29.28800 0.75300 31.99200
C  27.95800 1.07200 32.13500
C  30.97800 0.22200 30.06200
C  29.96600 0.73400 33.32400
O  31.12700 0.38600 33.56900
C  28.80900 1.10400 34.30700
C  28.67300 0.02900 35.28500
O  27.96800 -0.96500 35.14200
O  29.45000 0.23600 36.36300
C  29.18800 -0.71300 37.48500
H  22.00400 2.47300 33.65900
H  22.63400 1.68900 27.21600
H  28.98700 0.82800 28.05900
H  26.00200 1.02900 35.71900
H  23.92700 3.15000 35.46800
H  22.94700 0.28700 35.04300
H  22.50400 1.40600 36.32300
H  23.93700 0.39700 36.52900
H  25.79200 3.94300 36.24100
H  27.12100 3.56500 35.14900
H  28.36200 2.96000 36.72500
H  27.29100 1.88200 37.53900
H  19.77800 3.35000 32.03900
H  19.89100 1.88500 32.93500
H  18.84700 1.80200 31.61400
H  18.62500 1.01000 29.58500
H  18.13100 1.99700 28.13000
H  18.68300 2.82500 29.65200
H  24.81500 2.06000 25.80000
H  26.97200 0.09600 26.20900
H  24.40800 -0.89100 26.26300
H  25.28900 -0.28200 24.82800
H  23.71700 0.36500 25.07700
H  27.89600 2.78800 26.66500
H  26.79000 2.88400 25.27200
H  28.87800 0.69300 25.18500
H  29.30200 2.32400 25.08900
H  28.16700 1.66200 23.83000
H  31.19600 0.98200 29.31200
H  31.02700 -0.76500 29.60100
H  31.79500 0.18100 30.78300
H  29.21500 2.01700 34.74300
H  28.96200 -1.74800 37.22900
H  28.38100 -0.26400 38.06300
H  30.06200 -0.69400 38.13500

