158

Mg -2.45900 17.31300 26.59500
C  -2.55200 15.36200 29.43800
C  -2.69500 20.09400 28.57500
C  -2.68800 19.17000 23.81800
C  -2.83700 14.32100 24.66100
N  -2.54500 17.68300 28.76100
C  -2.55400 16.73300 29.76000
C  -2.58600 17.31100 31.13500
C  -2.47400 18.82800 30.86100
C  -2.63000 18.85900 29.32700
C  -3.51600 19.65200 31.59400
C  -1.49000 16.81000 32.16400
C  -0.69300 17.63600 33.24900
H  -0.41700 17.00800 34.60500
N  -2.53700 19.32100 26.22700
C  -2.65000 20.33700 27.14200
C  -2.52700 21.61800 26.50000
C  -2.36700 21.35700 25.08900
C  -2.56000 19.87600 24.97700
C  -2.74800 22.92700 27.26300
C  -2.00900 22.27600 23.98100
O  -2.03700 21.87500 22.83000
C  -1.78300 23.78100 24.18900
N  -2.77200 16.82300 24.55600
C  -2.82300 17.77000 23.61200
C  -2.90100 17.16900 22.20800
C  -3.12000 15.67700 22.48700
C  -2.82200 15.56700 23.99400
C  -4.07200 17.84600 21.35300
C  -2.10900 14.77000 21.72000
C  -0.58800 14.90200 22.17000
N  -2.47300 15.20000 26.84500
C  -2.64600 14.09800 26.02200
C  -2.76200 12.87300 26.73800
C  -2.77700 13.37300 28.09200
C  -2.58000 14.80000 28.12500
C  -2.76800 11.53900 26.15100
C  -2.91900 12.95300 29.48600
O  -3.14300 11.83300 29.89500
C  -2.70100 14.11900 30.42900
C  -1.47100 13.77500 31.22100
O  -0.28300 13.91700 30.83300
O  -1.85200 13.33300 32.43800
C  -0.81600 12.98700 33.44200
H  -2.67900 20.95700 29.24400
H  -2.84200 19.79500 22.93500
H  -3.07300 13.37500 24.16900
H  -3.61300 17.11100 31.43900
H  -1.49200 19.26700 31.03900
H  -4.07800 20.25000 30.87600
H  -2.96600 20.36800 32.20500
H  -4.13800 18.99700 32.20500
H  -0.73600 16.32300 31.54600
H  -1.98900 16.09900 32.82200
H  -1.34300 18.50600 33.34700
H  0.28600 17.86000 32.82700
H  -1.74300 23.32700 27.40000
H  -3.23600 22.87700 28.23700
H  -3.30900 23.59200 26.60700
H  -1.08100 23.90200 25.01400
H  -2.69400 24.18300 24.63100
H  -1.55600 24.36500 23.29600
H  -1.90600 17.28100 21.77800
H  -4.13200 15.35700 22.23800
H  -4.51200 17.16100 20.62900
H  -3.62400 18.54700 20.64900
H  -4.80000 18.42200 21.92500
H  -2.29000 15.12300 20.70400
H  -2.51600 13.76200 21.80100
H  -0.33700 14.08900 22.85100
H  -0.40900 15.84500 22.68700
H  -0.08100 14.88400 21.20500
H  -1.94800 11.39400 25.44800
H  -3.76000 11.48000 25.70300
H  -2.72100 10.85000 26.99400
H  -3.56800 14.24300 31.07800
H  -0.99300 13.60100 34.32500
H  0.20900 13.10200 33.08900
H  -0.85400 11.99000 33.87900
Mg 35.65300 49.02100 24.84300
C  35.90100 47.15400 27.72600
C  34.24300 51.63700 26.58400
C  34.83000 50.60600 21.90800
C  36.96900 46.26600 22.97300
N  34.99100 49.28300 26.92200
C  35.25200 48.36400 27.96300
C  34.94100 48.99000 29.38700
C  34.41000 50.43100 28.97700
C  34.60400 50.50900 27.44600
C  32.94000 50.58400 29.45000
C  36.12700 49.21200 30.31300
C  35.96300 49.14100 31.91500
H  34.66700 48.92800 32.62900
N  34.52000 50.85100 24.33500
C  34.16600 51.78100 25.20000
C  33.68900 52.92200 24.43500
C  33.84300 52.64200 23.06500
C  34.48300 51.32100 23.02800
C  33.18300 54.19200 25.09500
C  33.49600 53.49000 21.94700
O  33.97000 53.24600 20.85800
C  32.72300 54.82300 22.14400
N  35.89100 48.52400 22.76600
C  35.48800 49.37100 21.76300
C  35.76500 48.69600 20.33800
C  36.61400 47.41700 20.82400
C  36.46500 47.42500 22.27100
C  34.42000 48.42600 19.60500
C  38.14200 47.38300 20.31400
C  38.92400 48.72300 20.63100
N  36.25900 47.06300 25.20400
C  36.84600 46.08800 24.39400
C  37.16800 44.92900 25.23500
C  36.86100 45.40100 26.56600
C  36.26200 46.60600 26.46700
C  37.82300 43.62200 24.82100
C  36.94200 44.95600 27.95500
O  37.27200 43.89000 28.44300
C  36.28400 46.13300 28.77800
C  35.08300 45.64600 29.45000
O  34.05900 45.33800 28.89000
O  35.27900 45.35900 30.77700
C  34.22000 44.55400 31.44600
H  33.76000 52.50600 27.03500
H  34.79200 51.04300 20.90800
H  37.29600 45.41900 22.36600
H  34.18600 48.44600 29.95400
H  34.89500 51.29000 29.44100
H  32.38000 50.98500 28.60500
H  32.83200 51.44900 30.10400
H  32.42400 49.75900 29.94000
H  36.66700 50.11100 30.01500
H  36.93200 48.55900 29.97700
H  36.34700 50.05100 32.37500
H  36.67300 48.34600 32.14600
H  33.83500 55.00700 24.78300
H  33.13500 54.16400 26.18300
H  32.15700 54.36200 24.76800
H  31.85500 54.60000 22.76400
H  32.38100 55.20300 21.18200
H  33.37700 55.55300 22.62000
H  36.27700 49.36900 19.65100
H  36.20400 46.44500 20.55100
H  34.42500 48.82900 18.59200
H  33.61400 48.78100 20.24700
H  34.34900 47.34000 19.55000
H  38.01100 47.26700 19.23800
H  38.57000 46.48100 20.75100
H  39.86900 48.63000 21.16600
H  38.40200 49.45600 21.24500
H  39.26100 49.21600 19.71900
H  37.02700 42.88500 24.92200
H  38.63500 43.43100 25.52400
H  38.16900 43.59200 23.78800
H  36.90300 46.50300 29.59600
H  33.50500 45.11800 32.04500
H  34.69200 43.90100 32.17900
H  33.57000 44.02200 30.75000

