158

Mg 45.52900 17.34000 28.89700
C  44.04500 16.48800 31.83900
C  47.78000 19.40100 30.57600
C  47.01500 18.15600 25.82700
C  43.09100 15.49500 27.18400
N  45.70700 18.00400 30.87800
C  45.13700 17.33500 31.97300
C  45.88600 17.66000 33.25100
C  46.65900 18.94200 32.78800
C  46.73400 18.78800 31.30300
C  46.03500 20.27100 33.23200
C  46.70800 16.58200 33.88400
C  46.65200 16.56900 35.51300
H  46.58500 17.87100 36.23800
N  47.12800 18.51500 28.32800
C  47.89300 19.35000 29.13900
C  48.72900 20.18900 28.33900
C  48.61900 19.79300 26.99800
C  47.56200 18.81200 27.01100
C  49.62700 21.25600 28.85600
C  49.15300 20.44200 25.71200
O  48.61200 20.28000 24.64800
C  50.32700 21.36100 25.77400
N  45.27000 16.73800 26.75200
C  45.93700 17.25300 25.71600
C  45.37200 16.68900 24.41900
C  44.05400 15.85700 24.84100
C  44.12200 16.01400 26.35500
C  45.14800 17.79300 23.34100
C  44.06100 14.31000 24.36200
C  44.61800 13.20900 25.25000
N  43.94700 16.26100 29.36500
C  43.05700 15.57900 28.60300
C  41.92300 14.96100 29.44700
C  42.42000 15.27400 30.74300
C  43.53600 16.06700 30.63000
C  40.69200 14.12600 29.03800
C  42.15500 15.04800 32.14000
O  41.24400 14.34700 32.66000
C  43.15700 15.82000 32.86300
C  42.56700 16.72900 33.75900
O  41.83100 17.65700 33.42400
O  42.89000 16.41400 35.05800
C  42.29900 17.30100 36.11200
H  48.52700 19.99900 31.10200
H  47.55500 18.31000 24.89000
H  42.28200 14.90800 26.74300
H  45.13800 17.99300 33.97000
H  47.68000 19.02800 33.15900
H  45.87200 20.92000 32.37100
H  46.78000 20.76700 33.85500
H  45.20100 20.18200 33.92800
H  47.73200 16.62500 33.51200
H  46.30300 15.61800 33.57800
H  47.59000 16.04100 35.68700
H  45.86300 15.91600 35.88700
H  50.66000 20.97900 28.64700
H  49.45800 21.56500 29.88700
H  49.31600 22.17700 28.36300
H  50.03700 22.36400 26.08800
H  50.63300 21.31400 24.72900
H  51.05700 20.93500 26.46300
H  46.15500 16.01300 24.07800
H  43.16300 16.42000 24.56400
H  45.84300 17.62700 22.51800
H  45.30300 18.79000 23.75200
H  44.14100 17.80400 22.92300
H  44.52400 14.16900 23.38500
H  43.03400 14.00400 24.16500
H  43.83000 12.47900 25.44200
H  45.12300 13.56200 26.14900
H  45.45300 12.76500 24.70800
H  40.78500 13.99500 27.96000
H  39.85800 14.75400 29.35000
H  40.81400 13.19900 29.59800
H  43.80700 15.16100 33.44000
H  42.68900 18.30500 35.94600
H  42.58600 16.81600 37.04500
H  41.21500 17.18800 36.11800
Mg 27.02000 49.78200 26.70100
C  24.75500 51.00800 29.28200
C  29.27600 49.28700 29.16600
C  29.08000 49.16900 24.28300
C  24.65900 51.30300 24.39900
N  26.90000 50.07000 28.99100
C  25.89200 50.42200 29.88200
C  26.34000 50.29400 31.31600
C  27.93100 50.09700 31.14100
C  28.05700 49.75400 29.63900
C  28.74600 51.41000 31.60000
C  25.61000 49.06600 32.01400
C  24.88600 49.37200 33.29800
H  25.76200 49.92200 34.47400
N  28.88300 49.25600 26.75100
C  29.67600 49.00700 27.86500
C  30.99300 48.52400 27.41600
C  30.96400 48.55600 25.96200
C  29.58400 49.02000 25.60100
C  32.08300 48.17200 28.35800
C  32.05800 48.17400 24.95300
O  31.89500 48.02400 23.75300
C  33.50500 47.88200 25.39200
N  26.90200 50.19500 24.69500
C  27.88500 49.70600 23.87400
C  27.50100 49.75000 22.35100
C  25.96600 50.20000 22.53500
C  25.82700 50.63300 23.92100
C  28.36200 50.68700 21.48300
C  24.92200 49.14700 21.97000
C  24.57700 47.97800 22.83900
N  25.07900 50.89400 26.77100
C  24.26300 51.43600 25.75800
C  23.15600 52.16000 26.35100
C  23.24200 51.93300 27.73000
C  24.44000 51.21700 27.93300
C  22.15300 52.93200 25.56400
C  22.57300 52.18800 28.95400
O  21.49700 52.64500 29.17000
C  23.58700 51.68500 30.08400
C  23.93600 52.71900 31.07800
O  24.53800 53.75900 30.98100
O  23.46300 52.22600 32.27900
C  23.56000 53.16200 33.39400
H  29.96400 49.07800 29.98800
H  29.86000 49.11400 23.52100
H  24.03700 51.70400 23.59600
H  26.13800 51.17000 31.93300
H  28.32600 49.26900 31.73000
H  29.64300 51.15500 32.16600
H  28.15500 52.06300 32.24200
H  29.05900 51.98600 30.73000
H  26.33900 48.28100 32.21200
H  24.75600 48.74400 31.41900
H  24.23900 48.57000 33.65400
H  24.30200 50.27600 33.12600
H  33.06600 48.58100 28.12200
H  32.21300 47.09000 28.32600
H  31.93300 48.50800 29.38300
H  34.13900 47.46200 24.61200
H  33.55000 47.22600 26.26200
H  33.93300 48.84300 25.67900
H  27.59700 48.72400 21.99800
H  25.88400 51.07300 21.88800
H  27.65700 51.20500 20.83300
H  29.00700 50.18000 20.76500
H  28.96400 51.35700 22.09700
H  25.28000 48.67800 21.05400
H  24.03800 49.70200 21.65800
H  24.52400 48.29000 23.88200
H  25.33900 47.20600 22.73300
H  23.58100 47.60500 22.60100
H  22.45600 53.08200 24.52700
H  21.93700 53.90500 26.00500
H  21.31200 52.25400 25.70800
H  23.05600 50.87700 30.58700
H  24.32700 52.84500 34.10100
H  22.67100 53.19200 34.02400
H  23.74300 54.20500 33.13500

