158

Mg 40.10800 8.65700 29.29300
C  41.84900 9.75800 32.20000
C  37.82900 7.03900 31.45800
C  38.58400 7.58700 26.70500
C  42.87400 9.56800 27.52600
N  39.96100 8.33900 31.67600
C  40.65300 9.10000 32.60500
C  40.00800 8.85500 33.97100
C  38.76100 8.00200 33.79100
C  38.83500 7.76900 32.24100
C  38.74200 6.77300 34.66300
C  39.74400 10.18700 34.70300
C  40.01900 10.29900 36.19200
H  40.38500 11.62500 36.88100
N  38.47900 7.46100 29.13200
C  37.73800 6.83100 30.07800
C  36.60300 6.14300 29.41700
C  36.78900 6.32400 28.03300
C  37.97700 7.18200 27.92300
C  35.53400 5.44400 30.09500
C  35.92900 5.78500 26.85400
O  36.36100 5.82600 25.69200
C  34.56800 5.12500 27.13200
N  40.84800 8.23400 27.38000
C  39.89000 8.01600 26.45400
C  40.45500 8.06600 25.03600
C  41.79300 8.96400 25.29600
C  41.85200 8.95200 26.81600
C  40.89300 6.71800 24.38900
C  41.59900 10.40200 24.80200
C  40.44300 11.22400 25.27500
N  41.88900 9.57900 29.66200
C  42.94200 9.83600 28.85800
C  43.94200 10.56200 29.52800
C  43.54800 10.54000 30.83500
C  42.31200 9.90700 30.90000
C  45.19600 11.06200 28.92100
C  43.98100 10.92800 32.14700
O  44.91200 11.57300 32.54300
C  42.84500 10.41300 33.10500
C  43.34700 9.33200 34.06200
O  43.53900 8.19500 33.68400
O  43.34800 9.72100 35.38400
C  43.96800 8.91200 36.46700
H  37.01500 6.70300 32.10300
H  38.06100 7.32900 25.78200
H  43.73500 9.90500 26.94500
H  40.75000 8.30600 34.55100
H  37.84400 8.57400 33.93600
H  39.56600 6.76200 35.37700
H  38.78200 5.83300 34.11100
H  37.93200 6.76300 35.39300
H  38.69800 10.42900 34.51700
H  40.29800 11.03100 34.29000
H  40.76000 9.51800 36.36600
H  39.07100 10.19300 36.72000
H  35.79700 5.33200 31.14700
H  35.31200 4.44500 29.72100
H  34.56500 5.91900 29.94100
H  34.07300 5.88600 27.73600
H  34.74300 4.22000 27.71300
H  34.04000 4.82600 26.22600
H  39.72200 8.54600 24.38800
H  42.75000 8.58400 24.93800
H  41.89100 6.76100 23.95300
H  40.38000 6.29400 23.52500
H  40.76300 5.91800 25.11800
H  41.56100 10.24700 23.72400
H  42.52100 10.88200 25.13000
H  39.93300 10.74000 26.10800
H  39.74100 11.52200 24.49500
H  40.75200 12.20100 25.64600
H  45.64800 10.30100 28.28500
H  45.87700 11.31700 29.73300
H  44.96400 11.86200 28.21800
H  42.33900 11.12700 33.75400
H  45.01100 9.22100 36.39600
H  43.79200 7.84000 36.38400
H  43.48500 9.26300 37.37900
Mg -9.96600 40.65200 43.34700
C  -8.86300 37.42100 42.55900
C  -6.93500 41.77800 41.95500
C  -11.13300 43.75100 43.51200
C  -13.15300 39.48500 44.09400
N  -8.07400 39.65800 42.24000
C  -7.80400 38.31600 42.26200
C  -6.33000 38.04700 41.81500
C  -5.76400 39.54300 41.80500
C  -6.95900 40.45900 42.06000
C  -4.51500 39.77700 42.74900
C  -6.32300 37.30900 40.43400
C  -5.00600 36.53500 40.12300
H  -3.98200 37.22200 39.13800
N  -9.18700 42.54600 42.73400
C  -7.93400 42.76600 42.18100
C  -7.76000 44.14300 42.08100
C  -8.96400 44.81200 42.47000
C  -9.84500 43.69700 42.91300
C  -6.44200 44.82300 41.60100
C  -9.29100 46.35600 42.54000
O  -8.41900 47.21700 42.33400
C  -10.73400 46.86500 42.73900
N  -11.87500 41.51000 43.89400
C  -12.00500 42.82700 44.06100
C  -13.39500 43.26300 44.43000
C  -14.14400 41.78600 44.61900
C  -13.00000 40.82500 44.24200
C  -13.59000 44.29600 45.57400
C  -15.45500 41.67900 43.91300
C  -16.48200 40.76500 44.59000
N  -10.85100 38.87600 43.33900
C  -12.20100 38.55000 43.68400
C  -12.34200 37.07400 43.60000
C  -11.09900 36.62600 43.19200
C  -10.21900 37.77600 42.93400
C  -13.46800 36.17600 43.89000
C  -10.29200 35.45700 42.90000
O  -10.60000 34.27000 42.83100
C  -8.87400 35.88600 42.38900
C  -7.83800 35.03200 42.97200
O  -7.45000 35.13200 44.09100
O  -7.43000 34.09800 42.09000
C  -6.44000 33.10800 42.53800
H  -5.91900 42.15000 41.80500
H  -11.63000 44.72300 43.48800
H  -14.11500 39.02800 44.33600
H  -5.92100 37.45200 42.63200
H  -5.31400 39.70200 40.82500
H  -3.58900 39.43500 42.28800
H  -4.52600 39.08500 43.59200
H  -4.28300 40.79600 43.05800
H  -6.44100 38.07500 39.66700
H  -7.12000 36.58800 40.25500
H  -5.29500 35.56600 39.71800
H  -4.52300 36.36200 41.08500
H  -6.53300 45.48600 40.74000
H  -5.63800 44.09600 41.48900
H  -6.09300 45.56000 42.32300
H  -10.91600 47.84500 42.29800
H  -10.86400 46.84900 43.82200
H  -11.47100 46.23600 42.24000
H  -13.88900 43.57800 43.51100
H  -14.29800 41.65200 45.68900
H  -12.71800 44.93300 45.72400
H  -13.94500 43.74800 46.44600
H  -14.28700 45.05700 45.22100
H  -15.15800 41.30400 42.93400
H  -15.87100 42.68200 43.81500
H  -16.06800 40.13400 45.37600
H  -16.78700 40.08900 43.79100
H  -17.26400 41.43600 44.94600
H  -14.11100 36.52600 44.69800
H  -13.26400 35.16700 44.24800
H  -14.00800 35.91900 42.97900
H  -8.85500 35.75200 41.30700
H  -5.90200 32.69800 41.68300
H  -6.83900 32.45000 43.30900
H  -5.64300 33.70900 42.97700

