158

Mg 48.11400 44.62500 43.63300
C  44.66400 44.06100 43.21200
C  48.62700 41.39000 42.54700
C  51.42100 45.27800 43.62400
C  47.36700 48.06000 43.39700
N  46.74800 43.02400 42.92200
C  45.38800 42.93200 42.91000
C  44.84600 41.57000 42.66300
C  46.17600 40.66700 42.65900
C  47.31400 41.74000 42.71600
C  46.29400 39.63500 43.81300
C  44.06200 41.34700 41.35300
C  44.47200 42.19900 40.21800
H  44.15700 41.50400 38.90300
N  49.80000 43.41000 43.31600
C  49.79900 42.10100 42.84600
C  51.16900 41.73300 42.72700
C  52.02600 42.77300 43.11300
C  51.09400 43.88900 43.43700
C  51.50200 40.34200 42.33800
C  53.53500 42.74600 43.18800
O  54.15100 41.77500 42.79300
C  54.36300 43.92400 43.73600
N  49.24400 46.44300 43.43200
C  50.55700 46.41700 43.66400
C  51.12200 47.79400 43.70800
C  49.89400 48.71600 43.33300
C  48.76700 47.69100 43.40000
C  51.85200 48.08700 45.09600
C  50.01300 49.44400 41.95800
C  50.31400 50.92200 41.99900
N  46.35500 45.86900 43.62100
C  46.23500 47.23300 43.57400
C  44.75500 47.54300 43.53900
C  44.14100 46.29000 43.36600
C  45.17300 45.33500 43.44000
C  44.00200 48.92600 43.45700
C  42.81800 45.61000 43.16000
O  41.70900 46.16300 43.14200
C  43.13100 44.13300 43.13600
C  42.33900 43.43300 44.27700
O  41.38900 42.66100 44.10600
O  42.68500 43.73200 45.60500
C  41.90000 43.26700 46.75800
H  48.71600 40.36200 42.19000
H  52.49700 45.39600 43.47800
H  47.05100 49.09900 43.50800
H  44.15600 41.18500 43.41400
H  46.36800 40.22600 41.68100
H  45.34800 39.49400 44.33500
H  46.99300 39.94600 44.58900
H  46.50400 38.70500 43.28500
H  43.04400 41.61000 41.64000
H  44.00500 40.26300 41.25800
H  45.55700 42.27900 40.28900
H  44.06800 43.20500 40.33500
H  52.04800 40.21700 41.40300
H  50.66500 39.65800 42.19700
H  52.17600 39.92700 43.08600
H  54.46300 44.67300 42.95100
H  55.36200 43.57300 43.99400
H  53.96300 44.49000 44.57800
H  51.86900 47.87400 42.91900
H  49.74200 49.51800 44.05500
H  51.57700 47.36400 45.86500
H  51.57500 49.09000 45.42300
H  52.93900 48.06400 45.02100
H  49.05400 49.36600 41.44500
H  50.79500 48.97000 41.36400
H  51.16300 51.16200 41.35900
H  50.49500 51.16100 43.04700
H  49.39500 51.49900 41.89800
H  43.89300 49.37900 42.47200
H  44.65900 49.60500 44.00100
H  43.05000 48.91200 43.98800
H  42.78500 43.69200 42.20100
H  41.92000 42.18800 46.91100
H  40.86500 43.60700 46.72200
H  42.44100 43.66500 47.61600
Mg 9.12800 48.17400 26.75500
C  6.89200 47.87400 29.48000
C  11.44500 49.22800 28.90900
C  11.05900 48.57700 24.17300
C  6.26400 47.89400 24.56700
N  8.99700 48.83500 28.98500
C  8.12000 48.33000 29.87100
C  8.60200 48.67600 31.32800
C  10.10000 49.04200 31.09900
C  10.18500 49.01500 29.57300
C  10.61100 50.38600 31.71200
C  8.23700 47.57600 32.40200
C  8.93800 47.72900 33.78900
H  8.65500 46.69800 34.92200
N  11.06500 48.69900 26.57500
C  11.84900 49.09600 27.57900
C  13.14300 49.42300 27.02800
C  13.06500 49.16000 25.63200
C  11.71100 48.72300 25.41300
C  14.34400 50.07600 27.81400
C  14.22500 49.19100 24.63600
O  14.12100 48.97900 23.49900
C  15.61000 49.58800 25.19600
N  8.66200 48.12600 24.61500
C  9.71900 48.33900 23.78800
C  9.26800 48.24100 22.29300
C  7.76100 47.86600 22.32700
C  7.51600 47.96200 23.88500
C  9.61900 49.45900 21.31500
C  7.38800 46.40600 21.85900
C  6.70100 46.26700 20.48400
N  7.03600 47.87500 26.91800
C  6.08000 47.76600 25.92600
C  4.85700 47.47800 26.60200
C  5.08500 47.47700 27.92000
C  6.45100 47.75600 28.12700
C  3.57900 47.15000 25.92600
C  4.49700 47.38300 29.21000
O  3.32600 47.29700 29.58700
C  5.63000 47.40300 30.26000
C  5.73200 46.09700 30.87500
O  6.53800 45.23200 30.49600
O  4.97400 46.07300 32.03700
C  5.29200 44.86200 32.93400
H  12.24200 49.30300 29.65200
H  11.74900 48.81400 23.36100
H  5.48800 47.77800 23.80800
H  8.17800 49.64900 31.57800
H  10.73500 48.23600 31.46700
H  10.93200 51.17900 31.03700
H  11.44600 49.99600 32.29500
H  9.95800 50.83100 32.46300
H  8.41100 46.59600 31.95600
H  7.18900 47.79400 32.60800
H  8.62700 48.66700 34.25000
H  10.01100 47.57800 33.66900
H  15.26500 49.51700 27.65000
H  14.09600 50.29000 28.85400
H  14.42000 51.05000 27.33200
H  16.10900 48.94700 25.92200
H  15.60800 50.66600 25.35900
H  16.21700 49.43500 24.30400
H  9.75200 47.33100 21.93800
H  7.04800 48.52300 21.82900
H  8.74600 49.87400 20.81000
H  10.39700 49.17500 20.60700
H  10.01400 50.30700 21.87300
H  6.65100 46.02700 22.56800
H  8.25700 45.74900 21.84600
H  7.22100 45.70000 19.71200
H  6.41100 47.15900 19.92800
H  5.84900 45.63200 20.72900
H  2.92100 47.98900 26.15000
H  3.14500 46.33500 26.50500
H  3.57800 46.89200 24.86700
H  5.49700 48.11100 31.07900
H  5.61500 45.31900 33.87000
H  6.13600 44.22600 32.66800
H  4.37300 44.33700 33.19200

