158

Mg 47.31700 25.05500 28.25300
C  47.81800 27.54600 30.66000
C  46.52600 22.81000 30.64800
C  46.95900 22.76600 25.87500
C  48.64600 27.44100 25.88800
N  47.30900 25.13000 30.34300
C  47.51800 26.28100 31.16400
C  47.24700 25.92900 32.61500
C  46.84400 24.46000 32.61100
C  46.92300 24.03800 31.10800
C  47.66600 23.53600 33.58200
C  46.29800 26.92900 33.37300
C  45.71700 26.42200 34.73300
H  46.68800 26.03400 35.84700
N  46.76800 23.08100 28.25300
C  46.45200 22.27000 29.31700
C  46.18500 20.90700 28.90700
C  46.31800 20.96100 27.43300
C  46.70300 22.27300 27.13100
C  46.05900 19.76200 29.88200
C  46.13800 19.75500 26.53100
O  46.39300 19.72800 25.35900
C  45.74100 18.43700 27.06400
N  47.97800 25.03500 26.26500
C  47.61000 23.98800 25.44900
C  47.75100 24.34300 23.97100
C  47.80900 25.88400 23.95900
C  48.19600 26.15400 25.43200
C  48.88400 23.53600 23.21400
C  46.57300 26.61900 23.52500
C  45.35000 26.55700 24.47800
N  48.19200 26.99800 28.22500
C  48.68400 27.80300 27.22400
C  49.00200 29.09900 27.73200
C  48.67700 29.08200 29.11800
C  48.25600 27.72500 29.32100
C  49.53000 30.29600 26.86800
C  48.73100 29.83600 30.39000
O  48.98100 31.00600 30.55700
C  48.21200 28.83000 31.39300
C  49.30600 28.66900 32.41400
O  50.49800 28.33700 32.24400
O  48.95600 29.24700 33.65300
C  49.82000 29.01200 34.87200
H  46.27500 22.16000 31.48900
H  46.87900 21.98900 25.11100
H  48.67900 28.19100 25.09500
H  48.25100 25.96200 33.04000
H  45.78200 24.38600 32.84400
H  48.51300 24.05200 34.03400
H  48.17800 22.74300 33.03700
H  47.11800 22.91500 34.29100
H  45.48400 27.28700 32.74200
H  46.83300 27.74400 33.86100
H  45.08200 25.54700 34.59300
H  44.97500 27.18900 34.95300
H  46.63100 18.88400 29.58200
H  45.04400 19.37600 29.79800
H  46.05300 19.94000 30.95700
H  45.21100 17.89200 26.28300
H  45.10300 18.47600 27.94600
H  46.73300 18.02200 27.24200
H  46.82000 24.06100 23.47800
H  48.60800 26.32800 23.36400
H  49.36900 22.85000 23.90800
H  49.61600 24.24800 22.83300
H  48.45600 22.87500 22.46000
H  46.38600 26.01500 22.63800
H  46.88200 27.59700 23.15600
H  44.36900 26.46200 24.01200
H  45.34700 27.37900 25.19300
H  45.59600 25.63800 25.01100
H  50.08300 30.90900 27.58000
H  48.64500 30.74000 26.41100
H  50.19800 29.88400 26.11200
H  47.36300 29.22000 31.95400
H  50.62000 29.75000 34.91900
H  50.32900 28.04900 34.91300
H  49.25200 29.14100 35.79300
Mg 8.68400 48.49400 27.87800
C  7.09900 47.68500 30.88100
C  11.62500 48.64400 29.70700
C  10.35500 49.66400 25.20300
C  5.73000 48.80300 26.36200
N  9.23500 48.22600 30.06500
C  8.45500 47.85300 31.13500
C  9.19100 47.88400 32.50800
C  10.67300 48.27200 32.01800
C  10.50700 48.40300 30.53500
C  11.25800 49.59600 32.66000
C  9.07000 46.68200 33.44100
C  8.74200 46.99000 34.90200
H  9.48300 46.03200 35.87700
N  10.72400 48.95600 27.44100
C  11.76000 48.83900 28.33900
C  12.96700 49.01200 27.64700
C  12.66600 49.31400 26.30100
C  11.19500 49.39500 26.25600
C  14.37700 48.85900 28.29000
C  13.56300 49.75700 25.09200
O  13.15800 50.14600 24.02600
C  15.06400 49.43900 25.18800
N  8.11700 49.11000 26.04200
C  9.00100 49.61800 25.07100
C  8.18800 50.15100 23.87400
C  6.72900 49.75400 24.24300
C  6.85300 49.08800 25.60400
C  8.39500 51.67400 23.60400
C  6.07400 48.78700 23.23100
C  6.73200 47.45800 22.75300
N  6.80000 48.05300 28.39900
C  5.65100 48.21300 27.66000
C  4.44900 47.89400 28.47400
C  5.00000 47.75000 29.72600
C  6.42600 47.83700 29.69100
C  2.97500 47.79300 27.98000
C  4.65300 47.38100 31.13800
O  3.55200 47.08100 31.54700
C  5.97700 47.27600 31.88300
C  6.05100 45.78200 32.24200
O  6.51800 44.95000 31.54100
O  5.39800 45.54000 33.46200
C  5.52000 44.16900 34.07200
H  12.57800 48.67200 30.23900
H  10.84700 50.07100 24.31700
H  4.78300 48.95100 25.83800
H  8.77700 48.75100 33.02400
H  11.32900 47.40200 32.03100
H  12.34200 49.51500 32.58300
H  10.91900 49.83200 33.66800
H  11.09800 50.41300 31.95600
H  10.03400 46.18100 33.52600
H  8.51300 45.92300 32.89100
H  7.68800 46.73700 35.01600
H  8.82800 48.05900 35.09600
H  14.82700 47.92300 27.96100
H  14.32900 48.94600 29.37500
H  14.99400 49.68100 27.92700
H  15.66500 50.18200 25.71200
H  15.42800 49.27800 24.17300
H  15.08400 48.50700 25.75300
H  8.55500 49.70800 22.94800
H  6.09600 50.63900 24.31100
H  9.21100 51.78000 22.89000
H  8.62400 52.08400 24.58700
H  7.58100 52.32200 23.27800
H  5.97600 49.36900 22.31500
H  5.04800 48.51200 23.47400
H  7.35900 47.63200 21.87800
H  5.91300 46.76300 22.56600
H  7.45300 47.08200 23.47900
H  2.57600 48.77500 27.72600
H  2.36700 47.35700 28.77300
H  2.97100 47.16100 27.09100
H  6.03200 47.86000 32.80200
H  6.33900 44.11800 34.79000
H  5.54700 43.35300 33.35000
H  4.62500 44.08300 34.68900

