158

Mg 41.88400 41.04700 27.39800
C  41.12100 43.53400 29.91700
C  42.75800 39.00600 29.95200
C  42.54700 38.83200 25.10000
C  41.45700 43.60200 24.97600
N  42.03500 41.38600 29.70900
C  41.53000 42.31200 30.52500
C  41.52700 41.86700 31.99100
C  42.32500 40.47800 31.93200
C  42.41700 40.28000 30.43700
C  43.68300 40.34500 32.55600
C  40.11400 41.84200 32.61300
C  39.97400 42.75000 33.89700
H  39.08500 42.07100 34.99900
N  42.52900 39.14700 27.50600
C  42.87400 38.35000 28.64100
C  43.28500 37.04000 28.20200
C  43.20600 37.05700 26.78700
C  42.70700 38.37600 26.40800
C  43.74000 35.97300 29.16200
C  43.48100 35.88200 25.87300
O  43.55700 36.05000 24.61900
C  43.89200 34.53500 26.31400
N  42.29300 41.34600 25.28900
C  42.32800 40.18200 24.60000
C  42.32600 40.47500 23.11100
C  41.83400 41.94800 23.05500
C  41.80100 42.34000 24.54400
C  43.62300 40.12900 22.33600
C  40.54300 42.24200 22.21800
C  39.30100 41.60000 22.78500
N  41.41200 43.06600 27.37900
C  41.24400 43.98000 26.32600
C  40.72500 45.23300 26.87300
C  40.71100 45.04100 28.23000
C  41.12900 43.72100 28.49900
C  40.42800 46.45300 26.17100
C  40.22300 45.73200 29.42400
O  39.77700 46.86800 29.62700
C  40.49700 44.69600 30.63500
C  41.42500 45.33900 31.62400
O  42.62100 45.41400 31.56800
O  40.78100 45.92400 32.64100
C  41.47900 46.79100 33.54700
H  42.85200 38.33200 30.80600
H  42.49800 38.04700 24.34300
H  41.31200 44.36900 24.21300
H  42.04400 42.57600 32.63800
H  41.67600 39.72700 32.38300
H  43.88300 41.21900 33.17600
H  44.41700 40.28700 31.75300
H  43.84600 39.45200 33.16000
H  39.92300 40.84600 33.01300
H  39.30200 42.08800 31.92900
H  39.40000 43.63900 33.63700
H  40.80100 43.30200 34.34300
H  43.04800 35.13400 29.08500
H  43.76100 36.36000 30.18100
H  44.70300 35.53400 28.90500
H  43.42300 34.14700 27.21900
H  44.95200 34.52300 26.56700
H  43.95800 33.81000 25.50300
H  41.60500 39.70700 22.83100
H  42.56900 42.60500 22.59000
H  44.40800 40.03500 23.08600
H  43.97500 40.90700 21.65800
H  43.63800 39.17200 21.81600
H  40.64100 41.98400 21.16300
H  40.36700 43.30900 22.08500
H  38.65300 42.41300 23.11200
H  39.48200 41.09600 23.73500
H  38.86300 40.98600 21.99900
H  41.21600 46.67800 25.45200
H  40.39100 47.24700 26.91700
H  39.47300 46.46000 25.64500
H  39.56700 44.37300 31.10300
H  41.86400 46.23800 34.40400
H  40.80900 47.60100 33.83400
H  42.30100 47.30100 33.04400
Mg -10.83200 38.32600 42.55900
C  -8.79600 35.63700 41.53500
C  -8.89200 40.40900 40.70600
C  -13.30000 40.65200 42.76000
C  -13.15800 35.88400 43.63100
N  -9.11200 38.01900 41.04300
C  -8.37600 36.84900 40.91000
C  -7.08400 37.22300 40.01500
C  -7.05400 38.71200 40.20200
C  -8.47400 39.09300 40.63300
C  -5.91500 39.39600 41.14600
C  -7.29000 36.70100 38.52800
C  -6.09900 35.93600 37.92700
H  -5.54600 36.60700 36.67200
N  -11.00800 40.32500 42.05300
C  -10.02200 40.98400 41.36000
C  -10.42300 42.39800 41.34900
C  -11.74100 42.51100 41.91700
C  -12.04400 41.12500 42.34300
C  -9.62200 43.49300 40.65700
C  -12.63400 43.74100 41.91400
O  -12.24700 44.80200 41.41800
C  -13.98800 43.84600 42.55800
N  -12.97400 38.28000 43.02500
C  -13.74600 39.37500 43.11300
C  -15.13400 39.07200 43.72700
C  -15.06700 37.54600 44.01500
C  -13.67200 37.14800 43.45400
C  -15.36300 39.85500 45.07800
C  -16.14100 36.69100 43.25700
C  -17.54000 37.08000 43.52300
N  -10.95300 36.19400 42.81300
C  -11.89300 35.34000 43.28900
C  -11.35900 33.98200 43.42800
C  -10.14600 34.08800 42.67600
C  -9.96100 35.44400 42.29100
C  -12.08100 32.92200 44.13900
C  -9.00900 33.30400 42.30900
O  -8.63100 32.21200 42.57400
C  -8.14400 34.26400 41.44700
C  -6.78200 34.19500 42.07700
O  -6.06800 33.18500 42.13100
O  -6.52900 35.36600 42.78100
C  -5.31100 35.38700 43.52800
H  -8.22500 41.12500 40.22000
H  -13.98300 41.47000 42.99900
H  -13.88700 35.16600 44.01300
H  -6.22100 36.84300 40.56200
H  -6.98500 39.13300 39.19900
H  -5.93400 39.20500 42.21900
H  -6.17100 40.43700 40.94800
H  -4.93200 39.07200 40.80500
H  -7.61900 37.50300 37.86900
H  -8.10100 35.98500 38.65900
H  -6.13600 34.85300 37.80600
H  -5.28300 35.98500 38.64800
H  -9.61700 44.36500 41.31100
H  -10.25900 43.65600 39.78700
H  -8.60100 43.17600 40.44200
H  -14.00100 43.75600 43.64400
H  -14.58700 43.12500 42.00000
H  -14.49800 44.77300 42.29900
H  -15.91300 39.43000 43.05400
H  -15.05100 37.39500 45.09400
H  -16.26800 39.65100 45.65100
H  -15.33800 40.94200 45.00300
H  -14.48100 39.57700 45.65700
H  -16.07800 35.68200 43.66600
H  -15.91200 36.62500 42.19300
H  -17.91000 37.60800 42.64400
H  -17.53700 37.84500 44.30000
H  -18.24100 36.26700 43.70900
H  -13.16200 32.88100 44.00600
H  -12.03000 33.05400 45.22000
H  -11.85800 31.90900 43.80300
H  -8.04100 33.72900 40.50400
H  -4.53200 35.79500 42.88500
H  -5.10100 34.39600 43.93100
H  -5.41800 36.03200 44.40100

