158

Mg -0.10700 7.95300 27.46800
C  0.75400 10.19900 30.04300
C  0.28400 5.38400 29.86200
C  -0.63200 5.82000 25.00300
C  0.24500 10.65400 25.22400
N  0.43500 7.76000 29.71800
C  0.53000 8.90100 30.56600
C  0.52500 8.50900 32.02400
C  0.79800 6.94600 31.94700
C  0.52500 6.64600 30.42900
C  2.22800 6.49600 32.33400
C  -0.86300 8.84600 32.66900
C  -0.83100 9.17700 34.22300
H  0.43400 8.86100 34.97500
N  -0.28200 5.88900 27.50000
C  -0.09200 5.01600 28.51700
C  -0.27000 3.63300 27.97500
C  -0.62800 3.75100 26.59700
C  -0.55900 5.20900 26.28800
C  -0.20300 2.41600 28.85700
C  -1.00000 2.60900 25.60300
O  -1.32400 2.80700 24.43700
C  -0.92500 1.17700 26.04200
N  -0.16600 8.23100 25.46800
C  -0.44300 7.19500 24.56200
C  -0.30300 7.68900 23.07600
C  -0.47100 9.22400 23.27400
C  -0.10700 9.41200 24.75500
C  1.02300 7.21500 22.31500
C  -1.91100 9.86000 22.85700
C  -1.98400 10.95400 21.77200
N  0.37400 9.94700 27.56100
C  0.48600 10.94000 26.54800
C  0.89400 12.14400 27.16800
C  0.93300 11.87800 28.50000
C  0.64200 10.55600 28.71900
C  1.18300 13.53300 26.49000
C  1.16500 12.52700 29.76400
O  1.42600 13.71100 29.97500
C  1.00300 11.41700 30.82800
C  2.23300 11.45700 31.64000
O  3.24600 10.86100 31.34300
O  2.06500 12.23300 32.75300
C  3.26400 12.42800 33.60300
H  0.27400 4.61500 30.63700
H  -0.74400 5.11400 24.17800
H  0.26400 11.55900 24.61400
H  1.34700 9.01000 32.53500
H  0.01500 6.54800 32.59100
H  2.92800 7.28800 32.60200
H  2.67500 6.00500 31.47000
H  2.27400 5.69900 33.07700
H  -1.64500 8.16500 32.33200
H  -1.17200 9.77000 32.18000
H  -1.73100 8.68400 34.58800
H  -1.11200 10.22400 34.33800
H  -1.18900 2.07900 29.17600
H  0.27800 2.67600 29.80000
H  0.35100 1.64300 28.32600
H  -1.68300 0.90000 26.77400
H  0.10900 1.00100 26.33900
H  -1.05300 0.50200 25.19600
H  -1.18100 7.24800 22.60300
H  0.30600 9.82400 22.80100
H  0.81300 6.58900 21.44700
H  1.61900 6.62800 23.01400
H  1.59600 8.11700 22.10400
H  -2.36600 10.26200 23.76200
H  -2.53500 9.02300 22.54600
H  -2.52100 10.56000 20.90900
H  -1.00700 11.34200 21.48200
H  -2.48300 11.83800 22.16900
H  0.54800 13.84000 25.66000
H  2.20400 13.60200 26.11500
H  0.97200 14.24300 27.28900
H  0.22600 11.75300 31.51400
H  3.06200 12.08200 34.61700
H  3.55000 13.47300 33.72100
H  4.14300 11.85800 33.30100
Mg 54.32300 24.15900 43.62500
C  51.72500 26.44000 43.12200
C  52.20100 21.67600 42.33900
C  57.05900 22.20500 43.28900
C  56.38900 26.86500 44.30900
N  52.24000 24.06400 42.91300
C  51.40300 25.14600 42.74900
C  49.91200 24.66600 42.33300
C  50.05300 23.11500 42.29800
C  51.60600 22.97900 42.51400
C  49.35500 22.31100 43.35000
C  49.31200 25.26600 41.01800
C  50.17300 25.46500 39.68800
H  49.91200 24.40700 38.61500
N  54.61300 22.13500 43.06200
C  53.61200 21.33400 42.52900
C  54.18200 20.00900 42.20500
C  55.62500 20.11400 42.49400
C  55.85600 21.49800 42.98000
C  53.41300 18.82400 41.67400
C  56.61600 18.98900 42.21200
O  56.26500 17.97000 41.72000
C  58.08800 19.04100 42.64600
N  56.47700 24.47800 43.62400
C  57.36000 23.52800 43.58900
C  58.83200 23.95100 43.85600
C  58.54600 25.48800 44.29200
C  57.07400 25.68400 44.09200
C  59.40000 23.03100 44.91000
C  59.37700 26.47300 43.37400
C  60.84900 26.43500 43.87400
N  54.20400 26.22200 43.75000
C  55.05800 27.17300 44.16400
C  54.35700 28.42300 44.30500
C  53.07000 28.16000 43.90400
C  53.02700 26.82100 43.56500
C  54.98300 29.75100 44.56800
C  51.79800 28.87400 43.68800
O  51.47900 30.03800 43.87100
C  50.85400 27.74900 43.10900
C  50.33200 28.32100 41.86800
O  51.00500 28.45300 40.82000
O  48.98900 28.60200 41.98900
C  48.22300 29.08700 40.83100
H  51.44100 20.92200 42.11900
H  57.90400 21.53900 43.10100
H  56.99700 27.72800 44.58700
H  49.26400 24.93300 43.16700
H  49.91900 22.73500 41.28500
H  49.95000 22.41500 44.25700
H  49.18200 21.27800 43.05000
H  48.40100 22.84000 43.36800
H  48.83900 26.23000 41.20600
H  48.54100 24.53800 40.76700
H  51.21300 25.39300 40.00700
H  49.90900 26.51000 39.52300
H  53.46000 18.84900 40.58500
H  52.40600 18.96100 42.06800
H  53.81900 17.86800 42.00400
H  58.37000 18.00300 42.82400
H  58.31400 19.66300 43.51200
H  58.57600 19.52100 41.79800
H  59.35200 23.98700 42.89800
H  58.70500 25.66700 45.35500
H  59.56200 23.50700 45.87700
H  60.36400 22.76100 44.47700
H  58.87200 22.08800 45.05000
H  59.10300 27.52600 43.43200
H  59.24300 26.12700 42.34900
H  61.56900 26.14000 43.11000
H  60.88000 25.74100 44.71400
H  61.22200 27.43100 44.11400
H  54.56000 30.01500 45.53700
H  54.75700 30.52700 43.83700
H  56.07200 29.70700 44.57100
H  49.96300 27.63300 43.72600
H  48.40100 28.56200 39.89200
H  48.04900 30.15000 40.66000
H  47.20200 28.83500 41.11800

