158

Mg 54.36200 24.23100 45.37400
C  51.86100 26.20900 44.32800
C  52.50200 21.39800 44.37200
C  57.12200 22.21000 45.82500
C  56.03200 27.00100 46.67800
N  52.56000 23.92200 44.27200
C  51.64600 24.89000 43.94700
C  50.35700 24.34700 43.32700
C  50.36400 22.85900 43.95000
C  51.89100 22.67500 44.25000
C  49.46000 22.49200 45.16500
C  50.41600 24.48300 41.76800
C  49.18300 23.98300 41.07500
H  48.94900 24.20700 39.62100
N  54.80200 22.14200 45.06400
C  53.88900 21.17400 44.64100
C  54.58700 19.87900 44.55200
C  55.99100 20.08200 44.92400
C  56.02000 21.49700 45.26800
C  53.82800 18.61700 44.18600
C  57.05000 19.00000 44.91200
O  56.83900 17.88100 44.47400
C  58.38300 19.31200 45.46200
N  56.33500 24.50500 45.86800
C  57.23600 23.53800 46.10800
C  58.58800 24.23000 46.61800
C  58.10900 25.73700 47.03800
C  56.71800 25.79800 46.47300
C  59.40300 23.64000 47.78200
C  59.04200 26.88200 46.41200
C  58.88600 27.15200 44.93200
N  54.07600 26.25800 45.55800
C  54.77400 27.32200 46.14300
C  54.01200 28.53400 46.05800
C  52.84900 28.09800 45.38300
C  52.96400 26.73100 45.02800
C  54.31900 29.88700 46.48300
C  51.55500 28.55400 44.96500
O  51.06600 29.64100 45.15400
C  50.87800 27.36300 44.26600
C  50.53700 27.84500 42.91100
O  51.35200 28.36200 42.19500
O  49.23400 27.56900 42.57100
C  48.72000 28.04600 41.35900
H  51.93400 20.46600 44.33300
H  58.07200 21.69800 45.99100
H  56.50500 27.72900 47.34000
H  49.52100 24.83300 43.82900
H  50.09800 22.18400 43.13700
H  50.03400 21.93400 45.90400
H  48.66800 21.87800 44.73600
H  49.05000 23.40900 45.58800
H  51.23900 23.87800 41.38800
H  50.49900 25.54100 41.52000
H  48.26100 24.33600 41.53800
H  49.21500 22.90300 41.21200
H  53.51000 18.63800 43.14300
H  52.95900 18.51900 44.83700
H  54.23600 17.62000 44.35200
H  59.00900 18.42300 45.38400
H  58.46200 19.37300 46.54700
H  58.89600 20.03300 44.82600
H  59.27900 24.09500 45.78600
H  58.03600 25.77600 48.12500
H  60.38200 23.29600 47.45000
H  58.87500 22.75300 48.13300
H  59.61000 24.25900 48.65500
H  60.00300 26.39200 46.56800
H  59.06200 27.70500 47.12600
H  57.86500 27.35200 44.60900
H  59.23500 26.27700 44.38400
H  59.45200 28.03000 44.62100
H  53.47800 30.42900 46.91700
H  54.58900 30.52400 45.64100
H  54.94600 29.90400 47.37500
H  49.93100 27.03600 44.69600
H  48.78600 27.35200 40.52100
H  49.19800 28.97500 41.05000
H  47.73100 28.38000 41.67200
Mg 49.66900 45.12600 42.88700
C  46.47800 45.84900 41.63400
C  49.39100 41.99200 41.45000
C  53.00400 44.75900 43.02400
C  50.06200 48.56600 43.41500
N  48.17900 44.13500 41.57700
C  46.94200 44.59100 41.22600
C  46.03500 43.51700 40.62400
C  46.91800 42.27700 40.85900
C  48.22900 42.82800 41.31900
C  46.26600 41.32800 42.01600
C  45.75000 43.81300 39.14600
C  44.41900 43.16400 38.63300
H  44.40300 42.16700 37.43400
N  51.00200 43.55200 42.58700
C  50.70800 42.33100 42.01000
C  51.84200 41.48700 41.95100
C  52.95600 42.24500 42.41400
C  52.32700 43.57600 42.74400
C  51.72000 40.06600 41.60500
C  54.40000 41.79700 42.65300
O  54.66500 40.65300 42.51600
C  55.45800 42.75700 43.17500
N  51.31400 46.40600 43.36600
C  52.55300 46.01900 43.30200
C  53.53400 47.17100 43.65200
C  52.60600 48.44200 43.81300
C  51.19100 47.82900 43.51900
C  54.53900 46.86900 44.78400
C  52.84600 49.64100 42.87700
C  52.94700 50.98000 43.50800
N  48.45400 46.89600 42.92000
C  48.75000 48.18400 43.07500
C  47.56600 49.03800 42.83400
C  46.60600 48.09600 42.36300
C  47.23200 46.83400 42.33700
C  47.51800 50.44100 42.98800
C  45.20500 47.93200 41.91500
O  44.16600 48.61600 41.98500
C  45.02700 46.40600 41.57000
C  44.26700 45.79800 42.60900
O  44.62700 45.76800 43.78800
O  43.16200 45.20200 42.11200
C  42.38100 44.34900 43.00500
H  49.16100 40.99000 41.08100
H  54.09400 44.81800 43.00900
H  50.19000 49.63100 43.62200
H  45.04500 43.39700 41.06500
H  47.02000 41.79300 39.88700
H  45.23100 41.61900 42.19400
H  46.80300 41.39800 42.96200
H  46.36400 40.27700 41.74200
H  46.50900 43.31900 38.54000
H  45.73200 44.89800 39.03600
H  43.73800 43.99400 38.44500
H  43.96500 42.61000 39.45500
H  52.41000 39.39400 42.11500
H  51.97500 39.99900 40.54700
H  50.69000 39.71300 41.63700
H  55.63000 43.41400 42.32200
H  56.37800 42.26200 43.48700
H  55.05400 43.30300 44.02800
H  54.22800 47.46400 42.86400
H  52.49400 48.67200 44.87200
H  54.54200 47.69100 45.50000
H  55.55200 46.97300 44.39500
H  54.45800 45.88400 45.24400
H  52.07600 49.61200 42.10600
H  53.71200 49.44500 42.24500
H  52.03700 51.49800 43.20600
H  53.79100 51.40600 42.96600
H  52.91300 50.94100 44.59700
H  47.53400 50.78400 44.02200
H  46.69300 50.87500 42.42300
H  48.41200 50.86100 42.52700
H  44.43800 46.33700 40.65500
H  41.33500 44.62300 42.87100
H  42.59100 44.45000 44.07000
H  42.46900 43.30200 42.71800

