158

Mg 9.21400 4.59300 27.28700
C  10.39700 2.78100 30.17900
C  7.26700 6.38900 29.45300
C  8.05700 6.09000 24.68600
C  10.64000 2.05100 25.35300
N  8.95500 4.66200 29.65800
C  9.60800 3.86900 30.60400
C  9.16800 4.29200 32.00400
C  7.99900 5.41000 31.78700
C  8.05300 5.55800 30.23200
C  6.56200 5.05400 32.28900
C  10.47000 4.84300 32.68200
C  10.88400 4.16100 34.04100
H  10.87300 4.91400 35.35600
N  7.80000 5.99500 27.05800
C  7.08600 6.66200 28.07700
C  6.18500 7.59600 27.48000
C  6.30800 7.46300 26.11300
C  7.45400 6.52200 25.88400
C  5.39900 8.43300 28.42300
C  5.51100 8.07400 25.03400
O  5.76300 8.00200 23.82800
C  4.27200 8.95800 25.48700
N  9.38000 4.15500 25.31600
C  8.91700 5.00600 24.34500
C  9.26200 4.47500 22.93100
C  10.07900 3.22900 23.23700
C  9.97700 3.11900 24.70000
C  8.06400 4.07000 22.03300
C  11.57800 3.28300 22.70500
C  11.80200 2.28300 21.58800
N  10.38900 2.79000 27.63000
C  10.76000 1.83000 26.71000
C  11.39300 0.73100 27.39300
C  11.26800 1.02000 28.77800
C  10.68600 2.28900 28.89100
C  12.01300 -0.51300 26.73900
C  11.61000 0.61600 30.14000
O  12.18500 -0.40500 30.50600
C  11.02400 1.70500 31.04500
C  10.09000 0.98700 32.04300
O  8.97700 0.63400 31.83400
O  10.66400 0.83600 33.27300
C  9.97200 0.09500 34.31800
H  6.69600 6.97400 30.17700
H  7.90600 6.59900 23.73200
H  11.03600 1.28200 24.68600
H  8.77400 3.33500 32.34700
H  8.15800 6.42200 32.15900
H  5.94000 5.94800 32.26100
H  6.57800 4.84000 33.35700
H  6.04700 4.29200 31.70400
H  10.45900 5.92200 32.84000
H  11.33100 4.85900 32.01400
H  11.91100 3.82500 33.89300
H  10.34200 3.22300 34.15800
H  4.46600 7.88900 28.57000
H  5.06700 9.39900 28.04400
H  6.00700 8.66300 29.29800
H  3.44800 8.46300 26.00100
H  3.87800 9.23200 24.50900
H  4.65400 9.87700 25.93100
H  9.99000 5.13200 22.45500
H  9.66100 2.30600 22.83500
H  7.63300 3.15600 22.44300
H  8.32100 3.83800 20.99900
H  7.38400 4.92100 21.98700
H  12.28600 3.01100 23.48800
H  11.91200 4.24500 22.31700
H  10.90800 2.36800 20.97100
H  11.97600 1.25200 21.89500
H  12.68500 2.60200 21.03500
H  12.03500 -0.39700 25.65600
H  11.51500 -1.44500 27.00500
H  13.05000 -0.56100 27.07100
H  11.86700 2.13100 31.59000
H  9.18300 -0.49600 33.85300
H  9.55000 0.83500 34.99800
H  10.71400 -0.54400 34.79600
Mg -6.36000 25.03600 25.97300
C  -4.57000 26.59100 28.51900
C  -8.13200 23.30600 28.38400
C  -7.48400 22.89300 23.56800
C  -4.16000 26.52900 23.68900
N  -6.20900 24.85300 28.25100
C  -5.48400 25.70200 29.09200
C  -5.88200 25.50600 30.54700
C  -6.90100 24.31500 30.46700
C  -7.09000 24.11600 28.93100
C  -6.48400 22.99800 31.28500
C  -6.36600 26.83600 31.19000
C  -6.04000 27.00500 32.64100
H  -5.84900 25.84100 33.55300
N  -7.71300 23.38900 25.96400
C  -8.44800 22.96100 27.02800
C  -9.43400 22.02700 26.50700
C  -9.22600 21.89400 25.07700
C  -8.06000 22.70000 24.81800
C  -10.49600 21.39100 27.35400
C  -10.04300 20.96700 24.01100
O  -9.80900 21.00800 22.78800
C  -11.13900 20.07500 24.52900
N  -5.83000 24.75100 23.96500
C  -6.42900 23.78800 23.11200
C  -5.65600 23.70700 21.76100
C  -4.95500 25.16000 21.73600
C  -4.94600 25.49900 23.24200
C  -4.70600 22.47500 21.76300
C  -5.67300 26.29500 20.93200
C  -4.72700 27.13300 19.97400
N  -4.84900 26.40400 25.97200
C  -4.10400 26.90900 25.00600
C  -3.15700 27.89300 25.55000
C  -3.40400 27.80000 26.95200
C  -4.36700 26.84900 27.12600
C  -2.12300 28.66200 24.79000
C  -2.86900 28.29500 28.22300
O  -1.89600 28.99800 28.48300
C  -3.63600 27.45400 29.35000
C  -2.63000 26.77500 30.24000
O  -2.41700 25.56500 30.23000
O  -2.26600 27.57500 31.24800
C  -1.68100 27.04800 32.47200
H  -8.61500 22.67600 29.13400
H  -7.86000 22.26800 22.75500
H  -3.44000 27.02100 23.03300
H  -4.97100 25.19600 31.05900
H  -7.80400 24.73600 30.91000
H  -6.38800 22.11400 30.65400
H  -7.17800 22.90600 32.12000
H  -5.48100 23.06700 31.70500
H  -7.44300 26.89900 31.34400
H  -6.08600 27.68300 30.56400
H  -6.68600 27.76300 33.08200
H  -5.02300 27.39300 32.70300
H  -11.47100 21.46900 26.87400
H  -10.55000 21.86000 28.33600
H  -10.35400 20.31400 27.43600
H  -12.06700 20.59000 24.77600
H  -10.69900 19.39800 25.26100
H  -11.37400 19.41200 23.69600
H  -6.27200 23.57800 20.87100
H  -3.92600 25.08600 21.38300
H  -4.88800 21.99300 20.80300
H  -4.91200 21.79500 22.58900
H  -3.68500 22.85600 21.78100
H  -6.26900 26.93700 21.58000
H  -6.39700 25.72300 20.35000
H  -4.81100 28.15700 20.33800
H  -5.18300 27.09200 18.98500
H  -3.65700 26.94900 20.07200
H  -1.71600 28.18000 23.90200
H  -1.32900 28.88700 25.50200
H  -2.53100 29.58700 24.38100
H  -4.20300 28.22800 29.86600
H  -0.87700 26.34100 32.26600
H  -2.50300 26.63500 33.05600
H  -1.26400 27.93200 32.95300

