158

Mg 17.64100 -1.20800 26.89100
C  16.63300 0.77100 29.59200
C  19.23700 -3.37900 29.07300
C  18.90300 -2.82900 24.24500
C  16.16100 1.06300 24.63300
N  17.90900 -1.23900 29.10600
C  17.31800 -0.37800 29.99900
C  17.65700 -0.70900 31.41400
C  18.51100 -2.07500 31.28600
C  18.52300 -2.30900 29.75400
C  19.93300 -2.07300 31.90500
C  16.43900 -0.98800 32.43000
C  16.66300 -0.50400 33.85100
H  18.00200 0.04100 34.32100
N  18.89300 -2.89700 26.65900
C  19.36900 -3.66600 27.69700
C  20.24600 -4.65700 27.05300
C  20.07100 -4.61700 25.63800
C  19.23700 -3.44200 25.45000
C  20.99600 -5.77200 27.90800
C  20.66400 -5.54000 24.60300
O  20.51200 -5.35600 23.38400
C  21.66600 -6.60700 25.02100
N  17.67200 -0.81600 24.77700
C  18.28200 -1.63700 23.96900
C  18.27000 -1.22700 22.52600
C  17.20200 -0.00900 22.59200
C  17.05200 0.11600 24.06700
C  19.63400 -0.84800 21.89400
C  15.87000 -0.14800 21.76300
C  14.86600 -1.11200 22.46700
N  16.66400 0.58700 27.09900
C  15.98400 1.30400 26.06100
C  15.05000 2.19700 26.71400
C  15.42900 2.10600 28.12100
C  16.37500 1.11400 28.27300
C  14.04400 3.06700 26.01500
C  15.11900 2.60600 29.34700
O  14.35600 3.54900 29.59400
C  15.91100 1.83800 30.41000
C  16.76300 2.80200 31.13700
O  17.79300 3.31700 30.73700
O  16.11200 3.15500 32.28300
C  16.73100 4.13300 33.23400
H  19.64300 -4.10200 29.78300
H  19.19800 -3.35900 23.33700
H  15.56600 1.56000 23.86300
H  18.23900 0.12200 31.81200
H  18.02900 -2.95700 31.70800
H  20.64800 -2.14100 31.08500
H  19.98400 -2.94400 32.55900
H  20.16300 -1.16300 32.45900
H  16.31800 -2.06700 32.52400
H  15.56700 -0.54400 31.94900
H  16.46100 -1.35100 34.50700
H  15.93700 0.28400 34.04900
H  20.21200 -6.51100 28.07000
H  21.10700 -5.25700 28.86200
H  22.01000 -5.97600 27.56300
H  21.10800 -7.27600 25.67600
H  22.53700 -6.07900 25.41100
H  21.88200 -7.18500 24.12200
H  17.87300 -2.00200 21.86900
H  17.74500 0.85900 22.21600
H  20.04600 -1.70800 21.36700
H  20.42800 -0.43800 22.51800
H  19.46300 -0.05000 21.17200
H  16.03600 -0.66000 20.81500
H  15.59900 0.90100 21.64000
H  15.35500 -1.63100 23.29100
H  14.49600 -1.90800 21.82000
H  13.92600 -0.61200 22.70100
H  13.25600 2.44700 25.58500
H  14.50000 3.75200 25.30100
H  13.55900 3.71300 26.74700
H  15.11300 1.32200 30.94500
H  16.11100 5.02900 33.24900
H  17.74700 4.43700 32.98500
H  16.75900 3.61100 34.19100
Mg 26.54400 49.82100 26.85400
C  24.47300 51.04900 29.36100
C  28.84400 49.01600 29.20700
C  28.53100 48.86300 24.29800
C  24.04500 50.91600 24.57300
N  26.62500 50.08700 29.04400
C  25.68000 50.53500 29.94500
C  26.06700 50.17800 31.39100
C  27.59500 49.82200 31.27300
C  27.71700 49.66300 29.72700
C  28.57100 50.83900 31.93500
C  25.19800 49.09600 32.01200
C  24.56500 49.14600 33.46800
H  25.25600 49.95600 34.50900
N  28.42100 48.95500 26.78800
C  29.20900 48.71700 27.86500
C  30.47900 48.26600 27.41800
C  30.44300 48.21800 25.99600
C  29.10000 48.73500 25.60700
C  31.57800 47.98200 28.40500
C  31.48100 47.80000 24.97400
O  31.31100 47.85000 23.79500
C  32.80900 47.39000 25.48500
N  26.31200 49.92900 24.74900
C  27.23800 49.37700 23.94800
C  26.76700 49.43300 22.51600
C  25.32800 50.01000 22.53400
C  25.17300 50.26800 24.03200
C  27.75900 50.17000 21.65900
C  24.21600 49.12900 21.97400
C  24.17800 47.74000 22.62100
N  24.75300 50.94400 26.88000
C  23.79600 51.18600 25.88900
C  22.65900 51.94800 26.39700
C  22.83200 51.91400 27.77200
C  24.11800 51.24600 28.02100
C  21.53700 52.53100 25.56400
C  22.24400 52.12800 29.08300
O  21.13500 52.69600 29.38300
C  23.23600 51.53000 30.21700
C  23.40500 52.51600 31.30300
O  24.40800 53.07100 31.63600
O  22.23200 52.53200 32.04700
C  22.28800 53.41500 33.28800
H  29.57900 48.75500 29.97100
H  29.09400 48.43900 23.46400
H  23.29500 51.14900 23.81400
H  26.13000 51.07500 32.00800
H  27.69700 48.82900 31.71000
H  28.11100 51.80900 32.12000
H  29.54400 50.95600 31.45800
H  28.95500 50.34100 32.82500
H  25.73100 48.14600 32.05700
H  24.28900 49.13800 31.41100
H  24.49900 48.10700 33.79200
H  23.62900 49.68800 33.33400
H  31.67600 46.90500 28.53900
H  31.51900 48.54800 29.33400
H  32.42700 48.39600 27.86100
H  33.46800 46.93500 24.74500
H  32.59700 46.74500 26.33900
H  33.25300 48.32800 25.81600
H  26.87900 48.36600 22.32200
H  25.28800 50.89500 21.90000
H  28.36900 49.47900 21.07700
H  28.48800 50.70200 22.27000
H  27.26300 50.83600 20.95200
H  24.52300 49.20400 20.93100
H  23.28300 49.69200 21.95300
H  24.58600 47.77000 23.63100
H  24.81200 47.10400 22.00400
H  23.17700 47.31500 22.69500
H  20.64500 52.53600 26.18900
H  21.34100 51.75600 24.82200
H  21.70200 53.42300 24.95900
H  22.83700 50.61100 30.64600
H  21.35900 53.41800 33.85700
H  22.57200 54.45800 33.14400
H  22.89700 52.92900 34.05000

