158

Mg 36.13400 1.50700 30.40000
C  33.57200 2.68500 32.57000
C  38.13400 1.09800 33.06400
C  38.51800 0.45100 28.25100
C  33.89700 1.82400 27.77900
N  35.85800 1.94400 32.57800
C  34.78000 2.48700 33.26700
C  34.96900 2.40600 34.75200
C  36.57100 2.18500 34.85700
C  36.82900 1.62300 33.39200
C  37.42600 3.47000 35.08900
C  34.06600 1.34200 35.48100
C  33.52000 1.82200 36.83900
H  34.24300 2.91900 37.60800
N  38.06100 0.83400 30.64600
C  38.63100 0.61400 31.82900
C  39.92100 -0.00800 31.58600
C  39.99100 -0.26100 30.21100
C  38.81400 0.28600 29.63700
C  40.93600 -0.33800 32.72500
C  40.97200 -1.02600 29.36600
O  40.73200 -1.45200 28.23000
C  42.25700 -1.55800 29.96700
N  36.28100 1.33900 28.25000
C  37.34100 0.95000 27.54400
C  37.00600 0.85200 26.04600
C  35.53400 1.25400 25.93300
C  35.20100 1.53000 27.41300
C  37.89800 1.63200 25.00000
C  34.57100 0.21100 25.33900
C  34.00900 0.56000 23.96500
N  34.15800 2.10600 30.13000
C  33.40800 2.23700 29.02100
C  32.13500 2.75400 29.34200
C  32.10800 2.94300 30.74700
C  33.37400 2.52800 31.20100
C  31.07800 3.09200 28.34200
C  31.31800 3.45400 31.85500
O  30.20900 3.93900 31.92500
C  32.21500 3.22900 33.12100
C  32.38500 4.53900 33.86700
O  33.14100 5.40000 33.60200
O  31.50900 4.61600 34.89500
C  31.51800 5.84400 35.67500
H  38.88300 1.01400 33.85300
H  39.23700 0.22500 27.46000
H  33.19800 1.90000 26.94300
H  34.77300 3.40400 35.14400
H  36.81800 1.50400 35.67100
H  37.11900 3.99700 35.99200
H  37.35300 4.11500 34.21400
H  38.51300 3.42700 35.14900
H  34.65000 0.45500 35.72400
H  33.21400 1.09100 34.85000
H  33.42200 0.91900 37.44100
H  32.50100 2.14100 36.62000
H  41.19600 -1.39300 32.80400
H  40.42500 -0.18600 33.67600
H  41.84700 0.22300 32.51700
H  42.22000 -2.04400 30.94200
H  42.98200 -0.75900 29.81100
H  42.73600 -2.34600 29.38700
H  37.22800 -0.20000 25.86600
H  35.32500 2.26000 25.56700
H  38.71100 2.20600 25.44500
H  37.31100 2.33800 24.41300
H  38.38600 0.87600 24.38500
H  33.72900 -0.04800 25.98000
H  35.02200 -0.75600 25.11300
H  32.92100 0.55900 24.03400
H  34.26200 -0.11600 23.14800
H  34.30400 1.57900 23.71400
H  31.39100 3.17400 27.30100
H  30.55500 4.01100 28.60600
H  30.37600 2.25900 28.33700
H  31.67500 2.48300 33.70500
H  31.71800 6.66400 34.98600
H  32.19600 5.72300 36.52000
H  30.44900 5.94000 35.86700
Mg 17.18400 52.18400 24.59900
C  18.89000 50.95600 27.31200
C  14.48800 53.04000 26.52000
C  15.36900 53.02300 21.70200
C  19.65500 50.86300 22.47700
N  16.74900 51.96200 26.68900
C  17.67900 51.51100 27.63300
C  17.11600 51.86100 29.00000
C  15.60100 52.23200 28.71100
C  15.59800 52.45800 27.19100
C  14.55100 51.19100 29.22900
C  17.89200 52.99100 29.68700
C  17.49900 53.71000 31.00200
H  16.58800 52.92900 32.01600
N  15.17600 52.94800 24.21900
C  14.24800 53.23100 25.11500
C  13.06500 53.76100 24.46000
C  13.34400 53.92600 23.09100
C  14.70400 53.30500 22.91800
C  11.82900 54.05300 25.22600
C  12.45500 54.50700 22.04900
O  12.80800 54.67200 20.86500
C  11.00000 54.83400 22.36700
N  17.46000 51.98300 22.41800
C  16.60100 52.43200 21.45800
C  17.22800 52.39200 20.10000
C  18.61900 51.90800 20.32300
C  18.61700 51.54300 21.84300
C  16.39700 51.35400 19.16400
C  19.74800 52.87900 19.98600
C  21.10000 52.20300 19.80300
N  19.04800 51.20600 24.81800
C  19.89300 50.68500 23.87200
C  20.96000 49.91600 24.54600
C  20.69200 50.16800 25.98200
C  19.40400 50.77000 26.03200
C  22.08800 49.09900 23.88900
C  21.14800 49.94100 27.25500
O  22.14300 49.36600 27.62300
C  20.01800 50.52100 28.22900
C  19.64500 49.59200 29.30900
O  19.17500 48.45400 29.21400
O  19.86200 50.19300 30.53200
C  19.24200 49.53000 31.72400
H  13.67700 53.28400 27.21000
H  14.76500 53.17800 20.80600
H  20.47400 50.49400 21.85600
H  17.23700 51.02700 29.69100
H  15.25400 53.18800 29.10200
H  13.67700 51.77900 29.50700
H  14.91500 50.56600 30.04400
H  14.21600 50.54000 28.42100
H  17.93700 53.79800 28.95500
H  18.95100 52.75300 29.78900
H  17.01000 54.65700 30.77400
H  18.45900 53.98200 31.44200
H  11.60400 55.09700 25.00800
H  11.99500 54.19200 26.29500
H  11.04700 53.35800 24.92200
H  10.49600 54.20600 23.10300
H  10.38300 54.65100 21.48700
H  10.99800 55.85900 22.73600
H  17.24800 53.37600 19.63200
H  18.84000 50.95700 19.83700
H  17.01300 50.67700 18.57100
H  15.89900 51.92900 18.38400
H  15.70800 50.78200 19.78500
H  19.78600 53.60900 20.79400
H  19.56100 53.34100 19.01700
H  21.85300 52.55600 20.50800
H  21.44900 52.45200 18.80100
H  21.01900 51.11600 19.79900
H  22.74700 49.83500 23.42900
H  21.73800 48.37100 23.15800
H  22.63900 48.49700 24.61200
H  20.42400 51.43200 28.66700
H  19.24700 48.44500 31.62000
H  18.19800 49.83700 31.67500
H  19.74000 49.73400 32.67200

