158

Mg 16.71200 51.86700 26.38400
C  18.45700 50.39100 29.14500
C  14.18100 52.74800 28.57400
C  15.08700 53.07000 23.78200
C  19.16600 50.48500 24.30300
N  16.33700 51.44400 28.61300
C  17.28100 51.01500 29.49200
C  16.91400 51.37400 30.90500
C  15.41100 51.78100 30.73700
C  15.24200 52.03800 29.21900
C  14.42300 50.67700 31.22300
C  17.87300 52.43400 31.50800
C  18.18300 52.25800 33.05800
H  17.08000 51.69600 33.88800
N  14.83200 52.73400 26.15700
C  13.96600 53.06700 27.15500
C  12.87600 53.84100 26.61000
C  13.10100 53.95400 25.26600
C  14.35200 53.22300 24.92700
C  11.76800 54.33600 27.47600
C  12.25700 54.61400 24.15800
O  12.71000 54.79900 23.04100
C  10.85500 55.21200 24.57100
N  16.99000 51.67400 24.27500
C  16.22800 52.35200 23.40600
C  16.85700 52.35700 21.93500
C  18.19600 51.58900 22.16700
C  18.09900 51.18600 23.61700
C  16.13400 51.50800 20.84800
C  19.47900 52.28300 21.81600
C  20.61800 51.46200 21.19700
N  18.43000 50.70000 26.56500
C  19.38600 50.21600 25.65600
C  20.41000 49.42400 26.25100
C  20.09000 49.56000 27.66300
C  18.88100 50.26800 27.75900
C  21.54300 48.73500 25.51600
C  20.53300 49.20600 28.98100
O  21.50800 48.54900 29.32200
C  19.60000 49.86100 30.01900
C  19.21000 48.81500 30.98700
O  18.51400 47.84400 30.80400
O  19.69300 49.20200 32.22000
C  19.32600 48.43700 33.38900
H  13.39900 53.20500 29.18400
H  14.62300 53.46100 22.87400
H  20.05800 50.15300 23.76700
H  17.08600 50.48900 31.51800
H  15.29500 52.75300 31.21600
H  13.47200 51.07700 31.57300
H  14.89500 50.08600 32.00800
H  14.24200 50.02800 30.36600
H  17.35300 53.39100 31.47400
H  18.73400 52.51900 30.84500
H  18.33700 53.25700 33.46700
H  19.16800 51.79400 33.10200
H  10.91200 53.70400 27.23900
H  11.53900 55.34000 27.11800
H  12.00300 54.31500 28.54000
H  10.20300 55.34400 23.70800
H  10.94300 56.11900 25.17000
H  10.26100 54.48200 25.12000
H  16.97700 53.39900 21.63600
H  18.27600 50.62800 21.65900
H  15.63200 50.59800 21.17700
H  16.80700 51.28400 20.02100
H  15.36400 52.08100 20.33200
H  19.81300 52.70100 22.76500
H  19.35100 53.14400 21.15900
H  20.32500 50.50200 20.77100
H  21.30200 51.29100 22.02800
H  21.13400 52.10600 20.48600
H  21.41300 47.66400 25.35900
H  22.41000 49.04100 26.10100
H  21.65700 49.09700 24.49400
H  20.07600 50.68000 30.55700
H  18.23700 48.42700 33.33800
H  19.63400 48.87900 34.33600
H  19.57200 47.38000 33.28400
Mg 0.47400 44.01600 26.15700
C  2.81800 43.90000 28.78400
C  -1.89400 43.32700 28.25600
C  -1.60600 43.46300 23.46700
C  3.21400 44.00100 23.85000
N  0.43800 43.85900 28.31700
C  1.49200 43.87700 29.20800
C  1.01800 43.91400 30.71300
C  -0.39900 43.32400 30.43300
C  -0.65400 43.47600 28.89500
C  -0.56800 41.78000 30.80700
C  0.89300 45.35600 31.31500
C  0.91900 45.37000 32.88500
H  0.50500 44.06300 33.64300
N  -1.51100 43.55100 25.88200
C  -2.39400 43.30200 26.97000
C  -3.69200 43.02500 26.48300
C  -3.59400 43.11900 25.08200
C  -2.21100 43.45000 24.70300
C  -4.87700 42.91900 27.39000
C  -4.62700 42.74900 24.09000
O  -4.48900 42.83300 22.89900
C  -5.93900 42.25900 24.59300
N  0.79800 43.84900 23.99900
C  -0.28800 43.66300 23.14700
C  0.23100 43.51800 21.71700
C  1.67800 44.08200 21.79000
C  1.93800 43.86800 23.30000
C  0.06100 42.07600 21.06700
C  2.01500 45.49600 21.39000
C  3.24600 45.90100 20.54900
N  2.62900 44.12300 26.21300
C  3.60100 44.11100 25.23000
C  4.95900 44.26200 25.86100
C  4.67600 44.17400 27.20300
C  3.26200 44.13200 27.37900
C  6.28900 44.28200 25.17800
C  5.31100 44.08400 28.48800
O  6.50700 43.91800 28.74900
C  4.14600 43.92900 29.56100
C  4.40400 42.75000 30.41800
O  4.49400 41.59900 29.92300
O  4.35200 43.01000 31.80000
C  4.55500 41.77700 32.62100
H  -2.64700 43.00900 28.98100
H  -2.20900 43.31000 22.57000
H  3.96300 44.16800 23.07400
H  1.61800 43.26100 31.34700
H  -1.10300 43.82700 31.09500
H  -1.48500 41.74400 31.39600
H  0.24100 41.24000 31.29800
H  -0.71700 41.18300 29.90700
H  -0.01300 45.88800 31.02500
H  1.75700 45.86800 30.89300
H  0.45200 46.30700 33.18900
H  1.92500 45.51300 33.28200
H  -5.51400 42.03800 27.32100
H  -5.57300 43.72400 27.15000
H  -4.54500 43.02000 28.42300
H  -5.77900 41.28700 25.05900
H  -6.55200 42.22000 23.69300
H  -6.39600 42.93100 25.31900
H  -0.30800 44.18200 21.04000
H  2.38100 43.43000 21.27200
H  -0.10000 41.39200 21.90000
H  1.03100 41.89300 20.60500
H  -0.71300 42.11000 20.30000
H  1.95600 46.16800 22.24700
H  1.10000 45.88900 20.94700
H  3.92100 46.53300 21.12700
H  2.89700 46.44000 19.66900
H  3.67700 44.94200 20.26100
H  6.29800 43.89600 24.15900
H  7.06700 43.73400 25.70900
H  6.52200 45.34600 25.12700
H  4.12900 44.78300 30.23900
H  4.41600 41.91900 33.69300
H  5.54000 41.32200 32.52800
H  3.76200 41.09400 32.31700

