158

Mg 8.28100 3.85300 27.72600
C  9.59400 2.41400 30.52400
C  6.01800 5.63900 29.81500
C  6.93100 5.31600 24.99000
C  10.02400 1.60000 25.65500
N  7.77000 3.91100 30.01400
C  8.61600 3.35400 30.91100
C  8.26600 3.95900 32.29300
C  6.99400 4.89400 32.04000
C  6.84600 4.75800 30.52000
C  5.63100 4.43100 32.76700
C  9.52900 4.47300 33.15300
C  9.12600 5.25800 34.37000
H  9.30100 4.73700 35.83300
N  6.72600 5.31300 27.41200
C  5.94000 5.86100 28.41300
C  5.05300 6.79400 27.79700
C  5.38200 6.84400 26.41400
C  6.41900 5.79900 26.22000
C  3.92900 7.51700 28.57700
C  4.84500 7.75300 25.31300
O  5.08200 7.48800 24.15900
C  4.04800 8.94000 25.76800
N  8.40700 3.45500 25.57400
C  7.71000 4.19300 24.68900
C  7.94200 3.64000 23.27600
C  8.99400 2.43800 23.49200
C  9.15800 2.45200 24.99200
C  6.73900 3.21000 22.42600
C  10.28300 2.54900 22.66400
C  10.55600 1.33000 21.80600
N  9.52100 2.27500 27.97500
C  10.23500 1.50000 27.07200
C  10.85600 0.44400 27.78600
C  10.80000 0.82500 29.13500
C  9.89200 1.90300 29.23000
C  11.49200 -0.81600 27.18600
C  11.29000 0.52100 30.49100
O  12.09100 -0.32200 30.90100
C  10.57900 1.59500 31.45700
C  9.97100 0.75400 32.43900
O  9.02000 0.01800 32.17000
O  10.54200 0.97700 33.63700
C  9.82300 0.35800 34.72600
H  5.58700 6.31100 30.56000
H  6.70000 5.94200 24.12500
H  10.53100 0.86000 25.03200
H  7.91500 3.13400 32.91200
H  7.14800 5.91800 32.37900
H  4.88000 4.03900 32.08100
H  5.07200 5.25500 33.21000
H  5.82400 3.68400 33.53700
H  10.20700 4.95600 32.44900
H  9.88400 3.52000 33.54700
H  8.08600 5.58000 34.39200
H  9.61500 6.23100 34.39700
H  3.80100 7.08200 29.56800
H  2.97200 7.49600 28.05500
H  4.19300 8.56500 28.72000
H  4.44200 9.42700 26.66000
H  3.11800 8.39900 25.94100
H  3.99600 9.61700 24.91500
H  8.44300 4.47300 22.78200
H  8.56800 1.44700 23.33600
H  5.90200 3.59100 23.01000
H  6.67000 2.19900 22.02500
H  6.79500 3.89200 21.57700
H  11.15400 2.53900 23.32000
H  10.31800 3.47500 22.09000
H  9.63200 0.91100 21.41000
H  11.19600 0.70500 22.42900
H  11.18300 1.57900 20.95000
H  11.82700 -0.65300 26.16200
H  10.80700 -1.66200 27.22900
H  12.41400 -1.04500 27.72200
H  11.22500 2.31000 31.96700
H  9.06000 -0.34000 34.38300
H  9.35500 1.06900 35.40700
H  10.62300 -0.21100 35.20000
Mg 9.21000 48.08700 25.62800
C  6.91200 48.53700 28.32100
C  11.63800 49.13600 27.66800
C  11.22900 47.65400 23.02200
C  6.40500 47.56800 23.50200
N  9.20300 49.01100 27.78200
C  8.21700 48.85500 28.72900
C  8.78500 49.08400 30.12900
C  10.27200 49.34800 29.83600
C  10.40600 49.17600 28.32800
C  10.74900 50.81500 30.25200
C  8.41000 47.95700 31.11200
C  9.40000 47.46900 32.26400
H  8.72500 47.02800 33.63200
N  11.13500 48.48900 25.34600
C  12.01800 48.84100 26.31100
C  13.39400 48.91100 25.78200
C  13.29300 48.32700 24.49700
C  11.84200 48.18500 24.19300
C  14.51700 49.30700 26.71000
C  14.37700 48.07500 23.51500
O  14.17600 47.80700 22.36400
C  15.76100 48.29300 24.03300
N  8.87000 47.45100 23.49600
C  9.92200 47.34400 22.64400
C  9.44000 47.28200 21.23700
C  7.92000 47.54300 21.33900
C  7.68900 47.54000 22.87500
C  10.12300 48.20300 20.10800
C  6.99500 46.47900 20.54600
C  7.48000 45.94000 19.19100
N  7.08100 47.92800 25.80200
C  6.08900 47.80400 24.82600
C  4.77400 47.79200 25.46200
C  5.04500 47.95000 26.81300
C  6.47600 48.16300 26.94600
C  3.53800 47.51700 24.68500
C  4.43600 48.10200 28.17600
O  3.29800 48.08600 28.49100
C  5.64400 48.42200 29.20800
C  5.63900 47.27700 30.09500
O  6.07500 46.16300 29.90300
O  5.13500 47.65200 31.23900
C  4.73600 46.59300 32.21400
H  12.46500 49.35500 28.34600
H  11.93000 47.47500 22.20400
H  5.60200 47.41100 22.77900
H  8.21400 49.97100 30.40400
H  10.89200 48.63500 30.37900
H  9.89000 51.44200 30.48900
H  11.25700 51.33400 29.43900
H  11.43300 50.80900 31.10100
H  8.33400 47.08400 30.46300
H  7.48800 48.19100 31.64400
H  10.06200 48.27800 32.57100
H  9.90300 46.58700 31.86700
H  15.33700 49.83500 26.22100
H  14.82500 48.56300 27.44400
H  13.98000 50.07300 27.27000
H  16.01800 49.31200 24.32500
H  16.45200 47.86000 23.31100
H  15.85800 47.73900 24.96600
H  9.59100 46.26000 20.88900
H  7.62400 48.49000 20.88900
H  10.99900 48.74300 20.46700
H  9.43000 49.01300 19.88200
H  10.57800 47.65200 19.28500
H  6.07100 47.04100 20.40900
H  6.91400 45.54100 21.09400
H  8.36200 46.53900 18.96700
H  6.68400 45.90500 18.44700
H  7.73600 44.90100 19.40100
H  3.42900 46.49900 24.31100
H  3.49500 48.27300 23.90100
H  2.79300 47.78000 25.43700
H  5.38200 49.31400 29.77600
H  4.12600 47.10900 32.95500
H  5.59900 46.19900 32.75100
H  4.10700 45.82000 31.77100

