158

Mg 17.06300 -1.15500 27.68400
C  16.32500 1.12000 30.34200
C  18.74400 -3.19600 29.87600
C  17.91700 -2.93500 24.99800
C  15.34700 1.18600 25.57900
N  17.43800 -1.03800 29.88400
C  17.11700 0.01300 30.69500
C  17.66800 -0.34600 32.10500
C  18.58800 -1.62200 31.91200
C  18.22000 -2.01400 30.47700
C  20.07100 -1.33400 32.29600
C  16.58500 -0.35000 33.21400
C  16.91600 0.26100 34.57000
H  18.42900 0.44700 34.98700
N  18.28400 -2.80400 27.49800
C  18.79700 -3.53300 28.50200
C  19.41200 -4.73400 27.91900
C  19.19400 -4.74200 26.47400
C  18.44400 -3.45400 26.25800
C  20.12100 -5.70000 28.79300
C  19.56400 -5.67600 25.36100
O  19.23300 -5.45200 24.16500
C  20.27800 -7.05300 25.68000
N  16.83800 -0.82200 25.57500
C  17.27600 -1.70400 24.62600
C  17.05500 -1.20200 23.19700
C  16.11900 0.10100 23.38400
C  15.98000 0.11200 24.92200
C  18.35600 -0.97900 22.45400
C  14.64700 0.00900 22.73000
C  14.41700 1.06800 21.55100
N  15.98000 0.74300 27.86500
C  15.28200 1.49700 26.99800
C  14.64400 2.60500 27.57700
C  15.09000 2.54500 28.91100
C  15.85900 1.37200 29.05000
C  13.72000 3.70000 26.97400
C  15.03600 3.22500 30.19900
O  14.60800 4.33000 30.45400
C  15.72800 2.24500 31.23100
C  16.66700 3.03600 32.05400
O  17.78400 3.39300 31.74500
O  16.07500 3.43200 33.20400
C  16.90500 4.28200 34.08100
H  19.21800 -3.88500 30.57800
H  18.10700 -3.41200 24.03400
H  14.83200 1.88800 24.92000
H  18.25000 0.56400 32.24600
H  18.32200 -2.38400 32.64500
H  20.32900 -0.29700 32.51100
H  20.67300 -1.51000 31.40400
H  20.30500 -2.07900 33.05600
H  16.38400 -1.38300 33.49900
H  15.62400 0.07600 32.92400
H  16.44300 -0.37200 35.32100
H  16.35100 1.19200 34.51400
H  20.48400 -6.51500 28.16700
H  19.56300 -6.10400 29.63700
H  21.01200 -5.18700 29.15500
H  20.06000 -7.61500 26.58800
H  21.33800 -6.80000 25.65000
H  19.99400 -7.74000 24.88400
H  16.46800 -2.04100 22.82400
H  16.66900 0.98900 23.07300
H  18.18000 -0.04400 21.92100
H  18.42500 -1.82600 21.77200
H  19.11800 -0.93800 23.23200
H  13.92600 0.11700 23.54000
H  14.42300 -0.97300 22.31400
H  14.21100 0.54400 20.61800
H  15.16500 1.85900 21.49500
H  13.53600 1.61500 21.88900
H  12.72500 3.44500 26.60800
H  14.31800 4.02400 26.12200
H  13.63800 4.52200 27.68500
H  14.88100 1.91900 31.83600
H  16.24600 4.56800 34.90100
H  17.20600 5.28000 33.76000
H  17.80300 3.83900 34.51100
Mg 26.41700 50.17700 27.00100
C  24.29900 51.16800 29.53000
C  28.51300 48.81000 29.44800
C  28.66700 49.19400 24.56100
C  24.21500 51.49600 24.58400
N  26.43000 50.03200 29.25300
C  25.46900 50.49600 30.08000
C  25.72700 50.04500 31.62500
C  27.11400 49.44100 31.51800
C  27.38900 49.43700 29.98500
C  28.18400 50.09900 32.36900
C  24.57400 49.09700 32.11400
C  24.01100 49.40900 33.49100
H  24.82900 49.86900 34.69300
N  28.31500 49.18900 27.01000
C  29.00200 48.73400 28.12900
C  30.34700 48.43400 27.75100
C  30.43300 48.55000 26.32200
C  29.12000 48.99100 25.86200
C  31.44000 48.10500 28.79100
C  31.54900 48.29100 25.43400
O  31.50800 48.52300 24.23100
C  32.86200 47.76000 25.86100
N  26.50900 50.38300 24.85900
C  27.44300 49.73000 24.05700
C  26.87600 49.69100 22.57400
C  25.68100 50.71300 22.63800
C  25.44000 50.89000 24.14800
C  27.91200 49.96100 21.43400
C  24.52200 50.10600 21.79500
C  23.98500 50.91100 20.54500
N  24.71200 51.27400 27.01000
C  23.87800 51.71300 25.94900
C  22.75400 52.45500 26.55700
C  22.84100 52.22500 27.94200
C  24.01000 51.39500 28.15700
C  21.75800 53.42600 25.85900
C  22.24000 52.53300 29.21000
O  21.27300 53.14800 29.50900
C  23.14100 51.81800 30.30600
C  23.59100 52.72800 31.45200
O  24.69700 53.34300 31.46100
O  22.55300 52.90600 32.30100
C  22.88100 53.81000 33.40600
H  29.21900 48.43100 30.19000
H  29.35200 48.74400 23.83900
H  23.50900 51.87300 23.84200
H  25.72300 50.89500 32.30900
H  27.07100 48.39300 31.81500
H  28.88000 50.64100 31.72900
H  28.79400 49.37200 32.90600
H  27.75900 50.82000 33.06800
H  24.89700 48.05800 32.17700
H  23.72300 49.01100 31.43900
H  23.44400 48.50900 33.73000
H  23.26400 50.19300 33.37100
H  31.21200 48.45100 29.79900
H  32.39100 48.54800 28.49400
H  31.59400 47.02800 28.72400
H  32.73800 47.00400 26.63600
H  33.28400 48.68700 26.24900
H  33.49500 47.41900 25.04100
H  26.55600 48.64900 22.59400
H  26.05700 51.59000 22.11200
H  28.18200 49.00700 20.98200
H  28.79400 50.29500 21.98100
H  27.62800 50.68000 20.66600
H  23.68000 49.82900 22.42900
H  24.80500 49.11600 21.43900
H  22.93200 51.14000 20.71000
H  24.03300 50.60700 19.49900
H  24.51500 51.86200 20.50200
H  22.36800 54.03700 25.19300
H  21.43800 53.98600 26.73700
H  20.96500 52.93700 25.29300
H  22.46700 51.07000 30.72300
H  23.47900 54.67500 33.11600
H  23.46300 53.15500 34.05400
H  21.95800 54.01600 33.94800

