158

Mg 16.59000 -2.53900 28.18500
C  16.04800 -0.39700 30.78600
C  18.52400 -4.54000 30.26800
C  17.55000 -4.45700 25.44000
C  15.13500 -0.23000 25.98900
N  17.31300 -2.36100 30.30400
C  16.74000 -1.54500 31.22800
C  17.21700 -1.98200 32.67400
C  17.91900 -3.36000 32.45300
C  17.92400 -3.44700 30.92900
C  19.41000 -3.41400 32.91700
C  15.99300 -2.14800 33.65600
C  15.91200 -1.29300 34.93200
H  17.31900 -0.84500 35.51000
N  17.81200 -4.38200 27.94400
C  18.45200 -4.95900 28.94300
C  19.30400 -5.99500 28.38600
C  18.88500 -6.21800 27.01500
C  18.04700 -5.00600 26.74500
C  20.21900 -6.87100 29.12800
C  19.19400 -7.35400 26.02500
O  18.78300 -7.38900 24.89400
C  20.06300 -8.43200 26.37100
N  16.53700 -2.33300 25.95200
C  16.91800 -3.28300 25.06500
C  16.93000 -2.72200 23.64900
C  15.72200 -1.63800 23.84000
C  15.80500 -1.32600 25.33600
C  18.26200 -2.26500 23.05800
C  14.31800 -2.19700 23.52900
C  13.89600 -2.41800 22.03900
N  15.68700 -0.75500 28.28900
C  15.11800 0.07100 27.36300
C  14.56300 1.26300 27.95700
C  14.90000 1.16800 29.34500
C  15.53100 -0.06800 29.48200
C  13.66300 2.18500 27.25800
C  14.78500 1.76100 30.64000
O  14.35000 2.85600 30.97900
C  15.44200 0.69500 31.66600
C  16.34200 1.66100 32.44200
O  17.48800 1.93500 32.13500
O  15.68700 2.11700 33.55300
C  16.42000 3.12400 34.34700
H  19.00800 -5.25600 30.93500
H  17.75600 -5.07000 24.55900
H  14.60000 0.42600 25.30000
H  17.96800 -1.25100 32.97300
H  17.36800 -4.21600 32.84400
H  19.64600 -2.72400 33.72700
H  20.15000 -3.26600 32.13100
H  19.64700 -4.37300 33.37800
H  16.03200 -3.17100 34.03000
H  15.07500 -1.97600 33.09500
H  15.42700 -1.81900 35.75500
H  15.26900 -0.45400 34.66700
H  19.87200 -7.89200 28.96900
H  20.13200 -6.69800 30.20100
H  21.20300 -6.75800 28.67400
H  20.99400 -7.99300 26.73100
H  20.25500 -9.03800 25.48600
H  19.40000 -8.95500 27.06000
H  16.56200 -3.55800 23.05300
H  15.92400 -0.74000 23.25700
H  18.19800 -1.30000 22.55500
H  18.51800 -2.94800 22.24800
H  19.06000 -2.29600 23.79900
H  13.48200 -1.72100 24.04100
H  14.36600 -3.17800 24.00300
H  13.51400 -1.54800 21.50300
H  13.07200 -3.13000 22.00000
H  14.72000 -2.83300 21.45900
H  13.30900 1.86100 26.27900
H  14.33000 3.04300 27.16900
H  12.86800 2.41700 27.96700
H  14.53700 0.48500 32.23500
H  17.47800 2.88800 34.46600
H  15.82400 3.07600 35.25800
H  16.38300 4.13300 33.93500
Mg 35.02000 49.51700 25.76600
C  35.02000 47.93600 28.87100
C  33.95700 52.36200 27.29400
C  34.90800 51.13000 22.71000
C  35.69600 46.51700 24.15900
N  34.33800 50.01800 27.85000
C  34.62500 49.23300 28.98000
C  34.47600 49.98900 30.27000
C  34.16800 51.48400 29.71600
C  34.14000 51.27700 28.16500
C  32.93400 52.14200 30.24500
C  35.69200 50.06100 31.16500
C  35.42300 49.68900 32.69400
H  33.95000 49.52200 33.20500
N  34.50000 51.45300 25.05900
C  34.05200 52.50500 25.86100
C  33.58600 53.58300 25.02400
C  33.91300 53.24400 23.65200
C  34.49500 51.93000 23.76600
C  32.86600 54.82600 25.64500
C  33.77500 54.06700 22.37300
O  34.04800 53.61400 21.26500
C  33.12900 55.44400 22.55600
N  35.15000 48.90700 23.77700
C  35.19700 49.77200 22.68800
C  35.92600 49.13300 21.47400
C  36.20600 47.70500 21.95500
C  35.64000 47.68900 23.39100
C  35.01800 49.06000 20.21700
C  37.79600 47.32100 21.89800
C  38.08500 46.46200 20.63200
N  35.41300 47.54400 26.31700
C  35.62500 46.35100 25.59300
C  35.90100 45.29500 26.48100
C  35.68200 45.87600 27.72800
C  35.35300 47.22600 27.58800
C  36.32300 43.88600 26.06600
C  35.56800 45.53900 29.16600
O  35.74400 44.52100 29.72100
C  35.17600 46.89600 30.00200
C  33.95000 46.52900 30.75500
O  32.80500 46.88100 30.52100
O  34.28500 45.77000 31.86600
C  33.24900 45.23000 32.78900
H  33.58400 53.27700 27.75900
H  35.12000 51.56300 21.73000
H  35.96800 45.58100 23.66700
H  33.59700 49.64500 30.81500
H  35.03700 52.11100 29.91500
H  32.14500 51.44500 30.52800
H  32.53100 52.91900 29.59500
H  33.31500 52.63100 31.14100
H  36.14900 51.05000 31.14900
H  36.46900 49.40500 30.77400
H  35.89100 50.48900 33.26900
H  35.94300 48.75700 32.91200
H  33.48900 55.11700 26.49000
H  31.92000 54.42700 26.01000
H  32.84100 55.70100 24.99500
H  33.03800 55.90900 21.57400
H  33.76000 56.14200 23.10600
H  32.08600 55.36900 22.86200
H  36.83400 49.72400 21.34500
H  35.65300 46.97900 21.35900
H  34.24100 49.82300 20.26500
H  34.62000 48.07500 19.97500
H  35.60200 49.53600 19.42900
H  38.19600 46.78700 22.76100
H  38.43800 48.18700 21.73600
H  37.31600 46.44100 19.86000
H  38.20400 45.43000 20.96200
H  38.91500 46.81800 20.02100
H  36.87500 43.47900 26.91400
H  37.01800 43.84200 25.22800
H  35.45900 43.26700 25.82500
H  36.02000 47.19500 30.62400
H  33.05600 44.25700 32.33700
H  32.27400 45.70700 32.70200
H  33.63700 45.14200 33.80400

