158

Mg 26.33800 1.15100 29.57900
C  28.16100 1.05700 32.55500
C  23.43700 1.61900 31.52800
C  24.38100 1.14600 26.70900
C  28.93400 -0.08200 27.75800
N  25.85900 1.20400 31.81400
C  26.81400 1.25100 32.82700
C  26.13400 1.43000 34.19900
C  24.61100 1.55400 33.89000
C  24.58100 1.41700 32.28600
C  23.69600 0.60600 34.55200
C  26.66600 2.52200 35.09500
C  25.96400 2.78600 36.43300
H  26.78600 2.84200 37.71300
N  24.17300 1.35100 29.16500
C  23.19500 1.55100 30.09100
C  21.94200 1.73200 29.48600
C  22.16800 1.54700 28.10700
C  23.65200 1.31300 27.88900
C  20.65200 2.03100 30.18400
C  21.19000 1.55800 26.97900
O  21.49400 1.30800 25.81900
C  19.82200 2.05900 27.21900
N  26.56500 0.48400 27.57300
C  25.63200 0.64500 26.51500
C  26.22500 0.27300 25.13100
C  27.74700 -0.06800 25.44300
C  27.75500 0.10800 27.02700
C  25.31700 -0.65000 24.19600
C  28.77700 0.73100 24.60100
C  29.16700 2.12900 25.05000
N  28.18600 0.62200 29.96400
C  29.19600 0.17400 29.12600
C  30.37400 -0.00700 29.89800
C  30.07000 0.47300 31.20800
C  28.69300 0.72400 31.25300
C  31.73600 -0.46700 29.36700
C  30.59000 0.70800 32.53200
O  31.73200 0.55300 32.92600
C  29.32800 1.17100 33.47000
C  29.51000 0.28500 34.74400
O  29.24300 -0.88700 34.86700
O  29.86300 1.09000 35.84900
C  30.01400 0.49000 37.15700
H  22.63100 2.03600 32.13600
H  23.78000 1.30100 25.81100
H  29.81100 -0.44900 27.22100
H  26.35200 0.50200 34.72800
H  24.32700 2.53800 34.26200
H  23.45600 -0.19500 33.85300
H  22.80100 1.05900 34.97700
H  24.28700 0.13300 35.33700
H  26.55300 3.43100 34.50400
H  27.75100 2.47400 35.18500
H  25.41000 1.85800 36.57400
H  25.36800 3.69900 36.45100
H  20.09500 1.09700 30.26600
H  20.17200 2.95800 29.87100
H  20.82200 2.15800 31.25300
H  19.46900 1.35200 27.97000
H  19.09400 2.11400 26.41000
H  19.95600 3.05700 27.63500
H  26.23800 1.26200 24.67400
H  27.85900 -1.14000 25.28100
H  24.73400 -0.07400 23.47700
H  24.63400 -1.23500 24.81200
H  25.86300 -1.32600 23.53700
H  28.29500 0.76700 23.62400
H  29.67300 0.11200 24.56300
H  30.22700 2.16000 25.30300
H  28.50100 2.46500 25.84400
H  28.86900 2.78600 24.23300
H  31.81500 -0.51300 28.28100
H  32.01000 -1.46100 29.72100
H  32.40400 0.37000 29.57400
H  29.60500 2.16500 33.82000
H  30.96400 0.79500 37.59500
H  29.90200 -0.59200 37.08300
H  29.16300 0.94700 37.66300
Mg 48.07300 16.16300 28.63700
C  46.11200 16.11300 31.58200
C  50.50300 17.91300 30.29800
C  49.85600 16.22000 25.77200
C  45.41200 14.63200 26.96900
N  48.21300 16.98200 30.65900
C  47.34300 16.81000 31.70600
C  47.95100 17.44200 33.02700
C  49.18100 18.23300 32.48500
C  49.35100 17.72200 31.06800
C  49.03000 19.80700 32.38200
C  48.26700 16.34000 34.09000
C  47.80600 16.46400 35.50900
H  47.50800 17.89400 36.09400
N  49.94400 16.89400 28.14900
C  50.84800 17.54200 28.95400
C  52.10400 17.76500 28.27600
C  51.97300 17.23400 27.00500
C  50.58200 16.68200 26.93900
C  53.27600 18.55000 28.81400
C  52.99700 17.13100 25.74800
O  52.69800 16.67300 24.64900
C  54.37000 17.45400 25.99500
N  47.56500 15.76400 26.60800
C  48.50700 15.82300 25.56100
C  48.09600 15.03700 24.33800
C  46.67100 14.38500 24.81600
C  46.54400 14.92400 26.21500
C  47.92800 15.87200 23.04400
C  46.54100 12.87400 24.61100
C  45.76800 12.44700 23.33800
N  46.20800 15.42200 29.11300
C  45.18300 14.82300 28.32300
C  43.94700 14.59600 29.10200
C  44.30200 15.02600 30.39600
C  45.66100 15.57400 30.33300
C  42.79200 13.89800 28.50100
C  43.86700 15.14600 31.74800
O  42.78100 14.78000 32.17000
C  45.06800 15.83400 32.59400
C  44.49500 16.94000 33.38800
O  44.26400 18.09400 33.02500
O  44.17400 16.41400 34.66500
C  43.34500 17.19800 35.53900
H  51.32900 18.50200 30.70400
H  50.50800 16.32500 24.90200
H  44.67100 14.21600 26.28400
H  47.13100 18.07300 33.37000
H  50.04000 18.08500 33.14000
H  48.97800 20.11700 31.33800
H  49.96500 20.23600 32.74300
H  48.16300 20.12200 32.96300
H  49.35100 16.34400 34.20100
H  47.99300 15.37700 33.65700
H  48.63900 16.05700 36.08000
H  46.90300 15.85500 35.56000
H  54.14800 17.89700 28.77800
H  52.98600 18.84500 29.82200
H  53.44800 19.43100 28.19600
H  55.02000 17.25700 25.14300
H  54.77600 16.85300 26.80800
H  54.35300 18.52000 26.22500
H  48.75800 14.18300 24.19100
H  46.00200 14.84200 24.08700
H  47.17100 15.53900 22.33400
H  48.85000 15.92300 22.46700
H  47.81800 16.92700 23.29700
H  46.04200 12.44500 25.48000
H  47.50800 12.38200 24.51100
H  46.03300 11.46900 22.93700
H  45.92200 13.16800 22.53500
H  44.70600 12.26600 23.50200
H  42.76900 14.05900 27.42300
H  41.94300 14.29600 29.05700
H  42.86900 12.83100 28.71000
H  45.46900 15.12300 33.31700
H  42.41000 17.43000 35.02800
H  43.79200 18.17300 35.73200
H  43.08800 16.63400 36.43600

