158

Mg 2.61100 -1.32000 43.59100
C  5.97400 -0.46100 43.19300
C  1.86400 1.59600 41.81300
C  -0.41400 -2.54100 43.05700
C  3.71600 -4.49700 44.73300
N  3.78700 0.34300 42.71100
C  5.10900 0.47400 42.67900
C  5.55000 1.67500 41.78200
C  4.26800 2.45200 41.52500
C  3.22300 1.39300 42.02600
C  4.17600 3.83000 42.16500
C  6.15700 1.14000 40.45500
C  6.88100 2.23500 39.63300
H  6.24700 2.73200 38.42000
N  0.94600 -0.47200 42.82600
C  0.82700 0.79100 42.25500
C  -0.51100 1.12600 42.10500
C  -1.24300 -0.01100 42.50100
C  -0.29300 -1.10800 42.79700
C  -1.01700 2.44400 41.62300
C  -2.77500 -0.21100 42.61900
O  -3.58600 0.64300 42.23300
C  -3.42700 -1.37400 43.21900
N  1.87200 -3.39000 43.56000
C  0.48100 -3.50200 43.45000
C  0.18000 -5.03700 43.72000
C  1.56300 -5.65600 44.29500
C  2.41100 -4.44100 44.21800
C  -1.06200 -5.36800 44.69200
C  2.19700 -6.80300 43.43800
C  2.81300 -7.93000 44.30800
N  4.40600 -2.21100 44.16400
C  4.66300 -3.47000 44.57000
C  6.09500 -3.53200 44.87000
C  6.67200 -2.38500 44.39700
C  5.61300 -1.62800 43.87000
C  6.82500 -4.64900 45.52400
C  7.93300 -1.57600 44.21800
O  9.09500 -1.70200 44.62900
C  7.44500 -0.28900 43.40200
C  7.80300 0.83600 44.25000
O  7.17700 1.15900 45.22500
O  8.92900 1.48600 43.81400
C  9.37000 2.73200 44.56400
H  1.63800 2.55300 41.33600
H  -1.42100 -2.96100 43.04200
H  4.16600 -5.44100 45.04500
H  6.29300 2.24100 42.34500
H  4.01000 2.65800 40.48600
H  5.04500 4.06800 42.77900
H  3.27900 3.91500 42.77800
H  4.04400 4.56200 41.36800
H  5.37000 0.75900 39.80400
H  6.83900 0.30300 40.59800
H  7.82600 1.76200 39.36800
H  7.14900 3.06900 40.28100
H  -0.62200 2.56500 40.61400
H  -0.62800 3.10300 42.39900
H  -2.10400 2.42800 41.69700
H  -4.49900 -1.20000 43.30600
H  -3.17100 -1.66400 44.23800
H  -3.19100 -2.18800 42.53500
H  -0.02800 -5.27800 42.67700
H  1.47700 -5.98200 45.33200
H  -1.33000 -4.61700 45.43600
H  -0.95700 -6.30100 45.24500
H  -1.84200 -5.53000 43.94800
H  3.00200 -6.50200 42.76800
H  1.37400 -7.20000 42.84500
H  3.84300 -8.20500 44.07900
H  2.14600 -8.78800 44.23200
H  2.70700 -7.69600 45.36800
H  6.99900 -5.49800 44.86400
H  6.34500 -5.03500 46.42400
H  7.85200 -4.30900 45.65900
H  7.96000 -0.23800 42.44200
H  10.41700 2.64200 44.85500
H  9.00300 2.78800 45.58800
H  9.29100 3.70000 44.07100
Mg 26.52500 -0.05500 28.29700
C  28.23600 -0.29500 31.31700
C  23.57500 0.20600 30.09100
C  25.03200 -0.53300 25.48300
C  29.66500 -0.72100 26.59500
N  25.98900 -0.20100 30.50100
C  26.82500 -0.17000 31.46100
C  26.10100 -0.01000 32.82700
C  24.61200 0.19300 32.42100
C  24.72800 0.03500 30.90400
C  23.63900 -0.83600 33.15700
C  26.63300 1.14500 33.78300
C  25.68400 1.75200 34.87400
H  26.22900 2.31800 36.23200
N  24.58000 -0.09300 27.83100
C  23.51100 0.12100 28.66900
C  22.32300 0.01600 27.90600
C  22.66200 -0.17700 26.52200
C  24.17300 -0.41800 26.55200
C  20.86700 0.04600 28.50200
C  21.95900 -0.14300 25.14900
O  22.42000 -0.52600 24.10000
C  20.60800 0.38800 25.26100
N  27.30700 -0.32100 26.32300
C  26.44800 -0.50600 25.32300
C  27.09600 -0.58600 23.88800
C  28.55800 -0.31300 24.30500
C  28.57200 -0.48700 25.81200
C  26.94000 -1.98800 23.31200
C  29.03300 1.11100 23.85000
C  29.71300 1.22600 22.47900
N  28.48600 -0.40400 28.80100
C  29.63800 -0.72200 28.03000
C  30.78900 -0.84900 28.87600
C  30.32900 -0.65700 30.17500
C  28.94100 -0.45800 30.07500
C  32.22300 -1.07700 28.49000
C  30.69200 -0.48800 31.52200
O  31.80200 -0.51900 32.04000
C  29.34200 -0.08900 32.33100
C  29.35900 -0.88800 33.57400
O  29.14500 -2.10400 33.67400
O  29.65300 -0.03600 34.63900
C  29.53000 -0.53800 36.02100
H  22.61900 0.26400 30.61500
H  24.72500 -0.56500 24.43500
H  30.52700 -0.89400 25.94600
H  26.31000 -0.92600 33.38000
H  24.40400 1.24600 32.61300
H  23.08900 -0.28600 33.92100
H  24.24500 -1.63100 33.59300
H  22.93200 -1.24700 32.43700
H  26.85600 2.02300 33.17700
H  27.48100 0.80000 34.37400
H  24.78500 1.13800 34.92600
H  25.29700 2.62400 34.34700
H  20.21500 0.90600 28.35100
H  20.84400 -0.28800 29.53900
H  20.29300 -0.74200 28.01400
H  20.06300 -0.41400 25.75900
H  20.14300 0.60400 24.30000
H  20.48700 1.24600 25.92200
H  26.60100 0.05100 23.15600
H  29.25700 -1.04800 23.90600
H  26.57100 -1.99300 22.28700
H  26.37500 -2.68700 23.93000
H  27.88300 -2.51400 23.16400
H  29.68600 1.60200 24.57100
H  28.18600 1.79200 23.76800
H  29.09100 0.96700 21.62300
H  30.49600 0.47300 22.56500
H  30.02500 2.24400 22.24300
H  32.86700 -0.20600 28.61100
H  32.32200 -1.35000 27.43900
H  32.54000 -1.90100 29.12900
H  29.39600 0.98400 32.51000
H  28.90100 0.19500 36.52600
H  30.53200 -0.40200 36.42700
H  29.10000 -1.53400 36.13700

