158

Mg 47.55900 24.97100 28.83000
C  48.25500 27.23700 31.52300
C  46.54000 22.66800 31.01500
C  47.20300 22.79300 26.29200
C  49.28800 27.16400 26.68400
N  47.60300 24.96700 31.03400
C  47.75900 25.95400 31.90900
C  47.30300 25.56500 33.29800
C  46.80900 24.12100 33.06400
C  47.07700 23.81200 31.64000
C  47.56000 23.10600 34.03200
C  46.28500 26.51000 34.00800
C  46.68700 26.80100 35.47900
H  45.61700 26.86200 36.56900
N  46.85200 23.02700 28.65000
C  46.44100 22.22800 29.68300
C  45.94100 20.95100 29.13500
C  46.14300 21.00600 27.74200
C  46.73300 22.24600 27.51700
C  45.49400 19.89800 30.03100
C  45.89600 19.93100 26.71200
O  45.98800 20.21200 25.49100
C  45.16100 18.59000 27.04800
N  48.20200 24.92800 26.76200
C  47.71700 24.01800 25.93500
C  47.98700 24.40700 24.47100
C  48.60600 25.76000 24.55900
C  48.73500 26.00300 26.08900
C  48.69000 23.27500 23.59700
C  47.82400 27.00000 23.89100
C  47.74800 27.03000 22.37500
N  48.55600 26.86300 29.03500
C  49.17300 27.57600 28.04600
C  49.73000 28.78100 28.56700
C  49.32900 28.76400 29.95700
C  48.65300 27.59500 30.15100
C  50.50000 29.83500 27.78200
C  49.51400 29.43300 31.24200
O  50.08900 30.44200 31.48600
C  48.72500 28.48500 32.29900
C  49.73900 28.10700 33.39300
O  50.32900 27.06100 33.44500
O  49.72500 28.97500 34.39600
C  50.47300 28.60300 35.62300
H  46.05200 21.97200 31.70100
H  47.06200 22.05200 25.50100
H  49.71500 27.84600 25.94500
H  48.18300 25.53100 33.93900
H  45.74000 24.01400 33.24900
H  48.09700 22.46600 33.33200
H  46.75100 22.64700 34.59900
H  48.29200 23.59000 34.67900
H  45.27700 26.10000 33.94300
H  46.28300 27.47200 33.49700
H  47.22000 27.74500 35.59200
H  47.45300 26.14900 35.89800
H  44.44300 19.73300 29.79300
H  45.55400 20.07400 31.10500
H  46.02100 18.97500 29.78800
H  44.33900 18.80500 27.73100
H  45.93700 17.97400 27.50300
H  44.83300 18.03900 26.16700
H  47.01300 24.49600 23.99000
H  49.63300 25.70900 24.19800
H  49.09100 22.56200 24.31800
H  49.45600 23.57000 22.88000
H  47.94500 22.72000 23.02700
H  48.28800 27.92800 24.22500
H  46.79300 27.01000 24.24400
H  48.11100 27.96000 21.93700
H  46.70000 26.87000 22.11800
H  48.40500 26.23100 22.03300
H  50.07600 30.83800 27.73700
H  50.67300 29.65400 26.72100
H  51.46400 29.82200 28.29000
H  47.88400 29.00000 32.76300
H  50.17000 29.38600 36.31800
H  51.53400 28.77500 35.44300
H  50.31400 27.55700 35.88700
Mg -12.91700 16.26300 41.74800
C  -10.16400 14.29000 41.03100
C  -11.40000 18.92500 40.16100
C  -15.96600 17.86700 41.59500
C  -14.60000 13.39000 42.75000
N  -11.00500 16.54800 40.62500
C  -10.00800 15.60900 40.49500
C  -8.74800 16.24800 39.90700
C  -9.14300 17.73100 39.70000
C  -10.54200 17.78600 40.30400
C  -8.19500 18.72900 40.48000
C  -8.08100 15.56400 38.68100
C  -6.60100 15.18700 38.83300
H  -5.59300 15.82200 37.78900
N  -13.56500 18.18000 41.24600
C  -12.81500 19.08700 40.49900
C  -13.55900 20.26500 40.31300
C  -14.90200 20.01900 40.90200
C  -14.83300 18.64100 41.28900
C  -13.00300 21.53400 39.61800
C  -15.97400 20.93400 41.08300
O  -15.85600 22.04800 40.58700
C  -17.25400 20.67300 41.91100
N  -15.03000 15.70300 42.15300
C  -16.09000 16.46200 41.90400
C  -17.46100 15.81100 42.21300
C  -16.92400 14.37200 42.61400
C  -15.45200 14.47500 42.50700
C  -18.26400 16.59800 43.26200
C  -17.58700 13.22200 41.91200
C  -18.59900 12.39400 42.74500
N  -12.48700 14.20800 42.06800
C  -13.23900 13.15200 42.49700
C  -12.44900 11.94400 42.46400
C  -11.28200 12.37400 41.95000
C  -11.32300 13.73300 41.64700
C  -12.91000 10.59400 42.86700
C  -9.93000 11.87400 41.54000
O  -9.41900 10.75700 41.55000
C  -9.13600 13.11400 41.02900
C  -7.84200 13.50800 41.69800
O  -7.80100 14.20000 42.71200
O  -6.78500 12.87700 41.10100
C  -5.48000 13.30800 41.64200
H  -10.90800 19.75600 39.64900
H  -16.94800 18.32700 41.46600
H  -15.09600 12.42400 42.86900
H  -8.03800 16.11300 40.72300
H  -9.13500 17.99100 38.64100
H  -8.84600 19.53500 40.81900
H  -7.41500 19.17900 39.86600
H  -7.80400 18.32300 41.41300
H  -8.15500 16.05000 37.70900
H  -8.65000 14.65500 38.48700
H  -6.66900 14.13400 38.56000
H  -6.25600 15.44100 39.83600
H  -13.73500 22.22900 39.20600
H  -12.21800 21.27000 38.90900
H  -12.42700 22.18500 40.27600
H  -17.91600 20.00000 41.36500
H  -17.70400 21.64700 42.10300
H  -17.16900 20.14400 42.86100
H  -18.00300 15.69700 41.27400
H  -17.01400 14.08600 43.66200
H  -17.94600 17.57400 43.62900
H  -18.54500 15.99900 44.12800
H  -19.16700 16.85900 42.71000
H  -16.76300 12.59300 41.57400
H  -18.19400 13.66000 41.12000
H  -18.34100 11.44500 43.21400
H  -19.40100 12.01800 42.11000
H  -18.99700 13.00500 43.55600
H  -13.04000 9.95400 41.99400
H  -13.91100 10.62600 43.29800
H  -12.09200 10.23100 43.48900
H  -8.84500 13.06400 39.98000
H  -5.49800 14.37800 41.85200
H  -4.76600 13.04800 40.86100
H  -5.17500 12.73300 42.51600

