158

Mg 40.48900 9.29700 29.21200
C  42.09400 10.67400 31.96600
C  38.28100 7.78000 31.38300
C  39.19000 7.75400 26.67600
C  43.38700 10.23200 27.24600
N  40.23300 9.17700 31.35900
C  40.90100 9.97500 32.28500
C  40.23300 9.94100 33.66400
C  39.25100 8.74700 33.48700
C  39.28400 8.47100 32.02200
C  39.45500 7.53700 34.41200
C  39.64500 11.31400 34.13400
C  38.91400 11.34700 35.50400
H  39.53700 12.25400 36.60000
N  38.98700 8.00700 28.97700
C  38.13900 7.63400 29.99400
C  37.06500 6.80200 29.41700
C  37.28000 6.70300 27.94600
C  38.48800 7.50400 27.78100
C  35.97000 6.17600 30.22300
C  36.44900 5.92100 26.94400
O  36.78400 5.90600 25.75800
C  35.36200 4.96500 27.32800
N  41.32500 8.90100 27.29000
C  40.43800 8.35100 26.43000
C  40.92700 8.53700 24.93000
C  42.29300 9.24600 25.10300
C  42.37700 9.50000 26.62400
C  40.96800 7.28500 24.00000
C  42.54800 10.53700 24.22800
C  41.79400 11.86700 24.61700
N  42.29100 10.33600 29.49300
C  43.36100 10.63400 28.65500
C  44.32200 11.51000 29.26900
C  43.92400 11.48500 30.59600
C  42.71700 10.77700 30.65400
C  45.45500 12.22100 28.67700
C  44.27300 11.89200 31.84700
O  45.25300 12.54300 32.16400
C  43.15400 11.37500 32.81100
C  43.68700 10.40200 33.86600
O  44.57600 9.55800 33.66100
O  43.16000 10.73700 35.09700
C  43.68600 9.84800 36.21800
H  37.49100 7.42300 32.04800
H  38.70000 7.31500 25.80500
H  44.29700 10.52200 26.71800
H  41.03700 9.70100 34.36000
H  38.32800 9.30300 33.65200
H  39.97000 6.73200 33.88900
H  38.48400 7.28300 34.83800
H  40.19800 7.83500 35.15100
H  38.86700 11.59800 33.42500
H  40.50100 11.98800 34.14400
H  38.82300 10.30200 35.80300
H  37.87900 11.68800 35.49500
H  35.07900 6.19500 29.59600
H  35.74600 6.67000 31.16800
H  36.23600 5.14000 30.43000
H  34.41700 5.50400 27.39600
H  35.58100 4.35900 28.20700
H  35.25800 4.23300 26.52700
H  40.23700 9.29000 24.54700
H  43.11600 8.57300 24.86400
H  40.06400 7.23500 23.39400
H  41.09500 6.42300 24.65500
H  41.77700 7.47800 23.29500
H  42.65900 10.49400 23.14500
H  43.57400 10.83300 24.44800
H  42.59100 12.50600 24.99900
H  41.02400 11.57400 25.33000
H  41.30000 12.21100 23.70800
H  45.56800 12.12600 27.59700
H  46.36100 11.78800 29.10200
H  45.42100 13.27300 28.96000
H  42.75300 12.24400 33.33200
H  43.13900 10.04200 37.14100
H  44.76600 9.95100 36.32200
H  43.42300 8.86900 35.81800
Mg 47.64500 34.94700 28.06300
C  45.95500 33.31500 30.64500
C  47.81500 37.75800 30.04700
C  48.69700 36.70500 25.42000
C  46.84800 32.24300 25.87500
N  46.95800 35.38700 30.06100
C  46.47400 34.48600 31.01600
C  46.43200 35.21700 32.42200
C  46.65300 36.68500 31.96100
C  47.17000 36.62600 30.56000
C  45.27100 37.48500 32.11000
C  47.53500 34.45800 33.38100
C  48.75400 35.18200 33.84700
H  48.52600 36.16400 35.05500
N  48.35600 36.85200 27.76000
C  48.31700 37.91200 28.68600
C  48.89900 39.14900 28.15300
C  49.16000 38.80200 26.73500
C  48.75800 37.42500 26.58100
C  48.89100 40.48900 28.84900
C  49.61100 39.77600 25.67700
O  49.54100 39.57200 24.47900
C  50.23300 41.11000 25.96000
N  47.91000 34.43200 26.00000
C  48.18100 35.40100 25.10900
C  48.14700 34.93900 23.62700
C  47.89900 33.40500 23.83600
C  47.44500 33.36900 25.30200
C  47.05200 35.64400 22.79600
C  49.14700 32.55800 23.54300
C  50.25600 32.38800 24.61400
N  46.57400 33.07200 28.17900
C  46.43300 32.10500 27.23000
C  45.61600 31.08000 27.87900
C  45.40500 31.49100 29.21000
C  45.97900 32.72200 29.36700
C  45.13600 29.83700 27.12400
C  44.84600 31.08700 30.48400
O  44.27400 30.10600 30.95000
C  44.99100 32.38800 31.33100
C  45.18900 32.11600 32.86900
O  46.15400 31.49400 33.32000
O  44.19100 32.65900 33.58200
C  44.28700 32.59700 35.05800
H  47.70800 38.60100 30.73300
H  49.11800 37.19900 24.54100
H  46.58100 31.45400 25.16900
H  45.50800 35.04200 32.97500
H  47.47200 37.11100 32.54100
H  44.76500 37.47300 33.07500
H  44.64400 37.21200 31.26100
H  45.52600 38.54000 32.00900
H  47.87600 33.62200 32.77000
H  47.01000 34.10700 34.27000
H  49.30200 35.76500 33.10800
H  49.52300 34.44900 34.08900
H  47.94900 40.98100 28.60300
H  49.77700 41.12200 28.80400
H  49.07100 40.28000 29.90300
H  49.44100 41.84100 26.12300
H  50.62500 41.43600 24.99600
H  51.03100 41.06400 26.70100
H  49.12300 35.29600 23.29700
H  47.07300 32.99200 23.25700
H  47.51300 35.96000 21.86000
H  46.72300 36.57400 23.26100
H  46.17500 35.00700 22.69100
H  49.55900 33.00000 22.63600
H  48.73000 31.60300 23.22300
H  49.99200 32.89800 25.54000
H  51.24300 32.71100 24.28300
H  50.46100 31.33300 24.80000
H  45.97300 29.14600 27.02300
H  44.85300 30.22300 26.14400
H  44.23300 29.37000 27.51700
H  44.00900 32.86200 31.32200
H  45.26800 32.89600 35.42500
H  44.02300 31.61200 35.44500
H  43.55200 33.25600 35.52000

