158

Mg -0.80900 7.75000 26.69200
C  0.08400 9.55600 29.45900
C  -0.97500 4.81000 28.75700
C  -1.08600 5.82200 23.92300
C  0.04600 10.43100 24.59600
N  -0.56400 7.26200 28.84100
C  -0.39700 8.23200 29.78800
C  -0.52600 7.66700 31.24800
C  -0.39700 6.13500 31.01500
C  -0.75800 6.03200 29.50500
C  1.04400 5.50200 31.26800
C  -1.87700 7.96600 31.84400
C  -2.05000 8.06300 33.33200
H  -0.88800 7.67500 34.25200
N  -1.04200 5.63500 26.34600
C  -1.15400 4.63800 27.35000
C  -1.46500 3.40100 26.64800
C  -1.56900 3.66900 25.31400
C  -1.16100 5.09300 25.09200
C  -1.80000 2.23900 27.48600
C  -1.97100 2.75700 24.21900
O  -2.14900 3.16500 23.00600
C  -2.04700 1.25000 24.45500
N  -0.70100 8.07300 24.48900
C  -0.92000 7.15000 23.56400
C  -0.84700 7.69800 22.09800
C  -0.41300 9.19000 22.34000
C  -0.28500 9.22600 23.90700
C  0.04400 6.84900 21.17700
C  -1.43800 10.18800 21.83500
C  -2.75700 10.11900 22.51000
N  -0.07500 9.62400 26.93500
C  0.19300 10.64200 25.97600
C  0.64900 11.80100 26.63700
C  0.62800 11.38100 28.02100
C  0.12400 10.09900 28.16100
C  1.01900 13.07900 26.10800
C  1.02300 11.80500 29.36600
O  1.55100 12.82700 29.66800
C  0.65100 10.68200 30.35000
C  1.84100 10.23000 31.15000
O  2.57900 9.30200 30.77300
O  2.00400 11.09600 32.25900
C  3.23800 10.83600 32.97300
H  -0.97700 3.94900 29.42900
H  -1.19300 5.23200 23.01100
H  0.30900 11.29900 23.98900
H  0.28400 8.04500 31.87300
H  -1.16200 5.64400 31.61800
H  1.06000 5.02100 32.24600
H  1.78900 6.29700 31.25800
H  1.21600 4.70200 30.54800
H  -2.60200 7.20200 31.56100
H  -2.15300 8.90100 31.35700
H  -3.00100 7.63500 33.64600
H  -2.37200 9.09300 33.49000
H  -0.98300 1.51700 27.45500
H  -2.68500 1.77000 27.05500
H  -2.05500 2.45000 28.52500
H  -2.14200 0.73300 23.50000
H  -2.90900 1.01500 25.07900
H  -1.13200 0.92500 24.95100
H  -1.81500 7.75300 21.60100
H  0.52900 9.35800 21.81700
H  0.05400 5.77600 21.37200
H  1.12800 6.94400 21.10500
H  -0.34200 7.00700 20.17100
H  -1.57800 9.96600 20.77800
H  -0.99700 11.17300 21.98900
H  -3.46300 9.93800 21.69900
H  -3.09900 11.01800 23.02400
H  -2.80900 9.32400 23.25400
H  0.11900 13.69100 26.17000
H  1.49700 13.05400 25.12900
H  1.80200 13.41900 26.78600
H  -0.11600 11.14700 30.97000
H  4.15000 10.58600 32.43100
H  3.07000 10.06000 33.72000
H  3.52200 11.68100 33.60000
Mg 54.08700 25.40300 45.25800
C  51.46800 27.79500 44.61400
C  52.09200 22.92300 44.00100
C  56.77900 23.45800 44.80700
C  56.11600 28.23800 45.95700
N  52.11300 25.45600 44.30100
C  51.20800 26.47200 44.15700
C  49.93800 25.95200 43.53700
C  50.05200 24.45700 43.82500
C  51.50900 24.28000 44.05900
C  49.19400 23.87200 45.03900
C  49.73200 26.33200 42.04100
C  48.37400 26.00300 41.45400
H  48.24400 25.28900 40.15300
N  54.41100 23.34700 44.54600
C  53.41900 22.49500 44.24000
C  53.97200 21.13800 44.08700
C  55.34600 21.24200 44.49600
C  55.58200 22.71300 44.63100
C  53.08700 19.91400 43.77400
C  56.38600 20.14700 44.67200
O  56.13600 18.94800 44.38300
C  57.69800 20.42700 45.37800
N  56.13500 25.89200 45.15400
C  57.05000 24.85200 45.04600
C  58.48200 25.38000 45.25300
C  58.26300 27.01000 45.28700
C  56.70800 27.08400 45.51800
C  58.88800 24.85600 46.60800
C  58.78000 27.73700 44.02600
C  60.02300 28.68500 44.20200
N  53.79900 27.49400 45.60900
C  54.69400 28.49800 45.98500
C  53.95400 29.66800 46.38100
C  52.76500 29.51300 45.64600
C  52.70800 28.18200 45.22400
C  54.52100 30.99800 46.96700
C  51.53200 30.18100 45.24500
O  51.16000 31.31600 45.58600
C  50.68600 29.08200 44.53800
C  50.33500 29.52700 43.13900
O  51.14400 29.72200 42.27500
O  48.99600 29.51400 42.90300
C  48.54600 29.99000 41.59700
H  51.31500 22.17600 43.82500
H  57.71300 22.89500 44.85700
H  56.87600 28.97900 46.21100
H  49.02700 26.30800 44.01800
H  49.85100 23.85100 42.94100
H  49.70400 24.07000 45.98200
H  49.17300 22.78600 44.94900
H  48.19000 24.29500 45.02700
H  50.51200 25.85100 41.45100
H  49.99000 27.34900 41.74400
H  47.78400 26.92000 41.43800
H  47.83900 25.44800 42.22400
H  53.41200 19.39700 42.87100
H  52.02500 20.14000 43.68500
H  53.14100 19.25300 44.64000
H  58.41700 20.94300 44.74100
H  58.16200 19.55300 45.83400
H  57.45200 21.03900 46.24600
H  59.25900 25.14700 44.52400
H  58.71200 27.47500 46.16500
H  59.87500 24.39300 46.61200
H  58.21300 24.16200 47.10800
H  59.22000 25.63700 47.29200
H  57.90900 28.27900 43.65800
H  59.11600 26.97100 43.32700
H  60.53600 28.70200 43.24000
H  60.76600 28.30600 44.90300
H  59.57800 29.65200 44.43400
H  55.29600 30.65100 47.65000
H  53.73100 31.60100 47.41500
H  54.94000 31.61400 46.17100
H  49.75200 28.84300 45.04500
H  48.58400 29.29400 40.76000
H  48.98900 30.96500 41.39400
H  47.46600 30.11500 41.68600

