158

Mg 46.82600 25.21900 28.29700
C  47.58900 27.47400 30.94300
C  46.01000 22.82700 30.63500
C  47.21300 22.81700 25.85800
C  48.02900 27.58300 26.17700
N  46.81000 25.14600 30.51300
C  47.01000 26.24100 31.37800
C  46.59400 25.92500 32.74100
C  46.31500 24.29800 32.68500
C  46.43000 24.02100 31.15800
C  47.16900 23.39300 33.60500
C  45.43500 26.79500 33.43800
C  45.77400 27.22300 34.90400
H  44.61200 27.28400 35.86300
N  46.50800 23.07200 28.24400
C  46.13300 22.36500 29.32800
C  45.75700 21.08200 28.79500
C  46.29900 20.94900 27.49000
C  46.69200 22.34200 27.13800
C  45.15800 19.95000 29.59200
C  46.29500 19.79800 26.52400
O  46.67400 19.93700 25.33000
C  45.73700 18.43000 26.95300
N  47.44600 25.17300 26.26500
C  47.52700 24.09300 25.44800
C  47.65500 24.50600 24.01500
C  47.72600 26.09300 24.05600
C  47.73100 26.34700 25.61700
C  48.78600 23.80900 23.15100
C  46.62000 26.83800 23.20900
C  45.16800 26.67800 23.59500
N  47.61400 27.19200 28.44000
C  47.99600 28.03500 27.50300
C  48.26400 29.30900 27.97200
C  48.17200 29.21900 29.41500
C  47.71200 27.84300 29.61900
C  48.65500 30.49300 27.13100
C  48.45500 29.79800 30.76600
O  49.00800 30.86400 31.09900
C  47.98400 28.70400 31.80300
C  49.09000 28.37900 32.74800
O  50.08100 27.66000 32.50200
O  48.90900 28.98100 33.99300
C  49.94900 28.68300 34.97600
H  45.57000 22.04200 31.25300
H  47.29900 22.03800 25.09800
H  48.31600 28.34600 25.45000
H  47.41700 26.14400 33.42200
H  45.28300 24.13400 32.99800
H  46.54700 22.88500 34.34200
H  47.71800 24.09200 34.23600
H  47.83300 22.67700 33.12200
H  44.53600 26.18300 33.51400
H  45.25000 27.64300 32.77900
H  46.05000 28.27600 34.86500
H  46.59000 26.61800 35.30000
H  44.50900 19.38300 28.92500
H  44.69100 20.38800 30.47400
H  45.94500 19.27700 29.93200
H  45.79800 17.66500 26.17900
H  44.64800 18.41200 27.00100
H  46.05900 18.14200 27.95400
H  46.69400 24.17300 23.62100
H  48.67500 26.51600 23.72800
H  49.48700 24.56700 22.80200
H  48.40200 23.18500 22.34400
H  49.32300 23.14200 23.82600
H  46.75100 26.47100 22.19100
H  46.97300 27.86900 23.23000
H  44.96200 25.64300 23.86600
H  44.48000 27.01200 22.81800
H  44.86700 27.23600 24.48200
H  49.05800 31.27000 27.78100
H  47.80300 30.87600 26.56900
H  49.43800 30.30500 26.39700
H  47.22200 29.25300 32.35700
H  50.94000 28.96100 34.61900
H  50.02900 27.61400 35.17600
H  49.76500 29.30100 35.85400
Mg 47.33700 44.88000 44.10600
C  43.93400 44.33300 43.66900
C  47.92900 41.58900 43.05000
C  50.66600 45.72400 43.50000
C  46.63300 48.25900 44.66000
N  46.11100 43.20900 43.37400
C  44.72000 43.21800 43.48000
C  44.17500 41.96300 42.79200
C  45.38200 40.96300 43.13000
C  46.58700 41.93500 43.18400
C  45.22200 40.18400 44.47400
C  43.97600 42.06200 41.24800
C  42.52300 41.92700 40.78200
H  42.29600 41.32300 39.37300
N  49.09000 43.78300 43.49700
C  49.07400 42.45400 43.08200
C  50.40400 42.10500 42.79600
C  51.19100 43.24800 42.95100
C  50.32000 44.32500 43.31600
C  50.72000 40.70400 42.37600
C  52.66100 43.29000 42.68500
O  53.27300 42.27900 42.48900
C  53.47200 44.53400 42.93100
N  48.51200 46.72200 44.05900
C  49.83600 46.80400 43.84100
C  50.36000 48.25900 44.05000
C  49.01700 49.07400 44.41100
C  47.98200 47.93800 44.45000
C  51.57000 48.43800 45.08300
C  48.72900 50.16200 43.29500
C  47.91200 51.33200 43.66500
N  45.62200 46.05500 44.34100
C  45.52700 47.40300 44.53700
C  44.17200 47.75400 44.61600
C  43.44600 46.61400 44.25100
C  44.41200 45.59600 44.07800
C  43.54400 49.05200 44.74600
C  42.24600 46.02200 43.89700
O  41.09600 46.60800 43.76100
C  42.36100 44.50800 43.67100
C  41.64400 43.83500 44.85000
O  40.48000 43.44600 44.87500
O  42.44900 43.73900 45.96500
C  41.83100 43.05300 47.13300
H  48.02500 40.53200 42.79300
H  51.65200 46.05500 43.16500
H  46.25600 49.28100 44.74100
H  43.28600 41.61100 43.31500
H  45.66900 40.26800 42.34100
H  44.17400 39.98600 44.70000
H  45.66200 40.79000 45.26600
H  45.67100 39.19100 44.49500
H  44.61400 41.32600 40.76000
H  44.24200 43.09400 41.02000
H  42.04900 42.90800 40.76100
H  42.03800 41.27300 41.50700
H  50.57300 40.73700 41.29600
H  50.13700 39.94600 42.89900
H  51.74400 40.57300 42.72700
H  54.54300 44.33200 42.91300
H  53.21100 44.81100 43.95300
H  53.23700 45.37600 42.28100
H  50.88900 48.53700 43.13900
H  49.08100 49.40200 45.44800
H  51.39100 49.25100 45.78600
H  52.53000 48.53200 44.57600
H  51.72100 47.54700 45.69200
H  48.11400 49.79900 42.47200
H  49.60200 50.52300 42.75200
H  48.62700 52.15400 43.64300
H  47.62100 51.39300 44.71300
H  47.01200 51.57400 43.09900
H  42.58800 48.92700 44.23700
H  44.19000 49.83100 44.34200
H  43.38500 49.20500 45.81300
H  41.93600 44.17700 42.72400
H  41.75500 41.97200 47.01900
H  40.98200 43.66600 47.43600
H  42.55000 43.12600 47.95000

