158

Mg 30.55100 57.56500 40.41000
C  27.83400 55.76800 38.99100
C  32.76800 55.23800 39.22700
C  33.07200 59.87400 40.83700
C  28.29700 60.20500 40.95700
N  30.27600 55.71000 39.07700
C  29.11100 55.11100 38.68100
C  29.39600 53.62300 38.31200
C  31.02000 53.48800 38.43100
C  31.42300 54.90400 38.95300
C  31.41700 52.24500 39.23700
C  28.77000 53.12700 37.00800
C  29.31600 53.85100 35.72700
H  28.34200 54.69400 34.92100
N  32.57200 57.49300 40.14900
C  33.36000 56.41300 39.70300
C  34.75500 56.75400 39.77200
C  34.81800 58.02300 40.36100
C  33.42100 58.51900 40.53800
C  35.83400 55.78700 39.41100
C  36.14400 58.70500 40.72500
O  37.20700 58.15700 40.38100
C  36.15300 59.93100 41.67800
N  30.68200 59.68700 40.90100
C  31.82100 60.42100 40.93900
C  31.55800 61.88100 41.25200
C  30.04600 61.89100 41.50600
C  29.60100 60.53900 41.07200
C  32.37300 62.55600 42.41400
C  29.31800 63.16800 40.84700
C  28.31100 63.82800 41.77500
N  28.48300 57.91100 40.14500
C  27.74800 59.04400 40.47800
C  26.40500 58.75600 40.30800
C  26.31800 57.46700 39.75200
C  27.65200 57.01300 39.63600
C  25.22500 59.62800 40.66400
C  25.45300 56.46700 39.17400
O  24.26300 56.42600 38.91200
C  26.38700 55.32300 38.68200
C  26.00900 54.01700 39.27500
O  26.43700 53.45600 40.26200
O  25.19900 53.33200 38.33900
C  24.67600 52.06600 38.93300
H  33.39100 54.37000 39.00300
H  33.92800 60.54600 40.75100
H  27.53200 60.93300 41.23500
H  29.01600 53.11000 39.19500
H  31.57500 53.50600 37.49300
H  30.65400 51.54500 39.57800
H  31.78300 52.76300 40.12300
H  32.15200 51.75400 38.59800
H  27.68800 53.25500 37.02700
H  29.13800 52.10000 37.00400
H  29.68900 53.19400 34.94200
H  30.14400 54.50800 35.99500
H  36.43100 56.36500 38.70500
H  35.57500 54.85300 38.91300
H  36.38600 55.56200 40.32400
H  36.10200 60.86300 41.11600
H  37.10700 59.76500 42.17800
H  35.42200 59.84500 42.48200
H  31.75900 62.44400 40.34100
H  29.88000 62.02300 42.57500
H  31.65400 63.12700 43.00100
H  33.12400 63.22000 41.98700
H  32.89900 61.90900 43.11600
H  28.73800 62.77700 40.01100
H  29.99500 63.90200 40.40900
H  28.20800 64.90600 41.65200
H  28.58500 63.73300 42.82600
H  27.33200 63.35000 41.72600
H  24.79300 59.98200 39.72800
H  25.32600 60.34000 41.48400
H  24.47200 58.96900 41.09400
H  26.27900 55.18300 37.60600
H  24.20700 52.26900 39.89600
H  25.36700 51.23000 39.03800
H  23.86900 51.65200 38.32900
Mg 10.65500 48.27500 26.01800
C  8.37200 48.04700 28.86100
C  12.92900 49.53000 28.19900
C  12.42000 48.71000 23.39300
C  7.75300 48.04500 24.02300
N  10.58800 48.63300 28.35200
C  9.57200 48.52700 29.24900
C  10.13300 48.95100 30.65200
C  11.41100 49.79700 30.29700
C  11.67400 49.40700 28.84400
C  11.41400 51.35200 30.62700
C  10.34200 47.71400 31.53900
C  9.55000 47.68800 32.85000
H  9.81000 46.47500 33.63700
N  12.47300 48.98400 25.90300
C  13.38400 49.36200 26.88900
C  14.63700 49.46000 26.21700
C  14.53300 49.23100 24.85300
C  13.06400 48.98200 24.64200
C  15.91600 49.79200 27.00400
C  15.65000 49.03800 23.74500
O  15.37200 48.73600 22.58200
C  17.04500 48.96700 24.13400
N  10.18900 48.37400 23.91100
C  11.13700 48.47700 23.00200
C  10.59300 48.44700 21.49700
C  8.97200 48.31100 21.78500
C  8.93400 48.20600 23.34100
C  10.88300 49.69200 20.65800
C  8.44900 46.91600 21.04300
C  7.58600 47.17700 19.77100
N  8.55200 47.87200 26.29200
C  7.49900 47.83000 25.40400
C  6.29700 47.50600 26.03700
C  6.59000 47.55600 27.42600
C  7.95200 47.80600 27.54100
C  4.97900 47.24100 25.36600
C  5.96400 47.46000 28.73900
O  4.84600 47.16800 29.03500
C  7.10600 47.71000 29.71500
C  7.32800 46.42900 30.42700
O  8.08600 45.52100 30.11300
O  6.51600 46.28700 31.51900
C  6.61800 45.00200 32.27500
H  13.62800 49.92700 28.93800
H  12.96500 48.60400 22.45300
H  6.94700 47.98100 23.29000
H  9.45400 49.63800 31.15700
H  12.21300 49.44400 30.94600
H  10.67700 51.72300 31.33900
H  11.28400 51.77700 29.63200
H  12.35500 51.71100 31.04400
H  11.39900 47.73200 31.80700
H  10.12600 46.77600 31.02700
H  8.47700 47.80000 32.69200
H  9.99200 48.45300 33.48800
H  15.65700 49.64000 28.05200
H  16.27100 50.80700 26.82500
H  16.55100 49.02900 26.55400
H  17.68400 48.76500 23.27400
H  17.15300 48.07700 24.75500
H  17.34500 49.89100 24.62900
H  11.01900 47.49700 21.17600
H  8.58300 49.26200 21.42100
H  11.75100 50.22400 21.04700
H  10.06500 50.40800 20.73300
H  11.14300 49.35100 19.65600
H  7.83500 46.25600 21.65600
H  9.37100 46.41000 20.75700
H  7.22100 48.18900 19.95000
H  6.81800 46.43300 19.56100
H  8.19300 47.13800 18.86600
H  4.56500 48.19300 25.03400
H  4.23600 46.75200 25.99600
H  4.99500 46.59400 24.48900
H  6.85400 48.52000 30.39900
H  6.40600 45.19200 33.32700
H  7.51100 44.39300 32.13700
H  5.72700 44.40300 32.08600

