158

Mg 9.11500 3.22600 27.44000
C  10.28100 1.68000 30.32500
C  7.45300 5.46200 29.47200
C  7.76300 4.46100 24.70700
C  10.73000 0.64900 25.44300
N  8.93200 3.52000 29.65500
C  9.46500 2.74400 30.70400
C  9.21200 3.41600 32.13800
C  8.24600 4.58300 31.74400
C  8.17300 4.50900 30.18500
C  6.88500 4.54800 32.53600
C  10.61500 3.80000 32.73500
C  10.63500 4.98800 33.68100
H  11.10800 4.79900 35.07200
N  7.87400 4.83000 27.16000
C  7.30400 5.67700 28.09900
C  6.70000 6.74500 27.38800
C  6.78500 6.50100 25.93500
C  7.50200 5.19600 25.87600
C  6.04600 7.76200 28.15000
C  6.22400 7.35200 24.85700
O  6.45400 7.13000 23.65800
C  5.37300 8.62400 25.14700
N  9.10100 2.54600 25.40500
C  8.52100 3.31800 24.54800
C  8.64300 2.74300 23.16700
C  9.46100 1.43600 23.26700
C  9.81600 1.53900 24.79700
C  7.21500 2.52600 22.49500
C  10.64200 1.21100 22.25700
C  10.39900 0.07000 21.26900
N  10.29500 1.47800 27.74800
C  10.78400 0.55100 26.90700
C  11.57100 -0.38100 27.69200
C  11.40400 0.05100 29.02100
C  10.59200 1.17500 29.02200
C  12.24600 -1.64600 27.34800
C  11.80900 -0.25000 30.38900
O  12.58800 -1.11300 30.77900
C  11.18900 0.81900 31.27200
C  10.38400 0.22200 32.41100
O  9.37400 -0.41800 32.25900
O  11.02100 0.42000 33.60900
C  10.39200 -0.08900 34.85200
H  6.99800 6.21700 30.11700
H  7.30400 4.79500 23.77500
H  11.21000 -0.18000 24.91800
H  8.60400 2.75300 32.75500
H  8.64300 5.56900 31.98300
H  6.50400 5.55100 32.72900
H  7.18700 4.35100 33.56500
H  6.28300 3.78400 32.04400
H  11.24900 3.99500 31.87000
H  10.99000 2.93400 33.28000
H  9.65700 5.46200 33.77500
H  11.45000 5.62300 33.33400
H  5.86900 7.66100 29.22100
H  5.01100 7.70900 27.81300
H  6.44500 8.73200 27.85200
H  6.02500 9.21000 25.79500
H  4.54900 8.37200 25.81300
H  5.12800 9.19800 24.25300
H  9.08700 3.51300 22.53600
H  8.88900 0.51000 23.20600
H  7.06200 1.52400 22.09400
H  7.06100 3.18300 21.63900
H  6.37400 2.62600 23.18200
H  11.56200 1.03000 22.81400
H  10.74600 2.18800 21.78500
H  9.33400 -0.12600 21.14400
H  10.86300 -0.84900 21.62700
H  10.76100 0.48400 20.32800
H  13.20500 -1.42900 26.87800
H  11.60600 -2.17300 26.64100
H  12.16800 -2.18900 28.29000
H  11.96900 1.48200 31.64400
H  9.90800 0.71400 35.40800
H  11.29300 -0.47100 35.33100
H  9.73500 -0.94600 34.70100
Mg 40.62300 8.20300 28.99700
C  42.47500 9.51900 31.82400
C  38.40700 6.81700 31.07900
C  39.47300 6.28100 26.38500
C  43.33300 9.16400 26.92000
N  40.52300 8.14800 31.15700
C  41.28300 8.83700 32.14300
C  40.59800 8.72000 33.57600
C  39.43600 7.70300 33.23600
C  39.45600 7.46800 31.74900
C  39.52900 6.47400 34.05900
C  40.08900 10.12900 34.00500
C  39.89500 10.39200 35.54600
H  40.75200 11.39600 36.25300
N  39.00900 6.93700 28.68900
C  38.17800 6.49600 29.71900
C  37.13100 5.72400 29.12500
C  37.36800 5.73600 27.74800
C  38.63200 6.37900 27.50600
C  36.00600 4.98800 29.97400
C  36.55400 5.14300 26.57200
O  36.96900 5.17500 25.42800
C  35.15700 4.61900 26.87100
N  41.29300 7.77600 26.95100
C  40.70400 6.96500 26.12000
C  41.50300 6.78800 24.86000
C  42.50800 7.97600 24.86400
C  42.37800 8.38800 26.35100
C  42.25300 5.37100 24.85200
C  42.12700 9.15700 23.94200
C  41.32100 10.43800 24.46900
N  42.52900 9.16500 29.25500
C  43.45700 9.57900 28.30400
C  44.45800 10.38200 29.00400
C  44.13300 10.36900 30.38500
C  42.91800 9.65200 30.45000
C  45.69000 10.94900 28.28400
C  44.53600 10.83300 31.63500
O  45.49900 11.44600 32.02000
C  43.47500 10.29200 32.67600
C  44.05700 9.49300 33.76500
O  45.17200 8.95100 33.80800
O  43.31400 9.58300 34.90300
C  43.96500 9.10900 36.18000
H  37.71700 6.36700 31.79600
H  39.24000 5.75600 25.45600
H  44.20600 9.49600 26.35500
H  41.31200 8.32900 34.30100
H  38.48400 8.15300 33.51600
H  40.45600 6.41600 34.62900
H  39.44700 5.59100 33.42600
H  38.76100 6.52800 34.83000
H  39.13900 10.14400 33.47000
H  40.62800 10.92000 33.48400
H  39.89600 9.42000 36.04000
H  38.89600 10.82900 35.53000
H  35.04200 5.03700 29.46700
H  35.85000 5.33100 30.99700
H  36.20400 3.91700 29.99600
H  35.09500 3.88500 27.67500
H  34.67700 4.10400 26.03800
H  34.61200 5.51100 27.18000
H  40.86300 6.82600 23.97900
H  43.54700 7.71600 24.65900
H  41.78000 4.67700 25.54600
H  43.31000 5.45100 25.10400
H  42.21800 4.89200 23.87400
H  41.70000 8.87700 22.97900
H  43.14600 9.46200 23.70400
H  41.66500 11.35400 23.98700
H  41.62500 10.64600 25.49500
H  40.24600 10.41600 24.28800
H  45.52800 11.24300 27.24700
H  46.56600 10.30300 28.34400
H  45.96700 11.80200 28.90400
H  42.97300 11.15700 33.11000
H  44.25800 8.07900 35.97900
H  43.27400 9.19600 37.01900
H  44.79900 9.73300 36.50100

