158

Mg -0.46000 7.30200 26.30000
C  0.37600 9.64700 28.80800
C  -0.16700 4.88900 28.73900
C  -0.73000 5.16800 23.76400
C  -0.32000 9.96500 23.90400
N  -0.03800 7.28100 28.52400
C  0.34600 8.32500 29.29400
C  0.34800 7.94600 30.77500
C  0.44200 6.34400 30.70300
C  0.11900 6.13300 29.20300
C  1.84300 5.73800 31.13500
C  -0.88500 8.55700 31.49500
C  -0.56100 9.29700 32.85000
H  0.70900 9.01600 33.59800
N  -0.49500 5.39400 26.29300
C  -0.35900 4.51100 27.37100
C  -0.59000 3.18400 26.90000
C  -0.78600 3.23300 25.46000
C  -0.70800 4.65300 25.10400
C  -0.60700 1.91200 27.76400
C  -1.03400 2.05500 24.41800
O  -1.15700 2.21700 23.18100
C  -1.34900 0.62600 24.88500
N  -0.47500 7.61900 24.05700
C  -0.71400 6.50600 23.28500
C  -0.92700 6.88800 21.87900
C  -1.10000 8.47100 21.93800
C  -0.64300 8.74500 23.37100
C  0.24500 6.41600 20.96000
C  -2.52200 9.00000 21.55200
C  -3.28700 9.82500 22.63900
N  -0.03700 9.36400 26.28600
C  -0.03300 10.29500 25.26600
C  0.47100 11.60500 25.82000
C  0.55100 11.41100 27.16000
C  0.26700 10.01900 27.44500
C  0.72600 12.85200 25.09500
C  0.75600 12.04200 28.41400
O  0.94900 13.22000 28.70300
C  0.58100 10.94400 29.60900
C  1.92500 10.95800 30.26600
O  3.04200 10.63300 29.83600
O  1.77800 11.40400 31.57800
C  3.02500 11.73600 32.31100
H  -0.10100 4.10600 29.49700
H  -0.91800 4.41000 23.00200
H  -0.40200 10.80700 23.21400
H  1.33500 8.33200 31.03100
H  -0.32000 5.80000 31.26200
H  2.54300 5.81100 30.30300
H  1.79300 4.70500 31.48000
H  2.04700 6.36900 32.00000
H  -1.62700 7.79300 31.72700
H  -1.36600 9.27800 30.83400
H  -1.48100 9.32000 33.43400
H  -0.46800 10.34200 32.55400
H  -1.62900 1.56400 27.91700
H  -0.33500 2.04000 28.81100
H  0.04300 1.15200 27.33100
H  -2.14700 0.61200 25.62700
H  -0.46400 0.12800 25.28100
H  -1.66500 -0.02500 24.07000
H  -1.83300 6.40600 21.50900
H  -0.31000 8.86200 21.29700
H  1.02400 6.03900 21.62200
H  0.61200 7.22500 20.32900
H  -0.04800 5.54800 20.36800
H  -3.11500 8.13000 21.27000
H  -2.46800 9.67400 20.69700
H  -3.13100 9.30400 23.58400
H  -4.35700 9.67300 22.49600
H  -3.00400 10.87700 22.65200
H  1.17100 12.72000 24.10900
H  1.34400 13.53800 25.67400
H  -0.28300 13.25600 25.01000
H  -0.18400 11.25500 30.32000
H  2.83700 12.30300 33.22300
H  3.60400 12.38700 31.65600
H  3.68200 10.88600 32.49500
Mg 17.09700 51.37300 26.21100
C  18.92000 49.96200 28.74400
C  14.50600 52.04300 28.50300
C  15.13900 52.48100 23.74700
C  19.50400 50.30900 23.94100
N  16.85100 51.04100 28.36100
C  17.66900 50.45400 29.20800
C  17.28700 50.75200 30.63700
C  15.80400 51.31500 30.53900
C  15.69500 51.50900 29.01200
C  14.72200 50.36300 31.18000
C  18.21200 51.79200 31.32800
C  18.67200 51.42400 32.66900
H  18.03300 52.05200 33.85100
N  15.05400 52.16300 26.12100
C  14.23300 52.40300 27.18700
C  13.10200 53.17700 26.74400
C  13.24300 53.30400 25.31500
C  14.52300 52.59400 24.97300
C  11.98800 53.64100 27.67800
C  12.32100 53.99800 24.38000
O  12.41200 53.97100 23.15900
C  11.08100 54.71600 24.90000
N  17.18600 51.17800 24.10900
C  16.29900 51.86400 23.34200
C  16.69600 51.78300 21.82200
C  18.10300 51.17900 21.85800
C  18.33200 50.87400 23.40800
C  15.70100 51.03000 20.82600
C  19.21200 52.14200 21.32800
C  20.44400 51.48500 20.66300
N  18.93300 50.42900 26.32200
C  19.77900 50.06700 25.31100
C  20.95900 49.40200 25.89800
C  20.66900 49.31100 27.26300
C  19.34900 49.90300 27.40800
C  22.09300 48.87000 25.13100
C  21.12800 48.85100 28.56700
O  22.10200 48.24700 28.80700
C  19.99300 49.29400 29.57500
C  19.52900 48.17300 30.40900
O  18.62500 47.40300 30.16500
O  20.20900 48.26700 31.64800
C  19.91800 47.28500 32.68500
H  13.75900 52.26000 29.26900
H  14.61300 52.99900 22.94200
H  20.25500 49.98700 23.21700
H  17.26800 49.74400 31.05300
H  15.63600 52.27800 31.02100
H  14.22700 49.98000 30.28700
H  13.96800 50.89000 31.76400
H  15.12200 49.47800 31.67400
H  17.70800 52.75800 31.34800
H  19.05800 51.99000 30.67000
H  19.71400 51.71600 32.79800
H  18.46900 50.35800 32.76800
H  11.19100 52.90800 27.54900
H  11.67100 54.66200 27.46700
H  12.30200 53.73900 28.71700
H  11.23600 55.41000 25.72600
H  10.37700 53.92800 25.16900
H  10.67000 55.32800 24.09800
H  16.81500 52.76700 21.36800
H  18.07900 50.19700 21.38500
H  15.20000 51.72100 20.14900
H  14.95800 50.50000 21.42300
H  16.31100 50.25800 20.35700
H  19.63000 52.62100 22.21300
H  18.80300 52.89500 20.65400
H  20.45700 50.40500 20.80500
H  21.42000 51.94000 20.83500
H  20.18600 51.51000 19.60400
H  21.82200 47.88200 24.75900
H  22.95700 48.91400 25.79400
H  22.48300 49.41700 24.27300
H  20.45700 50.05100 30.20700
H  19.02300 47.63400 33.20000
H  20.76100 47.11800 33.35600
H  19.60500 46.32000 32.28600

