158

Mg 16.68400 -2.70900 28.15600
C  15.37300 -0.29000 30.38600
C  18.65900 -4.10000 30.59500
C  18.26800 -4.57800 25.71600
C  15.37600 -0.65400 25.57100
N  16.93300 -2.25400 30.25200
C  16.29600 -1.22600 31.00000
C  16.80800 -1.25100 32.42200
C  17.86500 -2.38600 32.42400
C  17.87200 -2.95700 30.97300
C  19.19100 -1.85400 32.92200
C  15.65700 -1.42100 33.52100
C  15.46800 -0.49900 34.71200
H  16.83900 0.11300 35.26100
N  18.02600 -4.16800 28.18600
C  18.62100 -4.72500 29.32400
C  19.41700 -5.91800 28.94100
C  19.36900 -6.05600 27.50100
C  18.51700 -4.90800 27.06100
C  20.25900 -6.66200 29.93500
C  20.06700 -7.04500 26.54800
O  19.84800 -7.11000 25.34500
C  21.07100 -8.10900 27.18000
N  16.76800 -2.62800 25.93400
C  17.46700 -3.53600 25.18400
C  17.43300 -3.20000 23.70100
C  16.38200 -2.09600 23.61900
C  16.13800 -1.77100 25.13700
C  18.76600 -2.90900 23.09500
C  15.06000 -2.42700 22.91900
C  14.17600 -1.39600 22.37800
N  15.46200 -0.91900 27.99500
C  14.97000 -0.20900 26.89600
C  14.09900 0.89100 27.26600
C  14.16900 0.84500 28.66700
C  15.02900 -0.23600 29.04400
C  13.50200 1.84700 26.28300
C  13.79800 1.51300 29.87800
O  13.02200 2.47500 29.98300
C  14.50000 0.76100 30.99100
C  15.21100 1.89200 31.70600
O  16.34400 2.36100 31.48600
O  14.47600 2.36900 32.67900
C  15.00900 3.36800 33.57200
H  19.28600 -4.70300 31.25500
H  18.79700 -5.12700 24.93500
H  15.01000 0.00900 24.78400
H  17.30800 -0.29500 32.57700
H  17.42700 -3.10900 33.11100
H  19.29200 -0.77400 32.81700
H  19.93300 -2.35000 32.29700
H  19.32300 -2.07900 33.98000
H  15.56600 -2.45400 33.86000
H  14.75400 -1.19500 32.95400
H  14.91100 -1.20400 35.33000
H  14.84200 0.35700 34.46100
H  20.31300 -7.74100 29.79100
H  19.76200 -6.55800 30.89900
H  21.19200 -6.10000 29.98000
H  21.64200 -7.61400 27.96500
H  21.74600 -8.47800 26.40700
H  20.60500 -9.01500 27.56600
H  16.97700 -4.09400 23.27500
H  16.74500 -1.17300 23.16700
H  19.44600 -2.68600 23.91600
H  18.62700 -1.97900 22.54300
H  19.04900 -3.78700 22.51400
H  14.42000 -3.06400 23.53100
H  15.32900 -2.98100 22.02000
H  14.20700 -1.40000 21.28800
H  14.45900 -0.37500 22.63500
H  13.19400 -1.72600 22.71700
H  12.92700 1.33700 25.51000
H  14.27800 2.52200 25.92100
H  12.80800 2.56300 26.72400
H  13.83000 0.23300 31.67000
H  15.50100 2.97700 34.46300
H  14.12300 3.91500 33.89400
H  15.56500 4.09200 32.97500
Mg 26.11600 52.03800 25.59900
C  23.91500 52.95400 28.21000
C  28.41600 51.43100 28.20600
C  28.37300 51.77200 23.32200
C  23.72800 53.19700 23.34000
N  26.19400 52.23600 27.89800
C  25.11400 52.45800 28.69600
C  25.44700 52.15200 30.21100
C  26.93500 51.85900 30.20300
C  27.26200 51.91400 28.69900
C  27.83600 52.73000 31.11300
C  24.52200 51.02800 30.79900
C  24.07300 51.39800 32.26000
H  24.41900 50.62600 33.52700
N  28.06300 51.49200 25.79300
C  28.88200 51.27800 26.86900
C  30.18600 50.92700 26.46000
C  30.17500 50.86900 25.04100
C  28.83700 51.35100 24.63100
C  31.22600 50.73000 27.49200
C  31.36500 50.56700 24.12100
O  31.25900 50.59000 22.88700
C  32.70100 50.21900 24.61900
N  26.05200 52.52400 23.66300
C  27.13600 52.21200 22.88100
C  26.94300 52.57000 21.37800
C  25.40200 52.85200 21.40600
C  25.00700 52.80500 22.89900
C  27.76500 53.91200 21.01000
C  24.51500 51.83900 20.50900
C  23.68300 52.44200 19.34800
N  24.21500 52.92300 25.68800
C  23.31600 53.25200 24.69800
C  22.08500 53.69600 25.26800
C  22.23800 53.54800 26.67700
C  23.54900 53.04300 26.84000
C  20.79700 54.12100 24.68700
C  21.60000 53.69200 27.95800
O  20.45400 54.02400 28.26900
C  22.68300 53.30800 29.03400
C  22.75000 54.25100 30.18100
O  23.27900 55.35700 30.08200
O  21.99200 53.82600 31.20500
C  21.85400 54.79200 32.29800
H  29.07800 51.07700 28.99900
H  29.05500 51.60000 22.48600
H  23.03900 53.40200 22.51700
H  25.31900 53.03600 30.83500
H  27.08700 50.85600 30.60200
H  27.18800 53.17400 31.86900
H  28.32600 53.49000 30.50500
H  28.60600 52.20000 31.67300
H  25.18400 50.18700 31.00500
H  23.67600 50.81300 30.14600
H  22.99700 51.55300 32.34400
H  24.41100 52.39000 32.56000
H  30.94700 51.23100 28.41900
H  32.20600 51.09000 27.18100
H  31.39200 49.65800 27.59400
H  32.64900 49.64100 25.54200
H  33.23400 51.16900 24.61600
H  33.26700 49.63300 23.89500
H  27.31600 51.79800 20.70500
H  25.18400 53.85100 21.02800
H  28.62700 53.61200 20.41300
H  28.19200 54.46200 21.84800
H  27.13700 54.62400 20.47500
H  23.86900 51.26900 21.17700
H  25.14500 51.02300 20.15600
H  23.02700 53.25900 19.64900
H  23.03500 51.66800 18.93700
H  24.37400 52.70700 18.54800
H  20.92100 54.27400 23.61400
H  20.58500 55.04200 25.22900
H  19.99700 53.38700 24.77900
H  22.25100 52.39600 29.44600
H  22.67100 54.56600 32.98300
H  20.93700 54.75500 32.88500
H  22.07500 55.82700 32.03600

