158

Mg 53.65800 24.82400 45.52700
C  51.17400 27.03500 44.41700
C  52.02800 22.20200 43.88200
C  56.54400 22.86400 45.78100
C  55.51600 27.62800 46.49800
N  51.80300 24.74600 44.18100
C  50.95800 25.72500 43.89800
C  49.79700 25.10200 43.03500
C  49.89100 23.57200 43.30800
C  51.32400 23.53600 43.84700
C  48.78400 22.95100 44.26500
C  49.70400 25.52800 41.53300
C  50.99300 25.52700 40.69200
H  52.17300 24.59700 41.03500
N  54.12900 22.77200 44.95900
C  53.27900 21.85200 44.35000
C  53.96000 20.54500 44.41800
C  55.27200 20.74300 44.99500
C  55.35500 22.19600 45.25600
C  53.31500 19.39600 43.70900
C  56.31700 19.66400 45.25000
O  56.10600 18.51500 44.91500
C  57.58500 19.83900 45.95400
N  55.73900 25.19500 45.92500
C  56.70000 24.24200 46.03400
C  58.02700 24.76300 46.59600
C  57.74300 26.32600 46.51700
C  56.20800 26.40500 46.33100
C  58.29100 24.22800 48.00900
C  58.55600 27.13600 45.48900
C  58.69700 28.64200 45.71100
N  53.36700 26.88800 45.60700
C  54.19400 27.85600 46.17400
C  53.41400 29.02100 46.32400
C  52.26700 28.82300 45.57400
C  52.32100 27.48700 45.07600
C  53.79500 30.23100 47.05200
C  51.04800 29.41900 45.11800
O  50.57400 30.55500 45.28000
C  50.29500 28.30500 44.29600
C  50.03500 28.72400 42.90400
O  50.88800 28.93800 42.03800
O  48.65000 28.82800 42.71900
C  48.28900 29.18400 41.31600
H  51.56500 21.37200 43.34400
H  57.49000 22.33600 45.91600
H  56.02200 28.53600 46.83300
H  48.88200 25.54100 43.43400
H  49.88800 22.92600 42.43000
H  47.86800 23.54200 44.23000
H  49.12600 22.76400 45.28300
H  48.69700 21.96200 43.81600
H  49.18100 26.47100 41.37400
H  49.08400 24.80200 41.00800
H  51.33700 26.55200 40.55300
H  50.67500 25.32500 39.67000
H  53.11000 19.64800 42.66800
H  52.29800 19.18100 44.03800
H  53.84500 18.44400 43.73900
H  57.81400 18.83700 46.31500
H  57.50700 20.44000 46.86100
H  58.36700 20.25900 45.32200
H  58.81500 24.46700 45.90400
H  58.05300 26.78300 47.45700
H  58.05200 23.17500 48.15800
H  57.83600 24.86800 48.76500
H  59.37800 24.21900 47.93800
H  58.07200 27.02900 44.51800
H  59.54500 26.67800 45.45300
H  59.73900 28.70500 46.02400
H  57.99800 28.98000 46.47600
H  58.53100 29.17600 44.77600
H  54.37000 30.08200 47.96600
H  52.89200 30.78700 47.30400
H  54.45100 30.85900 46.45100
H  49.34000 28.10800 44.78400
H  48.76800 28.55200 40.56800
H  48.37600 30.24800 41.09300
H  47.27200 28.96500 40.98900
Mg 48.21200 36.38600 28.52600
C  46.03200 34.80700 30.54400
C  48.36900 38.97500 30.72200
C  49.78900 38.30900 26.05200
C  47.92200 33.77800 26.09600
N  47.39300 36.73400 30.46500
C  46.58800 35.90300 31.15400
C  46.54600 36.31000 32.61500
C  46.92100 37.85700 32.52900
C  47.64000 37.86100 31.16600
C  45.68100 38.75700 32.47900
C  47.43600 35.41200 33.55500
C  48.88500 35.93600 33.72500
H  49.29800 36.20400 35.16300
N  49.17700 38.26800 28.54200
C  49.09200 39.19600 29.52500
C  49.72600 40.41800 29.16900
C  50.29100 40.17600 27.86600
C  49.77200 38.82400 27.43400
C  49.79300 41.60500 29.98100
C  51.13100 41.17900 26.96900
O  51.56600 40.83800 25.89300
C  51.40200 42.59500 27.48200
N  48.80100 36.07500 26.36200
C  49.34300 37.05500 25.59700
C  49.60500 36.59100 24.16200
C  49.08800 35.06500 24.21700
C  48.56700 34.89800 25.69600
C  48.75400 37.36500 23.12700
C  49.98800 33.96300 23.77000
C  50.87800 34.12200 22.54800
N  47.21800 34.63700 28.28000
C  47.20300 33.59200 27.30600
C  46.24200 32.57800 27.75400
C  45.77700 33.01900 28.98900
C  46.31900 34.26200 29.25900
C  45.73800 31.42400 27.00200
C  44.79300 32.75600 30.06000
O  44.02700 31.84800 30.07100
C  44.95000 33.88300 31.13800
C  45.18900 33.22200 32.41800
O  46.03900 32.33700 32.58000
O  44.36900 33.75800 33.37200
C  44.64400 33.10800 34.66000
H  48.20100 39.81200 31.40300
H  50.32500 38.76500 25.21700
H  47.97300 32.89200 25.46100
H  45.57900 36.18900 33.10300
H  47.55800 38.13000 33.37000
H  45.41900 39.00200 33.50900
H  44.90700 38.27000 31.88600
H  45.88300 39.66200 31.90700
H  47.44900 34.40700 33.13400
H  46.87600 35.24500 34.47500
H  49.14200 36.83000 33.15700
H  49.47100 35.10400 33.33400
H  49.16400 42.34500 29.48600
H  50.82400 41.93400 30.10900
H  49.41600 41.43300 30.98900
H  50.47400 43.10100 27.74900
H  51.90500 43.23400 26.75600
H  52.00300 42.40700 28.37200
H  50.60200 36.66200 23.72700
H  48.11300 35.03500 23.73000
H  48.01000 37.95400 23.66500
H  48.17200 36.89000 22.33800
H  49.40600 38.15800 22.76000
H  49.45300 33.01300 23.77400
H  50.64500 33.79700 24.62400
H  50.72200 33.26200 21.89700
H  51.95900 34.09900 22.68200
H  50.59400 35.04100 22.03500
H  45.48000 31.66100 25.97000
H  44.87300 31.03200 27.53800
H  46.53000 30.67600 26.97300
H  44.00700 34.40200 31.31000
H  45.67500 33.17500 35.00800
H  44.54200 32.05200 34.41000
H  43.82700 33.25500 35.36700

