158

Mg 54.08400 24.52700 44.10200
C  51.05800 26.10600 43.40700
C  52.86400 21.56100 42.78100
C  57.30300 23.20100 43.99600
C  55.37300 27.60400 44.99000
N  52.30900 24.01100 43.05500
C  51.16600 24.76800 42.90700
C  50.08200 23.97200 42.08200
C  50.56500 22.51100 42.35300
C  51.99000 22.69900 42.80200
C  49.79800 21.69900 43.49500
C  49.86400 24.50900 40.62600
C  48.43900 24.55700 40.06400
H  48.03900 23.71900 38.79800
N  54.97300 22.62600 43.50800
C  54.24800 21.52800 43.15800
C  55.11900 20.42000 43.08200
C  56.41200 20.85000 43.46300
C  56.27700 22.30100 43.67100
C  54.66700 19.08900 42.58200
C  57.59400 19.90700 43.49300
O  57.40900 18.66900 43.23800
C  58.98700 20.38400 43.82200
N  56.09000 25.30100 44.40600
C  57.25400 24.59200 44.29300
C  58.43000 25.33700 44.72500
C  57.81800 26.79500 44.94100
C  56.31400 26.54400 44.81600
C  59.05000 24.81400 46.00400
C  58.43600 27.77300 43.94200
C  59.41100 28.74700 44.53900
N  53.40500 26.40300 44.30500
C  54.01200 27.52000 44.76000
C  53.06600 28.58200 44.90700
C  51.86200 28.03900 44.45000
C  52.13500 26.70500 44.01300
C  53.29200 29.87200 45.57100
C  50.42700 28.29800 44.23400
O  49.62300 29.23600 44.45900
C  49.91000 27.10500 43.53400
C  49.55600 27.60800 42.13900
O  50.32800 28.04800 41.29700
O  48.14800 27.80300 42.07200
C  47.77900 28.54600 40.81700
H  52.46400 20.60800 42.43100
H  58.27000 22.78800 44.29200
H  55.75900 28.56100 45.34800
H  49.19200 24.13300 42.69100
H  50.56800 21.98200 41.40000
H  48.96100 22.27400 43.89200
H  50.35200 21.35700 44.36900
H  49.51700 20.75500 43.02900
H  50.34000 23.82800 39.92100
H  50.31600 25.49100 40.48600
H  48.18400 25.59800 39.86400
H  47.65200 24.26400 40.75800
H  53.68500 19.05100 42.10900
H  54.65000 18.41300 43.43600
H  55.38400 18.71200 41.85300
H  59.29600 21.21500 43.18700
H  59.59400 19.48500 43.71700
H  58.95200 20.70200 44.86400
H  59.23300 25.38400 43.99000
H  57.95600 27.15600 45.96000
H  59.87200 25.43200 46.36400
H  59.53200 23.87200 45.74300
H  58.35900 24.67700 46.83600
H  57.61500 28.23800 43.39700
H  58.97400 27.38600 43.07600
H  60.41100 28.32000 44.61100
H  59.05300 28.92900 45.55200
H  59.34900 29.73900 44.09200
H  53.22500 29.55900 46.61300
H  52.37400 30.44000 45.41700
H  54.24500 30.30400 45.26800
H  49.14700 26.58300 44.11300
H  46.71100 28.39100 40.66300
H  48.29000 28.16100 39.93500
H  47.98700 29.59900 41.00600
Mg 48.37700 14.31600 27.88800
C  46.47400 14.84400 30.96000
C  50.77100 16.39200 29.38800
C  49.91100 14.14800 24.94400
C  45.67300 12.53400 26.59000
N  48.53100 15.63200 29.94600
C  47.67000 15.61300 30.99400
C  48.32100 16.29700 32.18300
C  49.52800 16.99900 31.60800
C  49.67700 16.24300 30.29500
C  49.50200 18.59900 31.37800
C  48.51700 15.32600 33.33700
C  47.89700 15.68000 34.69600
H  48.79700 15.49300 35.91900
N  50.08000 15.15200 27.21100
C  50.99800 15.91800 28.04900
C  52.16700 16.03800 27.19000
C  51.91300 15.45100 25.89700
C  50.58800 14.89300 25.96800
C  53.38500 16.88600 27.70900
C  52.86300 15.46000 24.61500
O  52.48800 15.00500 23.52500
C  54.20900 16.09000 24.60600
N  47.78900 13.62600 25.94900
C  48.65500 13.59700 24.91500
C  48.23900 12.58500 23.79400
C  46.81800 12.20800 24.24000
C  46.72200 12.80300 25.71200
C  48.26500 13.33000 22.37400
C  46.42300 10.70900 24.22400
C  47.44400 9.77600 24.94500
N  46.44400 13.76000 28.59600
C  45.50400 12.94800 27.95700
C  44.37300 12.76000 28.91600
C  44.71100 13.42200 30.02900
C  45.96900 14.03300 29.84300
C  43.07100 12.07000 28.57600
C  44.16900 13.75700 31.37800
O  43.19200 13.44000 31.98300
C  45.38300 14.60800 32.02900
C  44.79500 15.83500 32.49900
O  44.66300 16.85500 31.85100
O  44.33700 15.53800 33.77600
C  43.61100 16.64700 34.36500
H  51.61300 16.89800 29.86600
H  50.32700 13.84000 23.98200
H  44.83800 12.04500 26.08400
H  47.67600 17.12900 32.46400
H  50.36300 16.73100 32.25500
H  48.51100 19.02400 31.53500
H  49.64100 18.83000 30.32200
H  50.28300 19.03700 31.99900
H  49.59000 15.15600 33.42400
H  47.98100 14.39800 33.13800
H  46.94400 15.16600 34.82100
H  47.58600 16.72500 34.69300
H  54.29900 16.36500 27.99700
H  53.15200 17.59400 28.50500
H  53.85300 17.53100 26.96600
H  54.79600 15.76100 25.46300
H  54.02300 17.15700 24.72800
H  54.71300 16.00000 23.64300
H  48.86100 11.69100 23.82100
H  46.04300 12.79000 23.74200
H  48.40700 14.38000 22.63100
H  47.36000 13.27400 21.76800
H  49.10600 12.91500 21.81800
H  46.51300 10.55700 23.14900
H  45.38500 10.49400 24.47800
H  46.84600 9.01800 25.45000
H  48.03000 10.45000 25.57000
H  48.14300 9.25900 24.28700
H  43.36500 11.02000 28.59000
H  42.83300 12.32300 27.54200
H  42.28800 12.33700 29.28600
H  45.77200 14.01300 32.85500
H  44.21500 17.31600 34.97900
H  42.87000 16.21900 35.04100
H  42.98900 17.31600 33.77100

