158

Mg -2.47200 17.50800 26.79800
C  -2.71100 15.26300 29.45700
C  -3.04900 20.12000 28.99500
C  -2.32400 19.63000 24.12800
C  -2.38900 14.82400 24.56000
N  -3.15500 17.59900 29.01000
C  -2.96800 16.56900 29.95200
C  -3.24900 17.06800 31.31700
C  -3.36800 18.67200 31.14900
C  -3.06700 18.87000 29.63300
C  -4.63100 19.54400 31.62400
C  -2.20300 16.57300 32.41300
C  -1.72200 17.53600 33.60700
H  -1.08300 16.80500 34.80000
N  -2.50000 19.60400 26.63800
C  -2.82300 20.46000 27.63800
C  -2.80400 21.86600 27.12700
C  -2.48600 21.70100 25.72900
C  -2.43700 20.24900 25.40200
C  -3.15500 23.15000 27.97300
C  -2.28900 22.75400 24.71600
O  -1.97600 22.46800 23.59100
C  -2.44300 24.19000 25.09000
N  -2.71300 17.26100 24.56600
C  -2.56400 18.29600 23.66100
C  -2.55500 17.77200 22.18100
C  -2.26300 16.27500 22.44600
C  -2.53800 16.07300 23.91600
C  -3.71200 18.06100 21.22300
C  -0.86200 15.71200 21.99500
C  0.30900 16.33700 22.82700
N  -2.58600 15.43100 26.90800
C  -2.53900 14.47500 25.91400
C  -2.66400 13.17500 26.49900
C  -2.72700 13.42800 27.87100
C  -2.65400 14.76900 28.05100
C  -2.64400 11.84300 25.81500
C  -2.85700 12.83300 29.21600
O  -2.92500 11.63700 29.51900
C  -2.95100 13.95600 30.31100
C  -1.91400 13.69800 31.32900
O  -0.76700 13.94100 31.13000
O  -2.48100 13.07700 32.41100
C  -1.52700 12.27300 33.24500
H  -3.24700 20.92100 29.71100
H  -2.28100 20.25000 23.23000
H  -2.28800 13.95900 23.90100
H  -4.18400 16.67000 31.71200
H  -2.56200 19.06200 31.77100
H  -5.10400 18.99600 32.43900
H  -5.31200 19.72900 30.79300
H  -4.30200 20.50600 32.01800
H  -1.31600 16.39700 31.80400
H  -2.52800 15.64600 32.88600
H  -2.40200 18.34500 33.87400
H  -0.84600 17.99000 33.14400
H  -2.27700 23.79500 27.94800
H  -3.25000 22.87900 29.02500
H  -4.07700 23.64600 27.66900
H  -3.45300 24.45000 25.40800
H  -2.21900 24.70800 24.15700
H  -1.62100 24.38800 25.77900
H  -1.65100 18.07500 21.65300
H  -2.97200 15.68400 21.86600
H  -4.53000 18.56600 21.73600
H  -4.24100 17.22800 20.76100
H  -3.42600 18.55300 20.29400
H  -0.60000 15.99100 20.97400
H  -0.85900 14.62800 22.10700
H  0.54500 17.28600 22.34500
H  1.22600 15.76400 22.95800
H  0.07800 16.76300 23.80400
H  -2.20900 11.82700 24.81500
H  -3.67300 11.49500 25.73000
H  -2.13100 11.05100 26.35900
H  -3.95700 14.04400 30.72100
H  -2.04800 11.47400 33.77200
H  -1.09700 12.91100 34.01800
H  -0.71500 11.80200 32.69100
Mg 10.06900 47.55000 26.59300
C  8.29700 47.68100 29.50800
C  12.75600 49.05600 28.14900
C  11.65200 47.39700 23.72900
C  7.01300 46.56200 24.84500
N  10.40200 48.37100 28.56500
C  9.59000 48.08400 29.67600
C  10.28800 48.47600 30.98200
C  11.63000 49.19000 30.47500
C  11.65100 48.73600 29.00400
C  11.49300 50.79200 30.58200
C  10.60500 47.22800 31.82100
C  10.81400 47.42600 33.33800
H  10.35800 46.30000 34.23100
N  12.02000 48.06800 26.04300
C  12.93400 48.72700 26.78300
C  14.15300 48.84100 26.04300
C  13.84000 48.32100 24.67300
C  12.43800 47.94300 24.75800
C  15.54200 49.25700 26.70000
C  14.81900 48.20900 23.42700
O  14.38800 47.95200 22.31300
C  16.33100 48.58200 23.57000
N  9.31900 47.25400 24.50600
C  10.31900 47.05400 23.56600
C  9.73000 46.46600 22.23200
C  8.30200 46.16600 22.67000
C  8.20500 46.63600 24.12100
C  9.84900 47.43800 21.00700
C  7.93700 44.72400 22.47500
C  8.82500 43.72700 23.20900
N  7.99800 47.20900 27.07600
C  6.90600 46.83600 26.25300
C  5.72800 46.87300 27.12000
C  6.23900 47.10200 28.44200
C  7.60200 47.40000 28.30800
C  4.38400 46.57200 26.71400
C  5.89100 47.15800 29.83200
O  4.84900 46.94800 30.39900
C  7.17500 47.43400 30.56800
C  7.33700 46.16900 31.30500
O  7.83700 45.13000 30.82900
O  6.90400 46.37000 32.62200
C  6.81000 45.13600 33.46400
H  13.66900 49.47000 28.58300
H  12.28300 47.39700 22.83800
H  6.09800 46.14800 24.41800
H  9.65900 49.16900 31.54200
H  12.51300 48.92800 31.05800
H  10.62200 51.05300 31.18300
H  11.42700 51.20600 29.57500
H  12.34000 51.12000 31.18500
H  11.53100 46.85700 31.38200
H  9.84900 46.45400 31.68500
H  10.31400 48.35600 33.60800
H  11.89400 47.47400 33.47500
H  15.81000 50.28100 26.44100
H  16.39100 48.61500 26.46500
H  15.55300 49.16000 27.78500
H  16.93400 48.44200 22.67300
H  16.73800 47.91200 24.32800
H  16.39800 49.58400 23.99400
H  10.32500 45.55600 22.30100
H  7.60800 46.81600 22.13600
H  9.69700 48.35900 21.57100
H  9.07900 47.14700 20.29300
H  10.73000 47.58400 20.38200
H  7.94900 44.51300 21.40500
H  6.89100 44.67300 22.77800
H  9.48300 44.23600 23.91300
H  9.42400 43.13700 22.51600
H  8.20800 43.05600 23.80700
H  4.27000 45.66600 26.11800
H  4.17500 47.44600 26.09800
H  3.60300 46.61200 27.47200
H  7.23000 48.37700 31.11200
H  7.75400 44.60200 33.35400
H  6.09000 44.37000 33.17600
H  6.80600 45.40800 34.52000

