158

Mg 45.49800 4.61400 47.72100
C  43.26900 7.37700 47.32200
C  42.81200 2.53600 47.15000
C  47.72400 1.98700 47.50300
C  48.28600 6.88500 47.59200
N  43.28500 4.97200 47.31600
C  42.59100 6.17900 47.21700
C  41.10900 5.95800 46.72600
C  41.08700 4.39700 46.91300
C  42.53500 3.92700 47.14900
C  40.16600 3.91400 48.12900
C  40.94000 6.48300 45.28200
C  39.89700 7.50600 44.97000
H  39.16900 7.12900 43.69600
N  45.27000 2.54700 47.46300
C  44.09100 1.95500 47.27800
C  44.39200 0.51600 46.93400
C  45.80200 0.27400 47.02300
C  46.33700 1.62900 47.35400
C  43.31500 -0.48400 46.52000
C  46.47500 -1.01300 46.70300
O  45.73900 -2.01500 46.44800
C  48.04200 -1.16900 46.72100
N  47.69800 4.50900 47.22800
C  48.34900 3.27100 47.50300
C  49.82300 3.47500 47.67600
C  49.97500 5.02500 47.70500
C  48.54000 5.50100 47.59800
C  50.38400 2.81200 48.96800
C  50.92700 5.60900 46.70900
C  50.58800 5.30000 45.25400
N  45.78900 6.65600 47.65800
C  46.96700 7.42600 47.51600
C  46.56300 8.82400 47.48300
C  45.18100 8.83400 47.52700
C  44.71200 7.49200 47.47900
C  47.57500 9.94200 47.38300
C  43.98200 9.68400 47.50000
O  43.91800 10.92600 47.46200
C  42.74000 8.77900 47.23100
C  41.74500 9.08000 48.34200
O  41.55300 8.38900 49.38600
O  40.91600 10.05500 47.95300
C  39.68600 10.23200 48.70200
H  41.89900 1.97100 46.95200
H  48.43800 1.18900 47.71400
H  49.18600 7.50400 47.57600
H  40.28000 6.33600 47.32500
H  40.73300 3.85400 46.03700
H  39.61900 3.03600 47.78700
H  39.44900 4.66300 48.46600
H  40.78900 3.70300 48.99900
H  40.67700 5.60000 44.70000
H  41.92400 6.81500 44.95100
H  40.29500 8.49100 44.72700
H  39.20900 7.62900 45.80700
H  42.35700 -0.03800 46.25100
H  43.27100 -1.04400 47.45400
H  43.65500 -1.16800 45.74300
H  48.31400 -1.00400 47.76400
H  48.31500 -0.41500 45.98300
H  48.44300 -2.15000 46.46700
H  50.36100 3.04000 46.83400
H  50.29100 5.40700 48.67600
H  49.49700 2.38600 49.43600
H  50.70300 3.54300 49.71000
H  51.16100 2.04800 48.91900
H  51.86500 5.10000 46.93200
H  51.21200 6.62400 46.98700
H  49.66900 4.73100 45.11700
H  51.38700 4.71700 44.79600
H  50.52800 6.23300 44.69300
H  48.07500 9.81900 46.42200
H  48.36200 9.83400 48.12900
H  46.94900 10.83400 47.40600
H  42.30500 8.98700 46.25400
H  39.79800 10.09600 49.77800
H  38.97800 9.43500 48.47500
H  39.10000 11.12600 48.48800
Mg 5.11100 53.93300 41.02500
C  4.98600 50.37000 40.90500
C  8.42500 53.72700 39.71900
C  4.88100 57.19100 40.25200
C  1.79500 53.85700 42.04700
N  6.42900 52.21200 40.15700
C  6.24900 50.87600 40.39900
C  7.50600 50.01700 40.10900
C  8.53000 51.11200 39.87400
C  7.76200 52.47600 39.92900
C  9.72200 51.10600 40.92300
C  7.54200 49.01400 38.87800
C  6.80400 49.42100 37.65000
H  7.42100 50.23100 36.48000
N  6.54500 55.22900 40.21900
C  7.82000 55.01700 39.74900
C  8.39600 56.21600 39.27400
C  7.39300 57.26800 39.34200
C  6.16800 56.58300 39.99600
C  9.79300 56.34200 38.86100
C  7.61400 58.65900 38.84700
O  8.55500 58.99000 38.15400
C  6.69200 59.83400 39.20600
N  3.43500 55.36000 41.03700
C  3.64600 56.70100 40.82500
C  2.39800 57.56500 41.03100
C  1.36300 56.46600 41.52100
C  2.26000 55.11500 41.56600
C  2.48900 58.87000 41.98800
C  0.03000 56.35300 40.80100
C  -1.19000 56.70900 41.50800
N  3.62500 52.39800 41.44500
C  2.36400 52.56000 41.95200
C  1.79700 51.25000 42.36000
C  2.86400 50.35600 41.98600
C  3.87800 51.10000 41.37400
C  0.37800 50.94400 42.83200
C  3.29300 48.95600 42.04300
O  2.81600 47.97400 42.56700
C  4.67900 48.92900 41.25700
C  4.36200 48.13300 40.10700
O  3.91900 48.58100 39.02100
O  4.65700 46.81400 40.44900
C  4.35400 45.78400 39.53400
H  9.44600 53.67900 39.33400
H  4.75500 58.24700 40.00500
H  0.76100 53.82900 42.39600
H  7.76900 49.46000 41.00800
H  9.07600 51.10600 38.93000
H  10.05400 52.07600 41.29400
H  10.56800 50.50100 40.59700
H  9.33000 50.66700 41.84000
H  7.20700 48.03500 39.22300
H  8.56900 48.98600 38.51600
H  5.92800 49.97500 37.98700
H  6.34400 48.53800 37.20600
H  10.19000 57.33800 38.66900
H  9.87500 55.60300 38.06400
H  10.35700 55.75300 39.58400
H  5.97000 59.92200 38.39400
H  7.42400 60.64200 39.21400
H  6.21900 59.73500 40.18300
H  2.00800 58.03800 40.12900
H  1.17200 56.78000 42.54700
H  2.05300 58.55400 42.93500
H  1.87800 59.67300 41.57600
H  3.49100 59.28800 42.09000
H  -0.18200 55.38200 40.35400
H  0.22700 56.99300 39.94100
H  -1.88300 55.87200 41.42100
H  -1.69800 57.56200 41.05800
H  -1.04700 56.84300 42.58000
H  -0.09200 50.23800 42.14800
H  -0.15600 51.89100 42.76200
H  0.47200 50.59800 43.86200
H  5.45900 48.44300 41.84500
H  4.99200 44.92600 39.74800
H  4.33400 46.15700 38.51000
H  3.32500 45.47000 39.70900

