158

Mg 47.27400 15.24100 29.06900
C  45.33200 15.39700 31.81500
C  49.67800 17.21900 30.69600
C  48.99600 15.47700 26.20300
C  44.55000 13.71900 27.26300
N  47.48100 16.06900 30.99500
C  46.49300 16.02500 32.00800
C  47.05000 16.63500 33.39000
C  48.23200 17.49500 32.76500
C  48.47900 16.83200 31.40700
C  48.05300 19.06700 32.74800
C  47.39800 15.52900 34.36600
C  46.94200 15.81900 35.78800
H  46.84200 17.28200 36.19000
N  49.11800 16.10200 28.59000
C  49.95100 16.82400 29.38100
C  51.24700 16.99300 28.73000
C  51.07200 16.42800 27.39400
C  49.67300 15.95600 27.38300
C  52.50000 17.49100 29.43100
C  52.07800 16.26500 26.18000
O  51.82600 15.59600 25.17300
C  53.38900 16.95800 26.32500
N  46.71000 14.99800 26.95600
C  47.72800 14.95000 26.04300
C  47.26600 14.23900 24.74700
C  45.87200 13.63700 25.15000
C  45.69700 14.13200 26.56800
C  47.22900 15.27000 23.61600
C  45.84900 12.11300 24.92000
C  46.28500 11.29100 26.16100
N  45.20800 14.78700 29.39200
C  44.27200 14.12500 28.61100
C  43.05200 13.96700 29.40200
C  43.41400 14.42100 30.72500
C  44.76800 14.87400 30.61600
C  41.85700 13.19700 28.98900
C  42.98100 14.47800 32.11000
O  42.01800 13.89300 32.57700
C  44.16100 15.24400 32.81000
C  43.53100 16.36200 33.38300
O  43.16000 17.38000 32.81500
O  43.39000 16.19700 34.73600
C  42.84500 17.30700 35.57400
H  50.36800 17.88600 31.21700
H  49.68700 15.38200 25.36300
H  43.79900 13.22100 26.64700
H  46.21500 17.25600 33.71300
H  49.17200 17.37100 33.30300
H  47.98600 19.28600 31.68300
H  48.92800 19.59300 33.13200
H  47.14900 19.36700 33.27800
H  48.47300 15.59600 34.20300
H  47.10600 14.51900 34.07700
H  47.64700 15.37600 36.49200
H  45.93700 15.41000 35.89100
H  52.36100 17.96800 30.40200
H  53.11600 18.18200 28.85600
H  53.11100 16.62200 29.67500
H  53.32700 17.96500 26.73600
H  53.95700 17.15200 25.41500
H  54.03700 16.39900 27.00100
H  47.88100 13.38800 24.45700
H  45.15500 14.06800 24.45200
H  48.02500 15.09400 22.89300
H  47.51700 16.28000 23.90600
H  46.31100 15.26600 23.02800
H  46.50500 11.85600 24.08800
H  44.81200 11.83100 24.73400
H  47.05800 11.90000 26.62900
H  46.80300 10.34700 25.98900
H  45.41400 10.94700 26.72000
H  41.89400 12.16000 29.32200
H  41.78400 13.12700 27.90400
H  40.99700 13.69300 29.43800
H  44.43400 14.59700 33.64400
H  41.82600 17.55900 35.27800
H  43.50700 18.16900 35.50600
H  42.64100 16.91300 36.56900
Mg 9.59800 47.09300 26.82200
C  7.52800 47.05400 29.76500
C  12.20600 47.76400 28.96800
C  11.35000 47.76600 24.13000
C  6.58100 47.07100 24.87600
N  9.77900 47.43600 29.10300
C  8.86800 47.22800 30.11200
C  9.49800 47.54400 31.53600
C  10.98400 48.05000 31.25300
C  10.97800 47.76600 29.67400
C  11.25400 49.56200 31.63900
C  9.21200 46.34400 32.57900
C  10.16600 46.23500 33.76100
H  9.61900 45.77900 35.11100
N  11.51900 47.37800 26.61200
C  12.44000 47.69900 27.58000
C  13.72900 48.01500 26.94500
C  13.43300 48.15100 25.55500
C  12.05400 47.68800 25.38500
C  14.96800 48.33000 27.73900
C  14.34900 48.63600 24.37600
O  13.98500 48.74100 23.18400
C  15.80800 48.82900 24.68200
N  9.02100 47.50400 24.75300
C  9.99800 47.63900 23.81500
C  9.27100 47.81700 22.40900
C  7.76300 47.46800 22.64700
C  7.79400 47.28100 24.16100
C  9.63700 49.22800 21.82800
C  7.28100 46.23700 21.78400
C  8.01900 44.91000 22.12900
N  7.48800 47.08000 27.13300
C  6.42900 47.00900 26.27400
C  5.19500 47.09300 27.02500
C  5.63400 46.97700 28.34400
C  6.98000 47.01800 28.40500
C  3.84300 47.05000 26.49800
C  5.08600 46.76600 29.70100
O  3.93800 46.69400 30.15600
C  6.38400 46.85000 30.66700
C  6.38800 45.52000 31.36600
O  6.95500 44.46300 31.02600
O  5.66100 45.61800 32.46400
C  5.54700 44.39700 33.31400
H  13.02600 47.94100 29.66600
H  11.82400 48.08900 23.20100
H  5.65700 46.93300 24.31000
H  8.91200 48.41400 31.83200
H  11.70100 47.39300 31.74500
H  11.98500 49.69500 32.43700
H  10.39400 50.03500 32.11300
H  11.53300 50.06900 30.71600
H  9.30100 45.45400 31.95600
H  8.19900 46.42100 32.97400
H  10.72300 47.15600 33.93100
H  10.79400 45.41200 33.41900
H  15.38300 49.24000 27.30400
H  15.70500 47.53400 27.63200
H  14.82300 48.57300 28.79100
H  15.93000 49.82400 25.11100
H  16.40400 48.67100 23.78300
H  16.12000 48.05100 25.38000
H  9.77800 47.18100 21.68400
H  7.19300 48.37900 22.46100
H  10.12300 49.78000 22.63300
H  8.82700 49.76300 21.33200
H  10.39000 49.14800 21.04300
H  7.32300 46.52600 20.73400
H  6.24900 46.06800 22.09200
H  8.63000 44.46000 21.34700
H  7.34400 44.13000 22.48300
H  8.74800 45.03100 22.93000
H  3.71100 48.01100 26.00200
H  3.19100 46.93900 27.36500
H  3.77100 46.31300 25.69700
H  6.30300 47.59100 31.46200
H  5.50500 43.42200 32.82700
H  4.59700 44.39900 33.84800
H  6.42400 44.38300 33.96100

