158

Mg 8.51200 3.39900 28.31200
C  10.13500 1.75700 31.00800
C  6.57000 4.99400 30.34500
C  6.96700 4.37400 25.45200
C  9.99400 0.68800 26.16700
N  8.35700 3.34500 30.48800
C  9.20200 2.71100 31.39800
C  8.91200 3.32300 32.73400
C  7.55500 4.16600 32.58500
C  7.51200 4.21200 31.05400
C  6.27800 3.39300 33.15300
C  10.23700 4.14700 33.31300
C  10.89500 3.62300 34.58500
H  10.96900 4.61800 35.81100
N  7.13600 4.67300 27.93600
C  6.31300 5.16400 28.95600
C  5.31900 6.07400 28.34300
C  5.47300 5.97800 26.91900
C  6.57000 4.97600 26.74600
C  4.41500 6.98500 29.16700
C  4.75200 6.68000 25.83500
O  4.80000 6.48200 24.61900
C  3.75600 7.69800 26.18400
N  8.56800 2.66500 26.04900
C  7.86900 3.32700 25.10800
C  8.11900 2.73100 23.73500
C  8.97100 1.43700 23.97300
C  9.20800 1.60800 25.50500
C  6.80700 2.43600 22.90900
C  10.27600 1.33200 23.14800
C  10.31200 0.06700 22.24800
N  9.73300 1.68300 28.49200
C  10.26900 0.73600 27.55900
C  11.28400 -0.07900 28.22400
C  11.26200 0.34400 29.57100
C  10.34300 1.36000 29.66000
C  12.12600 -1.11400 27.62600
C  11.82300 0.09400 30.84500
O  12.61700 -0.72700 31.22500
C  11.25000 1.21400 31.81100
C  10.97100 0.39300 32.99900
O  10.05300 -0.39800 33.12200
O  11.91400 0.54500 33.96500
C  11.65000 -0.15000 35.29000
H  6.01400 5.49100 31.14200
H  6.26000 4.70400 24.68800
H  10.44100 -0.19400 25.70200
H  8.72000 2.53700 33.46400
H  7.68600 5.09700 33.13700
H  5.67700 4.03700 33.79500
H  6.49200 2.48700 33.71900
H  5.61100 3.09200 32.34500
H  9.88200 5.14600 33.56400
H  11.01900 4.30900 32.57200
H  11.86900 3.37700 34.16300
H  10.45400 2.68200 34.91400
H  4.58600 8.00200 28.81100
H  4.79500 7.06800 30.18500
H  3.39300 6.62900 29.03600
H  2.88900 7.28000 26.69600
H  3.34600 8.25000 25.33900
H  4.24600 8.50600 26.72800
H  8.54600 3.50100 23.09200
H  8.35300 0.54200 23.89700
H  5.95600 2.86100 23.44000
H  6.59500 1.37200 22.79900
H  6.85900 2.88400 21.91700
H  11.14900 1.33600 23.80100
H  10.48800 2.19500 22.51800
H  10.60600 0.54900 21.31600
H  9.41400 -0.53100 22.08900
H  11.14100 -0.54200 22.60700
H  11.45500 -1.92300 27.33600
H  13.02700 -1.34400 28.19400
H  12.61900 -0.75300 26.72400
H  12.05000 1.94900 31.90100
H  11.41900 0.54500 36.09700
H  12.60600 -0.61400 35.53100
H  10.89400 -0.92600 35.16600
Mg -5.33700 25.11200 26.06600
C  -3.82500 26.28600 29.02600
C  -7.29600 23.02200 27.97400
C  -6.06200 23.30300 23.20600
C  -3.23200 27.12200 24.26000
N  -5.42300 24.56700 28.27000
C  -4.78900 25.30300 29.26200
C  -5.54500 25.06500 30.61000
C  -6.37500 23.78100 30.22900
C  -6.38500 23.76200 28.73200
C  -5.88500 22.50200 30.89200
C  -6.42800 26.33700 31.02700
C  -6.23500 26.64700 32.51000
H  -5.70000 25.59100 33.47800
N  -6.60900 23.52400 25.64100
C  -7.36800 22.79600 26.57700
C  -8.19500 21.91800 25.86000
C  -7.87300 21.94800 24.46500
C  -6.84200 22.96700 24.40100
C  -9.27400 21.06100 26.50000
C  -8.46300 21.11300 23.27100
O  -8.26300 21.39300 22.09500
C  -9.30400 19.97900 23.66600
N  -4.78900 25.16200 23.98400
C  -5.14600 24.32100 23.02900
C  -4.41700 24.67000 21.70200
C  -3.52600 25.98100 22.05000
C  -3.91600 26.13800 23.53800
C  -3.74000 23.51800 20.83500
C  -3.74000 27.19300 21.03900
C  -5.15800 27.77100 21.31000
N  -3.91700 26.52100 26.48600
C  -3.22200 27.32800 25.64100
C  -2.38100 28.21200 26.33600
C  -2.59500 27.81400 27.69900
C  -3.50900 26.76800 27.74600
C  -1.46400 29.30400 25.75800
C  -2.24400 28.12300 29.07000
O  -1.51700 28.97300 29.49200
C  -3.12100 27.13200 29.96400
C  -2.22700 26.31100 30.80300
O  -1.51900 25.37800 30.36700
O  -2.25700 26.81000 32.07000
C  -1.12600 26.37700 32.84400
H  -7.86100 22.39200 28.66400
H  -6.16700 22.68500 22.31200
H  -2.58000 27.79500 23.69900
H  -4.67000 24.81700 31.21100
H  -7.38700 23.79100 30.63200
H  -4.98300 22.62800 31.49100
H  -5.68600 21.80300 30.08000
H  -6.59300 22.05400 31.58900
H  -7.46500 26.13800 30.75500
H  -6.06600 27.17400 30.43000
H  -7.19000 27.02600 32.87600
H  -5.54900 27.48500 32.63800
H  -10.30000 21.11400 26.13400
H  -9.50700 21.29200 27.54000
H  -9.05500 19.99400 26.54200
H  -9.50500 19.47700 22.72000
H  -10.29800 20.29700 23.97900
H  -8.86800 19.28200 24.38200
H  -5.18000 25.01700 21.00500
H  -2.47900 25.68800 21.97000
H  -3.84000 22.59200 21.40000
H  -2.68400 23.72100 20.65300
H  -4.17600 23.44400 19.83900
H  -3.60600 26.75700 20.04900
H  -3.06700 28.02700 21.23300
H  -5.80600 27.11200 21.88900
H  -5.67400 27.93200 20.36300
H  -5.04400 28.79300 21.66900
H  -2.05700 30.14300 25.39500
H  -0.79600 28.98100 24.95900
H  -0.72000 29.47100 26.53800
H  -3.78700 27.73800 30.57700
H  -1.17300 26.95900 33.76500
H  -0.19700 26.67600 32.35800
H  -1.19600 25.30400 33.02000

