158

Mg 7.39100 2.89800 27.37600
C  8.83400 1.56900 30.21200
C  5.40900 4.83600 29.51000
C  5.73500 3.94700 24.78800
C  9.10200 0.49700 25.50900
N  7.15400 3.21900 29.70100
C  7.99200 2.66100 30.56500
C  7.77100 3.26800 31.95000
C  6.46600 4.24100 31.78800
C  6.30900 4.10500 30.22100
C  5.26300 3.86000 32.63900
C  8.98300 3.94500 32.56900
C  8.72900 4.29400 34.10800
H  9.99700 3.97700 34.92600
N  5.95000 4.35900 27.19000
C  5.14800 4.94800 28.11700
C  4.23300 5.88100 27.47900
C  4.31500 5.65100 26.06200
C  5.39500 4.66800 26.00700
C  3.24200 6.76100 28.26700
C  3.41400 6.27700 24.90200
O  3.68000 5.98200 23.73300
C  2.29900 7.30000 25.23200
N  7.60000 2.41000 25.45900
C  6.70800 2.98900 24.60200
C  6.90700 2.35300 23.19900
C  7.89800 1.22700 23.34200
C  8.17200 1.36300 24.84600
C  5.58600 1.86000 22.49000
C  9.24100 1.34400 22.47700
C  9.65000 0.01100 21.74400
N  8.65600 1.25200 27.72000
C  9.35700 0.44100 26.85600
C  10.28500 -0.40300 27.52600
C  10.11900 -0.03500 28.89500
C  9.04800 0.94200 28.93000
C  11.36200 -1.25400 27.00600
C  10.60300 -0.21100 30.19300
O  11.41500 -0.99600 30.66800
C  9.72700 0.80400 31.09700
C  9.25000 0.06100 32.24600
O  8.25900 -0.65700 32.24100
O  10.01500 0.28800 33.36900
C  9.43900 0.08000 34.68900
H  4.90500 5.65400 30.02900
H  5.21700 4.30500 23.89600
H  9.73000 -0.21300 24.96700
H  7.44700 2.44900 32.59200
H  6.68900 5.28100 32.02600
H  4.94300 4.69900 33.25700
H  5.57400 3.04200 33.28900
H  4.44300 3.58700 31.97400
H  9.05600 4.95900 32.17700
H  9.94900 3.49900 32.33200
H  7.82500 3.82600 34.49900
H  8.55000 5.36500 34.19700
H  2.27800 6.62400 27.77800
H  3.59500 7.76600 28.03500
H  3.14300 6.64000 29.34600
H  2.65700 8.15000 25.81400
H  1.46300 6.81200 25.73300
H  1.88700 7.65800 24.28900
H  7.24600 3.18500 22.58200
H  7.52600 0.20800 23.22800
H  4.72900 1.86900 23.16300
H  5.63500 0.90500 21.96700
H  5.47600 2.68800 21.79100
H  10.04100 1.66400 23.14500
H  9.12100 2.13000 21.73200
H  8.79000 -0.54500 21.37000
H  10.25700 -0.48900 22.49900
H  10.34000 0.23000 20.92900
H  11.60000 -0.70600 26.09400
H  11.07600 -2.26500 26.71800
H  12.25100 -1.37100 27.62500
H  10.45700 1.49200 31.52100
H  8.93300 0.99300 35.00300
H  10.20400 -0.34800 35.33700
H  8.61500 -0.62800 34.76200
Mg 46.89900 25.54900 29.08800
C  48.02200 27.70200 31.61500
C  45.82700 23.44200 31.61000
C  46.27600 23.13400 26.66000
C  48.53300 27.38300 26.63100
N  46.89300 25.62100 31.39100
C  47.39400 26.63800 32.15700
C  47.06100 26.37300 33.62600
C  46.55700 24.90300 33.64700
C  46.38000 24.61300 32.12400
C  47.47900 23.79800 34.23600
C  46.02300 27.50200 34.18700
C  46.50100 28.13800 35.51600
H  45.29500 28.19200 36.54800
N  46.08000 23.66400 29.12700
C  45.64700 23.03200 30.27200
C  45.06100 21.74500 29.88600
C  45.06600 21.73300 28.43900
C  45.86000 22.86300 27.98300
C  44.39300 20.84100 30.90600
C  44.51600 20.73000 27.53400
O  44.70000 20.80400 26.32000
C  43.57500 19.64000 28.00300
N  47.41700 25.25500 26.91400
C  46.99500 24.22600 26.16800
C  47.56500 24.26300 24.77900
C  47.89900 25.84200 24.67300
C  47.96200 26.21600 26.14300
C  48.83500 23.37700 24.63200
C  46.80000 26.75000 23.92200
C  47.42400 27.32300 22.63100
N  48.08000 27.25300 29.01500
C  48.61400 27.92400 27.98400
C  49.24400 29.08400 28.51700
C  49.02200 29.06700 29.88200
C  48.25200 27.96300 30.15800
C  49.99900 30.06700 27.72000
C  49.25600 29.73800 31.16400
O  49.98700 30.70700 31.35800
C  48.60500 28.96400 32.33900
C  49.62200 28.63500 33.39700
O  50.54200 27.91200 33.26400
O  49.28400 29.25000 34.55300
C  50.02800 29.05000 35.75000
H  45.60800 22.84100 32.49500
H  46.07800 22.46900 25.81700
H  49.03900 28.02500 25.90700
H  47.93600 26.41200 34.27500
H  45.55900 24.82100 34.07800
H  48.26400 24.26600 34.82900
H  47.90800 23.18100 33.44700
H  46.87700 23.26400 34.97200
H  45.03400 27.04600 34.22700
H  45.97000 28.35900 33.51500
H  46.77500 29.15500 35.23500
H  47.31900 27.55500 35.93800
H  43.45900 20.37300 30.59400
H  44.10200 21.36800 31.81500
H  44.95800 19.92500 31.07400
H  42.66600 20.19300 28.24000
H  43.92900 18.98700 28.80000
H  43.31600 18.99200 27.16600
H  46.81300 23.96300 24.04900
H  48.90300 25.96300 24.26700
H  48.60500 22.37000 24.28400
H  49.34800 23.39700 25.59300
H  49.50100 23.86500 23.92000
H  46.40400 27.52700 24.57600
H  45.98200 26.05000 23.74800
H  46.81800 27.07500 21.76000
H  48.44800 27.03600 22.39200
H  47.44100 28.41100 22.69000
H  49.63900 30.04900 26.69100
H  51.05100 29.79700 27.62800
H  49.89300 31.11800 27.99000
H  47.85700 29.68500 32.66900
H  49.57000 29.57700 36.58800
H  51.02200 29.48800 35.65500
H  50.23100 27.98400 35.85200

