158

Mg 41.03200 7.83100 28.92200
C  42.80500 9.44400 31.35700
C  38.85500 6.61800 31.22000
C  39.41500 6.27300 26.38100
C  43.46100 8.85600 26.63300
N  41.02700 7.79000 31.13700
C  41.77000 8.64600 31.84700
C  41.20000 8.62200 33.34200
C  40.02300 7.58300 33.32200
C  39.98900 7.24700 31.81100
C  40.30400 6.27200 34.18000
C  40.80100 10.02000 33.81500
C  40.24200 10.12100 35.19500
H  41.01700 10.69100 36.41100
N  39.40300 6.70100 28.80500
C  38.60400 6.31300 29.81400
C  37.42900 5.65900 29.29200
C  37.53300 5.65500 27.88800
C  38.77400 6.27700 27.61300
C  36.26900 5.11800 30.16900
C  36.59000 5.07100 26.88000
O  36.87200 5.03200 25.66200
C  35.20800 4.64000 27.24200
N  41.50100 7.36600 26.81300
C  40.68400 6.73800 26.05000
C  41.30300 6.61900 24.65500
C  42.27700 7.73700 24.63800
C  42.46900 7.99600 26.15600
C  41.90900 5.19700 24.28500
C  41.79200 9.07300 23.92100
C  40.61000 9.84700 24.67600
N  42.88300 8.86000 28.95200
C  43.71900 9.32700 27.96700
C  44.70600 10.25200 28.52900
C  44.39500 10.30600 29.89700
C  43.27700 9.45600 30.07500
C  45.99700 10.75200 27.83400
C  44.87100 10.77300 31.15300
O  45.91800 11.32000 31.42800
C  43.77200 10.36000 32.15300
C  44.44000 9.59700 33.19100
O  45.13200 8.59500 33.12400
O  44.28700 10.27900 34.44200
C  45.21000 9.81900 35.49200
H  38.02800 6.24800 31.83000
H  39.04200 5.71900 25.51700
H  44.17700 9.23200 25.89900
H  41.97700 8.37300 34.06400
H  39.13500 8.10000 33.68600
H  41.32400 6.30400 34.56400
H  40.15800 5.34700 33.62200
H  39.61100 6.12300 35.00800
H  39.96300 10.41000 33.23700
H  41.62200 10.73500 33.83100
H  40.07300 9.10300 35.54500
H  39.28200 10.63500 35.21900
H  36.40900 5.09300 31.24900
H  35.95200 4.20100 29.67200
H  35.53500 5.90700 30.00300
H  34.72500 5.34100 27.92400
H  35.23300 3.64400 27.68400
H  34.72300 4.59600 26.26700
H  40.49200 6.85400 23.96600
H  43.26400 7.51200 24.23500
H  42.87400 5.30800 23.79100
H  41.35000 4.57100 23.58900
H  42.03300 4.67500 25.23300
H  41.44800 8.79800 22.92400
H  42.67600 9.70000 23.80600
H  40.95100 10.87000 24.83800
H  40.16100 9.30500 25.50800
H  39.77600 10.10600 24.02300
H  46.38600 11.74100 28.07600
H  45.77800 10.73900 26.76600
H  46.81400 10.04400 27.97500
H  43.30900 11.24800 32.58300
H  45.13700 10.45300 36.37600
H  46.25800 9.98300 35.23900
H  44.93100 8.83000 35.85700
Mg 25.70500 51.11000 26.27700
C  23.57500 52.00000 28.97300
C  27.82600 49.84700 28.54800
C  27.71800 50.31500 23.70000
C  23.41400 52.38000 24.07500
N  25.56100 50.74200 28.53800
C  24.69200 51.30100 29.43600
C  25.14700 51.02600 30.88200
C  26.56100 50.37700 30.70900
C  26.64800 50.29100 29.13800
C  27.81200 51.07400 31.51600
C  24.06500 50.17200 31.70200
C  23.36600 50.81300 32.92800
H  24.16800 51.59100 33.98400
N  27.48600 50.29500 26.15000
C  28.23800 49.86600 27.17200
C  29.50600 49.38000 26.62500
C  29.49000 49.66000 25.28200
C  28.18600 50.12900 24.97500
C  30.64800 48.84500 27.51900
C  30.65100 49.48700 24.35000
O  30.58100 49.89100 23.18900
C  31.94600 48.83700 24.77100
N  25.61300 51.36500 24.20100
C  26.53500 50.91000 23.30800
C  26.04200 51.09900 21.87200
C  24.54500 51.34800 22.10200
C  24.53300 51.73500 23.58500
C  26.79400 52.33100 21.06400
C  23.63300 50.10600 21.80500
C  22.42100 50.34600 20.92900
N  23.91600 52.10800 26.46200
C  23.07700 52.51900 25.42200
C  21.88200 53.12800 26.11400
C  22.06300 52.89900 27.48000
C  23.27300 52.25700 27.62100
C  20.71200 53.77200 25.41100
C  21.50600 53.18000 28.72500
O  20.53100 53.83400 28.99900
C  22.45300 52.54900 29.82800
C  22.86400 53.66500 30.63900
O  23.64900 54.52500 30.31600
O  22.06100 53.60100 31.71900
C  21.91500 54.76500 32.65700
H  28.54300 49.42700 29.25600
H  28.34300 49.95300 22.88000
H  22.79200 52.67000 23.22600
H  25.20200 52.02700 31.31100
H  26.54400 49.33300 31.02300
H  28.38300 51.75000 30.87900
H  28.47500 50.27200 31.84100
H  27.50600 51.56400 32.44000
H  24.49400 49.20100 31.95000
H  23.32300 50.00600 30.92100
H  22.77000 50.02600 33.39100
H  22.59500 51.52000 32.62300
H  31.54800 49.45000 27.40000
H  30.79300 47.78500 27.30900
H  30.38800 49.00600 28.56500
H  32.57300 49.46600 25.40300
H  32.44200 48.65100 23.81900
H  31.60900 47.96600 25.33300
H  26.21800 50.16900 21.33100
H  24.31300 52.23200 21.50800
H  27.77600 52.67700 21.38700
H  26.23700 53.26500 20.99200
H  26.97600 51.92800 20.06800
H  23.22700 49.68400 22.72400
H  24.13700 49.27500 21.31200
H  22.53100 49.77800 20.00500
H  22.28300 51.42500 20.85500
H  21.61700 49.74800 21.35800
H  21.01300 54.34200 24.53200
H  20.11100 54.38000 26.08700
H  20.00900 53.02800 25.03900
H  21.95400 51.75600 30.38500
H  22.63800 54.69700 33.47000
H  20.88900 54.83000 33.01600
H  22.17000 55.71900 32.19500

