158

Mg 46.50400 24.86600 28.21500
C  47.35700 27.10000 30.88500
C  46.06500 22.35200 30.35600
C  46.56300 22.79400 25.53200
C  47.59100 27.52900 26.07900
N  46.72100 24.75500 30.30200
C  46.78900 25.81700 31.21000
C  46.39800 25.44700 32.62500
C  46.18200 23.89900 32.42100
C  46.24800 23.64700 30.93000
C  47.12800 22.96500 33.24500
C  45.11200 26.21000 33.18100
C  45.40200 27.00100 34.47900
H  44.54600 26.82100 35.70900
N  46.24700 22.85000 27.91900
C  46.07400 21.96200 28.98300
C  46.05100 20.58700 28.42000
C  46.30600 20.67400 26.98100
C  46.40700 22.16100 26.74300
C  45.79200 19.36100 29.37200
C  46.44400 19.62400 25.90900
O  46.82200 19.78000 24.74200
C  46.25900 18.19900 26.46000
N  46.85900 25.18000 26.11100
C  46.63800 24.18100 25.22100
C  47.13200 24.61700 23.87700
C  47.03900 26.17300 24.00400
C  47.26600 26.31800 25.50100
C  48.58000 24.14100 23.48200
C  45.73900 26.81000 23.50600
C  44.39000 26.38900 24.08400
N  47.36300 26.88200 28.36500
C  47.73100 27.80000 27.43600
C  48.18900 29.00100 28.06800
C  48.01100 28.82400 29.47100
C  47.56500 27.44900 29.61200
C  48.60800 30.27100 27.42100
C  48.18600 29.33300 30.78800
O  48.56300 30.44200 31.24900
C  47.79500 28.22400 31.76900
C  48.89600 27.95900 32.75600
O  49.95400 27.50600 32.46400
O  48.46400 28.43500 33.99600
C  49.38200 28.12400 35.13100
H  45.86000 21.57500 31.09600
H  46.53500 22.21100 24.61000
H  47.86500 28.37400 25.44400
H  47.24700 25.49500 33.30700
H  45.12600 23.69300 32.59500
H  46.52500 22.39100 33.95000
H  48.03700 23.44800 33.60300
H  47.60300 22.20600 32.62300
H  44.38500 25.43100 33.41000
H  44.71800 26.83500 32.38100
H  45.36800 28.07500 34.29700
H  46.42300 26.74400 34.75900
H  45.00100 18.74900 28.93800
H  45.50300 19.79000 30.33200
H  46.68000 18.74100 29.48800
H  47.09800 18.02000 27.13300
H  46.34900 17.38700 25.73800
H  45.30100 18.12800 26.97500
H  46.49500 24.42500 23.01300
H  47.87000 26.60200 23.44200
H  48.95300 23.56700 24.33000
H  49.36500 24.89600 23.43300
H  48.50000 23.57800 22.55200
H  45.72700 26.50500 22.46000
H  45.76500 27.89800 23.44300
H  43.95700 27.27800 24.54400
H  44.55800 25.53000 24.73400
H  43.75800 26.11100 23.24100
H  49.57000 30.53800 27.85900
H  47.87600 31.07200 27.51700
H  48.88900 30.05500 26.39000
H  46.84800 28.45200 32.25700
H  50.42800 27.95800 34.87500
H  49.14800 27.11900 35.48200
H  49.19000 28.74700 36.00600
Mg 46.48000 44.45300 43.56900
C  42.92700 44.08900 43.60800
C  46.77900 41.17300 42.73900
C  49.64600 45.14100 43.08800
C  45.75800 48.06000 43.57200
N  44.94600 42.78100 43.33800
C  43.56900 42.93200 43.30400
C  42.98700 41.48900 42.94700
C  44.20700 40.68200 42.53300
C  45.42100 41.59000 42.88300
C  44.29900 39.30600 43.16900
C  41.84600 41.45100 41.87300
C  42.08700 41.98400 40.40000
H  41.69900 41.17500 39.06200
N  48.01300 43.26000 43.10000
C  47.97600 41.91200 42.89900
C  49.30600 41.42800 42.79500
C  50.17700 42.52200 43.18900
C  49.33000 43.72400 43.18100
C  49.62400 39.94000 42.58800
C  51.69800 42.51100 43.54900
O  52.43100 41.48300 43.42000
C  52.47900 43.68000 44.19300
N  47.48900 46.29200 43.21100
C  48.84500 46.28400 43.09200
C  49.42100 47.78800 42.90100
C  48.11200 48.69400 42.90700
C  47.04700 47.62700 43.19700
C  50.48600 48.32000 43.97700
C  47.82100 49.57800 41.65900
C  47.37600 50.94400 41.93100
N  44.74400 45.85700 43.78200
C  44.65100 47.22900 43.78500
C  43.33300 47.62600 44.04500
C  42.56200 46.40300 44.00600
C  43.51100 45.34700 43.75500
C  42.78800 49.00600 44.28300
C  41.25300 45.87500 44.08200
O  40.15500 46.42200 44.24500
C  41.40300 44.29700 43.74700
C  40.78800 43.50300 44.85800
O  39.99300 42.55600 44.70200
O  41.22600 43.92900 46.05900
C  40.77700 43.18800 47.22100
H  46.81900 40.22700 42.19500
H  50.72200 45.31600 43.01100
H  45.46200 49.11100 43.57900
H  42.62800 41.06600 43.88500
H  44.23900 40.59500 41.44700
H  44.91500 39.31600 44.06800
H  44.62300 38.56200 42.44100
H  43.32400 38.95100 43.50200
H  40.99600 42.07600 42.14800
H  41.60000 40.39700 41.74700
H  43.15800 42.17200 40.32600
H  41.57400 42.94200 40.31500
H  49.83600 39.76700 41.53300
H  48.87800 39.25300 42.98600
H  50.46600 39.55500 43.16300
H  51.99600 43.95400 45.13100
H  52.48500 44.46100 43.43200
H  53.52200 43.37500 44.28000
H  49.89100 47.75800 41.91800
H  48.07900 49.38200 43.75200
H  50.57500 47.57300 44.76500
H  50.30100 49.27700 44.46500
H  51.50000 48.32100 43.57600
H  47.10300 49.06500 41.01900
H  48.63900 49.73900 40.95700
H  46.70900 51.18800 41.10400
H  48.28500 51.54500 41.90100
H  46.91100 51.02700 42.91300
H  41.89000 48.85700 44.88200
H  42.41400 49.38000 43.33000
H  43.53700 49.59400 44.81300
H  40.88600 44.14500 42.79900
H  41.54300 43.10400 47.99300
H  40.51000 42.15900 46.98000
H  39.92000 43.76600 47.56800

