158

Mg 17.22200 -1.23900 27.42700
C  16.06300 0.64600 30.16900
C  19.25100 -3.08500 29.68600
C  18.61700 -2.97700 24.92500
C  15.72900 0.94500 25.31600
N  17.49900 -1.24500 29.72500
C  17.04300 -0.34000 30.62400
C  17.49300 -0.60400 32.08600
C  18.77200 -1.56600 31.78200
C  18.49000 -2.01200 30.27800
C  20.15400 -0.95000 32.03100
C  16.41200 -1.17100 33.05900
C  16.75800 -1.15700 34.59100
H  18.05100 -0.51000 35.01600
N  18.51200 -2.93500 27.32600
C  19.15600 -3.62600 28.35600
C  19.81000 -4.80400 27.81700
C  19.62200 -4.72800 26.43300
C  18.88800 -3.46400 26.13800
C  20.39300 -5.85900 28.68400
C  19.99600 -5.71900 25.37700
O  19.67900 -5.68400 24.21700
C  20.84000 -6.89000 25.78000
N  17.23300 -0.96400 25.35400
C  17.83800 -1.83500 24.54200
C  17.64000 -1.43000 23.00700
C  16.63800 -0.19500 23.15700
C  16.44300 -0.04100 24.64700
C  19.00500 -1.12100 22.18400
C  15.26400 -0.31700 22.44900
C  14.81000 0.93500 21.66500
N  16.02200 0.34200 27.66100
C  15.47400 1.18800 26.71700
C  14.65400 2.24000 27.34400
C  14.77400 1.99300 28.69400
C  15.73300 0.93300 28.84600
C  13.90000 3.39100 26.63400
C  14.35200 2.40200 29.96600
O  13.61800 3.26100 30.35000
C  15.32000 1.61700 31.04900
C  16.18900 2.61700 31.76700
O  17.28900 2.88400 31.47000
O  15.46600 3.12900 32.88400
C  16.11700 4.01100 33.86600
H  19.83100 -3.70100 30.37600
H  19.02600 -3.44800 24.02800
H  15.18800 1.66300 24.69600
H  17.86400 0.31500 32.53900
H  18.73800 -2.45800 32.40800
H  20.72400 -0.78500 31.11600
H  20.75000 -1.77700 32.41800
H  20.12300 -0.06400 32.66400
H  16.28500 -2.21800 32.78400
H  15.46900 -0.65800 32.87200
H  16.61800 -2.14000 35.04100
H  15.97400 -0.48600 34.94200
H  19.70600 -6.70500 28.66500
H  20.59000 -5.64400 29.73500
H  21.34000 -6.19700 28.26500
H  20.35200 -7.49000 26.54800
H  21.81400 -6.53500 26.11600
H  20.90600 -7.53400 24.90300
H  17.08200 -2.25000 22.55400
H  17.09600 0.74800 22.85800
H  19.04200 -0.07100 21.89400
H  19.09000 -1.68200 21.25400
H  19.87700 -1.44800 22.75100
H  14.51300 -0.49300 23.22000
H  15.16700 -1.21900 21.84500
H  15.67500 1.52800 21.36800
H  14.21400 1.61600 22.27200
H  14.25700 0.50800 20.82800
H  12.93500 3.09300 26.22400
H  14.51400 3.61200 25.76200
H  13.84300 4.24700 27.30600
H  14.62800 1.14100 31.74300
H  16.16200 3.56300 34.85900
H  15.75600 5.03500 33.96200
H  17.18200 4.09200 33.65100
Mg 48.27600 35.37000 27.95500
C  46.15400 33.80200 30.41500
C  48.22600 38.20700 29.85700
C  49.43600 37.22400 25.29800
C  47.57800 32.74400 25.73400
N  47.43200 35.80800 30.03400
C  46.64000 35.07200 30.79200
C  46.56500 35.80600 32.16200
C  46.69100 37.27000 31.71700
C  47.45100 37.10000 30.41800
C  45.40800 37.98500 31.52200
C  47.63100 35.26900 33.16800
C  48.70100 36.11400 33.88700
H  48.39400 36.58000 35.33900
N  49.08500 37.31900 27.73000
C  49.04600 38.31800 28.70100
C  49.62200 39.51200 28.19100
C  50.13900 39.19300 26.87600
C  49.52100 37.84900 26.60600
C  49.79700 40.81700 28.92600
C  50.98800 40.04500 25.93600
O  51.25900 39.56400 24.86500
C  51.35800 41.49700 26.17900
N  48.59500 34.95900 25.87600
C  49.09700 35.88800 25.01300
C  49.07600 35.33700 23.57000
C  48.70700 33.78400 23.71700
C  48.21900 33.82700 25.20200
C  48.24300 36.14600 22.50000
C  49.81500 32.73400 23.37200
C  49.24300 31.39200 22.90500
N  47.19200 33.56100 28.04000
C  46.97100 32.60900 27.03300
C  46.13500 31.47600 27.60900
C  45.80200 31.95200 28.90300
C  46.45900 33.18500 29.15300
C  45.80100 30.12900 26.98600
C  45.11400 31.53800 30.14600
O  44.43300 30.51900 30.32400
C  45.24200 32.82700 31.11000
C  45.78700 32.40800 32.44700
O  46.89900 32.03900 32.67700
O  44.78100 32.46700 33.36800
C  45.13100 32.24400 34.78700
H  48.15300 39.12700 30.44100
H  49.69200 37.76400 24.38400
H  47.41100 31.89200 25.07200
H  45.60700 35.40200 32.49000
H  47.20800 37.85400 32.47800
H  45.12300 38.53600 32.41800
H  44.59600 37.28200 31.33800
H  45.49900 38.75200 30.75100
H  48.21700 34.56500 32.57700
H  47.12100 34.75400 33.98200
H  49.02300 36.95300 33.27100
H  49.60700 35.52500 34.02800
H  49.44900 41.70300 28.39400
H  50.84400 40.95600 29.19400
H  49.18500 40.78200 29.82700
H  50.49400 42.13900 26.35300
H  51.71200 41.81400 25.19800
H  52.14400 41.57900 26.92900
H  50.10800 35.38500 23.22400
H  47.82200 33.62600 23.10200
H  48.76800 36.42300 21.58600
H  47.69200 36.98700 22.92000
H  47.49100 35.57400 21.95600
H  50.35700 32.59700 24.30700
H  50.52500 33.12900 22.64600
H  48.15400 31.43300 22.90600
H  49.59300 30.52200 23.46100
H  49.54500 31.31700 21.86000
H  46.41800 29.35000 27.43300
H  45.83200 30.10800 25.89700
H  44.78500 29.81700 27.22800
H  44.19600 33.13100 31.08300
H  46.16100 32.54000 34.98900
H  45.01600 31.20100 35.08200
H  44.38800 32.79600 35.36300

