158

Mg 25.23800 1.76100 29.72100
C  27.41700 1.44700 32.55000
C  22.57800 1.96500 31.78200
C  23.43300 1.88800 26.98200
C  28.13400 1.07100 27.64400
N  25.07100 1.83900 31.97600
C  26.08400 1.68500 32.90300
C  25.53700 1.85800 34.36900
C  23.93500 1.86800 34.02200
C  23.79400 1.87800 32.50600
C  23.03900 0.98400 34.95300
C  25.97800 3.19000 35.17100
C  26.04200 2.93500 36.68600
H  25.55600 4.02000 37.63400
N  23.26000 1.96600 29.39800
C  22.32100 2.05000 30.35500
C  21.08300 2.15400 29.79800
C  21.26400 2.05900 28.39400
C  22.73700 1.97300 28.18300
C  19.76200 2.33200 30.67700
C  20.20700 1.84700 27.30200
O  20.50200 1.56200 26.12900
C  18.75500 1.90200 27.72400
N  25.72600 1.38900 27.60700
C  24.74300 1.66200 26.73200
C  25.31500 1.63500 25.26400
C  26.81700 1.47400 25.46600
C  26.90400 1.32200 27.00100
C  24.77400 0.67900 24.15300
C  27.60300 2.68500 24.80400
C  27.66000 4.04600 25.55200
N  27.35100 1.39300 29.96400
C  28.34900 1.09800 29.05900
C  29.55700 0.65800 29.78300
C  29.27700 0.95300 31.13500
C  27.87800 1.24900 31.21600
C  30.82600 0.22600 29.13600
C  29.84000 1.00800 32.47500
O  31.00000 0.97500 32.89500
C  28.60400 1.32000 33.42700
C  28.44800 0.32700 34.54500
O  28.29800 -0.86200 34.39400
O  28.57900 0.98700 35.70200
C  28.37400 0.18000 36.93400
H  21.74400 2.05900 32.48000
H  22.82300 1.90600 26.07500
H  29.05600 1.08900 27.05800
H  25.72800 0.99400 35.00500
H  23.65600 2.88500 34.30100
H  23.60500 0.50800 35.75300
H  22.55800 0.31300 34.24000
H  22.30400 1.68400 35.35000
H  25.17700 3.91900 35.04600
H  26.89600 3.53600 34.69500
H  27.03800 2.69700 37.06000
H  25.42800 2.04500 36.82700
H  19.76200 1.99600 31.71400
H  18.81800 1.96800 30.27100
H  19.55900 3.40200 30.65100
H  18.39200 2.81400 28.19700
H  18.60600 1.00100 28.32000
H  18.26400 1.67500 26.77700
H  25.10800 2.64200 24.90300
H  27.19200 0.56700 24.99000
H  23.74500 0.90400 23.87500
H  24.84600 -0.38700 24.36800
H  25.39600 0.84300 23.27300
H  27.08600 2.87300 23.86300
H  28.61000 2.26900 24.76200
H  26.92500 3.79400 26.31700
H  27.23700 4.81000 24.90000
H  28.68900 4.27700 25.82700
H  31.38800 -0.39300 29.83400
H  31.42200 1.05700 28.75900
H  30.59600 -0.39700 28.27100
H  28.90600 2.26200 33.88400
H  29.15600 -0.57500 37.00600
H  27.34800 -0.14700 37.10600
H  28.48700 0.80400 37.82000
Mg 9.83300 47.24900 26.27200
C  7.36900 47.25900 28.73100
C  12.04800 48.20900 28.64200
C  12.27000 46.95900 23.89200
C  7.47300 46.31200 23.88400
N  9.68900 47.72600 28.48900
C  8.61600 47.42900 29.32000
C  9.00400 47.66800 30.83900
C  10.56300 47.96300 30.73600
C  10.77500 48.05300 29.21600
C  10.95900 49.15700 31.72100
C  8.53900 46.51400 31.72900
C  9.47100 46.14800 32.91700
H  8.92600 45.62500 34.21000
N  11.84700 47.66700 26.27900
C  12.53600 48.02300 27.31500
C  13.94900 48.20800 26.92200
C  14.00200 47.83400 25.57100
C  12.65000 47.39300 25.17900
C  15.03200 48.68800 27.87000
C  15.23300 47.66300 24.76200
O  15.20000 47.40800 23.56100
C  16.66200 47.81700 25.34900
N  9.89400 46.83500 24.11600
C  11.00500 46.80300 23.34700
C  10.74300 46.48500 21.92900
C  9.19000 46.39000 21.83400
C  8.83900 46.42500 23.35800
C  11.47800 47.40700 20.89600
C  8.62200 45.13800 21.14700
C  8.97600 44.97700 19.70900
N  7.86200 47.05900 26.20300
C  6.99100 46.67700 25.15200
C  5.63900 46.71200 25.60000
C  5.71200 46.88800 26.99500
C  7.10400 47.04800 27.32900
C  4.50700 46.52300 24.71500
C  4.98700 47.02300 28.19800
O  3.78500 47.01800 28.37200
C  5.99800 47.28400 29.35100
C  5.72900 46.20600 30.21900
O  6.18000 45.11100 30.05100
O  4.86900 46.58100 31.09100
C  4.42300 45.60900 32.00700
H  12.84500 48.33700 29.37700
H  13.12100 46.76000 23.23700
H  6.72500 46.02100 23.14400
H  8.37100 48.49900 31.15000
H  11.19000 47.14500 31.09100
H  11.82600 48.81900 32.28800
H  10.20100 49.36900 32.47400
H  11.21800 50.05100 31.15500
H  8.39700 45.58400 31.17800
H  7.60600 46.80200 32.21300
H  9.88300 47.07400 33.31800
H  10.27500 45.51900 32.53500
H  14.67000 48.86000 28.88400
H  15.58200 49.57100 27.54400
H  15.81900 47.93500 27.83500
H  16.88400 48.86700 25.53600
H  17.32100 47.48100 24.54800
H  16.87600 47.21500 26.23200
H  11.06200 45.45600 21.76400
H  8.82800 47.27400 21.31000
H  11.89400 48.28800 21.38500
H  10.77500 47.80400 20.16500
H  12.24400 46.77800 20.44300
H  7.54500 45.27400 21.05500
H  8.88000 44.20600 21.65100
H  8.05100 44.75800 19.17600
H  9.50400 44.03400 19.56900
H  9.55000 45.77900 19.24500
H  4.67600 45.67200 24.05600
H  4.28700 47.34100 24.02900
H  3.63900 46.28900 25.33100
H  5.73200 48.23600 29.81200
H  4.31000 44.60400 31.60100
H  3.43800 45.94500 32.33000
H  5.08300 45.66000 32.87300

