158

Mg 49.51000 45.04400 42.04600
C  46.36600 46.00800 40.67100
C  48.96100 41.91200 40.49000
C  52.77000 44.50100 42.02300
C  49.94600 48.41200 42.82500
N  47.78700 44.08900 40.74000
C  46.68200 44.66800 40.32800
C  45.74800 43.76800 39.51200
C  46.49700 42.35800 39.71500
C  47.83500 42.76400 40.35900
C  45.60300 41.34200 40.54300
C  45.66500 44.32400 38.05000
C  44.29500 44.30900 37.38800
H  44.21000 44.00500 35.89800
N  50.60900 43.34200 41.43000
C  50.24100 42.24200 40.86600
C  51.35500 41.25700 41.08900
C  52.43600 41.95400 41.56200
C  51.98300 43.34400 41.60900
C  51.17500 39.76300 40.78400
C  53.74700 41.28900 41.84200
O  53.97700 40.08900 41.66800
C  54.94000 42.05700 42.29000
N  51.19300 46.35900 42.16200
C  52.44200 45.89000 42.19900
C  53.44700 46.95700 42.71900
C  52.47900 48.17200 43.05700
C  51.08900 47.59000 42.66400
C  54.32200 46.50800 43.88900
C  52.76400 49.58800 42.45400
C  53.11000 50.71300 43.46200
N  48.38300 46.83100 41.97600
C  48.68500 48.05600 42.45900
C  47.51200 48.92900 42.44200
C  46.51500 48.16700 41.70000
C  47.16500 46.92200 41.39600
C  47.39200 50.36900 42.86500
C  45.21300 48.22400 41.08400
O  44.43800 49.19700 41.03200
C  45.07300 46.81300 40.33900
C  43.80500 46.16500 40.81700
O  42.74100 45.94700 40.23100
O  43.96000 45.92000 42.17600
C  42.90600 45.35600 42.97900
H  48.86100 40.85800 40.22200
H  53.84800 44.43900 41.85600
H  50.02600 49.41400 43.25300
H  44.77700 43.74100 40.00500
H  46.65400 41.77100 38.81000
H  44.58400 41.72800 40.49700
H  46.00100 41.18500 41.54500
H  45.51900 40.33700 40.12800
H  46.29900 43.66500 37.45700
H  46.18900 45.27800 37.98500
H  43.85500 45.28100 37.60900
H  43.67200 43.61100 37.94800
H  52.03800 39.14400 41.03100
H  50.96500 39.73700 39.71500
H  50.27600 39.33900 41.23100
H  54.57300 42.76100 43.03800
H  55.18600 42.58300 41.36700
H  55.76100 41.45000 42.67000
H  54.02700 47.19300 41.82700
H  52.29100 48.12700 44.13000
H  53.93800 46.91300 44.82500
H  55.24900 47.06300 43.73800
H  54.33700 45.41900 43.92700
H  51.98400 50.05500 41.85200
H  53.58900 49.48300 41.74900
H  53.23700 50.32700 44.47400
H  52.29400 51.41800 43.62300
H  54.01400 51.19300 43.08800
H  48.13900 50.40200 43.65800
H  46.38300 50.61000 43.20000
H  47.60400 50.91600 41.94700
H  45.08800 47.01300 39.26700
H  42.73800 46.13100 43.72700
H  43.30000 44.48400 43.50100
H  41.98700 45.13700 42.43600
Mg -9.91100 17.54000 40.52300
C  -6.44300 17.20500 41.00100
C  -9.40100 20.96000 40.19300
C  -13.12000 17.91500 39.45700
C  -10.21800 14.12100 40.44300
N  -8.16800 18.88800 40.53700
C  -6.82100 18.54800 40.75800
C  -5.95000 19.84800 40.67600
C  -6.99000 20.87900 41.05300
C  -8.28700 20.24100 40.56800
C  -7.08300 21.24800 42.58500
C  -5.38700 20.04500 39.20500
C  -3.91800 19.45200 39.03900
H  -3.55800 18.54100 37.83500
N  -11.12500 19.23600 39.88900
C  -10.62300 20.52600 39.71900
C  -11.73700 21.38000 39.33200
C  -12.88500 20.55700 39.25500
C  -12.43200 19.17200 39.54200
C  -11.56300 22.85600 39.04500
C  -14.24000 20.95900 38.84800
O  -14.39900 22.13000 38.60400
C  -15.44500 20.09200 38.98400
N  -11.39100 16.21800 39.82300
C  -12.68200 16.55600 39.70300
C  -13.61000 15.39100 39.84500
C  -12.64000 14.21600 39.66500
C  -11.30200 14.89200 39.95900
C  -14.50500 15.29500 41.13700
C  -12.68000 13.51700 38.26400
C  -13.10700 12.08700 38.20900
N  -8.64000 15.96700 40.67800
C  -8.93300 14.61900 40.67600
C  -7.78200 13.88900 41.08000
C  -6.77900 14.85500 41.25000
C  -7.33100 16.13900 40.94800
C  -7.67900 12.35000 41.32300
C  -5.39700 15.00000 41.62600
O  -4.59800 14.20500 42.11900
C  -5.10100 16.52700 41.31400
C  -4.29900 16.98400 42.47100
O  -3.20700 17.49900 42.38200
O  -4.90000 16.81500 43.72300
C  -3.96400 16.47100 44.83300
H  -9.34400 22.04800 40.25600
H  -14.15100 17.80400 39.11600
H  -10.39800 13.04500 40.50100
H  -5.08800 19.83900 41.34200
H  -6.76000 21.73800 40.42300
H  -6.79000 22.29000 42.71000
H  -6.49000 20.54900 43.17400
H  -8.07200 21.10300 43.01900
H  -5.35300 21.09600 38.91900
H  -6.05400 19.42500 38.60500
H  -3.60800 18.94100 39.95100
H  -3.24400 20.30700 39.00000
H  -12.13200 23.11600 38.15300
H  -10.53400 23.16300 38.85600
H  -11.89600 23.50500 39.85500
H  -15.32900 19.23400 38.32200
H  -16.35400 20.68200 38.86900
H  -15.41800 19.66900 39.98800
H  -14.28800 15.41200 38.99200
H  -12.97200 13.49600 40.41200
H  -14.02700 15.68400 42.03600
H  -14.85500 14.27100 41.26200
H  -15.34300 15.94800 40.89300
H  -11.69000 13.64400 37.82600
H  -13.20200 14.05300 37.47200
H  -14.12500 11.87300 37.88200
H  -13.06100 11.66400 39.21300
H  -12.42500 11.49900 37.59500
H  -6.73200 12.14200 41.82100
H  -7.59400 11.92300 40.32300
H  -8.50400 11.89300 41.87000
H  -4.52500 16.52900 40.38900
H  -4.14200 15.44400 45.15200
H  -4.21100 17.04700 45.72500
H  -2.90400 16.52800 44.58700

