158

Mg 26.89600 50.39800 26.73900
C  24.64300 51.43700 29.22700
C  29.31900 49.71900 29.25600
C  29.24300 49.92100 24.24200
C  24.64600 51.41000 24.32300
N  26.98700 50.74000 29.01200
C  25.88800 50.89300 29.79500
C  26.19300 50.62600 31.25800
C  27.67200 50.10200 31.24400
C  28.04800 50.16100 29.73700
C  28.63800 50.84000 32.16800
C  25.17800 49.68300 31.88900
C  24.64000 49.97800 33.31200
H  24.72700 48.96400 34.42700
N  28.92900 49.88600 26.73300
C  29.71300 49.58600 27.86700
C  31.00000 49.08800 27.43700
C  31.06500 49.24600 26.01100
C  29.73900 49.72600 25.56500
C  32.02800 48.71400 28.48600
C  32.19000 48.86300 25.09500
O  32.13800 49.03400 23.87300
C  33.50000 48.19200 25.60200
N  26.97800 50.69000 24.60100
C  27.95600 50.23800 23.77500
C  27.60500 50.42000 22.27100
C  26.05100 50.63900 22.38100
C  25.87600 50.97100 23.87000
C  28.42200 51.60100 21.60800
C  25.16700 49.47600 21.90100
C  24.11700 49.84000 20.83400
N  25.12200 51.38300 26.71500
C  24.29000 51.67000 25.67300
C  23.11700 52.32000 26.10500
C  23.19500 52.19700 27.51900
C  24.38300 51.56000 27.83900
C  21.96900 52.96400 25.26900
C  22.44400 52.46000 28.76100
O  21.35000 53.02800 28.90100
C  23.39700 51.95400 29.97100
C  23.79200 53.10400 30.74400
O  24.14500 54.16900 30.34700
O  23.75300 52.79800 32.03500
C  24.33800 53.83700 32.96400
H  29.88600 49.30200 30.09200
H  29.97200 49.75200 23.44700
H  24.02200 51.73500 23.48800
H  26.07000 51.53200 31.85100
H  27.59300 49.05300 31.52900
H  28.56600 50.55500 33.21800
H  28.22600 51.84200 32.28600
H  29.63300 51.04400 31.77300
H  25.71600 48.74600 32.02600
H  24.31300 49.59800 31.23000
H  23.57200 50.16300 33.19900
H  24.97500 50.94500 33.68700
H  32.77200 49.50900 28.43400
H  32.37500 47.69900 28.28700
H  31.63100 48.66400 29.49900
H  34.09600 49.01200 26.00200
H  33.85900 47.70800 24.69400
H  33.24800 47.39000 26.29600
H  27.85700 49.51900 21.71300
H  25.83300 51.59500 21.90600
H  28.98400 51.23800 20.74800
H  29.12800 51.82700 22.40700
H  27.68000 52.35800 21.35700
H  24.73400 48.96300 22.76000
H  25.84300 48.78700 21.39500
H  24.53400 49.80000 19.82800
H  23.77900 50.86900 20.95500
H  23.17600 49.29300 20.89200
H  21.13500 53.13800 25.94900
H  21.51100 52.16600 24.68300
H  22.22800 53.85500 24.69700
H  22.84500 51.24200 30.58500
H  24.76300 53.22600 33.76100
H  23.60300 54.50800 33.41000
H  25.11500 54.54700 32.68200
Mg 1.39400 41.24600 26.54400
C  3.95900 41.97300 28.77500
C  -0.39900 39.95000 29.23900
C  -0.95300 40.25600 24.37200
C  3.54600 42.18300 23.92900
N  1.68500 41.04500 28.75700
C  2.79700 41.52900 29.45700
C  2.56700 41.55200 31.03600
C  1.28000 40.63500 31.07300
C  0.81300 40.50500 29.56700
C  1.54200 39.40800 31.92300
C  2.29900 42.96000 31.59800
C  2.52300 43.18700 33.09700
H  2.59300 41.95800 34.09500
N  -0.47800 40.36400 26.76300
C  -0.97300 39.83100 27.94200
C  -2.16800 39.20000 27.61600
C  -2.48500 39.41300 26.20000
C  -1.29100 39.99900 25.69300
C  -2.99200 38.57000 28.66900
C  -3.79400 39.11800 25.34200
O  -3.90700 39.38500 24.12800
C  -4.82800 38.10800 25.80500
N  1.38900 41.10400 24.51700
C  0.21400 40.84800 23.81400
C  0.41100 41.04700 22.28800
C  1.70100 41.84500 22.31200
C  2.33400 41.59100 23.64300
C  0.40500 39.83600 21.38600
C  1.49900 43.35400 21.86100
C  2.48400 43.74000 20.69300
N  3.38000 41.97000 26.30200
C  4.15300 42.29000 25.20500
C  5.51400 42.66400 25.56300
C  5.39500 42.56600 26.94600
C  4.11300 42.18200 27.33900
C  6.64200 43.03800 24.73700
C  6.21300 42.78800 28.12500
O  7.37400 43.09100 28.26400
C  5.30500 42.38000 29.35200
C  5.94900 41.26800 30.09300
O  5.95300 40.13600 29.65900
O  6.32900 41.66900 31.32700
C  6.57000 40.51700 32.22900
H  -0.85600 39.54100 30.14200
H  -1.69400 40.07300 23.59200
H  4.16400 42.41800 23.06000
H  3.47300 41.20900 31.53600
H  0.58000 41.22500 31.66500
H  1.01000 39.55100 32.86400
H  2.60500 39.17100 31.96600
H  1.03600 38.51300 31.56300
H  1.33400 43.30800 31.23100
H  3.10200 43.54400 31.14900
H  1.70800 43.81400 33.45800
H  3.44600 43.76300 33.16800
H  -3.99400 38.54400 28.24000
H  -3.00100 39.09600 29.62300
H  -2.72200 37.51700 28.74700
H  -5.38400 38.53500 26.63900
H  -4.29200 37.22300 26.14700
H  -5.51200 37.79100 25.01900
H  -0.40600 41.70400 21.99000
H  2.45600 41.36300 21.69200
H  1.37300 39.58200 20.95300
H  -0.29900 40.00700 20.57100
H  0.10000 38.94500 21.93400
H  1.67700 44.01700 22.70800
H  0.44200 43.52600 21.65800
H  2.00500 44.42400 19.99300
H  2.79100 42.81000 20.21400
H  3.36000 44.25200 21.09200
H  7.33900 43.51200 25.42800
H  6.39800 43.91700 24.14100
H  6.98300 42.17500 24.16400
H  5.17000 43.23200 30.01800
H  7.49400 39.99500 31.98200
H  5.77100 39.77500 32.25100
H  6.61600 41.03600 33.18700

