158

Mg 47.12300 24.80900 29.28700
C  47.94600 27.31800 31.68900
C  45.72100 22.97100 31.79400
C  46.60800 22.51300 27.01800
C  49.01800 26.69600 26.90800
N  46.69400 25.17000 31.46100
C  47.18900 26.29400 32.23100
C  46.62200 26.17100 33.68000
C  45.95500 24.73100 33.67800
C  46.17000 24.21900 32.24000
C  46.53700 23.76300 34.76600
C  45.57000 27.30200 33.99900
C  45.55300 28.10700 35.31200
H  46.21300 27.54200 36.50900
N  46.22500 23.00200 29.38300
C  45.67900 22.40200 30.46400
C  45.01600 21.25700 29.97300
C  45.18600 21.11900 28.60400
C  46.10200 22.20800 28.30100
C  44.36000 20.36900 30.99000
C  44.62500 20.06500 27.64900
O  44.90100 20.10500 26.48400
C  43.73700 18.94300 28.08300
N  47.75500 24.66500 27.27400
C  47.49800 23.51400 26.61000
C  48.06500 23.53100 25.16000
C  48.78300 24.87800 25.04800
C  48.57500 25.41800 26.47600
C  49.04400 22.29800 24.88600
C  48.27300 25.73200 23.90100
C  49.31800 26.50800 23.21500
N  48.17500 26.59600 29.18700
C  48.89200 27.23500 28.19900
C  49.36800 28.53900 28.66100
C  49.11300 28.55800 30.03300
C  48.39200 27.39100 30.32700
C  50.17300 29.56600 27.90900
C  49.25800 29.39100 31.18100
O  49.81600 30.44300 31.40800
C  48.45900 28.65600 32.33800
C  49.61400 28.44600 33.35400
O  50.40700 27.54600 33.31100
O  49.50600 29.46200 34.31500
C  50.48100 29.41500 35.38600
H  45.24700 22.33500 32.54400
H  46.20200 21.92300 26.19400
H  49.48100 27.33500 26.15300
H  47.47500 26.17200 34.35900
H  44.88000 24.68400 33.85000
H  45.65700 23.38300 35.28500
H  47.25600 24.36900 35.31700
H  47.11400 22.98900 34.26100
H  44.57400 26.86500 33.92400
H  45.62200 28.03800 33.19700
H  44.52500 28.36100 35.57000
H  46.03700 29.02500 34.97800
H  43.46300 19.86900 30.62400
H  44.10500 20.80100 31.95800
H  45.13700 19.65300 31.25800
H  44.09800 18.19100 28.78400
H  43.27700 18.55700 27.17300
H  42.88500 19.45800 28.52600
H  47.17000 23.51700 24.53800
H  49.82500 24.59700 24.89100
H  49.38400 21.89100 25.83900
H  49.85900 22.63100 24.24300
H  48.49400 21.62300 24.23100
H  47.55100 26.40900 24.35700
H  47.73900 25.08000 23.21000
H  50.36400 26.45600 23.51500
H  49.00400 27.53100 23.42500
H  49.25600 26.33000 22.14100
H  50.01300 29.43200 26.83900
H  51.22500 29.44100 28.16700
H  50.00300 30.62100 28.12500
H  47.62400 29.24800 32.71300
H  50.59000 30.39400 35.85300
H  51.44800 29.04900 35.04100
H  50.00700 28.69600 36.05400
Mg 26.85400 50.58600 26.94700
C  24.68300 51.85500 29.43600
C  29.02100 49.82500 29.29500
C  29.04200 49.82200 24.32800
C  24.45300 51.68000 24.43400
N  26.78000 50.65700 29.12600
C  25.84100 51.26900 29.92100
C  26.21900 51.09500 31.35600
C  27.66900 50.55800 31.32100
C  27.81900 50.17600 29.83200
C  28.80400 51.58000 31.83500
C  25.23900 50.07300 32.08700
C  24.34700 50.66600 33.25800
H  24.21400 49.82800 34.53600
N  28.85700 50.14400 26.86200
C  29.60400 49.83400 28.01200
C  30.90200 49.56100 27.55800
C  30.88500 49.39400 26.15400
C  29.55200 49.75400 25.68700
C  32.00800 49.36400 28.64800
C  32.04900 48.99600 25.23200
O  31.92500 48.94500 24.02800
C  33.37600 48.74700 25.81000
N  26.72200 50.63800 24.66200
C  27.75500 50.25800 23.87500
C  27.31100 50.16700 22.36200
C  25.89200 50.86100 22.37600
C  25.63400 51.04600 23.91200
C  28.30500 50.81600 21.36300
C  24.72400 50.10400 21.55600
C  23.94800 50.95400 20.51900
N  24.89700 51.37800 26.87100
C  24.08400 51.83400 25.82400
C  22.87200 52.39300 26.37600
C  23.12200 52.52000 27.74300
C  24.33300 51.86600 28.05000
C  21.70500 53.08600 25.66100
C  22.53400 53.02500 29.02900
O  21.48100 53.62500 29.31900
C  23.56400 52.52000 30.13500
C  24.04100 53.53500 31.02500
O  24.86800 54.38700 30.79100
O  23.30800 53.48000 32.21300
C  23.56500 54.50300 33.24500
H  29.69800 49.49300 30.08400
H  29.71500 49.39900 23.57900
H  23.73200 51.99600 23.67700
H  26.19000 52.11200 31.74800
H  27.84600 49.65800 31.90900
H  28.25500 52.50200 32.02400
H  29.65200 51.70600 31.16200
H  29.19100 51.31100 32.81800
H  25.78700 49.17200 32.36200
H  24.45900 49.83300 31.36400
H  23.35200 50.81500 32.83900
H  24.65600 51.66800 33.55400
H  32.30900 48.32300 28.76400
H  31.80100 49.69200 29.66700
H  32.88800 49.87100 28.25200
H  33.29800 48.08800 26.67500
H  33.80100 49.71800 26.06500
H  34.08800 48.19400 25.19700
H  27.40400 49.10300 22.14400
H  26.00500 51.84700 21.92500
H  28.77700 49.99600 20.82000
H  29.03700 51.39200 21.92900
H  28.03500 51.47800 20.54000
H  23.96100 49.79800 22.27300
H  24.97700 49.19000 21.01800
H  23.66400 50.32800 19.67300
H  24.51400 51.82000 20.17600
H  23.00400 51.27300 20.96200
H  20.81100 52.47000 25.75200
H  21.95300 53.24800 24.61100
H  21.55100 54.01200 26.21500
H  23.05600 51.70800 30.65300
H  23.99600 55.37300 32.74900
H  24.23700 54.12100 34.01400
H  22.62800 54.83000 33.69500

