158

Mg 35.99400 1.00800 30.24100
C  33.40000 1.86600 32.43600
C  38.21300 1.02900 32.98700
C  38.37600 0.02300 28.08700
C  33.77100 1.40200 27.60800
N  35.77400 1.44400 32.42200
C  34.66800 1.64100 33.10000
C  34.95300 1.66100 34.57800
C  36.45200 1.77000 34.71900
C  36.86100 1.34300 33.30900
C  36.97600 3.19000 35.17100
C  34.21400 0.45600 35.24000
C  33.63600 0.66800 36.69800
H  34.04400 1.89300 37.48500
N  37.96300 0.61100 30.47900
C  38.73200 0.73700 31.64200
C  40.10800 0.24000 31.31800
C  40.17600 -0.00600 29.93600
C  38.77900 0.08900 29.46900
C  41.23200 0.20300 32.39000
C  41.39600 -0.38500 29.10300
O  41.32800 -0.62000 27.89300
C  42.79200 -0.45600 29.67800
N  36.09400 0.80300 28.17800
C  37.17400 0.40100 27.49700
C  36.98900 0.45900 25.95700
C  35.52400 0.97200 25.90300
C  35.05900 1.06000 27.32100
C  38.05300 1.41900 25.22600
C  34.62700 -0.02500 25.04800
C  34.16400 -1.45400 25.48900
N  34.00100 1.60700 30.00200
C  33.16500 1.65700 28.88500
C  31.87900 2.27000 29.25500
C  31.95800 2.39800 30.69600
C  33.22900 1.88600 31.08900
C  30.66200 2.56700 28.39500
C  31.23800 2.75600 31.83000
O  30.05400 3.17100 31.88000
C  32.08900 2.34200 33.03300
C  32.19000 3.40800 34.08700
O  33.05900 4.25200 33.99300
O  31.17200 3.36400 34.95200
C  31.02000 4.50200 35.83100
H  38.88700 1.08300 33.84400
H  39.13100 -0.16900 27.32200
H  33.05700 1.51700 26.79000
H  34.53800 2.63000 34.85300
H  36.77800 1.10300 35.51800
H  36.17700 3.57900 35.80300
H  37.11400 3.89300 34.35000
H  37.84300 3.07700 35.82200
H  34.89600 -0.39300 35.29400
H  33.39900 0.15600 34.58100
H  34.01200 -0.18800 37.25800
H  32.55100 0.65900 36.59100
H  41.87300 -0.67600 32.44700
H  40.92900 0.48100 33.39900
H  41.86600 1.02600 32.06000
H  42.77300 -1.33800 30.31800
H  43.15600 0.45500 30.15300
H  43.48700 -0.63100 28.85700
H  37.01500 -0.52700 25.49200
H  35.37400 1.94400 25.43200
H  37.53800 2.30400 24.85000
H  38.50100 0.96900 24.34000
H  38.81400 1.75700 25.92800
H  35.29700 -0.18600 24.20300
H  33.81700 0.53600 24.58200
H  34.40100 -1.70200 26.52300
H  34.57500 -2.22300 24.83400
H  33.07800 -1.54300 25.51900
H  30.95100 2.71000 27.35400
H  30.11400 3.45100 28.72200
H  30.08400 1.64500 28.47000
H  31.66100 1.53200 33.62300
H  30.81000 5.35900 35.19100
H  31.93100 4.65600 36.41100
H  30.26600 4.28000 36.58600
Mg -5.59600 25.29900 26.92800
C  -3.85200 27.10000 29.29600
C  -6.74500 23.21400 29.29800
C  -6.46700 23.06500 24.42700
C  -3.88200 27.03100 24.48300
N  -5.21900 25.06000 29.07400
C  -4.56000 25.98100 29.85600
C  -4.84100 25.73800 31.34600
C  -5.46400 24.29400 31.33000
C  -5.86200 24.18200 29.79500
C  -4.53500 23.19100 31.94400
C  -5.64600 26.83300 31.99400
C  -5.15700 27.24700 33.42800
H  -6.01100 26.84800 34.67900
N  -6.66000 23.45600 26.84000
C  -7.12800 22.78700 27.96600
C  -7.78000 21.61500 27.58200
C  -7.63400 21.52100 26.15300
C  -6.88700 22.72800 25.74700
C  -8.50500 20.69000 28.47800
C  -8.17800 20.40400 25.28500
O  -8.04900 20.38100 24.06800
C  -8.98900 19.22500 25.80900
N  -5.22000 25.04900 24.83900
C  -5.72500 24.08900 24.04000
C  -5.24900 24.25400 22.51800
C  -4.62100 25.60900 22.59100
C  -4.59000 25.95300 24.08200
C  -4.32800 23.12500 22.03900
C  -5.38200 26.78700 21.72500
C  -4.98400 26.94200 20.25000
N  -4.37100 26.96400 26.80600
C  -3.76100 27.58100 25.79000
C  -3.02300 28.77000 26.20500
C  -3.00400 28.61900 27.61800
C  -3.80500 27.45300 27.94800
C  -2.32800 29.75600 25.28500
C  -2.52000 29.19000 28.84100
O  -1.87500 30.20300 29.10100
C  -3.05500 28.21500 29.96500
C  -1.93100 27.82300 30.83000
O  -1.29600 26.77200 30.67500
O  -1.91200 28.61300 31.97300
C  -0.90300 28.12500 32.97000
H  -7.09300 22.52400 30.07000
H  -6.82600 22.35500 23.67800
H  -3.41500 27.62400 23.69400
H  -3.91900 25.62000 31.91400
H  -6.32000 24.33800 32.00400
H  -3.46800 23.40000 31.87500
H  -4.76200 22.31600 31.33400
H  -4.82200 22.95300 32.96800
H  -6.67500 26.53300 32.19000
H  -5.70500 27.66400 31.29200
H  -4.94500 28.31200 33.32800
H  -4.12400 26.93400 33.58700
H  -8.69200 21.25800 29.38900
H  -7.92900 19.80000 28.73200
H  -9.47500 20.53700 28.00500
H  -9.95600 19.58500 26.16100
H  -8.43700 18.55700 26.47000
H  -9.37200 18.61700 24.99000
H  -6.13600 24.40200 21.90300
H  -3.62600 25.58300 22.14700
H  -4.21700 22.39300 22.83900
H  -3.29900 23.40600 21.81300
H  -4.78900 22.70300 21.14600
H  -5.43800 27.80400 22.11300
H  -6.42900 26.49300 21.78800
H  -4.24800 27.73900 20.14000
H  -5.88800 27.07600 19.65500
H  -4.51700 26.04300 19.84800
H  -2.61000 29.67300 24.23500
H  -1.26200 29.90500 25.45700
H  -2.76200 30.71000 25.58400
H  -3.71200 28.65400 30.71600
H  -1.28000 27.21200 33.43100
H  -0.77800 28.90200 33.72300
H  0.06100 27.93300 32.49800

