158

Mg 30.34700 59.69200 40.05500
C  27.61000 57.88500 38.65500
C  32.36100 56.88200 39.34100
C  33.10400 61.57400 40.63600
C  28.30300 62.48200 40.14300
N  29.99200 57.77300 38.91100
C  28.81500 57.25800 38.51500
C  29.03200 55.89400 37.90100
C  30.33700 55.46700 38.64000
C  30.96500 56.78900 38.96100
C  30.21900 54.62100 39.94300
C  29.15300 55.93900 36.36400
C  28.14100 55.03600 35.57400
H  27.28200 55.91900 34.69100
N  32.43300 59.29100 40.00700
C  33.05300 58.08400 39.78000
C  34.46300 58.31400 39.95300
C  34.65300 59.60900 40.33400
C  33.37700 60.19100 40.37900
C  35.35800 57.11400 39.93600
C  35.96500 60.12100 40.76500
O  37.01000 59.47300 40.56400
C  36.18900 61.36200 41.49800
N  30.67000 61.74900 40.12100
C  31.89500 62.29600 40.48000
C  31.76100 63.80800 40.68700
C  30.24500 64.07200 40.44800
C  29.69700 62.65200 40.27800
C  32.32800 64.44100 42.04500
C  30.00000 65.00400 39.25100
C  29.51300 66.43100 39.51200
N  28.28800 60.05900 39.67700
C  27.62300 61.23400 39.87800
C  26.14700 61.02000 39.52600
C  26.10100 59.68600 39.07100
C  27.44200 59.20500 39.12900
C  25.01400 61.95700 39.65000
C  25.19800 58.67500 38.65500
O  23.98600 58.65000 38.52300
C  26.09700 57.43800 38.37400
C  25.67800 56.27800 39.24300
O  26.34600 55.97500 40.17700
O  24.49800 55.70100 38.78200
C  23.82500 54.80900 39.68000
H  32.91500 55.94900 39.21400
H  33.91500 62.20200 41.01200
H  27.69000 63.38300 40.07300
H  28.21300 55.27200 38.26500
H  30.94000 54.86900 37.95700
H  30.25700 53.54600 39.76900
H  29.23700 54.79900 40.38200
H  30.94100 54.88800 40.71500
H  30.10300 55.61500 35.93800
H  28.83200 56.95000 36.11400
H  27.64700 54.33100 36.24300
H  28.68100 54.31000 34.96600
H  35.01100 56.27400 39.33500
H  35.30600 56.80500 40.98000
H  36.40600 57.26400 39.67700
H  37.19400 61.44000 41.91200
H  35.54400 61.33800 42.37600
H  36.01300 62.25600 40.90000
H  32.41700 64.21900 39.91900
H  29.73800 64.40200 41.35400
H  31.49100 64.75500 42.66900
H  32.91200 65.32800 41.79800
H  32.94400 63.77500 42.64900
H  29.15600 64.51300 38.76600
H  30.85100 65.04500 38.57200
H  28.57400 66.78300 39.08300
H  30.31800 67.08800 39.18400
H  29.34300 66.36500 40.58700
H  24.79600 62.31300 38.64300
H  25.26400 62.85800 40.21000
H  24.17400 61.44700 40.12300
H  25.84700 57.13400 37.35800
H  23.40000 54.14500 38.92600
H  23.09200 55.36300 40.26600
H  24.51300 54.28500 40.34300
Mg -1.67400 34.37500 26.09800
C  -2.59000 32.49100 29.00100
C  0.26000 36.26500 28.14200
C  -1.23100 36.31800 23.53900
C  -3.35000 32.01000 24.14000
N  -1.21800 34.29600 28.32700
C  -1.64800 33.42800 29.35000
C  -1.18700 33.84900 30.71200
C  -0.28700 35.13800 30.40500
C  -0.44300 35.27300 28.88500
C  -0.58200 36.43500 31.22700
C  -0.49300 32.69400 31.55600
C  -1.01600 32.32900 32.92700
H  0.11000 32.38400 34.02200
N  -0.63100 36.11800 25.87600
C  0.25900 36.66100 26.73200
C  0.89700 37.86300 26.15400
C  0.31900 37.96900 24.82700
C  -0.53400 36.77400 24.70200
C  1.95700 38.65600 26.96300
C  0.50700 39.10300 23.78000
O  -0.08500 39.15300 22.70400
C  1.56600 40.10400 24.10700
N  -2.29500 34.29400 24.18600
C  -1.95000 35.19100 23.22600
C  -2.42400 34.77400 21.82900
C  -2.71900 33.26700 22.03200
C  -2.78200 33.18300 23.54900
C  -3.76500 35.60300 21.47200
C  -1.65300 32.29400 21.43500
C  -0.30600 32.26700 22.18800
N  -2.89100 32.75200 26.43100
C  -3.47600 31.85600 25.53400
C  -4.19700 30.89700 26.29200
C  -3.95800 31.12600 27.63300
C  -3.16200 32.26100 27.70000
C  -4.97100 29.74700 25.64300
C  -4.16100 30.58100 28.96800
O  -4.87800 29.63500 29.30400
C  -3.27600 31.46400 29.91600
C  -4.17900 31.94100 31.08500
O  -4.82100 32.98400 31.07000
O  -4.17200 31.04600 32.10100
C  -4.80200 31.52300 33.39000
H  0.84800 36.94100 28.76600
H  -1.13500 37.01100 22.70000
H  -3.70800 31.24700 23.44600
H  -1.96400 34.26600 31.35300
H  0.69300 34.79900 30.73900
H  -0.99500 37.24600 30.62600
H  0.37100 36.76200 31.64300
H  -1.30000 36.29200 32.03500
H  0.57900 32.88500 31.61800
H  -0.48900 31.74900 31.01300
H  -1.53500 31.37100 32.91800
H  -1.70300 33.09500 33.28600
H  1.58500 39.67200 27.10000
H  2.95500 38.71700 26.52700
H  2.10300 38.22500 27.95300
H  1.67800 40.88200 23.35200
H  2.47400 39.50200 24.10800
H  1.18000 40.53700 25.03000
H  -1.61800 34.89100 21.10500
H  -3.72700 32.93400 21.78600
H  -4.44800 34.91700 20.97000
H  -3.52300 36.45100 20.83100
H  -4.21300 35.91200 22.41700
H  -1.51500 32.74300 20.45200
H  -1.96300 31.24900 21.40700
H  0.47500 32.45500 21.45000
H  -0.14100 31.27400 22.60700
H  -0.18600 32.94000 23.03700
H  -6.00400 30.07800 25.53700
H  -4.81700 28.86000 26.25700
H  -4.72700 29.52700 24.60300
H  -2.63100 30.76900 30.45200
H  -5.51800 32.34000 33.29200
H  -4.04600 31.97300 34.03300
H  -5.46300 30.80500 33.87500

