158

Mg 45.03800 5.38300 47.89400
C  43.17600 8.32700 47.28900
C  42.23500 3.58800 46.72700
C  46.93800 2.61700 47.64100
C  47.84700 7.40700 48.28400
N  42.94700 5.92300 47.22300
C  42.48300 7.17100 46.98600
C  41.03200 7.09000 46.42300
C  40.63400 5.57200 46.50600
C  42.04000 4.98900 46.84200
C  39.55700 5.25000 47.58800
C  41.04400 7.50900 44.94700
C  40.12200 8.66900 44.61000
H  39.20700 8.37600 43.37300
N  44.64300 3.31000 47.39200
C  43.39300 2.81500 46.95500
C  43.53900 1.42700 46.82900
C  44.92200 1.05300 47.00500
C  45.59300 2.31100 47.34300
C  42.40400 0.44400 46.43800
C  45.48600 -0.31100 46.65400
O  44.69900 -1.22500 46.30700
C  46.96500 -0.67300 46.67700
N  47.09100 5.06600 48.08700
C  47.62100 3.76100 48.00600
C  49.13500 3.79500 48.23900
C  49.48700 5.33800 48.11800
C  48.11900 6.00000 48.23800
C  49.55000 3.13400 49.59400
C  50.18800 5.75300 46.78100
C  51.59400 6.27500 46.86300
N  45.32700 7.48000 48.16400
C  46.61100 8.09800 48.18200
C  46.37700 9.48900 48.06900
C  45.06100 9.64200 47.65500
C  44.54100 8.35100 47.69400
C  47.38200 10.57900 48.19000
C  44.04000 10.68000 47.23100
O  44.16100 11.89900 47.01500
C  42.68000 9.73300 47.17900
C  41.63700 10.06800 48.16900
O  41.41000 9.44200 49.18300
O  40.79800 10.99900 47.69400
C  39.59100 11.27400 48.54000
H  41.36600 3.11500 46.26500
H  47.48100 1.67400 47.73300
H  48.68200 8.11000 48.27500
H  40.35200 7.65800 47.05600
H  40.20900 5.28500 45.54400
H  39.12800 6.13400 48.06100
H  39.93600 4.89800 48.54700
H  38.66200 4.78700 47.17200
H  40.70400 6.75800 44.23300
H  42.08100 7.75000 44.71200
H  40.75800 9.53700 44.43600
H  39.54500 9.00800 45.47000
H  42.29600 -0.32700 47.20100
H  42.57300 0.02000 45.44900
H  41.48300 1.02600 46.39600
H  47.53000 -0.04600 45.98600
H  47.10100 -1.73100 46.45500
H  47.41900 -0.43400 47.63800
H  49.67900 3.23300 47.48000
H  50.11100 5.64800 48.95600
H  48.61700 3.04700 50.15000
H  50.33600 3.69600 50.09800
H  49.88800 2.11200 49.42400
H  49.52100 6.44200 46.26200
H  50.27100 4.83200 46.20500
H  51.52300 7.36000 46.78200
H  52.26100 5.87300 46.10100
H  52.02900 6.08000 47.84300
H  48.10100 10.58300 47.37100
H  48.00600 10.51300 49.08200
H  46.75100 11.45900 48.06500
H  42.25400 9.75200 46.17600
H  39.20200 12.27200 48.33800
H  39.67100 11.01600 49.59600
H  38.77000 10.62700 48.23100
Mg -10.97800 38.51700 41.84700
C  -8.77200 35.83600 41.04700
C  -8.63300 40.65100 40.29700
C  -13.13600 40.90200 42.15700
C  -13.36100 36.07400 43.08600
N  -8.90100 38.25300 40.75300
C  -8.29500 37.04700 40.48600
C  -7.03100 37.22800 39.65600
C  -6.93900 38.78800 39.59600
C  -8.21700 39.31500 40.29600
C  -5.61900 39.35400 40.08300
C  -7.01700 36.45000 38.32000
C  -5.76500 35.61300 37.97400
H  -5.13800 35.85300 36.60400
N  -10.81300 40.56800 41.48500
C  -9.79000 41.27400 40.87200
C  -10.17400 42.68200 40.81400
C  -11.44100 42.78800 41.36700
C  -11.82600 41.43000 41.73400
C  -9.42400 43.71600 39.94200
C  -12.30000 44.05100 41.60200
O  -11.86600 45.12100 41.14600
C  -13.59200 44.13200 42.28800
N  -12.98100 38.50600 42.44700
C  -13.67900 39.66300 42.49700
C  -15.11600 39.41100 42.94100
C  -15.24200 37.86500 43.10000
C  -13.76800 37.44200 42.81400
C  -15.42900 40.12600 44.20600
C  -16.34400 37.08000 42.31000
C  -17.45100 36.38200 43.15800
N  -11.13700 36.31700 42.06000
C  -12.09600 35.52900 42.71100
C  -11.49400 34.19900 42.91800
C  -10.20800 34.24900 42.27900
C  -10.05100 35.57800 41.77700
C  -12.06500 33.07500 43.66000
C  -9.00300 33.50600 41.95100
O  -8.67000 32.36200 42.23800
C  -8.02400 34.52000 41.11200
C  -6.72600 34.56700 41.84500
O  -5.70100 34.03900 41.57900
O  -6.82100 35.42200 42.94600
C  -5.51800 35.84000 43.63000
H  -7.91500 41.31300 39.80900
H  -13.89500 41.68600 42.12800
H  -14.03500 35.38800 43.60300
H  -6.30900 36.83300 40.37000
H  -7.01100 39.17800 38.58100
H  -5.68500 39.91800 41.01300
H  -5.02500 40.02600 39.46400
H  -4.95000 38.49400 40.11300
H  -7.23300 37.13100 37.49700
H  -7.91700 35.83900 38.25100
H  -6.05100 34.56300 38.03600
H  -4.97000 35.85600 38.67900
H  -8.40900 43.34300 39.80800
H  -9.31400 44.61500 40.54800
H  -9.87400 44.14300 39.04500
H  -13.37700 43.63700 43.23600
H  -14.31800 43.60400 41.67000
H  -13.98000 45.14600 42.38200
H  -15.82600 39.75400 42.18800
H  -15.54600 37.73500 44.13900
H  -14.46400 40.19100 44.70900
H  -16.08800 39.54700 44.85300
H  -15.90900 41.08300 44.00400
H  -15.89400 36.32200 41.66800
H  -16.94500 37.78100 41.73100
H  -17.71300 35.46600 42.62900
H  -18.34300 37.00200 43.24400
H  -17.10100 36.06700 44.14100
H  -11.58500 32.12500 43.42300
H  -13.14900 33.16900 43.60300
H  -11.84200 33.32000 44.69800
H  -7.90300 34.07200 40.12600
H  -5.73500 36.29400 44.59700
H  -4.98800 36.57700 43.02700
H  -4.88100 34.96600 43.76600

