158

Mg 24.91500 -4.88600 45.11700
C  26.96200 -2.36500 43.85600
C  22.30800 -3.63300 43.13200
C  23.21100 -7.65900 45.63400
C  27.64000 -6.15700 46.96400
N  24.69500 -3.30300 43.62000
C  25.71300 -2.38000 43.31100
C  25.20200 -1.40600 42.21300
C  23.68300 -1.62200 42.28700
C  23.51800 -2.91900 43.04500
C  22.91900 -0.30900 42.76800
C  25.60700 -1.83800 40.72300
C  25.78000 -0.71100 39.77500
H  25.18900 -0.81000 38.34800
N  22.99000 -5.50200 44.55900
C  22.11000 -4.85600 43.79400
C  20.93200 -5.65600 43.59500
C  21.06900 -6.80700 44.35000
C  22.46100 -6.69700 44.90500
C  19.75400 -5.11100 42.87900
C  19.94800 -7.78300 44.65100
O  18.84000 -7.71100 44.16400
C  20.20700 -8.83500 45.60200
N  25.43100 -6.69700 46.11500
C  24.47100 -7.71400 46.26000
C  24.95100 -8.82600 47.25100
C  26.42100 -8.29600 47.65500
C  26.53900 -7.01300 46.85500
C  24.12500 -9.15800 48.50400
C  27.51700 -9.23900 47.06100
C  28.22300 -10.26200 47.97400
N  26.88000 -4.37200 45.46400
C  27.88600 -4.97400 46.23900
C  29.08400 -4.12300 46.15300
C  28.74500 -3.13500 45.24000
C  27.41900 -3.34200 44.83700
C  30.40300 -4.27600 46.84200
C  29.24100 -1.95300 44.64600
O  30.34800 -1.43100 44.80500
C  28.15900 -1.49100 43.61900
C  27.96200 -0.05200 43.65500
O  27.18100 0.58300 44.34900
O  28.78300 0.53400 42.75000
C  29.03700 1.88400 42.93000
H  21.43300 -3.16600 42.67500
H  22.70700 -8.61900 45.76900
H  28.53800 -6.50700 47.47600
H  25.44800 -0.36500 42.42100
H  23.21000 -1.74300 41.31300
H  22.42300 0.23800 41.96600
H  23.61400 0.43400 43.15900
H  22.24000 -0.50800 43.59600
H  24.91100 -2.56600 40.30600
H  26.50100 -2.45200 40.83900
H  26.80800 -0.35000 39.74100
H  25.25700 0.09300 40.29300
H  20.13600 -4.97300 41.86700
H  19.44000 -4.13600 43.25000
H  18.98600 -5.88100 42.81400
H  20.47600 -8.36600 46.54900
H  20.93500 -9.48200 45.11400
H  19.28500 -9.39400 45.75900
H  24.98600 -9.70200 46.60300
H  26.58300 -8.05200 48.70500
H  23.70500 -10.15800 48.60500
H  23.29900 -8.47700 48.29900
H  24.51800 -8.79700 49.45500
H  28.33900 -8.68900 46.60300
H  27.12200 -9.80000 46.21500
H  27.87400 -10.20700 49.00500
H  29.28000 -10.00300 47.91900
H  27.99100 -11.29200 47.69900
H  30.73000 -5.27200 46.54300
H  30.29200 -4.24500 47.92600
H  31.11000 -3.56900 46.40900
H  28.48800 -1.81600 42.63200
H  30.08700 2.02300 43.18600
H  28.40500 2.43100 43.63000
H  28.90100 2.25100 41.91300
Mg -5.71300 25.61900 26.16300
C  -4.78800 27.20800 29.22400
C  -7.67800 23.61900 27.96600
C  -6.44700 24.11000 23.37600
C  -3.35400 27.64000 24.55300
N  -6.11200 25.45200 28.29900
C  -5.69100 26.17800 29.37600
C  -6.37400 25.73900 30.65900
C  -7.05600 24.34300 30.32600
C  -6.92600 24.40700 28.71900
C  -6.41600 23.12300 30.93600
C  -7.35800 26.68700 31.34700
C  -7.09800 26.97800 32.84200
H  -6.49000 25.92200 33.74900
N  -6.90700 24.05300 25.71300
C  -7.76300 23.43200 26.58400
C  -8.74400 22.56100 25.87900
C  -8.28100 22.68700 24.53900
C  -7.17400 23.63200 24.48200
C  -10.06400 21.96500 26.42500
C  -8.81500 21.99800 23.31700
O  -8.36700 22.23800 22.16900
C  -10.06500 21.13400 23.40300
N  -4.92400 25.79400 24.30200
C  -5.42600 25.08800 23.26700
C  -4.68200 25.30600 21.96900
C  -3.58200 26.43700 22.30000
C  -3.92100 26.63000 23.83600
C  -4.12000 24.03600 21.37600
C  -3.79600 27.69700 21.34800
C  -3.13300 27.46900 19.96900
N  -4.32900 27.14000 26.64600
C  -3.44400 27.94100 25.88900
C  -2.92700 28.97500 26.73900
C  -3.39200 28.77300 28.08300
C  -4.23600 27.61900 28.02000
C  -1.98000 30.12400 26.30100
C  -3.29000 29.14200 29.51500
O  -2.54800 29.99300 30.02400
C  -4.25800 28.25500 30.26300
C  -3.41200 27.65800 31.37400
O  -2.48300 26.87000 31.19200
O  -3.85100 28.10900 32.60000
C  -2.91700 27.75700 33.68400
H  -8.33500 22.92800 28.49800
H  -6.63400 23.74400 22.36400
H  -2.67100 28.38900 24.14700
H  -5.55800 25.69100 31.38000
H  -8.10000 24.22000 30.61300
H  -6.28700 22.46800 30.07400
H  -7.13100 22.80100 31.69300
H  -5.42700 23.26100 31.37300
H  -8.36700 26.28900 31.23700
H  -7.27900 27.56500 30.70600
H  -8.04200 27.27800 33.29800
H  -6.43700 27.83300 32.98300
H  -10.96900 22.35400 25.95800
H  -10.31900 22.21400 27.45500
H  -9.99700 20.87800 26.44800
H  -9.82400 20.43700 24.20600
H  -10.21600 20.64500 22.44100
H  -11.02600 21.52500 23.73500
H  -5.43400 25.84200 21.39000
H  -2.61600 25.93400 22.25000
H  -3.07400 24.26000 21.16400
H  -4.61600 23.74400 20.45000
H  -4.19500 23.19100 22.05900
H  -3.44300 28.57600 21.88600
H  -4.86000 27.89200 21.21500
H  -3.36500 28.38800 19.43000
H  -3.69600 26.64000 19.54200
H  -2.04900 27.37500 19.89800
H  -2.12600 30.32100 25.23900
H  -1.00000 29.65000 26.34900
H  -2.02700 30.99700 26.95200
H  -5.06000 28.91600 30.59400
H  -2.39900 26.80000 33.62000
H  -3.45300 27.91500 34.62000
H  -2.12500 28.50500 33.66000

