158

Mg 0.86100 9.24900 27.06400
C  1.46800 11.27100 29.89300
C  1.18600 6.50500 29.22900
C  0.44800 7.36100 24.55300
C  1.09800 12.22200 25.09100
N  1.35600 8.98400 29.25100
C  1.44400 9.91400 30.25900
C  1.29600 9.40100 31.64800
C  1.49600 7.83600 31.40700
C  1.23100 7.72900 29.90400
C  2.82400 7.30500 31.87200
C  -0.10300 9.85100 32.23400
C  -0.41800 9.25900 33.67700
H  0.74200 8.69800 34.55900
N  0.84000 7.28500 26.86800
C  1.04300 6.28600 27.86600
C  0.84100 4.96000 27.26400
C  0.49400 5.20900 25.90400
C  0.55200 6.62900 25.72700
C  0.96400 3.67000 28.00900
C  -0.03800 4.26500 24.74100
O  -0.37100 4.66800 23.60700
C  -0.15000 2.75300 24.86300
N  0.71100 9.81800 25.15400
C  0.55200 8.80400 24.27100
C  0.65800 9.31500 22.75000
C  0.42900 10.86400 23.04800
C  0.75100 10.99300 24.54100
C  2.00700 9.02700 22.14700
C  -0.98700 11.36100 22.81400
C  -1.16200 11.89100 21.35100
N  1.20400 11.38500 27.35000
C  1.27300 12.42900 26.49700
C  1.48000 13.64400 27.24300
C  1.67000 13.25000 28.58800
C  1.34800 11.85200 28.58800
C  1.57600 15.02800 26.63600
C  1.97600 13.56500 29.93800
O  2.47600 14.60000 30.34800
C  1.73700 12.42800 30.81800
C  2.85400 12.18600 31.81400
O  3.96600 11.83100 31.45200
O  2.48700 12.52700 33.10500
C  3.40700 12.33500 34.18500
H  1.22700 5.58000 29.80800
H  0.33700 6.84100 23.59900
H  1.26600 13.02800 24.37300
H  2.04100 9.82100 32.32400
H  0.69700 7.28000 31.89800
H  3.25900 6.83100 30.99200
H  2.83100 6.56700 32.67400
H  3.41200 8.16300 32.19800
H  -0.92400 9.36400 31.70800
H  -0.19800 10.93500 32.30000
H  -1.05100 8.39600 33.46700
H  -0.89600 10.02100 34.29200
H  -0.02500 3.29100 28.26600
H  1.62100 3.76500 28.87500
H  1.53000 3.03000 27.33200
H  0.18500 2.26900 25.78000
H  0.41100 2.27700 24.05800
H  -1.21800 2.61800 24.69200
H  -0.12400 8.93000 22.09700
H  1.20400 11.47500 22.58500
H  2.58200 8.55500 22.94400
H  2.51600 9.92400 21.79400
H  1.80300 8.32300 21.34000
H  -1.17700 12.22900 23.44500
H  -1.76000 10.60500 22.95000
H  -0.30300 11.55000 20.77300
H  -1.16800 12.97900 21.29100
H  -2.07700 11.41600 20.99600
H  2.56600 15.26600 26.24800
H  1.14500 15.74300 27.33700
H  0.99900 15.04700 25.71200
H  0.85900 12.66000 31.42200
H  3.66200 13.37500 34.39300
H  4.23000 11.69700 33.86400
H  2.98000 11.86900 35.07300
Mg -0.08800 44.01200 26.01400
C  1.79900 43.30700 28.88100
C  -2.96500 43.77100 27.98400
C  -1.86200 43.96800 23.15400
C  2.84300 44.22100 24.28500
N  -0.53900 43.42400 28.12800
C  0.38700 43.25100 29.11800
C  -0.24200 43.21400 30.49100
C  -1.75200 43.09000 30.05800
C  -1.74500 43.51800 28.65200
C  -2.24500 41.65500 30.15800
C  0.03100 44.60900 31.25400
C  0.44900 44.63400 32.75100
H  -0.01200 43.56900 33.68000
N  -2.17200 43.84600 25.64100
C  -3.15300 43.80700 26.59000
C  -4.39000 43.78200 25.82700
C  -4.11100 43.71000 24.43400
C  -2.64800 43.86300 24.39300
C  -5.66500 43.90400 26.51200
C  -5.06400 43.64900 23.26600
O  -4.76000 43.60700 22.07500
C  -6.51900 43.43300 23.53800
N  0.47600 44.05400 24.05600
C  -0.43600 44.04400 23.03200
C  0.28000 44.05500 21.62200
C  1.69700 44.55600 22.05000
C  1.71800 44.27300 23.56300
C  0.33900 42.62100 20.95100
C  1.97900 46.06100 21.80200
C  0.81100 47.00900 22.00000
N  1.94700 43.87200 26.50700
C  3.01300 43.99800 25.64800
C  4.25200 44.05300 26.35900
C  3.84500 43.63200 27.66000
C  2.44100 43.58900 27.71400
C  5.66600 44.34500 25.79300
C  4.32500 43.39200 28.99400
O  5.46500 43.42400 29.53900
C  2.98000 43.28700 29.87300
C  3.08900 41.98100 30.73900
O  2.89500 40.79500 30.42000
O  3.47700 42.31800 32.03900
C  3.84300 41.33100 33.03800
H  -3.78000 43.49400 28.65500
H  -2.39800 43.93900 22.20300
H  3.82700 44.19100 23.81200
H  0.13500 42.35200 31.04100
H  -2.46700 43.70900 30.59900
H  -2.92000 41.61700 31.01400
H  -1.41300 40.96900 30.31700
H  -2.77200 41.16600 29.33900
H  -0.90600 45.16200 31.19000
H  0.69000 45.15000 30.57500
H  0.11100 45.57100 33.19400
H  1.53200 44.52300 32.80700
H  -6.00900 44.93700 26.46600
H  -5.56600 43.56500 27.54300
H  -6.43700 43.29700 26.03800
H  -6.63500 42.51700 24.11700
H  -7.03700 43.32200 22.58600
H  -6.94000 44.29800 24.05000
H  -0.19600 44.71800 20.89900
H  2.52200 44.09900 21.50400
H  0.73400 41.91300 21.67900
H  1.06700 42.65900 20.14100
H  -0.58900 42.13300 20.65300
H  2.20000 46.16600 20.73900
H  2.84600 46.26300 22.43100
H  0.26400 47.19900 21.07600
H  1.23300 47.89900 22.46700
H  0.17400 46.53800 22.74800
H  6.29700 44.51400 26.66600
H  5.62800 45.24900 25.18600
H  5.92100 43.42500 25.26700
H  2.95800 44.14400 30.54600
H  4.24300 40.41000 32.61400
H  2.98800 41.11100 33.67700
H  4.70200 41.59500 33.65500

