158

Mg 1.19400 43.09100 25.11900
C  3.03800 43.13900 28.12900
C  -1.66300 42.19500 27.20000
C  -0.47400 42.41600 22.38300
C  4.24900 43.41800 23.33500
N  0.79500 42.74100 27.36800
C  1.68400 42.98200 28.34900
C  1.01900 42.94800 29.76200
C  -0.47400 42.46900 29.47500
C  -0.47900 42.48100 27.96300
C  -0.77600 41.05200 30.14700
C  1.18200 44.34200 30.58700
C  1.37500 44.21700 32.16100
H  1.05700 42.99100 32.91100
N  -0.79900 42.50700 24.78900
C  -1.75200 42.06000 25.75300
C  -2.93900 41.59900 25.05500
C  -2.53900 41.60400 23.63500
C  -1.26900 42.24900 23.53500
C  -4.22300 41.23600 25.69200
C  -3.44000 41.15400 22.39800
O  -3.10800 41.37900 21.24100
C  -4.69700 40.39600 22.65100
N  1.81300 42.97800 23.14200
C  0.87500 42.75600 22.14200
C  1.59000 42.77500 20.80100
C  3.07000 43.20700 21.11000
C  3.07100 43.26300 22.64000
C  1.44700 41.35300 20.10800
C  3.51400 44.58400 20.52500
C  3.77500 44.66500 19.07500
N  3.19800 43.41800 25.59400
C  4.30700 43.50700 24.77200
C  5.53200 43.64800 25.57700
C  5.07400 43.43700 26.91600
C  3.68300 43.31500 26.89500
C  6.95500 43.81200 25.06600
C  5.44000 43.27400 28.30400
O  6.54400 43.13700 28.84600
C  4.13600 43.13800 29.09600
C  4.33000 41.97500 29.97600
O  4.11800 40.82800 29.70700
O  4.85800 42.38100 31.11600
C  5.46000 41.35800 32.00500
H  -2.52900 41.96100 27.82200
H  -0.87300 42.02700 21.44400
H  5.13500 43.51600 22.70400
H  1.63600 42.23500 30.30800
H  -1.18100 43.22900 29.80800
H  -0.99200 40.38900 29.31000
H  -1.59900 41.18700 30.85000
H  0.03200 40.72400 30.80100
H  0.18600 44.78100 30.52700
H  1.90800 44.99500 30.10400
H  0.64700 44.96200 32.48500
H  2.37000 44.58300 32.41200
H  -4.27100 41.66000 26.69500
H  -4.45300 40.17100 25.72400
H  -5.04600 41.69800 25.14700
H  -4.85800 39.65900 21.86400
H  -5.54500 41.03400 22.89900
H  -4.52300 39.70800 23.47900
H  1.12800 43.52000 20.15300
H  3.72600 42.37700 20.84800
H  2.38500 41.00600 19.67500
H  0.76400 41.54700 19.28000
H  1.08600 40.70300 20.90500
H  4.29600 44.98600 21.16900
H  2.67400 45.26700 20.65100
H  3.03700 45.25800 18.53500
H  3.80000 43.68100 18.60700
H  4.69800 45.20900 18.87500
H  7.59900 44.37800 25.73800
H  6.92000 44.42200 24.16300
H  7.44200 42.88400 24.76600
H  4.09500 44.06600 29.66500
H  6.39200 41.76900 32.39300
H  5.93700 40.57900 31.40900
H  4.89600 41.14700 32.91400
Mg -11.87800 16.69600 41.14700
C  -8.73500 15.07300 40.78700
C  -10.31900 19.61900 40.05900
C  -14.76700 17.82600 40.18000
C  -13.24700 13.49200 41.75400
N  -9.74600 17.25000 40.61400
C  -8.66600 16.45400 40.52800
C  -7.39700 17.35000 40.30700
C  -7.85700 18.85100 40.52000
C  -9.44900 18.56300 40.41400
C  -7.45800 19.56700 41.85500
C  -6.97600 17.13900 38.81100
C  -5.51600 16.59800 38.69100
H  -4.64700 17.09100 37.52300
N  -12.42600 18.62700 40.44500
C  -11.70300 19.65600 39.95700
C  -12.49400 20.72100 39.51000
C  -13.79100 20.13200 39.33200
C  -13.69100 18.78300 39.98000
C  -12.10100 22.15100 39.02300
C  -15.00900 20.69900 38.60200
O  -14.98100 21.89300 38.26000
C  -16.33200 19.94600 38.23900
N  -13.81900 15.76500 41.09900
C  -14.83000 16.51700 40.72300
C  -16.09600 15.60500 40.87100
C  -15.63500 14.17000 41.31800
C  -14.14200 14.43700 41.44300
C  -17.15900 16.35800 41.74200
C  -15.96500 12.98200 40.39900
C  -16.51800 11.69500 41.08600
N  -11.19800 14.70400 41.33900
C  -11.85900 13.56300 41.65200
C  -10.97900 12.43200 41.72900
C  -9.73700 13.02300 41.36600
C  -9.90600 14.38800 41.11800
C  -11.29400 11.00700 42.22800
C  -8.29200 12.68800 41.07700
O  -7.68800 11.59800 41.13300
C  -7.62300 14.05700 40.66800
C  -6.72500 14.31300 41.84000
O  -7.00000 14.32500 43.05500
O  -5.48200 14.44900 41.30800
C  -4.49500 15.16500 42.04800
H  -9.90000 20.58000 39.75300
H  -15.73900 18.28100 39.97800
H  -13.63500 12.47200 41.72200
H  -6.64800 17.19100 41.08300
H  -7.51900 19.44700 39.67200
H  -6.91000 18.84000 42.45400
H  -8.33700 19.86400 42.42700
H  -6.80800 20.42400 41.68000
H  -7.04000 18.04300 38.20600
H  -7.53200 16.39700 38.23900
H  -5.57400 15.51300 38.60400
H  -5.06100 16.89800 39.63500
H  -12.45200 22.22000 37.99300
H  -11.01200 22.15600 39.00200
H  -12.41400 22.89400 39.75700
H  -16.88600 20.56200 37.53100
H  -16.96100 19.74500 39.10600
H  -16.13100 19.01100 37.71500
H  -16.63800 15.46200 39.93600
H  -15.94900 13.85800 42.31400
H  -16.79000 17.29400 42.16200
H  -17.54200 15.65000 42.47700
H  -17.99900 16.54100 41.07300
H  -15.03400 12.68600 39.91600
H  -16.72200 13.17400 39.63800
H  -15.71500 10.97100 41.22300
H  -17.14800 11.13500 40.39500
H  -16.93400 11.85100 42.08200
H  -11.99000 10.56000 41.51800
H  -11.76200 11.05300 43.21100
H  -10.38300 10.41000 42.20200
H  -7.11600 14.01200 39.70500
H  -4.23300 16.03800 41.45100
H  -3.62600 14.50700 42.08000
H  -4.90800 15.40000 43.02900

