158

Mg 40.27000 9.56500 29.19100
C  42.13800 10.43800 32.09600
C  37.80800 7.93100 31.26400
C  38.77600 8.27900 26.46300
C  42.91300 10.68600 27.32600
N  40.10200 9.18400 31.40100
C  40.89100 9.79500 32.32900
C  40.26300 9.54600 33.72800
C  38.95200 8.58900 33.44100
C  38.94600 8.60200 31.92400
C  38.90300 7.28000 34.27700
C  39.87900 10.92300 34.43200
C  39.04100 10.69800 35.68200
H  39.35300 11.63200 36.83900
N  38.58200 8.31000 28.89600
C  37.76400 7.71300 29.83700
C  36.70600 7.01000 29.21500
C  36.82400 7.18600 27.75700
C  38.05900 8.03400 27.67300
C  35.70000 6.19100 30.06000
C  35.95000 6.76600 26.58000
O  36.14900 7.01400 25.37000
C  34.68900 6.08500 26.92500
N  40.79100 9.47800 27.19600
C  39.97000 8.95100 26.25200
C  40.60900 9.05500 24.78400
C  41.92600 9.87000 25.05700
C  41.84300 10.03800 26.62700
C  40.87300 7.66200 24.12800
C  42.15100 11.18100 24.23600
C  41.23200 12.34400 24.68500
N  42.09500 10.52700 29.56400
C  43.08100 10.92100 28.72300
C  44.26300 11.38800 29.41500
C  43.97700 11.29300 30.76600
C  42.60600 10.72800 30.83400
C  45.43100 12.12400 28.67900
C  44.32300 11.66100 32.12600
O  45.25700 12.26000 32.59900
C  43.13100 11.12100 33.00600
C  43.71500 10.27200 34.05600
O  44.48700 9.34300 33.83600
O  43.34300 10.76800 35.31000
C  43.97000 10.16400 36.48600
H  37.00200 7.62900 31.93600
H  38.22600 7.95600 25.57700
H  43.83600 11.00500 26.83700
H  40.97300 8.92900 34.27900
H  38.06700 9.13500 33.76700
H  38.89400 6.37600 33.66800
H  38.06600 7.16300 34.96600
H  39.68200 7.17900 35.03300
H  39.36500 11.40200 33.59800
H  40.70900 11.53000 34.79300
H  39.21000 9.69900 36.08500
H  37.98800 10.85000 35.44400
H  36.10800 6.01700 31.05600
H  35.55500 5.23700 29.55500
H  34.73700 6.65000 30.28500
H  34.80700 5.34700 27.71800
H  34.30500 5.62600 26.01400
H  34.01500 6.87200 27.26500
H  39.88900 9.56200 24.14200
H  42.87900 9.35400 24.93900
H  40.31300 6.85900 24.60700
H  41.94600 7.46800 24.10700
H  40.69100 7.75500 23.05800
H  42.10000 11.13800 23.14800
H  43.19100 11.36400 24.50500
H  41.78500 13.28300 24.68200
H  40.70400 12.09500 25.60600
H  40.51800 12.32500 23.86200
H  45.78600 11.44800 27.90200
H  46.23100 12.40200 29.36600
H  45.04100 13.04100 28.23700
H  42.79500 12.07600 33.40800
H  45.05500 10.22600 36.39900
H  43.62400 9.13800 36.61000
H  43.80000 10.74100 37.39500
Mg 29.36700 58.89400 41.26000
C  26.76300 56.91000 39.99600
C  31.56700 56.86600 39.84100
C  31.65800 61.37600 41.66200
C  26.83600 61.18700 42.38200
N  29.15000 57.17600 39.88600
C  28.05600 56.48100 39.62100
C  28.34000 55.34400 38.64300
C  29.87500 55.16300 38.85300
C  30.24400 56.45800 39.63200
C  30.25800 53.79500 39.67600
C  27.85300 55.77800 37.25700
C  26.99800 54.77100 36.45500
H  27.34400 54.50100 34.99000
N  31.32700 59.12100 40.73700
C  32.10600 58.13500 40.26700
C  33.46600 58.53500 40.22600
C  33.57300 59.85300 40.82100
C  32.17700 60.16300 41.12800
C  34.55000 57.75200 39.40700
C  34.77700 60.72500 41.07100
O  35.92600 60.31200 40.78200
C  34.68300 62.05700 41.60500
N  29.27200 60.96800 42.00600
C  30.36300 61.76000 42.08800
C  29.94000 63.12800 42.56300
C  28.45700 63.06700 42.82000
C  28.16600 61.67900 42.32600
C  30.70300 63.77100 43.65000
C  27.59400 64.24100 42.14400
C  26.54300 64.70600 43.15200
N  27.20000 58.92800 41.41900
C  26.34100 59.91300 41.91100
C  25.01900 59.41500 41.74500
C  25.09000 58.26500 41.02600
C  26.47700 58.08600 40.76600
C  23.68100 60.08800 42.17200
C  24.40200 57.16700 40.44100
O  23.23200 56.94900 40.46300
C  25.42000 56.27400 39.68900
C  25.26600 54.98600 40.27100
O  25.79300 54.63300 41.35400
O  24.60500 54.16500 39.36300
C  24.85700 52.71100 39.52700
H  32.22700 56.04600 39.55000
H  32.28700 62.25400 41.82200
H  26.08200 61.86300 42.79100
H  27.88100 54.44400 39.05300
H  30.34900 55.17500 37.87200
H  29.35400 53.29800 40.02700
H  30.77000 54.00000 40.61700
H  30.77700 53.09300 39.02300
H  28.72100 55.95200 36.62200
H  27.29400 56.69000 37.46400
H  25.98400 55.16900 36.46900
H  26.87500 53.83700 37.00400
H  34.63600 56.74500 39.81500
H  35.56700 58.14600 39.39700
H  34.26200 57.64600 38.36100
H  34.22900 62.74600 40.89400
H  35.72400 62.38000 41.64500
H  34.26100 62.08300 42.60900
H  30.01400 63.84000 41.74100
H  28.25600 63.01900 43.89100
H  31.69300 63.33200 43.77100
H  30.25800 63.53400 44.61600
H  30.85600 64.84300 43.52900
H  27.03700 63.95100 41.25300
H  28.17600 65.13200 41.90600
H  25.57100 64.51100 42.70000
H  26.68600 65.78500 43.22100
H  26.58400 64.29500 44.16100
H  22.91000 59.36700 41.89900
H  23.53800 60.94000 41.50800
H  23.52500 60.44400 43.19000
H  25.19700 56.29700 38.62300
H  24.06700 52.25600 40.12400
H  25.69400 52.51500 40.19700
H  25.07400 52.11500 38.64000

