158

Mg 49.18200 46.96900 44.11400
C  46.15600 46.99500 42.28200
C  49.97600 44.10700 42.58300
C  52.34500 47.72500 44.99900
C  48.23000 50.28300 45.11400
N  48.06800 45.68700 42.79800
C  46.86600 45.83000 42.16600
C  46.40100 44.49200 41.44900
C  47.58200 43.55600 41.78700
C  48.59700 44.43400 42.51400
C  47.11100 42.34200 42.64300
C  46.31200 44.67700 39.91100
C  45.02300 44.12200 39.34800
H  45.27900 43.22500 38.09900
N  50.93000 45.99300 43.91700
C  51.05000 44.82100 43.17800
C  52.49600 44.50100 43.16000
C  53.18100 45.44200 43.91900
C  52.18700 46.42500 44.38900
C  53.09800 43.42300 42.18200
C  54.71800 45.33500 44.27800
O  55.46100 44.46400 43.81300
C  55.38800 46.34800 45.26700
N  50.12900 48.76800 44.97800
C  51.41200 48.72900 45.30900
C  51.68800 49.94100 46.15700
C  50.43900 50.88500 46.10500
C  49.50800 49.98300 45.37200
C  52.16000 49.59600 47.62300
C  50.71300 52.31600 45.39400
C  51.61500 53.28700 46.16800
N  47.55200 48.37200 43.86600
C  47.35700 49.57700 44.36000
C  46.06100 50.11300 43.91800
C  45.55600 49.14800 43.09300
C  46.48700 48.06900 43.10800
C  45.48900 51.43600 44.34900
C  44.41000 48.76600 42.24200
O  43.41100 49.43500 42.02800
C  44.72600 47.39100 41.63000
C  43.58900 46.42300 41.78800
O  43.39300 45.65000 42.71400
O  42.61400 46.51800 40.73700
C  41.53200 45.51100 40.87400
H  50.34600 43.21900 42.06600
H  53.41400 47.90500 45.13100
H  47.93400 51.27700 45.45400
H  45.43400 44.20000 41.85900
H  48.13400 43.13200 40.94900
H  47.54300 42.31000 43.64300
H  47.50800 41.47700 42.11200
H  46.04000 42.33000 42.84300
H  47.08700 44.09800 39.40900
H  46.48100 45.72100 39.65100
H  44.35600 44.91900 39.01800
H  44.47700 43.54100 40.09000
H  53.90900 42.85100 42.63100
H  53.55400 43.93600 41.33500
H  52.38100 42.62500 41.99100
H  55.56300 47.31700 44.79800
H  56.33900 45.95800 45.62900
H  54.71000 46.40200 46.11800
H  52.46100 50.52300 45.65600
H  50.08100 51.16300 47.09700
H  52.45600 48.62400 48.01600
H  51.26600 49.90500 48.16500
H  52.78300 50.43800 47.92600
H  49.77600 52.81600 45.15000
H  51.12600 52.06100 44.41800
H  51.11500 54.23900 46.34700
H  52.51000 53.61100 45.63700
H  51.83000 52.88700 47.15900
H  45.74700 51.76500 45.35500
H  44.40400 51.38400 44.26200
H  45.86200 52.25800 43.73800
H  44.91000 47.56300 40.57000
H  40.87200 45.78700 41.69600
H  41.90600 44.53300 41.17800
H  40.97800 45.32700 39.95300
Mg 49.03600 35.16200 27.11700
C  47.17000 33.66300 29.73300
C  49.34500 37.94300 29.06700
C  50.60700 36.56700 24.47600
C  48.54500 32.28800 25.27800
N  48.58700 35.64500 29.35700
C  47.79000 34.86900 30.16500
C  47.91300 35.50900 31.58000
C  48.30500 36.99400 31.25100
C  48.73000 36.91200 29.80200
C  47.09400 38.08600 31.35600
C  48.95000 34.70100 32.34700
C  49.02100 34.97200 33.92800
H  48.08400 35.97100 34.69900
N  49.89300 36.97600 26.82000
C  49.92900 37.94800 27.76300
C  50.79100 39.02500 27.18600
C  51.10100 38.74500 25.86600
C  50.58500 37.34600 25.65900
C  51.03700 40.23900 28.03200
C  51.88100 39.61100 24.79500
O  52.21300 39.14100 23.72700
C  52.16600 41.08600 24.95400
N  49.29900 34.63300 25.05800
C  50.09500 35.31000 24.20900
C  50.64900 34.46100 23.01900
C  49.90500 33.08200 23.25700
C  49.31200 33.28300 24.68800
C  50.41800 35.07500 21.60000
C  50.80400 31.80000 23.14200
C  50.58400 30.85900 22.01300
N  48.08700 33.32200 27.43400
C  48.03600 32.29400 26.58900
C  47.27600 31.23500 27.24200
C  46.86000 31.70700 28.53100
C  47.38500 32.97500 28.53000
C  46.98700 29.83300 26.63700
C  46.12000 31.49300 29.78400
O  45.49300 30.47500 30.02600
C  46.20200 32.74200 30.64200
C  46.44100 32.38500 32.06300
O  47.36400 31.80400 32.55300
O  45.30900 32.56000 32.72300
C  45.33100 32.61100 34.16400
H  49.31800 38.91400 29.56700
H  51.19200 37.00700 23.66600
H  48.45000 31.42500 24.61400
H  46.90300 35.48600 31.99100
H  49.18300 37.26700 31.83700
H  46.65500 38.24000 30.37000
H  47.54000 39.06700 31.51700
H  46.33900 37.74600 32.06500
H  49.95600 35.02000 32.07300
H  48.84300 33.64000 32.12400
H  50.04600 35.32100 34.05800
H  49.08500 33.96600 34.34100
H  51.76800 40.10900 28.83000
H  50.29400 40.51500 28.78000
H  51.12100 41.17600 27.48100
H  52.77900 41.31100 25.82700
H  51.24500 41.66700 24.99700
H  52.72400 41.47300 24.10000
H  51.73500 34.42200 23.10200
H  49.09100 32.92500 22.55000
H  51.37800 35.06400 21.08400
H  49.92500 36.04300 21.50900
H  49.74000 34.39700 21.08100
H  50.68300 31.17400 24.02600
H  51.82300 32.18700 23.12400
H  50.29900 29.89100 22.42600
H  51.54000 30.61100 21.55200
H  49.85200 31.21300 21.28700
H  46.13700 29.93200 25.96200
H  46.76700 29.11900 27.43100
H  47.88800 29.42700 26.17800
H  45.26000 33.28200 30.74300
H  46.21900 33.09000 34.57600
H  45.36200 31.64300 34.66400
H  44.46800 33.19400 34.48500

