158

Mg 9.43800 3.81600 27.71200
C  10.75800 2.26500 30.58100
C  7.77400 6.08200 29.77800
C  7.94700 5.11300 24.96000
C  10.62400 1.23300 25.86600
N  9.31800 4.10200 29.85900
C  9.96400 3.42400 30.93600
C  9.51600 3.98600 32.28800
C  8.60000 5.16700 31.90000
C  8.51900 5.09700 30.38800
C  7.17600 5.05700 32.55900
C  10.64900 4.36100 33.28400
C  10.49100 5.51000 34.27800
H  10.85200 5.16500 35.67100
N  8.09600 5.33100 27.42700
C  7.57100 6.21200 28.41900
C  6.89400 7.29400 27.71100
C  6.85800 6.98000 26.35300
C  7.67000 5.78700 26.16800
C  6.19600 8.50000 28.39800
C  6.26900 7.80500 25.22000
O  6.46900 7.41300 24.04500
C  5.52500 9.12600 25.46300
N  9.22500 3.20700 25.67800
C  8.57000 3.88500 24.78500
C  8.69000 3.13000 23.39600
C  9.63700 1.98200 23.65600
C  9.92600 2.18600 25.09100
C  7.30200 2.71800 22.81400
C  10.97300 2.06000 22.77300
C  10.90200 0.99400 21.61000
N  10.53100 2.20200 28.04200
C  10.93100 1.23000 27.19700
C  11.74200 0.26200 27.94800
C  11.68700 0.68400 29.28300
C  10.93500 1.81000 29.27000
C  12.24800 -1.00500 27.37900
C  12.08100 0.29100 30.60500
O  12.67100 -0.65000 31.00500
C  11.52900 1.37100 31.49100
C  10.83600 0.78000 32.58800
O  9.87200 0.02400 32.55000
O  11.52000 1.06500 33.75200
C  11.06700 0.42500 34.99300
H  7.26200 6.72500 30.49600
H  7.58900 5.37300 23.96200
H  10.85400 0.32600 25.30400
H  8.85200 3.24500 32.73300
H  9.02300 6.15300 32.09200
H  6.52500 4.37000 32.01800
H  6.66800 6.02100 32.54000
H  7.25200 4.66700 33.57300
H  11.61200 4.22200 32.79400
H  10.55800 3.46100 33.89200
H  9.43600 5.77300 34.36700
H  11.13000 6.31000 33.90400
H  5.13300 8.51500 28.15800
H  6.56100 9.48500 28.10700
H  6.25400 8.39800 29.48200
H  6.25200 9.82700 25.87500
H  4.61500 8.93500 26.03200
H  5.29000 9.61300 24.51700
H  9.18000 3.85200 22.74400
H  9.11300 1.02800 23.61100
H  7.50400 1.81200 22.24400
H  6.97000 3.58000 22.23400
H  6.56200 2.57700 23.60200
H  11.83200 1.89000 23.42200
H  11.14000 3.08000 22.42800
H  10.06600 0.31800 21.78700
H  11.82100 0.41900 21.49600
H  10.80700 1.53000 20.66600
H  11.84300 -1.39400 26.44500
H  11.95500 -1.86000 27.98800
H  13.32600 -0.95100 27.22500
H  12.40500 1.86000 31.91600
H  10.46400 -0.47600 34.87500
H  10.61000 1.12400 35.69300
H  11.93700 0.05400 35.53600
Mg 35.92800 1.24000 29.73000
C  33.79300 2.23700 32.37400
C  38.50400 0.96400 32.13200
C  38.11100 0.94400 27.26400
C  33.25800 1.72700 27.50700
N  36.11300 1.52500 32.02900
C  35.11400 1.96400 32.83700
C  35.61300 1.75800 34.32600
C  37.19800 1.75700 34.17400
C  37.27900 1.41000 32.67200
C  37.88400 3.14100 34.56800
C  34.93600 0.50100 35.05300
C  34.13200 0.76500 36.26600
H  34.47200 2.03700 37.01400
N  38.06100 0.82300 29.75700
C  38.86000 0.72200 30.80300
C  40.21400 0.45500 30.29500
C  40.08700 0.38700 28.86600
C  38.67000 0.71100 28.56700
C  41.36400 0.05100 31.29200
C  41.14400 0.27600 27.70200
O  40.87000 0.14700 26.49700
C  42.54600 0.11900 27.98800
N  35.73200 1.32300 27.68400
C  36.78200 1.25100 26.87300
C  36.36700 1.33200 25.40900
C  34.78100 1.44800 25.46100
C  34.53200 1.44800 26.96800
C  36.97600 2.56800 24.70800
C  34.12100 0.30200 24.71400
C  33.80400 -1.00000 25.47500
N  33.94000 1.76700 29.89800
C  33.00200 2.00200 28.91600
C  31.75100 2.53400 29.50600
C  31.99800 2.54400 30.88100
C  33.39400 2.11000 31.05600
C  30.47100 3.00200 28.75400
C  31.41300 2.89800 32.15800
O  30.29000 3.27600 32.48300
C  32.57000 2.65800 33.20700
C  32.74300 3.90500 33.99300
O  33.57700 4.75100 33.67100
O  31.85900 3.99300 35.04000
C  31.88800 5.22600 35.80500
H  39.34400 0.76900 32.80200
H  38.73800 0.74100 26.39300
H  32.47900 1.91700 26.76600
H  35.36500 2.71400 34.78800
H  37.55400 0.85900 34.67900
H  37.16000 3.89400 34.88000
H  38.38900 3.54000 33.68800
H  38.65100 3.12900 35.34200
H  35.73400 -0.21100 35.26200
H  34.40800 -0.02100 34.25500
H  34.12800 -0.05200 36.98800
H  33.06600 0.79700 36.04100
H  42.20200 -0.48100 30.84200
H  40.93800 -0.61000 32.04600
H  41.78000 0.94500 31.75700
H  42.59300 -0.82100 28.53800
H  42.76700 1.05300 28.50500
H  43.17200 0.06700 27.09800
H  36.71500 0.47300 24.83500
H  34.30900 2.35200 25.07600
H  36.16600 3.28200 24.56000
H  37.49300 2.36700 23.77000
H  37.63600 3.17300 25.32900
H  34.85000 -0.07200 23.99600
H  33.26700 0.66400 24.14100
H  34.39600 -1.86200 25.16400
H  32.82300 -1.43000 25.27100
H  33.80500 -0.91100 26.56100
H  30.67100 2.78100 27.70500
H  30.34900 4.05600 29.00400
H  29.73900 2.27300 29.10200
H  32.17700 1.90500 33.89000
H  31.59300 6.06000 35.16800
H  32.90000 5.44400 36.14500
H  31.24400 5.13800 36.67900

