158

Mg -2.46600 17.26800 26.01700
C  -2.68500 14.91200 28.60500
C  -2.98500 19.64600 28.45000
C  -2.65600 19.39600 23.61300
C  -2.52600 14.58100 23.71200
N  -2.80200 17.23800 28.33100
C  -2.66500 16.21100 29.09200
C  -2.80000 16.56600 30.63300
C  -2.89800 18.13900 30.54200
C  -3.04500 18.35900 29.03500
C  -4.02500 18.71700 31.45500
C  -1.66500 15.93100 31.50100
C  -1.10700 16.72800 32.60100
H  -0.58100 15.94000 33.81500
N  -2.69000 19.21200 25.95700
C  -2.78500 20.04200 27.07400
C  -2.74500 21.44300 26.62400
C  -2.54300 21.41200 25.20500
C  -2.64700 20.00500 24.81600
C  -2.80600 22.62700 27.53800
C  -2.31600 22.62200 24.19300
O  -2.35300 22.41400 23.01000
C  -1.96800 23.97700 24.70900
N  -2.50000 16.95500 23.89800
C  -2.70300 18.08900 23.12900
C  -2.67600 17.73400 21.64100
C  -2.70700 16.16100 21.61300
C  -2.64300 15.86500 23.15700
C  -3.66400 18.34700 20.63200
C  -1.57000 15.50800 20.81100
C  -1.96200 14.74000 19.57600
N  -2.47900 15.18700 26.07900
C  -2.51300 14.17600 25.09800
C  -2.78200 12.93700 25.66300
C  -2.82800 13.11100 27.02300
C  -2.61800 14.51000 27.25200
C  -2.78100 11.65800 24.99200
C  -3.08000 12.46600 28.37400
O  -3.37400 11.31100 28.74800
C  -2.98400 13.61500 29.40700
C  -1.91100 13.08800 30.29800
O  -0.68500 13.30800 30.13400
O  -2.52300 12.38500 31.31900
C  -1.58300 12.06600 32.40900
H  -2.94900 20.43600 29.20300
H  -2.67700 20.06000 22.74600
H  -2.62300 13.78400 22.97200
H  -3.79100 16.37900 31.04600
H  -1.92100 18.54200 30.80900
H  -3.71500 18.70200 32.50000
H  -4.96800 18.19000 31.31200
H  -4.29900 19.75800 31.28400
H  -0.94100 15.62300 30.74600
H  -2.04500 15.02200 31.96800
H  -1.93200 17.36900 32.91100
H  -0.26800 17.35300 32.29500
H  -3.64500 23.27500 27.28500
H  -1.95100 23.28300 27.37200
H  -2.94000 22.32300 28.57600
H  -1.82100 24.73600 23.94000
H  -1.03700 23.82200 25.25500
H  -2.71100 24.22800 25.46600
H  -1.74900 18.11300 21.21100
H  -3.58800 15.74300 21.12600
H  -4.34800 17.54600 20.35300
H  -3.17300 18.77100 19.75600
H  -4.23900 19.13000 21.12800
H  -1.16700 14.77700 21.51200
H  -0.69400 16.07200 20.49000
H  -2.20000 13.72100 19.88200
H  -1.26100 14.70800 18.74200
H  -2.87500 15.13800 19.13400
H  -1.82300 11.43600 24.52300
H  -3.61000 11.48100 24.30600
H  -2.76300 10.86000 25.73400
H  -3.88900 13.75200 30.00000
H  -1.55800 11.03500 32.76200
H  -1.81300 12.76900 33.21000
H  -0.51500 12.19000 32.22500
Mg 53.25200 23.89200 44.68200
C  50.81600 26.09600 43.51300
C  51.44600 21.27800 43.29000
C  55.87700 21.76400 45.20300
C  55.18600 26.54400 45.45900
N  51.43400 23.73100 43.44700
C  50.60200 24.78700 43.06000
C  49.67500 24.25700 42.03600
C  49.42400 22.80500 42.48300
C  50.88200 22.55700 43.19100
C  48.16200 22.46700 43.39200
C  50.26500 24.34800 40.51700
C  49.43400 24.98000 39.44000
H  50.17000 25.72900 38.30300
N  53.58400 21.79800 44.38800
C  52.69400 20.89800 43.88000
C  53.36000 19.56200 43.79800
C  54.62600 19.67100 44.33700
C  54.78100 21.10900 44.66000
C  52.68600 18.30800 43.31000
C  55.65700 18.46200 44.40800
O  55.37900 17.39600 43.89100
C  57.05600 18.62100 44.93900
N  55.28600 24.13000 45.14000
C  56.13000 23.13200 45.41900
C  57.42200 23.66800 46.01700
C  57.29700 25.14000 45.77300
C  55.77100 25.28900 45.58000
C  57.97200 23.11200 47.32500
C  57.98500 25.70100 44.48400
C  58.33500 27.22600 44.65900
N  53.06000 25.97400 44.63300
C  53.89600 26.95400 45.13300
C  53.15600 28.19400 45.16400
C  51.95000 27.90000 44.54800
C  51.93400 26.53200 44.24100
C  53.61400 29.53300 45.71700
C  50.75800 28.56700 44.07900
O  50.54500 29.74300 44.01200
C  49.98900 27.43400 43.40100
C  49.64200 27.88400 42.03600
O  50.50100 28.16800 41.17000
O  48.32000 28.13300 41.90300
C  47.92500 28.92800 40.77200
H  50.80900 20.47500 42.91300
H  56.72200 21.12800 45.47300
H  55.84800 27.33500 45.81700
H  48.72700 24.78400 42.14600
H  49.45500 22.05500 41.69300
H  47.55000 21.71200 42.89900
H  47.55100 23.34000 43.61800
H  48.45400 22.19700 44.40700
H  50.33500 23.32100 40.15900
H  51.22800 24.86100 40.51700
H  48.79200 25.73500 39.89400
H  48.64100 24.34100 39.05200
H  53.18100 17.78800 42.49000
H  51.73700 18.51400 42.81500
H  52.44500 17.65500 44.14900
H  57.59500 17.70300 44.70100
H  56.96700 18.72600 46.02100
H  57.46500 19.44400 44.35400
H  58.19000 23.35500 45.31000
H  57.55700 25.73600 46.64800
H  58.85400 22.49000 47.17300
H  57.16900 22.52300 47.76800
H  58.19700 24.01500 47.89300
H  57.31100 25.58100 43.63600
H  58.88600 25.13400 44.25100
H  57.53200 27.91100 44.38400
H  59.29100 27.48000 44.20300
H  58.40400 27.45700 45.72200
H  53.73700 30.17100 44.84200
H  54.61500 29.42600 46.13500
H  53.03100 29.98100 46.52200
H  49.07600 27.31500 43.98400
H  48.09700 28.27400 39.91700
H  48.49000 29.83700 40.56800
H  46.85200 29.11700 40.81200

