158

Mg 2.71600 -0.07700 43.66600
C  6.03700 0.39700 42.75000
C  1.99300 2.92900 42.13700
C  -0.57600 -0.81000 43.72400
C  3.51900 -3.17900 44.88700
N  3.93400 1.46700 42.58000
C  5.24000 1.48200 42.27700
C  5.62300 2.64900 41.50200
C  4.40600 3.58000 41.67100
C  3.37500 2.61300 42.18800
C  4.53400 4.85100 42.56700
C  6.11100 2.39500 39.97000
C  7.28400 3.25200 39.45300
H  6.98400 3.95200 38.16200
N  0.93100 0.94600 43.00300
C  0.88800 2.17700 42.41300
C  -0.45100 2.66700 42.29800
C  -1.24500 1.54300 42.74200
C  -0.34400 0.50000 43.20700
C  -0.89900 3.87900 41.65400
C  -2.79200 1.39800 42.65900
O  -3.49400 2.20500 42.15600
C  -3.60900 0.27000 43.44800
N  1.65700 -1.71500 44.07800
C  0.27900 -1.86900 44.05400
C  -0.22100 -3.33800 44.22500
C  1.11400 -3.99800 44.70800
C  2.18900 -2.85800 44.57200
C  -1.51400 -3.58800 45.12600
C  1.55700 -5.25300 43.83300
C  1.73800 -6.59300 44.55700
N  4.43000 -1.15100 43.95100
C  4.60700 -2.43400 44.44100
C  6.04300 -2.72400 44.57600
C  6.58400 -1.69100 43.77600
C  5.55200 -0.70700 43.50200
C  6.66600 -4.05000 45.18100
C  7.82600 -1.29200 43.24000
O  8.93200 -1.78700 43.30500
C  7.51700 0.07700 42.50100
C  8.42300 1.20800 43.06300
O  8.51700 1.57500 44.20400
O  9.22300 1.63900 42.00400
C  10.05600 2.83800 42.17000
H  1.80200 3.89600 41.66800
H  -1.58200 -1.23600 43.72600
H  3.77700 -4.05600 45.48400
H  6.45200 3.02900 42.09800
H  4.24600 3.92300 40.64900
H  5.55900 4.79100 42.93300
H  3.84200 4.77900 43.40600
H  4.35100 5.77700 42.02100
H  5.23400 2.60800 39.35800
H  6.34900 1.35500 39.74700
H  8.14200 2.58400 39.38000
H  7.47400 4.02500 40.19800
H  -1.87200 3.78500 41.17300
H  -0.26600 4.26300 40.85400
H  -0.91900 4.66000 42.41400
H  -4.66500 0.50800 43.57700
H  -3.15400 0.12200 44.42700
H  -3.53700 -0.68700 42.93200
H  -0.48700 -3.76600 43.25900
H  1.09900 -4.30800 45.75300
H  -1.17800 -4.04100 46.05900
H  -2.09700 -4.32900 44.57900
H  -2.04900 -2.65800 45.31700
H  2.44600 -5.01700 43.24800
H  0.85000 -5.46100 43.03000
H  1.03800 -7.31700 44.14000
H  1.44100 -6.50500 45.60200
H  2.79300 -6.84300 44.44800
H  6.32200 -4.27500 46.19000
H  7.75300 -4.00400 45.24700
H  6.54500 -4.89300 44.50000
H  7.52200 -0.05100 41.41800
H  10.08400 3.40600 41.24000
H  11.07000 2.53600 42.43300
H  9.72200 3.41600 43.03200
Mg -5.47900 24.74000 26.31500
C  -3.83200 26.68300 28.65700
C  -6.49100 22.68300 28.82200
C  -6.51000 22.57000 23.97600
C  -3.93000 26.67700 23.71000
N  -5.17600 24.78500 28.44800
C  -4.54800 25.66500 29.22800
C  -4.74100 25.40500 30.75800
C  -5.40600 24.02100 30.73700
C  -5.79700 23.80400 29.24500
C  -4.52400 22.86000 31.37700
C  -5.58500 26.64500 31.33800
C  -5.15500 27.13600 32.75500
H  -4.80200 26.02200 33.71000
N  -6.43600 22.89700 26.37300
C  -6.85500 22.29700 27.50900
C  -7.68400 21.13900 27.23400
C  -7.74400 21.09700 25.74500
C  -6.91600 22.21300 25.24500
C  -8.33700 20.25200 28.26100
C  -8.66000 20.43300 24.77900
O  -8.68100 20.73500 23.58600
C  -9.59000 19.36400 25.39800
N  -5.34000 24.74400 24.16100
C  -5.79000 23.60300 23.48400
C  -5.52200 23.72600 21.96400
C  -4.69500 25.03900 21.79300
C  -4.69700 25.59700 23.30500
C  -4.91700 22.43700 21.29300
C  -5.23300 26.03200 20.74800
C  -6.12100 27.18900 21.24000
N  -4.30700 26.39200 26.08700
C  -3.71900 27.08200 25.00600
C  -2.95700 28.16200 25.47100
C  -2.91400 28.00100 26.88000
C  -3.80200 26.95500 27.22900
C  -2.15500 29.05200 24.58900
C  -2.25300 28.46500 28.03400
O  -1.44200 29.37800 28.05600
C  -2.88000 27.69700 29.26900
C  -1.90300 27.19600 30.23500
O  -1.08300 26.35700 29.91400
O  -2.07800 27.66900 31.53200
C  -1.06400 27.06300 32.41500
H  -6.75400 22.02500 29.65300
H  -6.69200 21.74900 23.27900
H  -3.46600 27.21300 22.88000
H  -3.82800 25.28900 31.34200
H  -6.36400 23.98800 31.25700
H  -5.03300 21.91200 31.55300
H  -4.17300 23.17100 32.36100
H  -3.60100 22.71900 30.81600
H  -6.55600 26.15000 31.35300
H  -5.53400 27.45100 30.60600
H  -6.00900 27.68300 33.15500
H  -4.28800 27.79400 32.81500
H  -9.42500 20.29100 28.19500
H  -7.91900 20.41000 29.25500
H  -8.01600 19.25800 27.94700
H  -10.45400 19.90000 25.79100
H  -9.03200 18.89500 26.20800
H  -9.99300 18.67000 24.66100
H  -6.48800 23.87900 21.48300
H  -3.67300 24.88500 21.44500
H  -4.22600 22.04400 22.03900
H  -4.33500 22.77600 20.43600
H  -5.72500 21.72200 21.13500
H  -5.81900 25.46600 20.02400
H  -4.37000 26.36300 20.17000
H  -5.69700 28.13700 20.90900
H  -6.30100 27.33900 22.30500
H  -7.11100 27.15000 20.78500
H  -2.88700 29.81200 24.31500
H  -1.83400 28.52700 23.68900
H  -1.36000 29.53300 25.15800
H  -3.46800 28.42000 29.83400
H  -1.13900 25.97700 32.37100
H  -1.28700 27.35300 33.44200
H  -0.03300 27.37400 32.24500

