158

Mg 7.96200 3.05100 27.75900
C  9.60000 2.09300 30.79800
C  5.97600 5.14800 29.65000
C  6.32500 3.77300 24.98800
C  9.69500 0.42600 26.20100
N  7.66000 3.34400 30.04800
C  8.44800 2.95900 31.03500
C  8.06500 3.73000 32.36000
C  6.83900 4.63600 32.00100
C  6.76300 4.32300 30.48600
C  5.47400 4.44600 32.80100
C  9.18800 4.45100 33.14900
C  8.67400 5.00900 34.48900
H  9.50800 4.66500 35.71000
N  6.46300 4.32200 27.34800
C  5.82100 5.15600 28.21900
C  5.01600 6.03500 27.43400
C  5.19600 5.78900 26.05500
C  5.90400 4.54300 26.08100
C  4.23200 7.13200 28.01700
C  4.82300 6.58500 24.85200
O  5.13900 6.21900 23.74300
C  4.07000 7.85700 24.99500
N  7.93100 2.12300 26.00200
C  7.20800 2.66500 24.92500
C  7.40900 1.87400 23.62000
C  8.54500 0.91800 24.06200
C  8.75900 1.14300 25.49900
C  6.20900 1.27200 22.90900
C  9.79200 1.03900 23.14400
C  10.71400 2.22800 23.35500
N  9.40100 1.49300 28.29300
C  10.01500 0.52900 27.56200
C  10.97000 -0.17900 28.39600
C  10.78000 0.41200 29.65100
C  9.81200 1.45900 29.52700
C  11.81700 -1.23900 27.94400
C  11.23000 0.40100 31.03800
O  12.06800 -0.32500 31.53900
C  10.37700 1.41700 31.88800
C  9.48600 0.64700 32.85000
O  8.55000 -0.11700 32.56500
O  9.97300 0.91700 34.06700
C  9.42700 0.21900 35.22600
H  5.44500 5.92100 30.20800
H  5.87700 4.01500 24.02200
H  10.20400 -0.39200 25.68600
H  7.69600 3.01300 33.09300
H  7.17200 5.66800 32.11700
H  5.57300 3.93800 33.76000
H  4.87800 3.84900 32.11100
H  4.96100 5.38800 32.99500
H  9.57800 5.29800 32.58300
H  9.98500 3.76800 33.44300
H  7.66200 4.63700 34.65000
H  8.67300 6.08200 34.30000
H  4.01800 7.04900 29.08300
H  3.22400 7.10500 27.60400
H  4.69900 8.09000 27.79100
H  3.04800 7.62000 25.29000
H  4.03200 8.20500 23.96300
H  4.54400 8.58300 25.65600
H  7.95900 2.59000 23.00900
H  8.18600 -0.09400 23.87600
H  6.36100 0.22900 22.63000
H  6.03700 1.81400 21.98000
H  5.29200 1.40900 23.48200
H  9.65600 1.26400 22.08600
H  10.39800 0.14700 23.30200
H  11.68200 1.82300 23.64900
H  10.30100 2.95200 24.05700
H  10.90800 2.72300 22.40400
H  11.45200 -2.13000 28.45400
H  12.87000 -1.06400 28.16400
H  11.59200 -1.37000 26.88500
H  10.97500 2.12700 32.46000
H  9.81100 0.50800 36.20500
H  9.76200 -0.79500 35.01100
H  8.33800 0.18700 35.25100
Mg 0.85900 42.03100 26.24000
C  2.17100 42.13200 29.51300
C  -2.03500 40.78900 27.80900
C  -0.24400 41.35600 23.29700
C  4.05000 42.65500 25.10100
N  0.13700 41.57500 28.45400
C  0.79700 41.94300 29.56100
C  -0.15800 41.78300 30.83400
C  -1.49100 41.21500 30.23200
C  -1.11000 41.21900 28.72500
C  -2.10300 39.91900 30.92500
C  -0.36800 43.09000 31.66400
C  -0.26800 43.02000 33.15300
H  -0.77500 41.72500 33.90000
N  -0.92100 41.21900 25.62400
C  -2.05800 40.89200 26.38500
C  -3.08200 40.48500 25.42400
C  -2.62600 40.67600 24.09500
C  -1.21300 41.07200 24.27900
C  -4.44400 39.95100 25.95200
C  -3.28300 40.53200 22.75700
O  -2.69900 40.68500 21.67500
C  -4.64000 40.01600 22.75000
N  1.77900 41.88700 24.44900
C  1.06700 41.72700 23.37100
C  1.99200 41.90500 22.12100
C  3.30300 42.48500 22.70700
C  3.03700 42.27000 24.16800
C  2.13200 40.62000 21.20000
C  3.61500 43.98700 22.37400
C  4.30400 44.21000 20.92700
N  2.76400 42.44100 27.08200
C  3.99700 42.72800 26.47100
C  4.97700 42.82900 27.45600
C  4.33500 42.56700 28.64900
C  2.96000 42.34300 28.37200
C  6.42800 42.97200 27.31000
C  4.47900 42.48300 30.08200
O  5.50300 42.63200 30.71900
C  3.18300 42.16300 30.71400
C  3.36500 40.82400 31.42100
O  3.44900 39.73300 30.85100
O  3.65600 41.07000 32.77700
C  4.30200 39.95300 33.59000
H  -2.95500 40.39600 28.24600
H  -0.52300 41.08300 22.27800
H  5.01200 42.85600 24.62500
H  0.31300 41.02000 31.45300
H  -2.29100 41.93700 30.40300
H  -3.04400 40.29500 31.32600
H  -1.40200 39.60400 31.69700
H  -2.21200 39.07700 30.24100
H  -1.38500 43.43100 31.46800
H  0.43000 43.75700 31.34000
H  -0.97800 43.74700 33.54800
H  0.74300 43.16800 33.53100
H  -5.33700 40.24000 25.39800
H  -4.55800 40.42500 26.92700
H  -4.45500 38.86600 26.05500
H  -4.87900 40.08400 21.68900
H  -5.33400 40.67300 23.27300
H  -4.61300 39.02300 23.20000
H  1.54500 42.70500 21.53000
H  4.08700 41.81500 22.35400
H  1.55200 40.74800 20.28700
H  1.71200 39.78700 21.76500
H  3.17500 40.39000 20.98500
H  4.19000 44.54000 23.11700
H  2.65500 44.50100 22.42800
H  3.46600 44.51100 20.29900
H  4.70500 43.24400 20.62300
H  4.97600 45.03300 21.17100
H  6.90300 42.02000 27.54900
H  6.81800 43.76700 27.94600
H  6.67300 43.11600 26.25800
H  2.96200 42.90500 31.48100
H  5.35400 40.04100 33.31800
H  3.91100 38.94800 33.43300
H  4.38300 40.21000 34.64600

