158

Mg 29.89200 57.58300 39.33500
C  27.13200 55.50100 38.54000
C  31.94500 55.09200 38.27100
C  32.35100 59.84500 39.25800
C  27.61200 60.30700 40.00000
N  29.44300 55.51400 38.43100
C  28.31400 54.81900 38.33200
C  28.59500 53.33500 38.11300
C  30.18000 53.25000 38.20200
C  30.58500 54.71100 38.31400
C  30.70300 52.33200 39.39800
C  27.99900 52.81700 36.85600
C  28.60900 53.28500 35.52000
H  27.70100 54.03700 34.51600
N  31.97100 57.44600 38.86500
C  32.65100 56.30300 38.54800
C  34.08000 56.54300 38.40000
C  34.21900 57.94100 38.68700
C  32.82600 58.55700 38.98200
C  35.03800 55.56500 37.90300
C  35.63200 58.67400 38.67500
O  36.70300 58.16000 38.34000
C  35.76300 60.12500 39.01900
N  29.99800 59.74500 39.79400
C  31.15800 60.38800 39.63600
C  30.95200 61.96500 39.72500
C  29.47900 61.98700 40.34300
C  28.98800 60.60000 39.99300
C  32.01500 62.69200 40.65000
C  28.58400 63.08400 39.78600
C  29.03900 64.58400 39.67000
N  27.77800 57.91500 39.32800
C  27.01000 59.05900 39.62900
C  25.61600 58.64900 39.50100
C  25.64900 57.26100 39.04600
C  26.95700 56.90000 38.95900
C  24.45300 59.49100 39.91300
C  24.74300 56.14900 38.72700
O  23.50100 56.08300 38.74600
C  25.65800 54.95900 38.34300
C  25.23500 53.75200 39.11700
O  25.63300 53.38900 40.23200
O  24.31200 53.04100 38.33800
C  23.54400 51.98300 39.03800
H  32.60200 54.23900 38.08800
H  33.16800 60.55900 39.13600
H  26.83500 60.99200 40.34700
H  28.26500 52.72900 38.95700
H  30.50800 52.76700 37.28200
H  29.96600 51.61800 39.76500
H  31.21900 53.00000 40.08700
H  31.55000 51.84200 38.91900
H  26.92700 53.01200 36.80600
H  28.08700 51.73400 36.93600
H  29.17400 52.48100 35.04800
H  29.35600 54.04400 35.75000
H  36.11100 55.75900 37.90300
H  34.85700 55.29800 36.86200
H  34.89900 54.58800 38.36600
H  36.72700 60.40300 39.44500
H  35.03900 60.03500 39.82900
H  35.44400 60.72300 38.16600
H  30.97900 62.42900 38.73900
H  29.44500 62.07200 41.42900
H  32.78200 62.14700 41.20000
H  31.33400 63.20200 41.33200
H  32.47700 63.52700 40.12400
H  27.68200 63.12200 40.39700
H  28.29700 62.76900 38.78300
H  29.81200 64.85100 40.39100
H  28.24700 65.32500 39.77400
H  29.53500 64.79700 38.72400
H  23.69300 58.94500 40.47200
H  24.01000 59.78500 38.96200
H  24.70900 60.31200 40.58300
H  25.52400 54.63000 37.31200
H  24.21600 51.12500 39.03300
H  22.62000 51.73700 38.51600
H  23.34800 52.18900 40.09100
Mg 6.49100 53.06900 40.56300
C  6.01600 49.60300 40.05800
C  9.83700 52.74000 39.96900
C  6.81700 56.40200 40.32200
C  3.11500 53.41700 41.09000
N  7.73800 51.41300 40.07200
C  7.37600 50.09500 39.88000
C  8.69300 49.19300 39.89300
C  9.81800 50.21700 40.15400
C  9.09400 51.54900 40.02700
C  10.55500 50.13600 41.50300
C  8.98200 48.44100 38.54600
C  8.74200 49.17500 37.22000
H  7.66600 48.78000 36.26900
N  8.16800 54.40000 40.32200
C  9.45300 54.06700 40.00600
C  10.24300 55.27400 39.94100
C  9.39900 56.35300 40.11000
C  8.05500 55.76200 40.26800
C  11.76400 55.21300 39.65300
C  9.80700 57.82000 40.07700
O  10.99700 58.07100 39.85600
C  8.91600 58.95900 40.20700
N  5.21900 54.64400 40.46400
C  5.54300 55.92100 40.49800
C  4.32400 56.86500 40.77000
C  3.22400 55.88100 41.22400
C  3.91500 54.55100 40.95800
C  4.56200 58.04900 41.79000
C  1.81000 56.07500 40.50800
C  0.65900 56.34500 41.43300
N  4.84100 51.78300 40.62700
C  3.58000 52.06200 40.99400
C  2.84700 50.83100 41.15000
C  3.76900 49.81100 40.72400
C  4.96400 50.47900 40.37600
C  1.36000 50.70600 41.40600
C  4.00500 48.37300 40.61000
O  3.21800 47.45300 40.92700
C  5.47800 48.22100 40.16600
C  5.50300 47.50400 38.94300
O  5.16800 48.06800 37.90300
O  5.93300 46.27400 39.14700
C  5.90700 45.28200 38.01100
H  10.89200 52.46500 39.89800
H  6.82100 57.48400 40.17000
H  2.11700 53.39500 41.53300
H  8.49800 48.46400 40.68000
H  10.58400 50.17700 39.37900
H  10.27300 51.03600 42.05100
H  11.63600 50.04300 41.39900
H  10.30100 49.27700 42.12400
H  8.43900 47.49600 38.58400
H  10.02000 48.12100 38.63200
H  9.60500 49.05900 36.56500
H  8.60500 50.22400 37.48000
H  11.92700 55.63700 38.66200
H  12.13200 54.18700 39.62400
H  12.32100 55.77900 40.40000
H  9.38200 59.94200 40.14900
H  8.37800 58.84800 41.14800
H  8.08200 58.95000 39.50500
H  4.05400 57.29800 39.80700
H  3.07900 56.01000 42.29700
H  4.75000 58.98100 41.25600
H  5.36000 57.76700 42.47700
H  3.65100 58.22500 42.36000
H  1.65200 55.27300 39.78700
H  1.76600 56.94900 39.85800
H  0.02900 55.48900 41.67900
H  -0.00400 57.10700 41.02400
H  1.11200 56.66800 42.37000
H  0.68600 51.15300 40.67600
H  1.30000 51.21600 42.36700
H  1.15200 49.70200 41.77400
H  5.97500 47.68600 40.97500
H  5.41400 44.38500 38.38500
H  6.93600 44.96500 37.84200
H  5.48600 45.65100 37.07500

