158

Mg 36.11300 2.46000 30.07400
C  33.51700 2.92600 32.40900
C  38.28100 2.58800 32.66800
C  38.43500 1.51900 27.83200
C  33.69900 2.34300 27.47600
N  35.88400 2.78900 32.28000
C  34.76000 2.93400 33.03000
C  35.06300 3.02900 34.53700
C  36.66500 3.14600 34.54000
C  36.97700 2.74600 33.05800
C  37.06500 4.53600 34.92100
C  34.62400 1.74700 35.36900
C  34.17300 1.91400 36.87800
H  34.75400 3.05200 37.76900
N  38.08700 2.06400 30.18800
C  38.80100 2.23300 31.34700
C  40.14300 1.82300 31.08900
C  40.18400 1.47700 29.70900
C  38.87200 1.67600 29.13900
C  41.17300 1.72600 32.10400
C  41.30700 0.98600 28.86400
O  41.24200 0.83300 27.64700
C  42.63200 0.69400 29.47700
N  36.07800 2.24500 27.88600
C  37.20200 1.86300 27.23300
C  36.95500 1.60700 25.69000
C  35.38000 1.77600 25.51000
C  35.01000 2.15500 27.02700
C  37.74700 2.58200 24.79000
C  34.60300 0.59900 24.78100
C  33.93600 -0.43700 25.69500
N  34.09900 2.60000 29.91000
C  33.22900 2.60400 28.78200
C  31.83800 2.58500 29.24300
C  31.86400 2.78000 30.63100
C  33.26200 2.78900 30.97400
C  30.63600 2.51200 28.29000
C  31.12700 2.90500 31.88900
O  29.91800 2.88900 32.09600
C  32.16900 2.92300 33.06000
C  31.85900 4.19400 33.78900
O  32.16100 5.31700 33.46200
O  31.23900 3.89400 34.96000
C  31.29800 4.93200 36.02300
H  39.08900 2.76300 33.38200
H  39.11800 1.31900 27.00400
H  33.09500 2.19000 26.57900
H  34.47400 3.87600 34.88800
H  37.21400 2.46900 35.19400
H  38.03600 4.48300 35.41500
H  36.35800 5.06000 35.56400
H  37.37900 5.05800 34.01700
H  35.42100 1.00800 35.44800
H  33.78000 1.26100 34.87900
H  34.26900 0.89700 37.25600
H  33.11500 2.15800 36.78200
H  41.03000 2.51100 32.84600
H  42.18900 1.89200 31.74700
H  41.15700 0.77600 32.63800
H  42.49300 0.15400 30.41400
H  43.23800 1.59100 29.60000
H  43.23300 0.06800 28.81800
H  37.19700 0.55400 25.54500
H  34.97500 2.68500 25.06700
H  37.05400 3.03600 24.08200
H  38.59500 2.08300 24.32000
H  38.11700 3.31000 25.51200
H  35.14100 0.00300 24.04300
H  33.81600 0.94600 24.11100
H  34.52800 -0.44200 26.61000
H  33.92000 -1.44200 25.27300
H  32.89100 -0.26500 25.95400
H  30.86100 1.70300 27.59500
H  30.51300 3.48600 27.81800
H  29.76900 2.32000 28.92300
H  31.99800 1.99400 33.60400
H  32.34100 5.24600 35.98000
H  30.98100 4.74400 37.04800
H  30.78000 5.83500 35.70000
Mg 54.66700 23.49200 44.13700
C  52.37800 26.12600 43.43200
C  52.40000 21.39700 42.94100
C  57.15400 21.08400 43.97400
C  57.16900 25.85500 44.87200
N  52.51700 23.80000 43.57400
C  51.85400 24.89300 43.15100
C  50.40200 24.60600 42.80300
C  50.44000 23.03900 42.74600
C  51.86700 22.64800 43.11800
C  49.44100 22.41600 43.74400
C  49.78000 25.42000 41.62800
C  48.60000 24.76000 40.85500
H  48.84000 24.18200 39.48400
N  54.75900 21.48500 43.62100
C  53.69600 20.77200 43.11900
C  54.09100 19.42500 42.75500
C  55.45600 19.33800 42.95800
C  55.85700 20.70400 43.54600
C  53.09200 18.45400 42.12100
C  56.31300 18.10700 42.69400
O  55.84600 17.11500 42.11300
C  57.70700 17.99100 43.14400
N  56.82800 23.49800 44.47600
C  57.61800 22.35500 44.43800
C  59.04400 22.69100 44.91900
C  59.14200 24.22600 44.90500
C  57.63500 24.57300 44.73100
C  59.59300 22.02500 46.24900
C  60.08200 24.81200 43.82200
C  60.74300 26.17700 44.09400
N  54.77000 25.52000 44.28500
C  55.89600 26.34600 44.71700
C  55.43300 27.70700 44.71100
C  54.06800 27.66800 44.24700
C  53.70500 26.33700 44.00200
C  56.20900 28.98700 44.98900
C  52.90400 28.50300 43.95600
O  52.69200 29.65300 44.09200
C  51.85600 27.53500 43.32500
C  51.65500 27.91800 41.97700
O  52.26800 27.51800 40.97800
O  50.55700 28.72900 41.96200
C  50.06600 29.01500 40.64100
H  51.58100 20.76700 42.58900
H  57.99100 20.38800 44.05800
H  57.83900 26.70800 45.00100
H  49.83800 24.96200 43.66500
H  50.19700 22.67500 41.74800
H  49.95400 21.84600 44.51800
H  48.65700 21.80100 43.30300
H  48.89900 23.17800 44.30400
H  50.60400 25.55300 40.92700
H  49.61900 26.41500 42.04300
H  47.84000 25.52100 40.68000
H  48.07800 24.08000 41.52900
H  52.99600 18.87700 41.12200
H  52.16400 18.70000 42.63800
H  53.31800 17.38800 42.08400
H  58.23600 18.85300 42.73600
H  58.20800 17.11100 42.74100
H  57.83000 17.91800 44.22400
H  59.70500 22.32700 44.13300
H  59.50900 24.60900 45.85700
H  60.22600 21.18400 45.96400
H  58.73800 21.60800 46.78000
H  60.23600 22.76500 46.72600
H  59.47500 24.91300 42.92300
H  60.88900 24.08400 43.73300
H  60.09400 27.05100 44.04500
H  61.44000 26.44700 43.30100
H  61.24200 26.14200 45.06300
H  56.06300 29.71100 44.18800
H  57.28500 28.88900 45.13500
H  55.81400 29.56800 45.82300
H  50.89900 27.53700 43.84500
H  50.93900 29.18200 40.01000
H  49.30300 29.78800 40.54400
H  49.58100 28.14600 40.19700

