158

Mg 35.60400 1.84300 30.12300
C  33.03600 3.07700 32.41500
C  37.72400 1.87400 32.70800
C  37.85500 1.31500 27.92400
C  33.29500 2.59400 27.41500
N  35.32600 2.47700 32.31000
C  34.23200 2.85900 33.01900
C  34.51200 2.96100 34.47000
C  36.07900 2.88200 34.51000
C  36.44000 2.34000 33.10900
C  36.72300 4.26200 34.76500
C  33.78600 1.86300 35.27600
C  33.25700 2.20700 36.71700
H  34.07200 3.32500 37.49900
N  37.55500 1.37600 30.33700
C  38.22100 1.41600 31.47100
C  39.56700 0.93200 31.15300
C  39.66500 0.97500 29.73100
C  38.37000 1.27500 29.28100
C  40.49600 0.51400 32.26500
C  40.95800 0.81100 28.86400
O  40.95900 0.86900 27.63900
C  42.24400 0.60600 29.52000
N  35.47300 1.75300 27.95000
C  36.59000 1.50800 27.30200
C  36.46600 1.84100 25.78800
C  34.89000 1.88900 25.62500
C  34.53100 2.08400 27.07000
C  37.29200 3.05700 25.26200
C  34.10700 0.79300 24.94400
C  33.70000 -0.44500 25.65500
N  33.66500 2.63700 29.86100
C  32.89400 2.86200 28.76400
C  31.52900 3.28900 29.24600
C  31.58500 3.37300 30.61000
C  32.85300 3.00300 30.99400
C  30.30300 3.56800 28.47400
C  30.79300 3.70600 31.76600
O  29.66200 4.16600 31.85800
C  31.74500 3.47900 33.01500
C  31.91200 4.78700 33.67600
O  32.60300 5.74500 33.27100
O  31.00900 4.91000 34.72100
C  30.91300 6.22300 35.37800
H  38.42600 1.79400 33.54100
H  38.56600 1.00100 27.15700
H  32.47300 2.90400 26.76600
H  34.15700 3.95000 34.76000
H  36.50900 2.22700 35.26800
H  35.97500 5.05300 34.70900
H  37.51600 4.51600 34.06200
H  37.31600 4.28600 35.68000
H  34.52200 1.06100 35.21900
H  32.87700 1.47100 34.81900
H  33.21000 1.32300 37.35300
H  32.19700 2.43900 36.61400
H  41.14100 -0.29800 31.92900
H  39.91500 0.19700 33.13100
H  41.09500 1.31600 32.69600
H  42.58100 1.43800 30.13700
H  42.89600 0.49400 28.65400
H  42.27700 -0.29900 30.12700
H  36.77400 0.92800 25.27800
H  34.77600 2.84100 25.10500
H  37.69800 2.76200 24.29400
H  38.11800 3.31500 25.92400
H  36.68800 3.92800 25.00900
H  34.76400 0.50600 24.12200
H  33.21000 1.07500 24.39300
H  33.96300 -1.34200 25.09500
H  32.62700 -0.46300 25.84700
H  34.28200 -0.53400 26.57200
H  30.22800 2.75000 27.75600
H  30.49500 4.47600 27.90300
H  29.34700 3.62800 28.99400
H  31.15200 2.76100 33.58200
H  31.78000 6.43300 36.00500
H  30.09800 6.07100 36.08500
H  30.67000 7.08800 34.76100
Mg 53.77700 23.94500 45.45000
C  51.22200 26.08400 44.28700
C  52.45500 21.39800 43.90400
C  56.59200 22.20000 45.88400
C  55.41900 26.96400 46.59600
N  52.19300 23.81300 44.07500
C  51.22900 24.76400 43.74900
C  50.11500 24.17000 42.85900
C  50.46400 22.65300 43.02100
C  51.83800 22.60800 43.69700
C  49.27300 21.75700 43.58100
C  50.30700 24.68700 41.37700
C  49.00400 25.02700 40.67000
H  49.05200 25.69800 39.33700
N  54.45400 21.99600 45.03200
C  53.71200 21.04800 44.44300
C  54.42800 19.71600 44.27800
C  55.59400 19.96500 45.05800
C  55.59000 21.42800 45.36200
C  53.89200 18.52200 43.60000
C  56.57300 18.90500 45.50700
O  56.42300 17.80500 45.05500
C  57.66900 19.21100 46.47700
N  55.71000 24.56000 46.12200
C  56.63400 23.58000 46.16800
C  57.83500 24.12300 46.89600
C  57.70400 25.74700 46.82100
C  56.20200 25.77400 46.50500
C  58.04500 23.55700 48.34300
C  58.68700 26.45700 45.79100
C  59.34700 27.75300 46.31400
N  53.35100 26.10900 45.51900
C  54.13200 27.12000 46.13200
C  53.24800 28.32300 46.29400
C  52.06800 27.99100 45.60700
C  52.23500 26.62700 45.10000
C  53.56400 29.51700 47.12500
C  50.74500 28.36100 45.17200
O  50.03300 29.31400 45.39300
C  50.10600 27.09000 44.36300
C  49.52500 27.70300 43.13300
O  50.22300 28.04700 42.20900
O  48.14600 27.78400 43.07100
C  47.49000 28.26200 41.88000
H  51.89600 20.59600 43.41800
H  57.51800 21.65400 46.07300
H  55.85100 27.85700 47.05200
H  49.07200 24.31100 43.14400
H  50.54800 22.15700 42.05400
H  49.36000 21.41000 44.61100
H  49.09500 20.91400 42.91300
H  48.37200 22.37100 43.59600
H  50.77400 23.92900 40.74800
H  50.98000 25.54200 41.31000
H  48.39900 25.68400 41.29600
H  48.50200 24.07400 40.50400
H  53.04400 18.84700 42.99700
H  53.64900 17.76200 44.34200
H  54.71400 18.14900 42.98900
H  57.20100 19.72800 47.31500
H  58.36100 19.90900 46.00600
H  58.20600 18.34600 46.86700
H  58.71900 23.85900 46.31600
H  57.67100 26.19700 47.81300
H  57.88800 24.28700 49.13700
H  59.07800 23.22200 48.44300
H  57.46300 22.66500 48.57200
H  58.22700 26.71800 44.83800
H  59.54600 25.82000 45.57600
H  59.00600 28.38000 45.48900
H  60.43400 27.83500 46.30800
H  58.92800 28.09000 47.26200
H  54.22000 29.34400 47.97800
H  52.65000 29.89500 47.58400
H  53.98500 30.30700 46.50300
H  49.39200 26.64500 45.05500
H  46.96900 29.17400 42.16900
H  46.72700 27.53300 41.60500
H  48.08000 28.48700 40.99200

