158

Mg 8.74900 48.78300 26.04600
C  7.08500 48.80700 29.09900
C  11.57700 49.87100 27.75900
C  10.51200 48.52200 23.17000
C  5.83900 48.09200 24.38000
N  9.20300 49.28900 28.17100
C  8.41900 49.14200 29.21900
C  9.12000 49.50600 30.43600
C  10.38200 50.29500 29.99700
C  10.41000 49.84400 28.53900
C  10.44700 51.85200 30.26100
C  9.41300 48.35200 31.42900
C  8.69600 48.41400 32.78100
H  8.77300 47.29300 33.74800
N  10.79200 49.30900 25.48100
C  11.78700 49.61800 26.37900
C  13.11100 49.61700 25.66900
C  12.85200 49.10600 24.35000
C  11.33900 48.89300 24.29600
C  14.39600 49.80900 26.47800
C  13.79900 48.69800 23.29500
O  13.48900 48.19900 22.23400
C  15.26800 48.79100 23.46100
N  8.22700 48.47700 24.04900
C  9.13600 48.36900 23.09000
C  8.46500 48.04600 21.75800
C  7.14200 47.48100 22.29200
C  7.02300 48.11000 23.66000
C  8.41900 49.10700 20.58500
C  7.00100 45.95800 22.17800
C  6.64100 45.15600 23.46500
N  6.81400 48.53000 26.58900
C  5.70200 48.24000 25.79500
C  4.50700 48.19400 26.64900
C  4.94900 48.38900 27.98000
C  6.37000 48.66100 27.91700
C  3.17900 47.83000 26.30000
C  4.61800 48.39700 29.38700
O  3.47800 48.24600 29.96200
C  5.99100 48.57100 30.18700
C  6.07600 47.25000 31.01300
O  6.89700 46.37500 30.88600
O  5.09400 47.32000 32.02900
C  5.00100 46.28100 33.01300
H  12.48600 50.08900 28.32300
H  10.96400 48.52600 22.17600
H  5.02500 47.62300 23.82300
H  8.53200 50.28200 30.92600
H  11.27200 49.81500 30.40200
H  10.07300 52.38800 29.38900
H  11.45600 52.20500 30.47800
H  9.75900 51.91800 31.10300
H  10.46700 48.26300 31.69300
H  9.19100 47.45900 30.84400
H  7.67800 48.77800 32.63900
H  9.27800 49.14000 33.34900
H  14.26300 50.66400 27.14100
H  15.23600 50.18900 25.89500
H  14.76200 48.91100 26.97600
H  15.60900 48.18000 24.29600
H  15.69700 49.78700 23.56600
H  15.76300 48.38100 22.58000
H  9.08400 47.22300 21.39900
H  6.29200 47.97000 21.81700
H  7.44000 49.53000 20.36100
H  8.89000 48.66600 19.70700
H  8.90100 50.05200 20.83600
H  7.85400 45.43100 21.75100
H  6.13000 45.80100 21.54300
H  6.90700 45.48900 24.46800
H  6.96600 44.11600 23.43500
H  5.56600 44.98200 23.43800
H  2.82100 46.93000 26.80100
H  3.30400 47.62600 25.23700
H  2.51800 48.67700 26.48200
H  6.04100 49.42500 30.86300
H  5.51400 46.70100 33.87800
H  5.53000 45.38700 32.68200
H  3.94200 46.08000 33.17800
Mg -5.97700 25.19400 26.01900
C  -4.63000 26.51100 29.16400
C  -7.65500 22.83800 27.97100
C  -6.48700 23.60000 23.38400
C  -3.81300 27.48700 24.50100
N  -6.10600 24.73600 28.30300
C  -5.47600 25.38400 29.34700
C  -5.92500 24.83100 30.79300
C  -6.64400 23.44300 30.29300
C  -6.88000 23.65400 28.76000
C  -5.86500 22.18000 30.64600
C  -6.74500 25.96000 31.47600
C  -6.65100 26.15500 32.99400
H  -6.07800 24.98400 33.77600
N  -7.15300 23.56300 25.64300
C  -7.80700 22.70800 26.54400
C  -8.51800 21.76600 25.85000
C  -8.23800 21.90300 24.43500
C  -7.26500 23.02800 24.43200
C  -9.44000 20.78000 26.57700
C  -8.75000 21.14100 23.27900
O  -8.30300 21.43300 22.14000
C  -9.86900 20.16300 23.42200
N  -5.33200 25.57700 24.24500
C  -5.63300 24.71100 23.25000
C  -4.91700 25.03600 21.89100
C  -4.22500 26.40200 22.33800
C  -4.51000 26.55700 23.81100
C  -3.92900 23.92700 21.47000
C  -4.74600 27.54000 21.41700
C  -3.73400 28.56000 20.93400
N  -4.66500 26.81900 26.67900
C  -3.95300 27.68700 25.88600
C  -3.24700 28.64500 26.71200
C  -3.42400 28.22300 27.99500
C  -4.30200 27.08000 27.92200
C  -2.42300 29.75900 26.09200
C  -3.09200 28.48200 29.35900
O  -2.44000 29.33400 29.89400
C  -3.93300 27.41300 30.17100
C  -2.99300 26.65500 31.07400
O  -2.19300 25.82400 30.70800
O  -3.16700 26.94100 32.37200
C  -2.34200 26.39500 33.38300
H  -8.14800 22.14200 28.65300
H  -6.56100 23.03500 22.45300
H  -3.27500 28.23300 23.91300
H  -4.99900 24.58100 31.31000
H  -7.58200 23.35000 30.84000
H  -4.88800 22.38500 31.08300
H  -5.74000 21.60400 29.72800
H  -6.47000 21.55800 31.30500
H  -7.80600 25.78100 31.30300
H  -6.45100 26.95600 31.14600
H  -7.67200 26.30200 33.34500
H  -5.98400 26.98600 33.22100
H  -10.50400 20.86600 26.35600
H  -9.38900 20.73900 27.66500
H  -9.03900 19.79800 26.32700
H  -9.59800 19.36900 24.11700
H  -9.99900 19.68300 22.45200
H  -10.77200 20.66300 23.77000
H  -5.72000 25.17500 21.16700
H  -3.15600 26.33900 22.13200
H  -4.09500 23.74500 20.40800
H  -4.10100 22.99500 22.00900
H  -2.91600 24.30300 21.61700
H  -5.41400 28.17100 22.00400
H  -5.22100 27.24400 20.48200
H  -4.15800 29.56300 20.98600
H  -3.41300 28.23300 19.94500
H  -2.95300 28.53700 21.69300
H  -2.99200 30.33200 25.36000
H  -1.56400 29.31900 25.58500
H  -2.09200 30.39000 26.91800
H  -4.59200 28.02400 30.78900
H  -1.96900 25.41700 33.07900
H  -2.78700 26.11100 34.33700
H  -1.50000 27.04900 33.60900

