158

Mg 16.78000 52.45300 24.64900
C  18.15700 51.39000 27.71200
C  14.13700 53.72900 26.36600
C  15.57800 53.61600 21.75300
C  19.32300 50.86600 23.03300
N  16.16000 52.29400 26.88600
C  16.93700 52.04600 27.92200
C  16.30900 52.48500 29.25700
C  14.89200 52.92600 28.79300
C  15.09100 53.12000 27.19300
C  13.72000 51.92600 28.93900
C  17.13400 53.53700 30.11400
C  17.47900 53.30800 31.71500
H  16.66100 52.28500 32.48900
N  14.97100 53.39300 24.12500
C  14.02300 53.92100 24.95200
C  13.09000 54.64100 24.17500
C  13.42500 54.54000 22.84200
C  14.75300 53.86500 22.84300
C  11.89800 55.42700 24.88000
C  12.74900 55.10400 21.58800
O  13.27000 55.00200 20.47400
C  11.38400 55.79700 21.68300
N  17.30100 52.18400 22.59900
C  16.77100 52.87900 21.57000
C  17.45800 52.66600 20.20900
C  18.60800 51.81500 20.74800
C  18.54400 51.73500 22.24500
C  16.52700 52.00700 19.12600
C  20.05700 52.34500 20.35200
C  20.23500 52.66700 18.88200
N  18.36500 51.23300 25.20800
C  19.34200 50.61900 24.40400
C  20.33000 49.90500 25.23300
C  19.88200 50.32800 26.51400
C  18.70200 51.06000 26.45900
C  21.70300 49.37900 24.93000
C  20.32300 50.26400 27.89200
O  21.20300 49.53200 28.30100
C  19.17500 50.99800 28.71600
C  18.63000 49.86800 29.55600
O  17.73500 49.08100 29.24100
O  19.19900 49.73000 30.79400
C  18.55400 48.88700 31.81100
H  13.36700 54.24400 26.94300
H  15.14700 53.99400 20.82400
H  20.08600 50.44700 22.37300
H  16.40000 51.53800 29.79000
H  14.65900 53.89700 29.22900
H  13.96700 51.20600 29.71900
H  13.51900 51.41900 27.99500
H  12.81700 52.48100 29.19000
H  16.79000 54.56000 29.96500
H  18.08400 53.50700 29.58200
H  17.34000 54.27200 32.20500
H  18.56100 53.19100 31.77100
H  11.80800 56.35400 24.31300
H  12.24300 55.80000 25.84400
H  11.02100 54.78400 24.96200
H  11.12100 56.07100 20.66100
H  11.45800 56.74800 22.21100
H  10.67500 55.09700 22.12400
H  17.77600 53.64700 19.85700
H  18.39900 50.83500 20.31800
H  16.89800 51.05800 18.73800
H  16.56800 52.54700 18.18000
H  15.51000 51.91500 19.50600
H  20.96800 51.81300 20.62800
H  20.12800 53.23400 20.97800
H  21.16500 52.20600 18.54900
H  20.33400 53.72900 18.65400
H  19.45400 52.25900 18.24100
H  22.38400 50.16000 25.26700
H  21.85300 49.34700 23.85000
H  21.85100 48.40700 25.40000
H  19.52200 51.87600 29.26000
H  18.77700 47.83600 31.62900
H  17.48200 48.87600 32.00700
H  19.03300 49.16900 32.74900
Mg -9.52500 40.32300 42.42100
C  -8.24400 37.25900 41.41200
C  -6.67300 41.74900 41.02400
C  -10.80700 43.30900 43.14800
C  -12.55000 38.75900 43.26400
N  -7.87800 39.64000 41.01100
C  -7.49600 38.30100 40.87600
C  -6.18800 38.06300 40.11500
C  -5.53500 39.48200 40.35200
C  -6.75200 40.35900 40.85800
C  -4.42000 39.62400 41.41700
C  -6.38000 37.78400 38.64400
C  -5.69800 36.42900 38.16800
H  -4.68800 36.34300 37.03800
N  -8.80100 42.30500 42.14200
C  -7.58300 42.70300 41.57600
C  -7.59200 44.15200 41.62500
C  -8.71300 44.61700 42.35400
C  -9.53000 43.42300 42.51500
C  -6.60900 44.94900 40.79900
C  -8.91800 46.05500 42.81400
O  -8.27100 47.02900 42.40800
C  -9.93800 46.39000 43.85900
N  -11.34000 40.91000 43.28100
C  -11.71400 42.23600 43.39900
C  -13.17200 42.43300 43.92300
C  -13.66700 40.94700 43.90500
C  -12.46400 40.11500 43.49500
C  -13.33900 43.26200 45.21400
C  -14.99600 40.74600 43.05200
C  -16.23000 39.86700 43.56400
N  -10.24300 38.46000 42.51000
C  -11.45900 37.97900 42.90900
C  -11.41500 36.51700 42.80700
C  -10.14400 36.23300 42.29700
C  -9.49100 37.44000 42.04600
C  -12.42700 35.61800 43.25800
C  -9.26300 35.11400 41.86500
O  -9.39800 33.90100 41.80600
C  -7.90200 35.81400 41.37800
C  -6.85300 35.40800 42.38300
O  -6.52700 36.02600 43.42300
O  -6.22600 34.21900 41.99800
C  -5.45100 33.62900 43.03800
H  -5.73400 42.19100 40.68300
H  -11.21000 44.23200 43.56800
H  -13.44200 38.21000 43.57200
H  -5.55700 37.32600 40.61000
H  -5.18000 39.91400 39.41600
H  -3.53800 40.04900 40.93900
H  -4.19400 38.65000 41.85100
H  -4.69200 40.29000 42.23600
H  -6.15100 38.60200 37.96100
H  -7.44600 37.58700 38.52700
H  -6.51900 35.73300 37.99200
H  -5.32800 35.90900 39.05100
H  -5.75200 44.45100 40.34500
H  -6.21700 45.79100 41.37100
H  -7.19500 45.45200 40.03000
H  -10.89900 46.36900 43.34600
H  -9.88700 47.39800 44.27200
H  -9.85100 45.70200 44.70100
H  -13.60800 42.96700 43.07900
H  -13.84500 40.68500 44.94800
H  -14.32200 43.18800 45.67800
H  -13.06700 44.29100 44.97900
H  -12.62000 42.93500 45.96500
H  -14.66400 40.31000 42.11000
H  -15.42700 41.73700 42.91100
H  -17.10100 40.52000 43.62600
H  -16.03200 39.48500 44.56500
H  -16.33800 38.94800 42.98800
H  -13.20700 35.58100 42.49800
H  -12.85800 36.11600 44.12700
H  -12.06600 34.59800 43.39100
H  -7.54000 35.54000 40.38700
H  -6.18500 33.24800 43.74700
H  -4.70900 34.22900 43.56600
H  -4.80000 32.91200 42.53800

