158

Mg 44.91600 3.80900 46.69500
C  42.63800 6.31200 46.01400
C  42.27900 1.55400 46.85300
C  47.21900 1.49200 47.11500
C  47.49500 6.24000 46.10300
N  42.72300 3.94700 46.36300
C  42.01000 5.03800 46.00900
C  40.51700 4.68400 45.72800
C  40.41800 3.19100 46.30400
C  41.88700 2.87500 46.49100
C  39.67500 3.01800 47.65100
C  40.20900 4.65000 44.17700
C  39.26000 5.70300 43.63000
H  39.50100 6.55900 42.27600
N  44.82200 1.78600 46.90500
C  43.63700 1.06900 46.96800
C  44.03500 -0.31800 47.00200
C  45.46200 -0.42600 47.17000
C  45.93300 0.95200 47.03300
C  43.04000 -1.48300 46.98600
C  46.35300 -1.72400 47.24100
O  45.83100 -2.80000 47.09100
C  47.83000 -1.71400 47.58300
N  47.05900 3.82000 46.52300
C  47.81700 2.76100 46.91600
C  49.29400 3.13500 47.12000
C  49.37400 4.49000 46.35400
C  47.88300 4.92100 46.27600
C  49.77900 3.09500 48.63800
C  50.06100 4.44400 45.01000
C  51.59800 4.67900 44.96900
N  45.10300 5.87600 46.26400
C  46.18300 6.71300 46.06200
C  45.70700 8.08900 45.96400
C  44.30000 8.01600 45.91600
C  44.00200 6.58200 46.09600
C  46.54900 9.29700 45.84200
C  43.07900 8.70000 45.82600
O  42.89900 9.87400 45.64200
C  41.95400 7.71600 45.93700
C  41.12000 8.12400 47.09300
O  41.63200 8.39100 48.20200
O  39.80100 8.31600 46.69300
C  38.90500 8.61300 47.78700
H  41.47400 0.81700 46.80600
H  47.88400 0.72200 47.51100
H  48.35000 6.91800 46.15500
H  39.97700 5.42100 46.32300
H  39.87500 2.46400 45.70100
H  38.80400 2.36400 47.64000
H  39.43600 4.00900 48.03900
H  40.37200 2.54800 48.34600
H  39.61100 3.74900 44.03600
H  41.12000 4.52300 43.59200
H  39.06800 6.43300 44.41600
H  38.36100 5.14200 43.37800
H  42.88900 -1.85800 47.99800
H  43.35600 -2.32000 46.36200
H  42.10300 -1.11400 46.56900
H  48.11900 -1.00900 48.36300
H  48.33100 -1.50500 46.63800
H  48.12000 -2.73800 47.81800
H  49.87300 2.35700 46.62200
H  49.93900 5.25200 46.89100
H  50.33700 2.18600 48.86200
H  48.95300 3.19100 49.34200
H  50.46300 3.90100 48.90600
H  49.57300 5.09200 44.28100
H  49.79100 3.43400 44.70100
H  51.87500 5.01600 43.97000
H  52.05900 3.74400 45.28600
H  51.86400 5.45700 45.68500
H  47.50400 9.04600 46.30300
H  45.95400 10.15400 46.15700
H  46.72100 9.56900 44.80000
H  41.29000 7.81000 45.07800
H  38.98900 7.69000 48.36000
H  37.87400 8.77800 47.47500
H  39.11300 9.54300 48.31600
Mg 35.55800 0.51600 29.02200
C  33.41400 1.77800 31.57900
C  38.13100 0.80300 31.30900
C  37.58500 -0.15000 26.51600
C  32.83500 0.98800 26.80100
N  35.76400 1.24200 31.23600
C  34.76600 1.53600 32.09500
C  35.21000 1.65800 33.55400
C  36.79000 1.48200 33.45000
C  36.91300 1.18300 31.91300
C  37.50500 2.81900 33.71800
C  34.51400 0.57900 34.50000
C  34.56000 0.76600 36.06400
H  35.23200 2.07200 36.54200
N  37.59900 0.36700 28.90000
C  38.46800 0.50600 29.92100
C  39.85200 0.09800 29.43200
C  39.70500 -0.20900 27.98000
C  38.26200 0.04600 27.74900
C  40.98800 -0.00600 30.43200
C  40.63100 -0.68300 26.89200
O  40.28900 -1.08200 25.79900
C  42.01500 -0.90200 27.28900
N  35.17700 0.37900 26.93900
C  36.23500 0.11700 26.15000
C  35.82100 0.12800 24.63300
C  34.26600 0.48300 24.78500
C  34.04600 0.60900 26.29400
C  36.70700 1.18600 23.79700
C  33.33600 -0.57900 24.05700
C  33.05400 -1.89200 24.76500
N  33.51400 1.09200 29.14000
C  32.50600 1.22100 28.14000
C  31.20400 1.62200 28.69800
C  31.53200 1.88800 30.07400
C  32.93300 1.59300 30.24000
C  30.01700 1.81800 27.84300
C  31.01200 2.36900 31.32400
O  29.92000 2.71100 31.62900
C  32.16600 2.23600 32.36600
C  32.33500 3.45000 33.25500
O  33.03600 4.34200 32.90100
O  31.62100 3.27400 34.44800
C  31.73400 4.40300 35.40500
H  38.98600 0.80000 31.98800
H  38.13400 -0.45600 25.62300
H  32.10800 1.22500 26.02200
H  34.98200 2.66100 33.91500
H  37.01100 0.68500 34.15900
H  36.82900 3.67300 33.66300
H  38.31000 2.98400 33.00100
H  38.10000 2.94100 34.62400
H  35.14200 -0.24100 34.15400
H  33.46400 0.41400 34.25900
H  34.97600 -0.07500 36.62000
H  33.51300 0.86600 36.35200
H  41.94800 -0.29300 30.00400
H  40.70600 -0.77800 31.14700
H  41.06600 1.00600 30.82900
H  42.54800 -0.10100 27.80100
H  42.64500 -1.33800 26.51400
H  41.85000 -1.74400 27.96200
H  35.93700 -0.90300 24.29900
H  33.92900 1.45700 24.43000
H  37.07800 0.70500 22.89200
H  37.54900 1.52400 24.40200
H  36.05700 2.03800 23.60100
H  33.64300 -0.76200 23.02700
H  32.43700 0.03600 24.08800
H  32.03300 -1.92500 25.14600
H  33.67500 -2.02600 25.65000
H  33.31600 -2.65900 24.03600
H  30.14300 1.81500 26.76000
H  29.53200 2.74400 28.15200
H  29.23800 1.09100 28.07200
H  31.87000 1.48800 33.10200
H  31.23300 5.24000 34.91900
H  32.75300 4.78900 35.45000
H  31.16900 4.15900 36.30400

