158

Mg -2.01000 17.17800 26.34500
C  -2.58400 14.71100 28.63600
C  -2.58900 19.71600 28.56500
C  -1.69200 19.48900 23.70100
C  -2.36000 14.65100 23.84300
N  -2.68900 17.20000 28.37500
C  -2.76300 16.01400 29.20600
C  -2.92100 16.48200 30.72100
C  -2.97400 18.07100 30.55300
C  -2.73300 18.36800 29.07300
C  -4.25700 18.75900 31.17300
C  -1.81000 15.89500 31.61200
C  -1.61500 16.69100 32.98100
H  -1.06100 15.92300 34.22200
N  -2.11600 19.30800 26.22000
C  -2.28500 20.13100 27.30100
C  -2.19000 21.51600 26.83300
C  -1.88300 21.47100 25.40200
C  -1.86700 20.02500 25.05600
C  -2.39200 22.81200 27.68100
C  -1.75000 22.60500 24.40300
O  -1.36500 22.43300 23.19600
C  -1.89100 24.08200 24.83100
N  -2.00700 17.06600 24.04500
C  -1.84500 18.15800 23.25700
C  -1.93300 17.75400 21.79500
C  -2.37900 16.24400 21.85000
C  -2.20600 15.95000 23.34000
C  -2.83900 18.78700 20.99700
C  -1.61600 15.27300 20.89700
C  -2.48200 14.42200 19.97600
N  -2.13100 15.09400 26.18400
C  -2.23700 14.17800 25.18600
C  -2.40200 12.86400 25.72400
C  -2.49800 13.01400 27.09800
C  -2.37800 14.35500 27.30300
C  -2.44500 11.63700 24.91400
C  -2.59700 12.25800 28.35600
O  -2.62500 11.06400 28.45500
C  -2.59300 13.34800 29.41000
C  -1.36500 13.07700 30.17900
O  -0.20900 13.40900 29.85100
O  -1.63700 12.32900 31.29500
C  -0.64300 12.14600 32.36300
H  -2.76300 20.56900 29.22400
H  -1.56200 20.15300 22.84400
H  -2.69400 14.01900 23.01800
H  -3.86700 16.04500 31.04000
H  -2.05600 18.48000 30.97300
H  -3.76600 19.53100 31.76600
H  -4.67100 18.08100 31.91900
H  -5.02300 18.99200 30.43400
H  -0.86100 15.86900 31.07700
H  -2.08800 14.86800 31.85000
H  -2.58100 17.07200 33.31100
H  -1.00200 17.57900 32.82800
H  -1.45500 23.36700 27.71900
H  -2.74700 22.71100 28.70700
H  -3.05600 23.40700 27.05400
H  -2.87300 24.28400 25.25800
H  -1.77600 24.74900 23.97700
H  -1.13100 24.34400 25.56800
H  -0.92700 17.69600 21.37900
H  -3.42200 16.19900 21.53600
H  -3.29900 19.56300 21.60900
H  -3.50700 18.29400 20.29200
H  -2.05500 19.28400 20.42500
H  -0.86600 14.63500 21.36600
H  -1.08000 15.99300 20.27800
H  -2.77400 15.05500 19.13800
H  -3.36600 14.01700 20.46700
H  -1.95500 13.59300 19.50300
H  -3.25100 11.83700 24.20800
H  -2.66700 10.81300 25.59200
H  -1.47100 11.43300 24.47000
H  -3.37900 13.26800 30.16000
H  0.14500 12.89800 32.34300
H  -0.18200 11.16700 32.49600
H  -1.27100 12.33700 33.23300
Mg 42.99300 42.11800 25.76600
C  42.55600 44.11000 28.69700
C  44.50600 39.81800 27.95200
C  43.93200 40.33300 23.15300
C  41.94300 44.77100 23.83100
N  43.39300 41.99800 28.09800
C  43.11100 42.85300 29.04700
C  43.56900 42.46100 30.48100
C  44.43800 41.24900 30.13200
C  44.13400 40.96800 28.66600
C  45.93800 41.42100 30.45100
C  42.34700 42.14300 31.38300
C  42.24000 42.96100 32.70400
H  40.83100 43.43200 33.14400
N  43.88800 40.16400 25.57600
C  44.33900 39.40700 26.61500
C  44.85200 38.15200 26.12600
C  44.71600 38.20800 24.65600
C  44.22400 39.59300 24.35400
C  45.22000 36.95500 27.00200
C  44.88200 37.17100 23.63000
O  44.60800 37.40300 22.45400
C  45.40900 35.72900 23.92400
N  42.95200 42.50200 23.88700
C  43.40400 41.61100 22.93800
C  43.19700 42.01100 21.46800
C  42.30800 43.21400 21.68300
C  42.39200 43.56700 23.25100
C  44.44700 42.21000 20.62700
C  40.85400 43.04000 21.18600
C  39.92200 42.08900 21.97600
N  42.27800 44.03400 26.15900
C  41.93700 45.02900 25.18900
C  41.46400 46.22900 25.94700
C  41.78300 45.92200 27.31500
C  42.22800 44.53800 27.35500
C  41.22800 47.58000 25.43600
C  41.58600 46.39900 28.65800
O  41.12900 47.44900 29.09200
C  42.05200 45.29700 29.60200
C  43.10900 45.76400 30.47500
O  44.28700 45.63700 30.24600
O  42.64200 46.22400 31.67000
C  43.65500 46.67500 32.63400
H  44.98700 39.11400 28.63400
H  44.20800 39.80700 22.23700
H  41.62300 45.53700 23.12300
H  44.08300 43.27100 31.00100
H  44.14400 40.43800 30.79800
H  46.39500 40.45100 30.64200
H  46.05200 42.01500 31.35800
H  46.49900 41.84400 29.61700
H  42.34000 41.10900 31.72700
H  41.37900 42.22300 30.88800
H  42.97700 43.76400 32.69200
H  42.53600 42.33700 33.54800
H  46.30600 36.86500 27.00700
H  44.64800 36.09900 26.64300
H  44.96900 37.01000 28.06200
H  45.63100 35.11400 23.05200
H  44.53500 35.25800 24.37500
H  46.27400 35.77500 24.58600
H  42.59900 41.27700 20.92800
H  42.74300 44.11900 21.25900
H  45.28600 41.85300 21.22400
H  44.78000 43.22300 20.40200
H  44.35800 41.66600 19.68700
H  40.92700 42.67900 20.16000
H  40.42900 44.04400 21.15600
H  39.15400 41.65000 21.33900
H  39.53900 42.66900 22.81500
H  40.52000 41.31300 22.45500
H  40.97000 47.52600 24.37900
H  42.05300 48.27500 25.59400
H  40.30400 47.90900 25.91200
H  41.26800 44.88200 30.23500
H  44.00300 45.84100 33.24300
H  43.07700 47.34700 33.27000
H  44.39100 47.40100 32.28800

