158

Mg 1.66000 -1.90900 44.06900
C  5.15700 -1.40000 43.46700
C  1.00500 0.83300 42.26700
C  -1.36200 -3.08200 43.88200
C  2.78600 -5.10900 45.42600
N  2.95700 -0.55500 42.97900
C  4.30700 -0.37900 42.97600
C  4.82100 0.98400 42.39800
C  3.45800 1.69800 42.20000
C  2.37500 0.63100 42.52100
C  3.16600 3.01200 43.10400
C  5.86800 0.92800 41.20600
C  5.86100 -0.25700 40.26100
H  5.54700 0.06100 38.73800
N  -0.02100 -1.19500 43.28100
C  -0.09300 0.01800 42.63300
C  -1.51800 0.26800 42.39700
C  -2.26100 -0.87700 42.83000
C  -1.21000 -1.76500 43.38400
C  -1.94000 1.56500 41.84400
C  -3.84500 -1.02600 42.71700
O  -4.55100 -0.14000 42.27100
C  -4.55600 -2.18800 43.39500
N  0.87700 -3.84600 44.55900
C  -0.46900 -4.04000 44.39300
C  -0.99100 -5.44500 44.96500
C  0.30700 -5.96700 45.70900
C  1.41600 -4.94900 45.15100
C  -2.31300 -5.35800 45.86000
C  0.64500 -7.52100 45.49900
C  1.12300 -8.21100 46.76200
N  3.53700 -2.97100 44.59500
C  3.81800 -4.24300 45.14900
C  5.21100 -4.40400 45.33700
C  5.80000 -3.28500 44.74800
C  4.75300 -2.48500 44.24600
C  5.91700 -5.54800 46.08600
C  7.04000 -2.69000 44.50500
O  8.20000 -3.01900 44.77300
C  6.68000 -1.38800 43.72300
C  6.98200 -0.22100 44.56200
O  6.28700 0.31600 45.37500
O  8.24700 0.20700 44.24700
C  8.57900 1.58900 44.75900
H  0.73400 1.68900 41.64500
H  -2.38300 -3.46900 43.87700
H  3.25700 -5.99700 45.85200
H  5.32700 1.58400 43.15400
H  3.39100 1.92800 41.13600
H  2.82300 3.84000 42.48300
H  4.08400 3.26900 43.63200
H  2.36300 2.93100 43.83600
H  6.90700 1.06000 41.50700
H  5.61600 1.81700 40.62800
H  5.21500 -1.08700 40.54900
H  6.85300 -0.70600 40.19500
H  -1.88500 1.66500 40.76000
H  -1.39000 2.42000 42.23900
H  -2.97900 1.66900 42.15900
H  -5.63300 -2.02100 43.36600
H  -4.12900 -2.18900 44.39700
H  -4.30500 -3.13000 42.90800
H  -1.29300 -6.01700 44.08700
H  0.29900 -5.84600 46.79200
H  -2.00800 -5.67400 46.85700
H  -3.04300 -6.11100 45.56300
H  -2.75600 -4.37300 45.70900
H  1.38900 -7.78400 44.74700
H  -0.31600 -7.92900 45.18700
H  0.33300 -8.70100 47.33300
H  1.63100 -7.53800 47.45200
H  1.91000 -8.90600 46.46900
H  5.84000 -6.48400 45.53300
H  5.61800 -5.74100 47.11600
H  6.99300 -5.37200 46.12000
H  7.20400 -1.28500 42.77300
H  7.90700 2.06100 45.47600
H  8.41900 2.30200 43.95100
H  9.64200 1.61400 44.99800
Mg 47.66900 25.10800 28.61200
C  48.64400 27.31000 30.98700
C  46.23800 23.11900 30.99800
C  46.65400 22.97000 26.11300
C  49.57800 26.97300 26.06600
N  47.71100 25.06100 30.78900
C  47.87100 26.28500 31.55500
C  47.42000 26.01800 32.95400
C  46.66200 24.55300 32.94200
C  46.97200 24.17200 31.49300
C  47.27400 23.53200 34.00900
C  46.42500 27.17400 33.55000
C  47.06400 28.00900 34.68300
H  46.11100 28.31000 35.91100
N  46.64600 23.24400 28.56600
C  46.12100 22.62500 29.67100
C  45.50700 21.37300 29.23000
C  45.49500 21.37300 27.80200
C  46.35700 22.52700 27.39800
C  45.10500 20.37000 30.24000
C  44.82100 20.31300 26.88200
O  44.96900 20.36000 25.63200
C  43.82600 19.30400 27.48200
N  48.11500 24.97700 26.36300
C  47.51900 23.97900 25.57900
C  48.01700 24.09500 24.18400
C  48.58100 25.56300 24.10700
C  48.81700 25.84800 25.54600
C  49.13400 23.05100 23.86500
C  47.65900 26.63500 23.43600
C  48.09000 26.91900 21.96700
N  48.94600 26.63000 28.48200
C  49.60400 27.36000 27.43000
C  50.18500 28.58400 27.98700
C  49.77700 28.60000 29.32800
C  49.09700 27.40100 29.62300
C  51.10900 29.52000 27.25100
C  49.89900 29.44600 30.54900
O  50.55100 30.48700 30.79300
C  49.07200 28.67800 31.67300
C  50.04100 28.44600 32.80100
O  50.76900 27.49200 32.92800
O  49.85800 29.44100 33.74700
C  50.59400 29.18700 35.02500
H  45.75200 22.45200 31.71300
H  46.47400 22.18800 25.37200
H  50.16300 27.59400 25.38500
H  48.38000 25.97400 33.46800
H  45.59400 24.77100 32.96400
H  46.46700 23.13200 34.62300
H  47.96700 24.04600 34.67500
H  47.74500 22.71500 33.46300
H  45.47000 26.80200 33.92200
H  46.13100 27.75000 32.67200
H  47.37000 28.92500 34.17900
H  48.01700 27.56300 34.96800
H  45.42100 19.37200 29.93700
H  44.02700 20.33900 30.39300
H  45.49900 20.59100 31.23200
H  43.16400 18.97800 26.68100
H  43.26000 19.56400 28.37700
H  44.44200 18.43600 27.71800
H  47.27700 23.97200 23.39400
H  49.52800 25.58700 23.56900
H  50.11500 23.52500 23.85600
H  48.89700 22.47600 22.97000
H  49.38700 22.44000 24.73100
H  47.86400 27.46600 24.11100
H  46.64500 26.26600 23.59200
H  48.37300 27.94900 21.74600
H  47.24200 26.65500 21.33500
H  49.01500 26.42300 21.67400
H  51.96000 28.93000 26.91100
H  51.42300 30.36700 27.86000
H  50.63100 29.89400 26.34600
H  48.19200 29.20500 32.04000
H  50.44500 30.07600 35.63700
H  51.65800 28.98100 34.90900
H  50.20600 28.35600 35.61500

