158

Mg -1.33900 18.18200 27.58800
C  -1.96500 15.88700 30.22400
C  -2.35400 20.62400 29.77600
C  -1.24700 20.31800 25.08400
C  -1.36000 15.48000 25.34400
N  -1.77100 18.20200 29.88000
C  -1.95400 17.20600 30.71500
C  -2.28800 17.69500 32.19200
C  -2.52300 19.19500 31.98000
C  -2.23000 19.37900 30.44000
C  -3.97400 19.76600 32.25900
C  -1.13200 17.37300 33.17400
C  -1.59900 16.88900 34.49000
H  -0.69300 16.99400 35.66400
N  -1.50100 20.18400 27.50200
C  -1.96600 20.99800 28.50200
C  -2.07300 22.40600 28.01900
C  -1.69000 22.38000 26.58300
C  -1.41800 20.91300 26.34300
C  -2.64400 23.41300 28.89800
C  -1.60700 23.47400 25.64800
O  -1.31900 23.40900 24.46100
C  -1.72700 24.87800 26.24200
N  -1.41000 17.92000 25.45000
C  -1.18600 19.00400 24.59900
C  -1.05400 18.51400 23.15300
C  -0.75600 16.95200 23.39900
C  -1.20400 16.76800 24.85900
C  -2.24100 18.80100 22.20800
C  0.68700 16.41400 23.25600
C  1.64900 16.99700 24.29100
N  -1.63400 16.10400 27.69800
C  -1.56300 15.15800 26.67200
C  -1.93200 13.89000 27.31800
C  -2.04100 14.09900 28.66500
C  -1.83000 15.45900 28.88900
C  -1.84000 12.58300 26.64200
C  -2.19500 13.36500 29.89700
O  -2.24200 12.16300 30.10900
C  -2.10900 14.54900 30.95100
C  -0.96800 14.25800 31.83000
O  0.22700 14.28400 31.49200
O  -1.48200 13.92400 33.14100
C  -0.44700 13.33000 34.02600
H  -2.89300 21.31200 30.43100
H  -1.09500 20.97300 24.22400
H  -1.37500 14.62600 24.66400
H  -3.19600 17.16500 32.47900
H  -1.85300 19.90000 32.47200
H  -4.62200 19.68600 31.38600
H  -4.04300 20.84600 32.38800
H  -4.52100 19.38300 33.12100
H  -0.66800 18.29800 33.51900
H  -0.30300 16.79800 32.76000
H  -1.89000 15.84200 34.40300
H  -2.42400 17.56100 34.72600
H  -2.46000 23.27600 29.96400
H  -3.72900 23.31200 28.92600
H  -2.31300 24.41800 28.63700
H  -2.75400 25.11600 26.51700
H  -1.26900 25.55800 25.52300
H  -1.08200 24.95900 27.11600
H  -0.13900 18.81100 22.64100
H  -1.28700 16.23300 22.77600
H  -3.13100 18.21300 22.43500
H  -1.96700 18.64800 21.16400
H  -2.55700 19.83200 22.36800
H  1.04900 16.68600 22.26500
H  0.59600 15.33100 23.33000
H  1.37400 16.85400 25.33600
H  1.70100 18.08200 24.19200
H  2.65300 16.63600 24.07100
H  -0.89700 12.12100 26.93400
H  -1.96500 12.60300 25.56000
H  -2.67600 11.94300 26.92400
H  -3.04800 14.55900 31.50400
H  0.32000 12.75500 33.50700
H  -0.94000 12.78700 34.83200
H  0.20700 14.05400 34.51200
Mg 24.33000 -4.96500 45.22100
C  26.85600 -3.02100 43.84100
C  22.12400 -3.54600 43.12100
C  22.29000 -7.57000 45.83300
C  26.91500 -6.76200 46.96300
N  24.47600 -3.39500 43.88000
C  25.56000 -2.72700 43.39100
C  25.22500 -1.59500 42.31700
C  23.66600 -1.65800 42.43400
C  23.35200 -2.90700 43.23000
C  22.93900 -0.34900 43.01100
C  25.66800 -2.09900 40.91700
C  26.23800 -0.94900 40.07700
H  26.02000 -0.94200 38.53600
N  22.43600 -5.50600 44.53000
C  21.68300 -4.78900 43.63300
C  20.45100 -5.47500 43.42600
C  20.49300 -6.64500 44.24500
C  21.72400 -6.57600 44.98700
C  19.35800 -4.99200 42.49200
C  19.41500 -7.67900 44.33200
O  18.37800 -7.57700 43.61400
C  19.37000 -8.79500 45.31800
N  24.69600 -7.00100 46.11600
C  23.54400 -7.72500 46.44100
C  23.89100 -8.96500 47.31100
C  25.30200 -8.58100 47.83500
C  25.68600 -7.39900 46.93000
C  22.86400 -9.23700 48.51300
C  26.28700 -9.79100 47.93700
C  26.81100 -10.40900 46.60800
N  26.42800 -4.85700 45.53400
C  27.31800 -5.63000 46.22500
C  28.68800 -5.11900 46.04800
C  28.54300 -4.09300 45.10300
C  27.17900 -3.99700 44.81900
C  29.93400 -5.69200 46.63700
C  29.25700 -3.12500 44.35100
O  30.48600 -2.89600 44.37000
C  28.20400 -2.45000 43.37800
C  28.36200 -1.03300 43.57200
O  27.87700 -0.25300 44.36600
O  29.07000 -0.60500 42.43800
C  28.99100 0.85000 42.06900
H  21.49400 -3.05800 42.37400
H  21.61300 -8.38800 46.08800
H  27.69700 -7.32300 47.47800
H  25.60800 -0.65700 42.72000
H  23.01600 -1.83700 41.57800
H  22.43600 0.21500 42.22600
H  23.62800 0.44000 43.31500
H  22.32600 -0.58500 43.88100
H  24.90300 -2.71000 40.43700
H  26.49700 -2.80600 40.95500
H  27.30800 -0.94600 40.28300
H  25.84300 0.00400 40.43000
H  19.87600 -5.03700 41.53400
H  19.14000 -3.95100 42.72900
H  18.42700 -5.55900 42.46300
H  19.61600 -8.47100 46.33000
H  19.98900 -9.61400 44.95300
H  18.34500 -9.16400 45.33700
H  23.82700 -9.86400 46.69900
H  25.16200 -8.07200 48.78900
H  22.08000 -8.48600 48.61000
H  23.25300 -9.50700 49.49400
H  22.30000 -10.10300 48.16500
H  25.70700 -10.59300 48.39300
H  27.06600 -9.70100 48.69500
H  27.88900 -10.53900 46.69900
H  26.71900 -9.67500 45.80700
H  26.38100 -11.35200 46.27100
H  30.51200 -6.09200 45.80400
H  29.64700 -6.54300 47.25600
H  30.55400 -4.96400 47.16000
H  28.55000 -2.82300 42.41400
H  28.83300 1.44700 42.96800
H  28.27800 0.99200 41.25800
H  29.92700 1.16800 41.61000

