158

Mg 54.00200 24.82700 45.47400
C  51.39200 27.08800 44.70100
C  52.02200 22.25800 44.44200
C  56.83100 22.85500 45.64100
C  55.94900 27.54600 46.52500
N  52.05000 24.78200 44.38300
C  51.09600 25.79600 44.27700
C  49.78300 25.21000 43.70700
C  49.97000 23.67900 43.95500
C  51.50100 23.51900 44.25500
C  49.14100 23.12300 45.10000
C  49.61400 25.45300 42.15900
C  48.08400 25.40300 41.65100
H  47.87900 25.10600 40.12400
N  54.35600 22.81800 45.04700
C  53.39000 21.95600 44.75100
C  54.00900 20.60500 44.63600
C  55.41900 20.76200 44.85500
C  55.61100 22.20900 45.19400
C  53.41300 19.43300 44.01700
C  56.43400 19.58800 44.78300
O  56.09100 18.43200 44.69400
C  57.90700 19.78300 44.79600
N  56.06300 25.09800 46.13800
C  57.04700 24.14300 46.11200
C  58.35400 24.71200 46.65200
C  58.07600 26.24900 46.53800
C  56.59800 26.33500 46.39400
C  58.53700 24.28000 48.11800
C  58.60600 26.79400 45.18300
C  59.75300 27.80800 45.37200
N  53.68800 26.86400 45.70400
C  54.62100 27.81700 46.14100
C  53.94500 29.17100 46.25600
C  52.70200 28.93300 45.66100
C  52.60000 27.54100 45.31000
C  54.56000 30.46400 46.87800
C  51.45900 29.50900 45.27800
O  51.09500 30.62900 45.46000
C  50.53900 28.32600 44.62600
C  50.17000 28.73400 43.27900
O  51.01400 28.76700 42.35700
O  48.86800 28.90400 43.20300
C  48.32900 29.19300 41.85400
H  51.38000 21.38600 44.29500
H  57.67200 22.20000 45.87700
H  56.58100 28.37300 46.85700
H  48.87000 25.52800 44.21000
H  49.90000 23.03700 43.07700
H  49.83600 22.94500 45.92100
H  48.75300 22.17600 44.72500
H  48.31600 23.75300 45.43200
H  50.26800 24.73800 41.65800
H  49.99700 26.42600 41.85000
H  47.39700 26.21800 41.87600
H  47.77500 24.51500 42.20300
H  54.01300 19.19800 43.13700
H  52.40900 19.68700 43.67700
H  53.45600 18.56200 44.66900
H  58.21700 20.64700 44.20900
H  58.42400 18.87000 44.50200
H  58.14700 19.82300 45.85900
H  59.14800 24.35800 45.99400
H  58.36600 26.85100 47.39900
H  58.49300 23.19200 48.14200
H  57.75400 24.69600 48.75200
H  59.48400 24.54100 48.59100
H  57.84500 27.32400 44.61000
H  58.98700 26.02800 44.50800
H  60.48500 27.59500 44.59400
H  60.24500 27.82500 46.34500
H  59.45300 28.85600 45.34900
H  55.64400 30.56900 46.92000
H  54.23700 30.42100 47.91800
H  54.17900 31.29400 46.28300
H  49.61300 28.27600 45.20100
H  48.02900 30.24100 41.87600
H  47.38900 28.65600 41.72000
H  48.92900 28.84500 41.01400
Mg 49.02500 35.14100 27.08900
C  47.00300 34.01300 29.81000
C  49.61200 37.95100 28.94700
C  50.05700 36.53500 24.33900
C  47.80000 32.39900 25.23000
N  48.46000 35.78200 29.25000
C  47.68700 35.15000 30.15200
C  47.67300 35.92200 31.44900
C  48.08200 37.37100 31.00500
C  48.78600 37.01600 29.65300
C  46.88500 38.46000 30.97100
C  48.60500 35.33800 32.58700
C  47.88700 35.05200 33.93800
H  46.91500 36.07800 34.41300
N  49.94600 36.89300 26.74200
C  50.10800 37.92700 27.59600
C  50.86800 39.01200 26.97700
C  50.87900 38.72600 25.55800
C  50.27400 37.36900 25.46800
C  51.26000 40.21100 27.75200
C  51.47800 39.49000 24.44300
O  51.42000 39.01600 23.31200
C  52.15900 40.78000 24.63900
N  48.98100 34.47700 25.06500
C  49.55900 35.29200 24.13400
C  49.32300 34.68000 22.76100
C  48.82500 33.20100 23.05900
C  48.56300 33.35500 24.58600
C  48.23900 35.43400 21.92700
C  49.83700 32.01500 22.79500
C  49.66300 31.26100 21.46500
N  47.75200 33.46500 27.44000
C  47.43100 32.39500 26.61000
C  46.67400 31.39700 27.34500
C  46.43100 31.98000 28.61700
C  47.07900 33.24900 28.59700
C  46.03300 30.04600 26.88900
C  45.58200 31.88500 29.80300
O  44.69600 30.99200 30.11100
C  46.02700 33.13400 30.62900
C  46.63800 32.57200 31.93100
O  47.75800 32.11200 32.04800
O  45.68000 32.39400 32.93900
C  46.06700 31.52800 34.01000
H  49.74700 38.87500 29.51300
H  50.35400 36.92600 23.36400
H  47.42900 31.60700 24.57500
H  46.62900 35.83900 31.75300
H  48.92300 37.84500 31.51100
H  47.15800 39.39700 31.45500
H  46.05500 37.97900 31.48900
H  46.58800 38.73300 29.95800
H  49.43300 35.93200 32.97200
H  48.96600 34.42100 32.12100
H  48.64500 34.96700 34.71600
H  47.34300 34.10800 33.92000
H  50.43000 40.88400 27.96900
H  51.90700 40.96500 27.30300
H  51.76300 39.81900 28.63500
H  51.43500 41.36400 25.20700
H  52.41900 41.31600 23.72700
H  53.00800 40.49200 25.26000
H  50.24100 34.61500 22.17600
H  47.83300 32.97500 22.66700
H  47.29900 34.90500 21.77100
H  48.56600 35.82000 20.96100
H  47.87600 36.24100 22.56200
H  49.76100 31.33800 23.64600
H  50.83900 32.44400 22.81000
H  50.65200 31.30100 21.01000
H  48.93100 31.67800 20.77200
H  49.40100 30.25500 21.79200
H  46.25200 29.89600 25.83200
H  44.95800 30.04500 27.07000
H  46.58900 29.31600 27.47700
H  45.16000 33.74600 30.87500
H  45.13500 31.23100 34.49100
H  46.70400 32.02900 34.73900
H  46.50000 30.57100 33.72100

