158

Mg -1.66300 16.68400 27.16500
C  -2.00200 14.39900 29.78600
C  -2.70200 19.13800 29.27900
C  -1.81900 18.74100 24.53000
C  -1.44200 14.01300 25.04500
N  -2.08600 16.74700 29.32000
C  -2.00600 15.75800 30.24300
C  -2.06200 16.28700 31.71900
C  -2.40300 17.83800 31.50700
C  -2.43900 17.87200 29.92400
C  -3.71800 18.38000 32.13300
C  -0.77700 15.97600 32.54700
C  -0.44900 17.01300 33.65900
H  0.26700 16.48000 34.96700
N  -2.01800 18.72700 26.95800
C  -2.44500 19.59400 27.96200
C  -2.55200 20.94400 27.41000
C  -2.10000 20.82300 26.05400
C  -1.97000 19.37900 25.77500
C  -2.93500 22.16600 28.31600
C  -1.91100 21.86600 24.92200
O  -1.43100 21.57200 23.83600
C  -2.36700 23.31000 25.07400
N  -1.74800 16.40900 25.05800
C  -1.69400 17.39000 24.17400
C  -1.60400 16.93000 22.72600
C  -1.53900 15.42700 22.86700
C  -1.49100 15.26100 24.41300
C  -2.75500 17.44100 21.73500
C  -0.54500 14.61200 22.04300
C  0.88000 14.65300 22.68300
N  -1.71700 14.60200 27.30300
C  -1.53500 13.63600 26.34900
C  -1.57800 12.35300 26.87600
C  -1.80200 12.59000 28.25200
C  -1.90200 13.94300 28.48700
C  -1.50700 11.03100 26.17900
C  -1.98700 11.96000 29.52100
O  -2.00000 10.76300 29.91200
C  -2.22600 13.12600 30.54600
C  -1.49400 12.89900 31.79100
O  -0.32700 12.57000 31.74300
O  -2.22900 13.02800 32.96800
C  -1.48500 12.67700 34.22400
H  -2.74800 19.91700 30.04200
H  -1.91500 19.38400 23.65400
H  -1.12200 13.13200 24.48400
H  -2.82200 15.79500 32.32600
H  -1.54700 18.41800 31.85300
H  -4.30100 18.85400 31.34400
H  -3.42700 19.17500 32.81900
H  -4.37800 17.65700 32.61200
H  -0.00200 15.89000 31.78400
H  -0.97500 15.10400 33.17000
H  -1.45700 17.35000 33.90200
H  0.04300 17.83500 33.14000
H  -3.97700 22.18500 28.63900
H  -2.64300 23.05200 27.75200
H  -2.31000 22.12600 29.20800
H  -1.74800 23.74200 25.86100
H  -3.35900 23.17900 25.50700
H  -2.37200 23.73900 24.07200
H  -0.68200 17.38600 22.36500
H  -2.57600 15.14300 22.68300
H  -3.51400 16.70300 21.47400
H  -2.29800 17.60600 20.76000
H  -3.21500 18.32600 22.17400
H  -0.58500 15.10500 21.07100
H  -0.87600 13.57800 21.94800
H  1.60800 15.02000 21.95900
H  1.14000 13.62800 22.94800
H  0.96600 15.28600 23.56600
H  -1.84400 11.01900 25.14300
H  -2.07300 10.28200 26.73300
H  -0.44900 10.76800 26.16000
H  -3.27400 13.25700 30.81400
H  -2.26200 12.33900 34.91000
H  -0.97400 13.52100 34.68800
H  -0.85900 11.82200 33.97200
Mg 26.50000 -0.44200 29.11800
C  28.12900 -0.89700 32.12300
C  23.53000 -0.60000 30.87100
C  24.77100 -0.21900 26.17200
C  29.25900 -1.06200 27.37100
N  25.94800 -0.72000 31.22300
C  26.80100 -0.76500 32.31200
C  26.11600 -0.79200 33.70600
C  24.57400 -0.67900 33.25000
C  24.67300 -0.62200 31.69000
C  23.68200 -1.79000 33.84800
C  26.49100 0.33100 34.68500
C  25.67200 0.38000 35.99100
H  26.47100 0.22800 37.27000
N  24.50500 -0.25500 28.63400
C  23.41300 -0.43800 29.48900
C  22.14500 -0.27500 28.75200
C  22.45400 0.01600 27.37800
C  24.00900 -0.15700 27.35200
C  20.77100 -0.43900 29.39600
C  21.49300 0.30600 26.19500
O  21.85100 0.48200 25.02700
C  20.06000 0.34900 26.44500
N  26.96600 -0.75700 27.07000
C  26.15100 -0.39900 26.05900
C  26.85900 -0.23600 24.71500
C  28.36800 -0.40000 25.10100
C  28.22000 -0.69600 26.62400
C  26.26900 -1.36600 23.69700
C  29.31800 0.84900 24.91100
C  30.76200 0.62400 24.65600
N  28.32900 -0.87500 29.59100
C  29.36100 -1.12300 28.76800
C  30.53700 -1.45400 29.51500
C  30.10300 -1.35500 30.87600
C  28.75900 -0.97800 30.87300
C  31.91000 -1.76400 28.94400
C  30.54200 -1.46300 32.19700
O  31.67800 -1.63700 32.70500
C  29.30200 -1.09400 33.13200
C  29.08800 -2.25300 34.04900
O  28.68900 -3.38100 33.76800
O  29.40800 -1.82300 35.29700
C  29.19800 -2.82500 36.43900
H  22.62000 -0.58300 31.47400
H  24.15800 -0.16200 25.27000
H  30.20200 -1.20300 26.83900
H  26.34800 -1.75300 34.16600
H  24.12500 0.29100 33.46300
H  23.55700 -2.53200 33.05900
H  22.72900 -1.33200 34.11200
H  24.13500 -2.14100 34.77600
H  26.59500 1.38200 34.41400
H  27.55000 0.14300 34.86600
H  24.81200 -0.29000 36.01000
H  25.16900 1.33400 36.15000
H  20.14600 -1.11700 28.81400
H  20.22400 0.50400 29.43200
H  21.00100 -0.89700 30.35800
H  19.62700 0.79000 25.54700
H  20.01700 1.11800 27.21600
H  19.47400 -0.55300 26.62300
H  26.61100 0.78400 24.42100
H  28.88700 -1.25500 24.66700
H  25.90900 -2.11100 24.40600
H  27.08600 -1.83100 23.14500
H  25.39500 -1.01300 23.14900
H  29.42100 1.47700 25.79600
H  29.08500 1.54300 24.10400
H  31.34800 1.36100 25.20600
H  31.06500 0.80100 23.62400
H  31.07700 -0.41900 24.69600
H  32.11400 -1.51600 27.90300
H  32.03700 -2.83700 29.08900
H  32.70500 -1.33300 29.55200
H  29.56500 -0.20200 33.70000
H  29.53800 -3.80200 36.09500
H  28.17100 -2.94300 36.78500
H  29.87900 -2.79300 37.29000

