158

Mg 17.48100 -0.72900 27.81400
C  16.59800 1.12100 30.64900
C  19.30600 -2.91000 29.92900
C  19.15300 -2.09200 25.09100
C  16.04500 1.65200 25.78600
N  17.97100 -0.78700 30.04100
C  17.40100 0.00100 30.99600
C  17.82200 -0.42000 32.39400
C  18.80800 -1.62700 32.13900
C  18.61500 -1.84800 30.61800
C  20.28100 -1.39800 32.48100
C  16.59900 -0.67600 33.44900
C  16.93200 -0.54400 34.91300
H  18.25700 0.06600 35.32000
N  18.90600 -2.41900 27.59100
C  19.49200 -3.19900 28.52900
C  20.23300 -4.27500 27.90700
C  20.11700 -4.04600 26.55400
C  19.39800 -2.83100 26.30700
C  20.92600 -5.27200 28.70500
C  20.76000 -4.81100 25.34100
O  20.53100 -4.55200 24.16300
C  21.73400 -5.98000 25.65500
N  17.58500 -0.32100 25.71200
C  18.24000 -1.08700 24.80700
C  17.85300 -0.62200 23.36800
C  16.80500 0.44500 23.58700
C  16.82100 0.67000 25.12100
C  19.17200 -0.17500 22.50800
C  15.45500 0.13900 23.02700
C  14.39900 -0.67900 23.89600
N  16.48600 1.04400 28.09000
C  15.85300 1.86400 27.15100
C  15.11700 2.92600 27.82600
C  15.37600 2.67500 29.27100
C  16.22400 1.48900 29.33800
C  14.31200 4.02600 27.17700
C  15.05600 3.08300 30.62400
O  14.24600 3.96700 30.97100
C  15.95400 2.19300 31.51200
C  16.86100 3.01100 32.33400
O  18.04200 3.18100 32.13800
O  16.09500 3.62800 33.27500
C  16.86200 4.47200 34.24400
H  19.75000 -3.48000 30.74800
H  19.53000 -2.42200 24.12100
H  15.50600 2.36800 25.16100
H  18.36200 0.43000 32.81000
H  18.32500 -2.48300 32.61300
H  20.64600 -2.37800 32.78800
H  20.42900 -0.52200 33.11200
H  20.87700 -1.16500 31.59900
H  16.29300 -1.67600 33.14300
H  15.85000 0.09900 33.29000
H  16.76100 -1.47000 35.46300
H  16.18400 0.09300 35.38400
H  21.99600 -5.07100 28.64900
H  20.68100 -6.25300 28.29800
H  20.81100 -5.12400 29.77900
H  21.19400 -6.81200 26.10700
H  22.49500 -5.66100 26.36700
H  22.07900 -6.24500 24.65500
H  17.47300 -1.44900 22.76800
H  17.13900 1.35900 23.09700
H  20.02600 -0.27100 23.17900
H  19.02900 0.88100 22.27800
H  19.38900 -0.69200 21.57300
H  15.54700 -0.48700 22.14000
H  15.01400 1.10700 22.78900
H  13.52600 -0.14500 24.27000
H  14.88200 -1.04500 24.80200
H  13.96900 -1.48900 23.30600
H  14.11400 3.99000 26.10600
H  14.71300 4.96000 27.57100
H  13.33900 3.89500 27.65100
H  15.13300 1.80600 32.11700
H  16.17500 5.25800 34.55700
H  17.62700 5.01900 33.69200
H  17.22600 4.07400 35.19100
Mg 41.20700 8.45800 29.82300
C  43.20600 9.57900 32.49900
C  39.17500 6.84500 32.27200
C  39.30200 7.32700 27.34300
C  43.63800 9.54800 27.60100
N  41.14500 8.33400 32.09600
C  42.00400 8.97300 32.95200
C  41.68000 8.60900 34.38000
C  40.66900 7.51400 34.23700
C  40.32400 7.57100 32.76500
C  41.01500 6.05600 34.70100
C  41.20000 9.87600 35.16000
C  41.83900 10.05100 36.56100
H  41.87700 11.48800 37.11700
N  39.41500 7.35200 29.76900
C  38.71000 6.86100 30.90400
C  37.48800 6.30400 30.36800
C  37.43300 6.51800 28.92000
C  38.72400 7.13800 28.59200
C  36.44500 5.65500 31.21600
C  36.44700 6.25000 27.89300
O  36.49500 6.58500 26.71800
C  35.17400 5.50400 28.30500
N  41.63400 8.13800 27.76900
C  40.59900 7.85100 26.96800
C  40.90300 8.11100 25.54900
C  42.40200 8.55200 25.56200
C  42.55700 8.89700 27.03700
C  40.56100 6.98700 24.49200
C  42.62700 9.76600 24.57700
C  41.96400 11.11000 24.89900
N  43.00500 9.46400 29.95300
C  43.90700 9.83600 28.98900
C  45.17000 10.33200 29.57800
C  44.86800 10.32900 30.95800
C  43.52000 9.77600 31.12900
C  46.41500 10.71100 28.82600
C  45.38800 10.72500 32.29200
O  46.43800 11.28700 32.52400
C  44.33300 10.30000 33.32400
C  45.02400 9.26700 34.13600
O  45.56000 8.24600 33.72800
O  45.14300 9.73000 35.45800
C  46.23000 9.18700 36.27700
H  38.42900 6.58200 33.02500
H  38.77600 6.90600 26.48400
H  44.50800 9.89400 27.04100
H  42.58300 8.26400 34.88300
H  39.78400 7.79500 34.80800
H  40.41000 5.93000 35.59900
H  42.02000 6.08500 35.12400
H  40.80700 5.23600 34.01400
H  40.14200 9.92400 35.41700
H  41.47000 10.78500 34.62300
H  42.84000 9.62300 36.51700
H  41.24500 9.42700 37.22800
H  36.79800 5.56400 32.24400
H  36.04000 4.71400 30.84500
H  35.53900 6.26200 31.23000
H  35.28200 4.43200 28.47200
H  34.61700 5.41600 27.37200
H  34.66400 6.00600 29.12700
H  40.16200 8.85300 25.25100
H  42.99300 7.64700 25.41800
H  39.52900 7.03300 24.14200
H  40.74500 6.05000 25.01800
H  41.31200 7.02200 23.70300
H  42.22100 9.39000 23.63800
H  43.71400 9.81600 24.50200
H  42.74800 11.86700 24.86100
H  41.49800 11.15800 25.88300
H  41.16800 11.23400 24.16500
H  46.71600 9.95300 28.10200
H  47.31800 10.97500 29.37700
H  46.22500 11.58700 28.20600
H  43.89800 11.04300 33.99200
H  46.90000 10.00100 36.55500
H  46.82100 8.44300 35.74400
H  46.00800 8.71700 37.23500

