158

Mg 34.22900 3.76800 29.61500
C  32.17300 4.74300 32.25900
C  36.88100 3.56500 31.75900
C  36.13000 2.84500 27.02300
C  31.47200 4.29700 27.41300
N  34.49400 4.29500 31.66600
C  33.51100 4.49200 32.60700
C  34.08600 4.37500 34.06500
C  35.59300 4.40200 33.79700
C  35.65800 3.99200 32.32000
C  36.27100 5.76500 34.25800
C  33.44500 3.19400 34.86800
C  33.34200 3.22500 36.35500
H  33.97200 4.40400 37.08700
N  36.21000 3.37600 29.36700
C  37.15500 3.29400 30.37000
C  38.43100 2.94100 29.77100
C  38.27100 2.65700 28.42400
C  36.77700 2.94200 28.22700
C  39.75200 2.91100 30.54000
C  39.31200 2.28500 27.37500
O  39.06500 2.44800 26.19600
C  40.59200 1.65400 27.75100
N  33.76000 3.38900 27.61000
C  34.80000 3.08100 26.69700
C  34.30700 3.10600 25.29100
C  32.85200 3.61300 25.36100
C  32.64200 3.73300 26.90300
C  35.17000 3.94100 24.34900
C  31.96100 2.61000 24.57900
C  31.39000 1.37000 25.28100
N  32.22400 4.31900 29.78500
C  31.23700 4.54000 28.81500
C  29.97600 4.92400 29.42600
C  30.26200 5.02200 30.83500
C  31.62200 4.66700 30.98100
C  28.61200 5.18100 28.68000
C  29.76600 5.28200 32.16700
O  28.61800 5.58200 32.51000
C  30.99500 5.18000 33.14100
C  31.10500 6.49000 33.82200
O  31.25500 7.60600 33.27000
O  31.04000 6.32600 35.13000
C  31.41400 7.47800 35.97800
H  37.79800 3.45200 32.34000
H  36.81700 2.58600 26.21500
H  30.70400 4.60000 26.69800
H  33.62000 5.22300 34.56600
H  35.94600 3.55000 34.37800
H  37.00800 5.56500 35.03600
H  35.42900 6.39300 34.54800
H  36.69400 6.19200 33.34900
H  33.96400 2.28700 34.55800
H  32.44100 3.01000 34.48500
H  33.73000 2.29200 36.76500
H  32.27700 3.30400 36.57400
H  39.64400 3.56100 31.40900
H  40.60300 3.20400 29.92500
H  40.07900 1.90500 30.80100
H  40.99400 1.02000 26.96100
H  40.40800 0.99400 28.59900
H  41.37800 2.37300 27.98100
H  34.40800 2.09000 24.90800
H  32.82300 4.56700 24.83400
H  35.92000 4.51000 24.89800
H  34.61600 4.67600 23.76600
H  35.69300 3.30800 23.63200
H  32.40200 2.33000 23.62300
H  31.09500 3.19200 24.26200
H  31.37600 0.54100 24.57300
H  30.36800 1.56500 25.60500
H  32.10900 1.00100 26.01300
H  27.87100 5.40900 29.44700
H  28.23100 4.31000 28.14800
H  28.71900 6.01100 27.98100
H  30.80100 4.35900 33.83200
H  31.61300 7.05000 36.96100
H  30.65800 8.26300 35.96200
H  32.35500 7.87900 35.60100
Mg -12.94200 16.36600 42.87700
C  -9.95500 14.60500 42.36600
C  -11.55400 19.14200 41.46800
C  -16.12100 17.64800 42.67600
C  -14.47800 13.15100 43.55400
N  -10.89900 16.71500 41.79200
C  -9.78900 15.98000 41.95200
C  -8.55400 16.70500 41.52500
C  -9.12100 18.19200 41.31500
C  -10.64600 18.09200 41.63500
C  -8.37700 19.26800 42.14500
C  -8.06900 16.10400 40.19700
C  -6.52300 16.08300 39.91500
H  -5.86100 15.07900 38.98500
N  -13.78400 18.20500 42.13400
C  -12.98100 19.19900 41.70700
C  -13.79200 20.36400 41.55100
C  -15.13700 20.02600 41.93500
C  -15.07600 18.62500 42.28700
C  -13.16100 21.72400 41.12400
C  -16.37500 20.97000 41.86200
O  -16.27400 22.07800 41.32400
C  -17.71000 20.52100 42.38900
N  -15.01400 15.51000 43.12700
C  -16.12300 16.25100 42.99500
C  -17.43200 15.45300 43.17000
C  -16.84400 14.04100 43.50200
C  -15.37100 14.26000 43.44400
C  -18.59300 15.98100 44.06000
C  -17.51000 12.86700 42.72900
C  -18.05700 11.78300 43.69200
N  -12.37900 14.29400 43.08500
C  -13.10800 13.15900 43.35200
C  -12.23500 11.96100 43.44800
C  -10.99400 12.50400 43.03700
C  -11.11600 13.92100 42.85000
C  -12.57300 10.57700 43.94400
C  -9.57000 12.26500 42.78400
O  -8.92200 11.21000 42.81500
C  -8.89500 13.50200 42.28800
C  -7.67800 13.82700 43.08800
O  -7.57800 14.07300 44.28100
O  -6.61900 13.85200 42.20200
C  -5.35500 14.18900 42.82100
H  -11.14600 20.12200 41.21200
H  -17.13300 18.05400 42.62100
H  -15.01800 12.21400 43.70500
H  -7.81400 16.58600 42.31700
H  -9.01100 18.54600 40.29000
H  -7.55200 18.87400 42.73800
H  -9.08500 19.79900 42.78200
H  -7.91600 19.98800 41.46800
H  -8.48600 16.66000 39.35700
H  -8.51700 15.11700 40.07300
H  -6.00100 16.11400 40.87200
H  -6.22700 17.04900 39.50600
H  -12.57400 22.12800 41.94900
H  -13.95500 22.41400 40.83800
H  -12.53400 21.61100 40.23900
H  -18.13500 19.64000 41.90700
H  -18.38600 21.37600 42.41600
H  -17.55700 20.33200 43.45200
H  -17.88600 15.47500 42.18000
H  -16.89400 13.83200 44.57100
H  -18.67900 17.06700 44.01700
H  -18.57700 15.52200 45.04800
H  -19.52700 15.65200 43.60600
H  -16.85500 12.49000 41.94400
H  -18.34300 13.31200 42.18400
H  -17.75300 10.82900 43.26000
H  -19.12900 11.63900 43.82600
H  -17.49000 11.81300 44.62200
H  -13.23700 9.91700 43.38600
H  -12.94600 10.69900 44.96100
H  -11.62700 10.03700 43.91200
H  -8.48900 13.31100 41.29400
H  -5.09400 13.42900 43.55700
H  -5.45100 15.21700 43.17000
H  -4.67400 14.23000 41.97100

