158

Mg 42.87300 3.91500 47.18700
C  40.55700 6.35100 47.40200
C  40.48100 1.58900 47.41800
C  45.28200 1.44700 46.84000
C  45.34900 6.24300 46.15900
N  40.79100 3.98500 47.26400
C  40.01700 5.07400 47.47300
C  38.55500 4.65800 47.49100
C  38.65900 3.18500 47.83600
C  40.07800 2.88200 47.52300
C  38.40600 2.83200 49.37200
C  37.74800 5.02100 46.17300
C  38.23700 4.62800 44.85100
H  38.39800 5.76200 43.77400
N  42.85800 1.81100 46.98000
C  41.75700 1.06600 47.11500
C  42.10400 -0.35900 47.10800
C  43.47000 -0.47900 46.85000
C  43.96700 0.97800 46.83700
C  41.04400 -1.47300 47.17300
C  44.29400 -1.83200 46.71000
O  43.81900 -2.92400 46.82700
C  45.71900 -1.72700 46.40300
N  44.98400 3.83700 46.43400
C  45.80000 2.73100 46.68100
C  47.27300 3.07800 46.65800
C  47.25800 4.53900 46.02400
C  45.76200 4.93500 46.18800
C  48.03600 2.98900 48.11200
C  47.82000 4.62800 44.54800
C  49.14400 5.30500 44.32700
N  43.02500 5.89800 46.95500
C  44.07300 6.79900 46.53000
C  43.60900 8.18300 46.59900
C  42.29700 8.04800 47.04600
C  41.96400 6.66000 47.14400
C  44.48500 9.43000 46.35900
C  41.07700 8.83000 47.34500
O  40.84700 10.04500 47.33800
C  39.91800 7.73300 47.56300
C  39.20000 7.91800 48.79000
O  39.53600 7.37600 49.83200
O  38.14600 8.73000 48.63700
C  37.11800 8.94300 49.69000
H  39.68500 0.84800 47.51800
H  46.07200 0.69900 46.93400
H  46.20100 6.81500 45.78600
H  38.04000 5.21100 48.27600
H  37.99500 2.58600 47.21300
H  38.12100 3.77100 49.84700
H  39.34500 2.55400 49.85200
H  37.67600 2.02600 49.44000
H  37.73300 6.11100 46.20500
H  36.76000 4.59800 46.35800
H  37.43700 4.04200 44.40000
H  39.13400 4.01100 44.91200
H  40.30300 -1.64200 46.39200
H  40.49100 -1.31400 48.09900
H  41.48900 -2.45900 47.30900
H  46.28000 -1.55800 47.32200
H  45.85200 -1.03100 45.57500
H  46.11800 -2.63700 45.95700
H  47.72900 2.34300 45.99500
H  47.86600 5.19900 46.64200
H  47.41900 2.35600 48.75000
H  48.26900 3.92900 48.61200
H  49.03100 2.54600 48.05000
H  47.06300 5.05900 43.89400
H  47.97200 3.61300 44.18200
H  49.77300 4.68700 43.68600
H  49.66000 5.44900 45.27600
H  49.01500 6.22900 43.76300
H  45.53800 9.15700 46.42000
H  44.23500 10.28200 46.99100
H  44.33200 9.74000 45.32500
H  39.19200 7.92600 46.77300
H  37.53900 8.93000 50.69500
H  36.42400 8.10300 49.66900
H  36.56100 9.86700 49.53400
Mg -5.25900 24.63800 26.47900
C  -3.64400 26.64000 28.86700
C  -6.13300 22.42700 28.90400
C  -6.97900 22.92500 24.14000
C  -4.01200 26.80500 23.95200
N  -5.16100 24.69700 28.60200
C  -4.54200 25.64800 29.41500
C  -4.71100 25.36400 30.92900
C  -5.35800 23.95200 30.83000
C  -5.49200 23.60600 29.31400
C  -4.36100 22.94200 31.42900
C  -5.60600 26.45200 31.61800
C  -5.17100 26.90100 32.99700
H  -4.65700 25.77100 33.99400
N  -6.38900 22.86800 26.52300
C  -6.54800 22.07700 27.59400
C  -7.30800 20.86100 27.18800
C  -7.52800 21.02700 25.80400
C  -6.92300 22.30700 25.39200
C  -7.67500 19.79200 28.26500
C  -8.23200 20.03800 24.84900
O  -8.40900 20.28800 23.67400
C  -8.95300 18.88300 25.44800
N  -5.49000 24.88000 24.34200
C  -6.28700 24.05900 23.62200
C  -6.09200 24.42600 22.07900
C  -5.24700 25.72100 22.10100
C  -4.79400 25.76700 23.52600
C  -5.36100 23.29400 21.29900
C  -5.95400 26.95900 21.53700
C  -5.21800 27.77900 20.48100
N  -4.09400 26.35600 26.37200
C  -3.58600 27.06800 25.32700
C  -2.82700 28.17500 25.83700
C  -2.87200 28.07700 27.21200
C  -3.57800 26.92000 27.48700
C  -2.14400 29.19100 24.98000
C  -2.36300 28.66200 28.44500
O  -1.69000 29.66700 28.63800
C  -2.85700 27.74000 29.57600
C  -1.63100 27.20200 30.24600
O  -0.67000 26.72800 29.65300
O  -1.73900 27.32700 31.61000
C  -0.67000 26.75400 32.34500
H  -6.34100 21.77000 29.75200
H  -7.53000 22.37300 23.37600
H  -3.64400 27.57500 23.27100
H  -3.75100 25.51300 31.42400
H  -6.32000 23.84700 31.33100
H  -3.87100 22.43300 30.59900
H  -4.89800 22.24300 32.07000
H  -3.57500 23.42600 32.00900
H  -6.62600 26.11200 31.79800
H  -5.66300 27.37700 31.04400
H  -5.98000 27.38900 33.54100
H  -4.28900 27.53300 32.89400
H  -8.76300 19.73500 28.23200
H  -7.30500 20.07500 29.25000
H  -7.07800 18.90400 28.05700
H  -8.25400 18.21000 25.94400
H  -9.62400 18.32900 24.79100
H  -9.50800 19.36000 26.25600
H  -7.11800 24.55100 21.73400
H  -4.26400 25.66900 21.63400
H  -5.49300 22.28200 21.68200
H  -4.28200 23.44800 21.30400
H  -5.76800 23.30900 20.28800
H  -6.25400 27.58400 22.37800
H  -6.86900 26.56800 21.09300
H  -5.98000 28.18000 19.81300
H  -4.45300 27.28700 19.88100
H  -4.74400 28.53300 21.11000
H  -2.81000 29.73800 24.31400
H  -1.41200 28.68300 24.35200
H  -1.69200 29.90300 25.67100
H  -3.50500 28.28100 30.26700
H  0.29600 26.75300 31.84000
H  -0.91400 25.73300 32.63900
H  -0.48200 27.39000 33.21000

