158

Mg 41.99300 41.47600 26.35700
C  40.90900 43.76900 28.73900
C  43.37500 39.55500 28.78400
C  43.08300 39.33200 23.93900
C  40.94800 43.62500 23.87200
N  42.19100 41.77800 28.54700
C  41.53000 42.67900 29.36900
C  41.85000 42.41000 30.82200
C  42.87300 41.17300 30.76500
C  42.81400 40.75000 29.27600
C  44.32000 41.44000 31.36600
C  40.46000 42.16400 31.75300
C  40.44400 43.02000 33.07700
H  39.83800 42.37800 34.33500
N  42.97600 39.64400 26.44500
C  43.44300 39.00700 27.53400
C  44.08800 37.77100 27.14200
C  43.97000 37.64600 25.74900
C  43.27400 38.89000 25.29000
C  44.52900 36.70500 28.19700
C  44.43200 36.49500 24.82700
O  44.15200 36.48300 23.69100
C  45.38200 35.40800 25.28100
N  42.04100 41.47600 24.22100
C  42.54600 40.51700 23.41400
C  42.35800 40.75400 21.96900
C  41.47600 42.07300 22.00000
C  41.47900 42.42700 23.47600
C  43.58900 40.80700 21.21000
C  39.95100 41.90600 21.45600
C  39.24200 40.57600 21.87300
N  41.21700 43.38100 26.26100
C  40.82900 44.13800 25.13000
C  40.37400 45.42900 25.57800
C  40.40700 45.33000 26.96400
C  40.93100 44.10100 27.35300
C  39.81000 46.48900 24.68600
C  40.12600 45.99900 28.19800
O  39.71300 47.09900 28.38000
C  40.44300 45.05600 29.39300
C  41.47700 45.71500 30.18500
O  42.60700 45.94100 29.74700
O  40.94500 46.11900 31.39000
C  41.95400 46.60900 32.26800
H  43.81100 38.96900 29.59600
H  43.42700 38.64700 23.16100
H  40.64500 44.22100 23.01000
H  42.36800 43.28800 31.20800
H  42.52000 40.45700 31.50600
H  45.02100 40.97400 30.67400
H  44.33400 40.95800 32.34300
H  44.50600 42.51400 31.37200
H  40.36700 41.11300 32.02600
H  39.54800 42.40400 31.20700
H  39.88100 43.93000 32.87400
H  41.48000 43.32300 33.22700
H  44.03400 35.76300 27.96000
H  44.28100 37.07700 29.19100
H  45.61200 36.59100 28.14500
H  46.36000 35.84200 25.49000
H  45.47100 34.61000 24.54400
H  44.86700 34.78600 26.01300
H  41.78500 39.87200 21.68100
H  42.03400 42.81000 21.42400
H  43.48300 41.69900 20.59300
H  43.69600 39.89700 20.61800
H  44.43300 40.88600 21.89500
H  40.02200 42.06100 20.37900
H  39.29500 42.64900 21.90900
H  39.44400 39.76700 21.17100
H  38.16200 40.71500 21.92900
H  39.49400 40.24200 22.88000
H  39.21500 46.08500 23.86700
H  40.64200 47.11000 24.35300
H  39.13100 47.12100 25.25800
H  39.48500 44.95900 29.90300
H  42.57700 47.34000 31.75300
H  42.38500 45.75800 32.79600
H  41.38500 47.26800 32.92400
Mg 1.18700 42.44100 25.86500
C  2.04800 42.67200 29.35600
C  -1.70100 40.96500 26.82600
C  0.67300 41.82000 22.57000
C  4.34500 43.75600 25.16000
N  0.37300 41.88400 27.81600
C  0.77400 42.09000 29.10100
C  -0.28800 41.91200 30.11600
C  -1.42900 41.16100 29.34500
C  -0.89800 41.28200 27.88100
C  -1.74300 39.68000 29.74300
C  -0.70500 43.23800 30.87900
C  -0.48400 43.21000 32.45800
H  -0.36100 41.88300 33.28900
N  -0.35600 41.58800 24.80000
C  -1.45300 40.95900 25.41600
C  -2.31900 40.54100 24.40500
C  -1.72000 40.85400 23.09000
C  -0.43700 41.48600 23.43600
C  -3.50000 39.69300 24.83500
C  -2.22300 40.54800 21.71000
O  -1.59200 40.89200 20.74000
C  -3.56700 39.95100 21.48800
N  2.29400 42.77900 24.14700
C  1.92000 42.43000 22.87400
C  2.97200 42.84600 21.83400
C  3.91400 43.66500 22.67700
C  3.48300 43.37500 24.08100
C  3.58300 41.65400 21.01000
C  3.90100 45.17900 22.19000
C  2.61600 45.98500 22.38400
N  2.92400 43.07000 26.91900
C  4.09900 43.63700 26.50800
C  4.94500 43.90100 27.58400
C  4.20100 43.50900 28.73800
C  2.99900 43.03500 28.29100
C  6.35000 44.32400 27.48700
C  4.17100 43.49000 30.14400
O  5.02800 43.79300 30.98600
C  2.81400 42.74900 30.58700
C  3.34200 41.41800 30.97100
O  3.97800 40.63700 30.28500
O  3.06600 41.34700 32.30000
C  3.51300 40.17600 33.01600
H  -2.65000 40.63300 27.25200
H  0.62200 41.59400 21.50300
H  5.31000 44.19200 24.89400
H  0.13200 41.28100 30.90000
H  -2.33900 41.74600 29.47900
H  -1.09400 39.39600 30.57100
H  -1.43900 39.09100 28.87800
H  -2.75000 39.40700 30.05900
H  -1.71300 43.54800 30.60100
H  -0.20700 44.07200 30.38500
H  -1.22900 43.84800 32.93400
H  0.44800 43.68900 32.76000
H  -4.27300 40.29900 25.30700
H  -3.06700 39.00600 25.56200
H  -3.92200 39.08100 24.03700
H  -3.40700 38.96500 21.92400
H  -3.77100 39.93400 20.41800
H  -4.31000 40.49900 22.06800
H  2.42300 43.40400 21.07600
H  4.92300 43.25200 22.65900
H  4.66400 41.51400 21.00500
H  3.18800 41.85800 20.01500
H  3.14700 40.72600 21.38000
H  4.10000 45.22800 21.11900
H  4.76600 45.62400 22.68200
H  1.71600 45.38600 22.52100
H  2.33700 46.46400 21.44600
H  2.68100 46.68500 23.21700
H  6.55700 44.93400 26.60700
H  6.93500 43.40500 27.47400
H  6.63600 44.88700 28.37600
H  2.47300 43.23100 31.50300
H  3.88300 40.48400 33.99400
H  4.36800 39.62800 32.62000
H  2.73500 39.41400 33.05900

