158

Mg 23.31100 -6.19100 45.98500
C  25.64800 -3.88300 44.87800
C  21.11300 -4.67800 43.55900
C  21.32000 -8.83100 46.12000
C  25.87800 -8.08600 47.61400
N  23.44900 -4.56900 44.31300
C  24.48900 -3.75800 44.14100
C  24.22700 -2.58500 43.21100
C  22.72200 -2.86400 42.86400
C  22.36500 -4.08700 43.67200
C  21.77400 -1.64900 43.30900
C  25.16300 -2.68400 41.96500
C  25.33500 -1.41600 41.22800
H  24.66000 -1.27700 39.80000
N  21.38900 -6.56900 45.15900
C  20.67300 -5.84900 44.22100
C  19.42500 -6.49900 43.90300
C  19.39900 -7.71200 44.67700
C  20.76800 -7.74900 45.43400
C  18.43700 -6.09700 42.82600
C  18.26200 -8.70600 44.65000
O  17.18100 -8.49600 44.05500
C  18.34800 -9.96200 45.44400
N  23.52600 -8.11800 46.85800
C  22.52700 -9.01500 46.80400
C  22.94200 -10.38800 47.23900
C  24.36200 -10.21700 47.76200
C  24.61400 -8.69000 47.46500
C  21.96200 -11.29500 48.07300
C  25.48000 -11.08600 47.20000
C  26.48200 -11.52500 48.18200
N  25.29800 -5.96300 46.34100
C  26.21900 -6.78800 47.06700
C  27.42500 -5.98400 47.25200
C  27.27200 -4.89600 46.46200
C  25.96900 -4.91100 45.90100
C  28.61200 -6.46800 48.02600
C  27.90300 -3.70400 45.96400
O  28.99500 -3.21600 46.23500
C  26.95400 -3.08100 44.88600
C  26.88800 -1.61200 45.17100
O  27.19700 -0.75000 44.34700
O  26.35600 -1.43900 46.45900
C  25.77600 -0.04500 46.66700
H  20.45100 -4.06300 42.94600
H  20.68900 -9.71900 46.19700
H  26.57300 -8.68300 48.20800
H  24.43900 -1.70200 43.81300
H  22.71300 -3.05400 41.79000
H  21.23800 -1.95800 44.20600
H  21.10400 -1.44100 42.47400
H  22.30400 -0.72000 43.51700
H  24.66300 -3.21700 41.15600
H  26.05700 -3.26400 42.19500
H  26.40700 -1.22200 41.24500
H  24.91500 -0.67700 41.90900
H  18.34000 -6.84200 42.03600
H  18.86700 -5.18800 42.40400
H  17.54800 -5.72800 43.33800
H  18.59000 -9.88400 46.50400
H  19.02800 -10.65100 44.94300
H  17.32500 -10.32900 45.35700
H  23.02500 -10.94500 46.30500
H  24.26000 -10.38800 48.83400
H  21.13700 -10.69000 48.44800
H  22.47400 -11.69500 48.94800
H  21.55000 -12.10400 47.46900
H  26.10200 -10.50700 46.51700
H  25.03400 -11.92000 46.65800
H  26.05300 -11.57900 49.18300
H  27.35500 -10.87700 48.26100
H  26.71500 -12.55500 47.91400
H  29.38000 -5.70800 48.16600
H  29.00000 -7.29400 47.43100
H  28.37200 -6.88400 49.00500
H  27.41000 -3.12500 43.89600
H  26.02500 0.77100 45.98900
H  26.08400 0.38900 47.61800
H  24.72100 -0.32000 46.62800
Mg 35.74000 48.56600 25.01200
C  35.70100 47.22600 28.28100
C  34.92700 51.58700 26.42100
C  35.34600 49.77600 21.92300
C  36.74000 45.46900 23.87000
N  35.26800 49.30700 27.18400
C  35.31300 48.59200 28.35200
C  35.23800 49.48800 29.61100
C  34.78500 50.90000 28.93600
C  34.97700 50.58600 27.38800
C  33.47500 51.50900 29.26900
C  36.59500 49.41700 30.37300
C  36.48900 48.93100 31.81700
H  35.18500 49.30000 32.59000
N  35.23600 50.40300 24.25800
C  34.85600 51.56100 25.03100
C  34.50700 52.65300 24.13700
C  34.84500 52.18900 22.82400
C  35.08100 50.68400 22.96600
C  33.82600 54.00100 24.67700
C  34.91600 52.95500 21.51600
O  35.31000 52.47700 20.47200
C  34.63000 54.42500 21.52500
N  35.66200 47.69500 23.13100
C  35.82000 48.50600 21.99500
C  36.26000 47.70100 20.85800
C  37.14200 46.58300 21.57900
C  36.45300 46.52800 22.92500
C  35.19400 47.11100 19.87300
C  38.67400 46.89700 21.81500
C  39.57900 46.82400 20.58900
N  36.12300 46.68900 25.82600
C  36.44300 45.52100 25.20400
C  36.52400 44.49100 26.19400
C  36.23900 45.13400 27.41000
C  36.02100 46.46800 27.11400
C  36.82400 43.08900 25.82600
C  36.12600 44.90900 28.75300
O  36.26900 43.87600 29.37100
C  35.78200 46.24200 29.39000
C  34.52100 46.10300 30.22700
O  33.40200 46.46600 29.96200
O  34.81600 45.35600 31.34700
C  33.71300 45.10300 32.31000
H  34.62300 52.49500 26.94500
H  35.36300 50.28400 20.95600
H  37.17200 44.55100 23.46700
H  34.39400 49.17300 30.22500
H  35.47900 51.73100 29.06400
H  32.94100 50.70700 29.77800
H  32.92600 51.69600 28.34600
H  33.52700 52.44700 29.82300
H  36.98300 50.43300 30.44300
H  37.22900 48.68700 29.86900
H  37.35300 49.38300 32.30500
H  36.53700 47.84300 31.83400
H  33.32200 53.68000 25.58800
H  33.06400 54.54200 24.11500
H  34.68500 54.60600 24.96500
H  33.54700 54.51800 21.44500
H  35.14100 54.78000 20.63000
H  35.06100 54.77100 22.46400
H  36.88100 48.42900 20.33500
H  37.03500 45.64000 21.04300
H  35.22000 47.85700 19.07900
H  34.22300 46.84600 20.29400
H  35.54000 46.28700 19.25000
H  39.11700 46.22700 22.55200
H  38.80300 47.92700 22.14800
H  38.93800 47.04700 19.73600
H  39.94100 45.79600 20.62300
H  40.45700 47.46500 20.66900
H  37.33900 43.09400 24.86500
H  35.96800 42.41400 25.80900
H  37.59600 42.62400 26.44000
H  36.57000 46.71300 29.97700
H  33.33000 44.08700 32.40400
H  32.88600 45.81400 32.33000
H  34.21300 45.34100 33.24900

