158

Mg 46.35400 34.87100 27.67100
C  44.92400 33.13000 30.33200
C  46.98300 37.53400 29.95300
C  47.85700 36.67100 25.17800
C  45.58000 32.34200 25.51300
N  46.10700 35.26500 29.87000
C  45.38900 34.43200 30.69600
C  45.46900 34.92600 32.09800
C  45.66300 36.49600 31.95000
C  46.28800 36.45600 30.49300
C  44.34200 37.33800 32.04800
C  46.67000 34.26700 32.85800
C  46.42800 33.99900 34.38200
H  45.42400 34.88300 35.13500
N  47.34600 36.77300 27.59700
C  47.44900 37.66000 28.63000
C  48.09200 38.85000 28.06800
C  48.46800 38.65100 26.74600
C  47.92100 37.28900 26.46400
C  48.50500 40.04600 28.86200
C  49.22600 39.54900 25.66600
O  49.35800 39.18100 24.48600
C  49.56200 40.96100 26.00800
N  46.62700 34.46400 25.61600
C  47.27500 35.35000 24.83400
C  47.35600 34.77800 23.38800
C  46.43400 33.47000 23.42200
C  46.16900 33.36200 24.91300
C  47.05600 35.85200 22.33500
C  47.01100 32.12200 22.78400
C  46.21400 31.42400 21.61600
N  45.52700 33.12500 27.85400
C  45.32900 32.16600 26.91800
C  44.82800 30.92700 27.53800
C  44.63300 31.32500 28.87700
C  45.09500 32.59100 29.05100
C  44.62800 29.62600 26.87600
C  44.19600 30.75900 30.16900
O  43.79600 29.68900 30.54200
C  44.14300 32.01800 31.05300
C  44.67800 31.71600 32.41000
O  45.72900 31.19000 32.69500
O  43.72400 32.00200 33.31400
C  43.88900 31.45100 34.67100
H  47.30400 38.27200 30.69100
H  48.29900 37.30900 24.41000
H  45.23500 31.51300 24.89200
H  44.54300 34.81500 32.66200
H  46.37000 37.04000 32.57600
H  43.58100 36.59100 32.27100
H  44.12800 37.85300 31.11100
H  44.39200 38.03300 32.88600
H  47.55400 34.90500 32.85000
H  47.01000 33.41900 32.26400
H  47.34500 34.32700 34.87100
H  46.37500 32.92900 34.58200
H  49.41400 39.66200 29.32600
H  47.84500 40.18500 29.71900
H  48.72100 40.94800 28.29000
H  50.30300 40.98400 26.80700
H  48.61600 41.43600 26.26700
H  50.05400 41.45700 25.17100
H  48.35600 34.41700 23.14600
H  45.47100 33.73800 22.98600
H  46.35800 35.49400 21.57900
H  47.94600 36.11700 21.76400
H  46.59100 36.78500 22.65200
H  47.25700 31.34600 23.50900
H  47.96400 32.37400 22.32000
H  46.84900 31.25900 20.74500
H  45.34400 31.94100 21.21200
H  45.91200 30.42800 21.93900
H  45.45300 29.35300 26.21800
H  43.74000 29.57600 26.24600
H  44.54600 28.79300 27.57400
H  43.08400 32.27300 31.08100
H  44.89800 31.18900 34.99000
H  43.31800 30.54200 34.86100
H  43.49900 32.20500 35.35500
Mg 35.40000 49.85300 25.43500
C  35.05100 48.14200 28.46900
C  34.30300 52.70400 27.23500
C  35.22500 51.40300 22.49500
C  36.07700 46.78200 23.81500
N  34.84500 50.40200 27.68400
C  34.84700 49.49700 28.71000
C  34.62000 50.18100 30.06300
C  34.33200 51.66800 29.64400
C  34.48700 51.67200 28.12100
C  32.90000 52.21900 30.06000
C  35.80300 50.01200 31.10400
C  35.36700 49.73700 32.54100
H  33.88100 49.88800 33.00000
N  34.89400 51.75000 24.94400
C  34.45800 52.73800 25.81100
C  34.02800 53.87600 24.96700
C  34.40900 53.62600 23.63100
C  34.90900 52.18800 23.63800
C  33.35100 55.13100 25.46600
C  34.37400 54.49100 22.46200
O  34.82700 54.17100 21.36300
C  33.74600 55.80800 22.46500
N  35.76400 49.23500 23.43600
C  35.64600 50.02600 22.35100
C  35.79600 49.28300 21.03000
C  36.24100 47.82500 21.51100
C  36.05500 47.97400 23.02500
C  34.52200 49.23000 20.11400
C  37.68000 47.57300 21.01300
C  38.86200 48.37800 21.61800
N  35.54100 47.90600 25.93400
C  35.83700 46.73200 25.27400
C  35.79000 45.50600 26.09600
C  35.54000 46.00500 27.36000
C  35.38400 47.48100 27.21300
C  36.13300 44.14800 25.68500
C  35.43400 45.61100 28.77500
O  35.57000 44.52800 29.34700
C  35.08400 46.95800 29.53500
C  33.79900 46.72600 30.23900
O  32.67500 46.89900 29.81300
O  34.02500 46.07000 31.47700
C  32.79400 45.56300 32.17000
H  34.17400 53.68000 27.70600
H  35.29300 51.96300 21.56000
H  36.25000 45.78800 23.39700
H  33.64100 49.86800 30.42500
H  35.13800 52.17700 30.17200
H  32.23000 52.44400 29.23100
H  33.04200 53.10600 30.67900
H  32.26000 51.46700 30.52100
H  36.32200 50.96900 31.15800
H  36.50200 49.24000 30.78000
H  36.10200 50.26600 33.14700
H  35.50600 48.68700 32.79700
H  34.00300 55.97000 25.22500
H  33.05600 55.18100 26.51400
H  32.40200 55.27500 24.94900
H  34.26300 56.46900 23.16000
H  32.72500 55.66200 22.81800
H  33.88500 56.23600 21.47300
H  36.56400 49.67000 20.36200
H  35.53400 47.11900 21.07700
H  34.16500 48.20500 20.01700
H  34.63900 49.77900 19.17900
H  33.67100 49.69500 20.61100
H  37.56000 47.55500 19.93000
H  37.79400 46.55100 21.37400
H  39.43400 48.87800 20.83700
H  39.63200 47.72500 22.03000
H  38.64400 49.17000 22.33500
H  36.95500 44.26100 24.97800
H  35.25300 43.62700 25.31000
H  36.49900 43.60500 26.55700
H  35.90000 46.95800 30.25700
H  32.14600 44.98600 31.51100
H  32.26700 46.44100 32.54300
H  33.12700 45.06800 33.08300

