158

Mg 16.62300 -2.73000 27.25800
C  15.92600 -0.61400 30.04600
C  18.14400 -4.88000 29.37900
C  17.41800 -4.54700 24.58900
C  15.38800 -0.23700 25.21900
N  17.18400 -2.56300 29.49600
C  16.61900 -1.72100 30.45700
C  17.00200 -2.17700 31.84900
C  17.91500 -3.46700 31.58700
C  17.79000 -3.67100 30.02800
C  19.40900 -3.34600 31.97500
C  15.79400 -2.45700 32.77500
C  15.83300 -1.80000 34.20500
H  17.21800 -1.68300 34.91300
N  17.59500 -4.55000 27.02500
C  18.21400 -5.24500 28.02500
C  18.57100 -6.55400 27.49200
C  18.27500 -6.46600 26.11700
C  17.66600 -5.18100 25.85300
C  18.98900 -7.65900 28.45200
C  18.36700 -7.51200 24.97000
O  17.93900 -7.40500 23.85300
C  18.95100 -8.85000 25.24400
N  16.78200 -2.25100 25.20200
C  17.08000 -3.19500 24.32700
C  16.95200 -2.69800 22.87100
C  15.91700 -1.50100 23.06200
C  16.05500 -1.25400 24.58600
C  18.36600 -2.20600 22.40000
C  14.49400 -1.87700 22.54700
C  13.53300 -2.23800 23.70100
N  15.70500 -0.81300 27.50200
C  15.17600 0.02000 26.59700
C  14.56300 1.15200 27.16800
C  14.80900 0.89200 28.63100
C  15.53300 -0.27500 28.70900
C  13.92000 2.24300 26.43600
C  14.64300 1.46100 29.93200
O  14.21600 2.50100 30.46500
C  15.32400 0.43500 30.95600
C  16.38600 1.10100 31.77500
O  17.59200 1.21000 31.57300
O  15.75800 1.66800 32.84600
C  16.49500 2.60700 33.79700
H  18.57300 -5.71400 29.93900
H  17.53600 -5.05600 23.63000
H  14.92200 0.46800 24.52700
H  17.56000 -1.38100 32.34200
H  17.51200 -4.35700 32.07100
H  19.62400 -2.56100 32.70000
H  20.01200 -3.35000 31.06800
H  19.76100 -4.23800 32.49500
H  15.80400 -3.53800 32.91400
H  14.87000 -2.31300 32.21500
H  15.11200 -2.37600 34.78500
H  15.42200 -0.79500 34.11700
H  18.24800 -7.79000 29.24100
H  19.93900 -7.42000 28.93000
H  18.97600 -8.58400 27.87500
H  19.85000 -8.68500 25.83700
H  19.21100 -9.45100 24.37300
H  18.28800 -9.40100 25.91100
H  16.54600 -3.42700 22.17000
H  16.26900 -0.63000 22.50800
H  18.46300 -1.13200 22.24300
H  18.59600 -2.70400 21.45800
H  19.02100 -2.53300 23.20800
H  14.51200 -2.57700 21.71100
H  14.01800 -1.02500 22.06300
H  13.09000 -1.28800 24.00200
H  13.98200 -2.70700 24.57600
H  12.73400 -2.88600 23.34200
H  14.63000 2.85600 25.88100
H  13.44600 2.89600 27.17000
H  13.16800 1.71600 25.84900
H  14.62700 -0.00600 31.66900
H  15.67000 3.20400 34.18400
H  17.33100 3.17300 33.38600
H  16.90300 1.97300 34.58400
Mg 16.32000 51.51900 25.62900
C  18.09200 50.12900 28.44200
C  13.92800 52.43500 27.91400
C  14.28100 51.87200 23.06600
C  18.83800 50.35600 23.55100
N  16.16900 51.33200 27.98000
C  17.03300 50.85700 28.90900
C  16.58800 51.16000 30.31800
C  15.12300 51.65600 30.11300
C  15.07800 51.86900 28.59100
C  13.96300 50.73300 30.54600
C  17.55600 52.10100 31.05800
C  18.16800 51.61900 32.41500
H  17.30100 50.81500 33.37900
N  14.42600 52.12200 25.45500
C  13.58000 52.59800 26.51200
C  12.32600 52.99700 25.97600
C  12.34300 52.63700 24.57900
C  13.71600 52.21600 24.30100
C  11.20800 53.58900 26.87600
C  11.19600 52.75900 23.58400
O  11.31100 52.41000 22.42100
C  9.90100 53.44000 23.97000
N  16.64000 51.21900 23.58800
C  15.61600 51.47000 22.71300
C  16.12200 51.28900 21.25300
C  17.65300 51.11500 21.43800
C  17.72200 50.86300 22.97900
C  15.45000 50.15400 20.42400
C  18.61200 52.21100 21.03600
C  18.34900 53.67400 21.59800
N  18.14000 50.46700 25.94800
C  19.04300 50.07000 24.94200
C  20.16900 49.41500 25.58400
C  19.78900 49.43100 26.98400
C  18.54400 50.04500 27.08700
C  21.44800 48.96200 25.02200
C  20.29700 49.02900 28.29600
O  21.37700 48.56800 28.66600
C  19.16300 49.49500 29.29100
C  18.67200 48.28400 30.16800
O  17.62700 47.68200 30.03300
O  19.51100 48.11000 31.27500
C  19.09100 47.00800 32.19500
H  13.21500 52.62500 28.71800
H  13.70200 52.20400 22.20100
H  19.69900 49.93500 23.02700
H  16.47600 50.31200 30.99200
H  15.03800 52.56900 30.70100
H  14.31500 49.85300 31.08400
H  13.23000 50.32400 29.85100
H  13.36000 51.21000 31.31800
H  17.10700 53.08200 31.21200
H  18.42300 52.27500 30.42100
H  18.40300 52.43700 33.09700
H  18.99800 50.97200 32.13300
H  10.47800 52.78800 26.99400
H  10.76200 54.42900 26.34300
H  11.74600 54.02100 27.71900
H  9.09000 53.14100 23.30600
H  10.19700 54.48900 23.93700
H  9.71300 53.00800 24.95300
H  16.00400 52.20400 20.67400
H  18.00500 50.22300 20.92000
H  14.37800 49.96400 20.47600
H  15.83400 49.16300 20.66800
H  15.66000 50.27300 19.36100
H  18.55600 52.32600 19.95400
H  19.65000 51.90700 21.17700
H  18.36100 54.44900 20.83200
H  19.14300 53.91700 22.30400
H  17.34300 53.66500 22.01800
H  21.85700 49.60700 24.24300
H  21.29800 47.97200 24.59200
H  22.24600 48.88300 25.76100
H  19.67700 50.27100 29.85900
H  18.50100 46.19800 31.76600
H  18.43500 47.30700 33.01200
H  20.00100 46.53400 32.56400

