158

Mg 1.88800 -1.50600 43.21700
C  5.36600 -1.09300 42.83300
C  1.40100 1.37000 41.25900
C  -1.38600 -2.26500 42.90400
C  2.48200 -4.72700 44.54400
N  3.14000 -0.10100 42.14100
C  4.54000 -0.07800 42.18800
C  5.16200 1.05100 41.45700
C  3.85000 2.08600 41.33900
C  2.70700 1.05900 41.61800
C  3.86700 3.31300 42.29900
C  5.77200 0.71400 40.03200
C  6.69100 1.83800 39.50900
H  6.29400 2.51700 38.17500
N  0.24300 -0.56400 42.32900
C  0.25400 0.58000 41.50200
C  -1.13800 0.83700 41.07800
C  -1.96800 -0.14800 41.61600
C  -1.06200 -1.02800 42.39300
C  -1.60000 1.93400 40.20400
C  -3.46600 -0.19900 41.42300
O  -4.10000 0.65100 40.78800
C  -4.33200 -1.25700 42.08300
N  0.74500 -3.31200 43.61100
C  -0.60000 -3.24800 43.58000
C  -1.23500 -4.54300 43.94100
C  -0.02000 -5.36400 44.52100
C  1.16900 -4.45300 44.11700
C  -2.43900 -4.51300 44.99400
C  0.10300 -6.80600 43.91200
C  0.36100 -7.93200 44.91200
N  3.53500 -2.61800 43.80600
C  3.66800 -3.87600 44.36100
C  5.04200 -4.16600 44.60400
C  5.79500 -3.18100 44.01300
C  4.85200 -2.20100 43.54500
C  5.44100 -5.44400 45.27200
C  7.06200 -2.62400 43.62400
O  8.18400 -3.09100 43.81600
C  6.86100 -1.35900 42.85600
C  7.52300 -0.22200 43.43900
O  7.21900 0.44000 44.42800
O  8.68500 -0.00600 42.70900
C  9.13700 1.35400 42.81200
H  1.32200 2.27900 40.65900
H  -2.42100 -2.61400 42.93100
H  2.57500 -5.73300 44.95800
H  5.91000 1.54200 42.08100
H  3.81700 2.33900 40.27900
H  2.88900 3.49700 42.74400
H  4.04000 4.14700 41.61900
H  4.62300 3.17300 43.07200
H  4.96000 0.61400 39.31100
H  6.25000 -0.26500 40.02200
H  7.70000 1.42400 39.51800
H  6.69400 2.57400 40.31300
H  -0.78600 2.65100 40.10400
H  -2.38400 2.53900 40.65800
H  -1.91200 1.60500 39.21300
H  -5.38800 -1.17900 41.82800
H  -4.09200 -1.15600 43.14200
H  -3.92100 -2.19800 41.71800
H  -1.48900 -5.15200 43.07300
H  -0.08500 -5.32100 45.60800
H  -3.40400 -4.71900 44.53100
H  -2.41300 -3.53300 45.46900
H  -2.29900 -5.37800 45.64200
H  1.05200 -6.83700 43.37600
H  -0.80200 -6.99000 43.33300
H  1.30200 -8.44200 44.70400
H  -0.48000 -8.61500 44.79200
H  0.23300 -7.51700 45.91200
H  6.53000 -5.40400 45.25600
H  5.26900 -6.32200 44.65000
H  5.17400 -5.65300 46.30800
H  7.07200 -1.51900 41.79900
H  10.10100 1.39300 42.30500
H  9.23800 1.70100 43.84100
H  8.43200 2.10700 42.45800
Mg 36.26400 49.78200 24.60000
C  36.15500 48.24200 27.67300
C  34.98200 52.65700 25.91400
C  36.05100 51.23800 21.43300
C  37.07100 46.75800 23.16300
N  35.73900 50.34800 26.55000
C  35.73600 49.56800 27.70400
C  35.36800 50.38300 28.96900
C  34.89400 51.82800 28.36100
C  35.14600 51.64300 26.84600
C  33.43500 52.22600 28.65200
C  36.62400 50.50700 29.82700
C  36.49600 49.90100 31.21200
H  35.36900 50.23500 32.19900
N  35.77100 51.74700 23.85800
C  35.26800 52.79200 24.53800
C  35.01100 53.91200 23.68000
C  35.12200 53.43400 22.36500
C  35.65200 52.02700 22.52900
C  34.46900 55.20400 24.26300
C  34.86500 54.04700 20.97800
O  35.11400 53.51000 19.89800
C  34.23600 55.41100 20.98500
N  36.48800 49.04800 22.59800
C  36.43600 49.88800 21.48000
C  36.73700 49.12000 20.19200
C  37.16900 47.63300 20.74300
C  36.82600 47.76000 22.26400
C  35.57300 48.97100 19.12800
C  38.64300 47.22400 20.53300
C  39.76300 48.19100 20.82400
N  36.62700 47.80600 25.26100
C  36.95500 46.70100 24.55700
C  37.20500 45.60600 25.48400
C  36.91100 46.15700 26.74300
C  36.53700 47.51500 26.55400
C  37.64800 44.16500 25.16800
C  36.80800 45.93400 28.17600
O  37.15400 45.00800 28.87300
C  36.25600 47.23900 28.83200
C  35.03200 46.91600 29.62400
O  33.90800 47.01600 29.23300
O  35.40200 46.50400 30.91000
C  34.19200 46.27600 31.74200
H  34.49800 53.49300 26.42300
H  35.92500 51.54400 20.39200
H  37.54300 45.90400 22.67400
H  34.54700 49.89400 29.49500
H  35.57900 52.60900 28.69100
H  32.92400 52.29600 27.69200
H  33.51800 53.17100 29.18900
H  32.96700 51.38800 29.16900
H  36.93600 51.55000 29.87000
H  37.53600 50.05600 29.43400
H  37.44500 50.29200 31.57800
H  36.67100 48.82600 31.18100
H  35.13800 56.02200 23.99400
H  34.37300 55.18300 25.34900
H  33.51200 55.36800 23.76700
H  33.21400 55.13500 21.24300
H  34.19900 55.89000 20.00600
H  34.70400 56.07900 21.70800
H  37.56500 49.61200 19.68300
H  36.56100 46.86900 20.25800
H  34.62200 49.33700 19.51400
H  35.31800 47.93500 18.90200
H  35.93300 49.54700 18.27600
H  38.75100 47.07000 19.45900
H  38.88200 46.25700 20.97600
H  40.51600 48.23900 20.03700
H  40.28700 47.71000 21.65000
H  39.38700 49.20500 20.96100
H  36.92700 43.53300 24.65100
H  37.92600 43.77800 26.14900
H  38.49900 44.33100 24.50700
H  37.12700 47.48700 29.43900
H  34.13300 45.19200 31.83700
H  33.23400 46.67000 31.40200
H  34.43900 46.64600 32.73700

