158

Mg 35.35300 1.39800 29.36000
C  32.89700 2.44900 31.56200
C  37.78200 1.59100 31.67100
C  37.64900 0.82300 26.86500
C  32.84600 1.64600 26.72600
N  35.40500 2.17300 31.37800
C  34.20500 2.40800 32.09700
C  34.58600 2.46000 33.62600
C  36.17400 2.31100 33.59700
C  36.49800 1.99100 32.12400
C  36.85700 3.55800 34.13900
C  33.88100 1.32600 34.43800
C  33.51400 1.55400 35.93300
H  33.74400 2.93400 36.38200
N  37.41000 1.04900 29.34800
C  38.21800 1.07500 30.41800
C  39.52500 0.49700 30.11700
C  39.49800 0.32000 28.64700
C  38.15100 0.76300 28.20400
C  40.53800 0.10000 31.10700
C  40.59700 -0.31700 27.68600
O  40.45900 -0.43100 26.48100
C  41.84200 -0.87000 28.35600
N  35.30600 1.33000 27.12700
C  36.38500 0.95500 26.38600
C  36.05500 0.70800 24.93300
C  34.46500 0.92300 24.87100
C  34.14000 1.34200 26.28300
C  36.83500 1.59300 24.00100
C  33.53500 -0.22000 24.33500
C  32.74600 0.18900 23.08100
N  33.26500 1.83500 29.16800
C  32.39300 1.88600 28.05700
C  31.04500 2.33800 28.57500
C  31.16800 2.39500 29.99600
C  32.58600 2.26300 30.23900
C  29.82300 2.42000 27.80800
C  30.44400 2.79800 31.19600
O  29.29500 3.14100 31.35700
C  31.56200 2.75300 32.29600
C  31.70500 3.97500 33.07500
O  32.32500 4.94600 32.65400
O  30.93400 3.94300 34.28700
C  30.77500 5.30200 34.89100
H  38.53400 1.45600 32.45100
H  38.34600 0.59000 26.05700
H  32.22300 1.89800 25.86500
H  34.25000 3.46900 33.86500
H  36.39700 1.42800 34.19500
H  37.86600 3.56000 33.72800
H  36.92400 3.44300 35.22100
H  36.30000 4.48000 33.97100
H  34.56300 0.47700 34.48900
H  33.03900 0.86400 33.92200
H  34.12800 0.95000 36.60100
H  32.44800 1.33800 36.01300
H  40.77300 -0.92800 30.83100
H  40.20600 0.01200 32.14200
H  41.35100 0.82500 31.11800
H  42.62400 -1.18200 27.66300
H  41.57600 -1.69100 29.02100
H  42.26600 -0.08400 28.98100
H  36.25400 -0.33300 24.67800
H  34.18300 1.80000 24.28900
H  37.26500 0.94700 23.23600
H  37.57700 2.12900 24.59300
H  36.12800 2.26400 23.51300
H  32.83500 -0.53700 25.10800
H  34.13200 -1.11200 24.14200
H  31.77900 -0.31300 23.07700
H  33.27900 -0.13500 22.18800
H  32.54500 1.24900 22.92800
H  29.69800 3.41300 27.37700
H  29.06400 2.21300 28.56200
H  29.88500 1.63000 27.05900
H  31.45600 1.91700 32.98800
H  30.30000 5.14900 35.86000
H  30.10500 5.84000 34.22000
H  31.68800 5.89100 34.97500
Mg 16.58500 51.60200 25.94500
C  18.78400 50.61700 28.63300
C  14.55300 52.92800 28.29300
C  14.61700 52.44200 23.47500
C  19.02200 50.44400 23.71100
N  16.74100 51.85600 28.11300
C  17.62100 51.22100 29.03800
C  17.26600 51.54000 30.53500
C  15.83600 52.15400 30.39800
C  15.66200 52.30400 28.84700
C  14.75700 51.28900 31.13400
C  18.30100 52.49500 31.16100
C  18.59500 52.26500 32.66200
H  17.62300 51.40000 33.53600
N  14.76800 52.47600 25.93000
C  14.08500 53.01700 26.97200
C  12.82200 53.49000 26.50600
C  12.79500 53.21400 25.11400
C  14.12300 52.70300 24.75000
C  11.82400 54.17000 27.46600
C  11.63500 53.49400 24.15300
O  11.67200 53.44300 22.91700
C  10.40400 53.99500 24.79400
N  16.83300 51.50100 23.76900
C  15.81500 51.92100 22.99800
C  16.06500 51.41400 21.56800
C  17.60900 50.91300 21.62200
C  17.86700 50.98700 23.10000
C  14.99700 50.35100 21.04300
C  18.54700 51.88900 20.81200
C  19.95100 51.41500 20.43500
N  18.55100 50.76100 26.06900
C  19.34400 50.32600 25.06000
C  20.44000 49.54400 25.61400
C  20.30500 49.58300 26.98600
C  19.10600 50.35200 27.26500
C  21.53500 48.88900 24.74500
C  20.86700 49.13200 28.23100
O  21.83700 48.45300 28.63000
C  19.87800 49.76100 29.34600
C  19.49300 48.69400 30.32800
O  18.66500 47.83300 30.11300
O  20.17500 48.86200 31.50400
C  19.77900 47.92800 32.54500
H  13.78200 53.14800 29.03400
H  13.98400 52.68500 22.61900
H  19.76100 50.15800 22.96000
H  17.38400 50.56700 31.01200
H  15.94700 53.14200 30.84600
H  14.05400 52.02000 31.53300
H  15.23200 50.58400 31.81600
H  14.31900 50.71000 30.32100
H  17.99900 53.53600 31.05100
H  19.25600 52.43300 30.63800
H  18.76200 53.23200 33.13500
H  19.46800 51.62000 32.76500
H  11.32100 55.06400 27.09700
H  12.45300 54.59200 28.25000
H  11.02100 53.53500 27.84000
H  10.07000 53.38800 25.63600
H  9.68300 54.11600 23.98600
H  10.53000 55.01400 25.15800
H  15.97900 52.27700 20.90700
H  17.76100 49.95500 21.12400
H  15.37000 49.35500 20.80600
H  14.48500 50.82500 20.20500
H  14.22700 50.16000 21.79100
H  18.59500 52.75900 21.46700
H  18.07100 52.10900 19.85700
H  20.84000 51.86400 20.87800
H  20.19500 51.43500 19.37200
H  19.86400 50.34500 20.62000
H  22.48600 49.04000 25.25600
H  21.60400 49.41400 23.79200
H  21.21600 47.84700 24.69800
H  20.44000 50.37900 30.04600
H  19.92900 48.61100 33.38100
H  20.44000 47.07100 32.67100
H  18.72000 47.67400 32.48900

