158

Mg 41.13000 8.71800 29.56800
C  43.13900 10.13600 32.10200
C  39.06000 7.52600 31.98700
C  39.21600 7.24500 27.17400
C  43.41500 9.67300 27.34200
N  41.20900 8.79600 31.81600
C  42.12300 9.40600 32.67400
C  41.56800 9.36700 34.15200
C  40.45300 8.27500 34.05200
C  40.23200 8.12800 32.55400
C  40.71500 6.93400 34.74000
C  41.03600 10.85700 34.44100
C  40.34500 11.06800 35.82000
H  41.18200 11.78300 36.89100
N  39.45200 7.47300 29.57500
C  38.74100 7.25800 30.69900
C  37.41300 6.71200 30.22400
C  37.34300 6.80500 28.83900
C  38.68200 7.21000 28.47100
C  36.50700 6.07900 31.31400
C  36.17400 6.50900 27.83500
O  36.28400 6.62600 26.68400
C  34.84800 6.18500 28.46300
N  41.27700 8.47900 27.51900
C  40.48400 7.70200 26.75100
C  40.89000 7.89500 25.25100
C  42.28200 8.43700 25.43800
C  42.37100 8.88200 26.88100
C  40.88700 6.68400 24.38000
C  42.67500 9.55000 24.38900
C  43.85400 9.27400 23.44800
N  42.85600 9.86900 29.63400
C  43.73600 10.21600 28.59900
C  44.82600 11.00000 29.01100
C  44.61700 11.05900 30.45600
C  43.50100 10.25900 30.71500
C  45.84200 11.65900 28.12900
C  45.11700 11.53500 31.65300
O  46.11200 12.11500 31.94700
C  44.24400 10.92100 32.85100
C  44.89300 10.24300 34.00700
O  45.81000 9.48400 33.86200
O  44.45400 10.76800 35.18100
C  45.09100 10.21600 36.41500
H  38.41000 7.24100 32.81700
H  38.58000 6.85900 26.37500
H  44.09900 9.80800 26.50100
H  42.40200 9.04200 34.77400
H  39.61500 8.73900 34.57200
H  41.71200 6.78600 35.15500
H  40.62200 6.08700 34.06000
H  40.02100 6.73200 35.55600
H  40.27300 11.18600 33.73500
H  41.94600 11.42000 34.23700
H  40.08800 10.10300 36.25500
H  39.48900 11.70700 35.60200
H  36.29700 5.06100 30.98600
H  35.57700 6.64600 31.31500
H  36.90900 5.91500 32.31400
H  34.59400 7.10400 28.99100
H  34.94500 5.33500 29.13900
H  34.07200 5.95900 27.73200
H  40.23900 8.68400 24.87600
H  43.08400 7.70200 25.35900
H  41.91300 6.41100 24.13500
H  40.28100 6.67600 23.47400
H  40.44100 5.84000 24.90700
H  42.82100 10.53700 24.82900
H  41.88700 9.56500 23.63700
H  44.45800 10.17800 23.36700
H  43.43600 9.05300 22.46600
H  44.54300 8.45400 23.64900
H  45.98500 10.93100 27.33000
H  46.66800 11.79200 28.82800
H  45.47300 12.63600 27.82000
H  43.89700 11.87500 33.24800
H  44.37400 10.14200 37.23200
H  45.87700 10.85000 36.82500
H  45.39500 9.18200 36.24800
Mg -12.46300 38.48800 41.30500
C  -10.35900 35.74600 40.35500
C  -10.17900 40.56600 39.68100
C  -14.69700 40.87800 41.32500
C  -14.81900 36.05600 42.31400
N  -10.42600 38.19700 40.31700
C  -9.73600 36.99700 40.07800
C  -8.47200 37.18700 39.34000
C  -8.31000 38.73000 39.27100
C  -9.73800 39.23600 39.81700
C  -7.15200 39.39600 40.03200
C  -8.42100 36.44400 37.95700
C  -7.22200 35.47900 37.74700
H  -6.29600 35.82800 36.52700
N  -12.47000 40.57200 40.75700
C  -11.42100 41.21100 40.05600
C  -11.75700 42.64900 39.99700
C  -13.07100 42.75300 40.37600
C  -13.49300 41.36600 40.89800
C  -10.86700 43.63500 39.22100
C  -13.93100 43.95200 40.22300
O  -13.36900 45.01800 39.87600
C  -15.34700 43.88200 40.31100
N  -14.37100 38.43500 41.72200
C  -15.15900 39.59600 41.59200
C  -16.64400 39.41100 42.02200
C  -16.69900 37.81400 42.26800
C  -15.23600 37.37700 42.13600
C  -17.15800 40.32800 43.11600
C  -17.68900 37.07500 41.35400
C  -18.84400 36.13400 41.97100
N  -12.66100 36.34700 41.31100
C  -13.55500 35.52500 41.95300
C  -13.08600 34.12600 41.87100
C  -11.88200 34.20000 41.19000
C  -11.59200 35.56000 40.94900
C  -13.71000 32.95600 42.56500
C  -10.78000 33.45100 40.76000
O  -10.71400 32.18800 40.80000
C  -9.73200 34.38400 40.23300
C  -8.50600 34.16600 41.03200
O  -7.62300 33.47900 40.61400
O  -8.43200 34.88600 42.19900
C  -7.13700 34.86600 42.84200
H  -9.54700 41.09200 38.96200
H  -15.41000 41.70200 41.40900
H  -15.44700 35.26400 42.72600
H  -7.65800 36.90400 40.00800
H  -8.29500 39.03000 38.22300
H  -6.49600 38.69600 40.55100
H  -7.63600 40.01700 40.78600
H  -6.60400 39.94500 39.26700
H  -8.43300 37.16500 37.14000
H  -9.30500 35.82900 37.78400
H  -7.49800 34.46600 37.45200
H  -6.56800 35.46800 38.61900
H  -10.61800 44.42300 39.93100
H  -11.35700 44.05600 38.34300
H  -9.89500 43.22400 38.94900
H  -15.48100 44.10400 41.37000
H  -15.84000 43.02000 39.86100
H  -15.76400 44.76600 39.82900
H  -17.11300 39.62100 41.06100
H  -16.87300 37.61100 43.32500
H  -16.51700 41.05900 43.60900
H  -17.51800 39.75100 43.96700
H  -18.12300 40.69900 42.77000
H  -17.02100 36.45400 40.75700
H  -18.14300 37.86800 40.76000
H  -19.80800 36.54100 41.66700
H  -18.75500 36.14800 43.05700
H  -18.64200 35.16100 41.52300
H  -14.61400 32.50300 42.15900
H  -14.00800 33.31500 43.55000
H  -12.96800 32.18300 42.76500
H  -9.63100 34.06800 39.19500
H  -6.40500 35.48600 42.32400
H  -6.83300 33.86300 43.14200
H  -7.35100 35.49400 43.70700

