158

Mg -1.40800 17.70600 27.24000
C  -2.17200 15.36200 29.71400
C  -1.79700 20.20500 29.51400
C  -1.18500 19.95300 24.69100
C  -1.51300 15.09700 24.81000
N  -2.01000 17.73400 29.36900
C  -2.03900 16.65700 30.18800
C  -1.95300 17.04600 31.65500
C  -2.00200 18.63700 31.55300
C  -1.90100 18.90900 30.04300
C  -3.01700 19.46100 32.35500
C  -0.68200 16.41700 32.47000
C  -0.24900 17.11200 33.73100
H  -0.23400 16.32300 35.13900
N  -1.50800 19.80600 27.14900
C  -1.70200 20.62100 28.20400
C  -1.59400 21.98900 27.73500
C  -1.47000 21.97600 26.31100
C  -1.39200 20.53500 25.95400
C  -1.77600 23.14500 28.74600
C  -1.30400 23.09500 25.29500
O  -1.03900 22.90900 24.12000
C  -1.30500 24.47600 25.80800
N  -1.37500 17.51700 25.08800
C  -1.28900 18.61300 24.29600
C  -1.17300 18.25100 22.72100
C  -1.16700 16.71600 22.79900
C  -1.35200 16.40000 24.29300
C  -2.25100 18.90900 21.72300
C  0.12900 16.10200 22.26800
C  1.32400 16.47100 23.11500
N  -1.72800 15.61600 27.22400
C  -1.76300 14.76000 26.13000
C  -2.09700 13.41100 26.65500
C  -2.22700 13.60400 28.05600
C  -2.04700 14.94400 28.35800
C  -2.35700 12.09300 25.87900
C  -2.46000 12.92300 29.25800
O  -2.71200 11.76100 29.48900
C  -2.52200 14.02300 30.40400
C  -1.52700 13.54700 31.38600
O  -0.31700 13.53000 31.25000
O  -2.12300 12.88900 32.41500
C  -1.24900 12.18400 33.35200
H  -1.56800 20.94000 30.28900
H  -1.14200 20.55900 23.78400
H  -1.47800 14.31000 24.05300
H  -2.82100 16.70500 32.21800
H  -1.01100 18.96500 31.86700
H  -3.80000 19.75400 31.65600
H  -2.57200 20.41000 32.65400
H  -3.46300 18.94000 33.20300
H  0.25500 16.21300 31.95100
H  -0.98900 15.43600 32.83300
H  -0.95400 17.90700 33.97600
H  0.61300 17.73900 33.50500
H  -1.53700 22.88600 29.77700
H  -2.80900 23.49000 28.68400
H  -1.17300 23.99900 28.43800
H  -1.27800 25.23700 25.02700
H  -0.44400 24.57000 26.46900
H  -2.17000 24.71100 26.42800
H  -0.17300 18.60900 22.47700
H  -2.00300 16.25700 22.27200
H  -2.99400 18.23200 21.30300
H  -1.64400 19.19800 20.86500
H  -2.68100 19.78100 22.21600
H  0.27100 16.52900 21.27500
H  0.04800 15.01600 22.21900
H  1.57500 15.61900 23.74700
H  1.17500 17.40800 23.65100
H  2.16600 16.73900 22.47800
H  -1.51300 11.44200 26.10800
H  -2.51000 12.27300 24.81500
H  -3.28900 11.62600 26.19600
H  -3.55800 13.89800 30.72200
H  -0.40900 11.73200 32.82400
H  -1.80500 11.40900 33.88000
H  -0.73200 12.89300 34.00000
Mg 25.95400 0.95000 29.10600
C  27.99900 0.25000 31.96200
C  23.21400 0.81300 31.31500
C  23.94000 0.95100 26.44800
C  28.71400 0.13200 27.09200
N  25.72300 0.55600 31.40200
C  26.68900 0.50700 32.37500
C  26.04900 0.51200 33.76400
C  24.51500 0.43700 33.49600
C  24.45400 0.62000 31.97000
C  23.82700 -0.83500 34.02500
C  26.57700 1.75200 34.56200
C  27.27700 1.47800 35.89300
H  27.29800 2.56700 36.97500
N  23.87900 0.97400 28.85700
C  22.91400 0.79300 29.89700
C  21.63000 0.86800 29.28000
C  21.74100 1.02700 27.87400
C  23.20300 1.02900 27.64400
C  20.30600 0.75300 30.04000
C  20.72300 0.97400 26.81200
O  20.95900 0.98400 25.57200
C  19.31800 0.83400 27.11800
N  26.20700 0.34400 27.11000
C  25.24800 0.62200 26.15500
C  25.82400 0.61200 24.69400
C  27.36800 0.49900 25.02800
C  27.41500 0.23700 26.50200
C  25.28900 -0.58900 23.91400
C  28.34700 1.55200 24.39100
C  29.29600 0.98800 23.34600
N  28.01100 0.42600 29.41600
C  28.97700 0.16400 28.51000
C  30.21300 -0.20400 29.21000
C  29.92200 -0.10000 30.56100
C  28.55000 0.14400 30.64400
C  31.46900 -0.70900 28.65200
C  30.49100 -0.28000 31.93000
O  31.55700 -0.58500 32.34900
C  29.27000 0.10200 32.84700
C  29.16300 -1.08600 33.80900
O  28.57100 -2.14200 33.53000
O  29.60000 -0.77900 35.06300
C  28.95500 -1.65800 36.04800
H  22.37500 0.95700 31.99900
H  23.46500 1.02800 25.46800
H  29.63400 0.02100 26.51600
H  26.36700 -0.41400 34.24200
H  24.02600 1.31600 33.91500
H  22.75100 -0.75800 34.17600
H  24.36800 -1.17500 34.90900
H  23.93500 -1.60000 33.25600
H  25.78400 2.45900 34.80900
H  27.18800 2.36300 33.89800
H  28.30400 1.36800 35.54400
H  26.93300 0.56000 36.36900
H  19.87700 -0.24400 29.94300
H  19.59100 1.50600 29.70700
H  20.47200 0.85400 31.11300
H  19.27300 -0.15400 27.57600
H  18.71400 0.81100 26.21200
H  18.91800 1.61200 27.76900
H  25.42100 1.49700 24.20100
H  27.80400 -0.42500 24.64500
H  24.86800 -0.26300 22.96300
H  24.55300 -1.16000 24.48000
H  26.05700 -1.28500 23.57800
H  28.90200 2.01900 25.20400
H  27.74900 2.32000 23.89900
H  28.72300 0.57100 22.51800
H  29.94200 0.16500 23.65200
H  30.01700 1.71400 22.96900
H  31.65100 -0.47700 27.60300
H  31.37700 -1.79400 28.71300
H  32.22400 -0.31200 29.33000
H  29.48200 1.00200 33.42400
H  29.15500 -1.27400 37.04800
H  29.34300 -2.66900 35.92100
H  27.87100 -1.67800 35.93700

