158

Mg 36.28500 49.45800 26.11400
C  36.88200 47.33800 28.99300
C  34.80900 51.63600 28.27000
C  35.18900 51.10100 23.43700
C  37.33000 46.69900 24.23400
N  35.73300 49.40100 28.36400
C  36.23200 48.55700 29.38300
C  36.09700 49.18500 30.81300
C  35.09900 50.31700 30.43100
C  35.33500 50.53500 28.89600
C  33.62100 50.15000 30.76100
C  37.49100 49.62700 31.42900
C  37.62500 49.21200 32.84200
H  36.58300 49.81300 33.86900
N  35.07700 51.13300 25.80400
C  34.65000 51.95800 26.86600
C  34.05900 53.13800 26.28400
C  34.14000 52.95600 24.87800
C  34.78300 51.68200 24.66300
C  33.44300 54.20400 27.11200
C  33.81800 53.92200 23.82800
O  33.89500 53.70000 22.63200
C  33.46500 55.31700 24.18700
N  36.23900 48.97200 24.09600
C  35.82100 49.82900 23.10700
C  36.03300 49.19000 21.74000
C  36.67500 47.72500 22.03500
C  36.75900 47.81200 23.56100
C  34.66600 49.15800 20.92900
C  38.03700 47.46000 21.37000
C  39.18500 48.42400 21.74100
N  37.11600 47.53400 26.49700
C  37.53200 46.49300 25.60600
C  38.08100 45.39700 26.30400
C  37.83700 45.66600 27.64600
C  37.22800 46.96400 27.70900
C  38.81200 44.13700 25.75500
C  37.95100 45.15300 29.01400
O  38.45100 44.12400 29.42700
C  37.36400 46.28500 29.97000
C  36.29900 45.71200 30.76400
O  35.31900 45.12600 30.29600
O  36.50200 45.77100 32.13700
C  35.42400 45.24200 32.93400
H  34.54200 52.43100 28.97000
H  34.96100 51.74900 22.58900
H  37.69800 45.90100 23.58500
H  35.67300 48.35400 31.37600
H  35.42200 51.24800 30.89800
H  33.08700 51.07200 30.53400
H  33.37300 49.86600 31.78300
H  33.29500 49.35600 30.08900
H  37.70700 50.69200 31.34600
H  38.20500 49.20800 30.71900
H  38.65800 49.31900 33.17200
H  37.45500 48.13700 32.90500
H  34.00300 55.13600 27.03700
H  33.26200 53.92800 28.15000
H  32.42800 54.25200 26.71800
H  33.34900 55.89100 23.26800
H  34.26900 55.64700 24.84500
H  32.45400 55.31900 24.59500
H  36.78000 49.80800 21.24300
H  36.06400 46.86700 21.75400
H  34.47400 48.14200 20.58400
H  34.78200 49.94700 20.18600
H  33.79700 49.39200 21.54500
H  38.03100 47.65400 20.29700
H  38.39700 46.44500 21.53700
H  39.55800 48.85000 20.80900
H  40.08100 47.94900 22.13900
H  38.99800 49.09500 22.57900
H  38.94600 44.24100 24.67800
H  38.12300 43.32500 25.98800
H  39.76800 44.04600 26.27100
H  38.16800 46.68800 30.58700
H  35.31400 44.17300 32.75400
H  34.48200 45.67600 32.59800
H  35.58500 45.43400 33.99500
Mg -10.60500 38.74000 42.16000
C  -8.66700 36.00500 41.34700
C  -8.28800 40.83600 40.42800
C  -12.84600 41.31000 42.33900
C  -13.15400 36.55000 43.21500
N  -8.72200 38.44600 40.99800
C  -8.14200 37.22600 40.81100
C  -6.81500 37.31500 40.03600
C  -6.54200 38.88800 40.09600
C  -7.96100 39.46200 40.54300
C  -5.44500 39.26800 41.18200
C  -6.93500 36.70900 38.55800
C  -5.86800 35.70900 38.15900
H  -4.85800 36.14700 37.07400
N  -10.47300 40.87200 41.56600
C  -9.41700 41.51800 40.96100
C  -9.74300 42.94100 40.99500
C  -11.11100 43.11400 41.46500
C  -11.52400 41.71400 41.83200
C  -8.77900 43.98500 40.58300
C  -11.88900 44.43200 41.58200
O  -11.20100 45.43400 41.42800
C  -13.32900 44.45500 41.93800
N  -12.75200 38.88700 42.45100
C  -13.36200 40.06400 42.61700
C  -14.75700 39.94500 43.23200
C  -14.91600 38.38500 43.23400
C  -13.49400 37.88900 42.99500
C  -14.84500 40.70200 44.56300
C  -15.83400 37.65000 42.15000
C  -17.14000 36.87300 42.65600
N  -10.88300 36.69500 42.28500
C  -11.93100 35.89100 42.80100
C  -11.56000 34.51100 42.94200
C  -10.21600 34.49100 42.41600
C  -9.88500 35.85200 42.05100
C  -12.31900 33.46600 43.64900
C  -9.08300 33.69900 42.15500
O  -8.85200 32.48600 42.30200
C  -7.99100 34.68400 41.42800
C  -6.74700 34.64600 42.21500
O  -6.03100 33.67100 42.18200
O  -6.39700 35.79100 42.91800
C  -5.20300 35.70500 43.82700
H  -7.46900 41.44400 40.03800
H  -13.67000 42.00100 42.53200
H  -13.91500 35.93500 43.70000
H  -6.02400 36.72600 40.50000
H  -6.38500 39.33500 39.11500
H  -5.86600 39.51400 42.15700
H  -4.88000 40.11200 40.78600
H  -4.82500 38.39100 41.36900
H  -6.89600 37.58100 37.90600
H  -7.90100 36.24900 38.35200
H  -6.41600 34.83700 37.80200
H  -5.30400 35.52500 39.07300
H  -9.06100 44.46500 39.64500
H  -7.76800 43.59000 40.48400
H  -8.66900 44.80300 41.29400
H  -13.48800 44.18000 42.98100
H  -13.72600 43.62000 41.36100
H  -13.89200 45.33700 41.63400
H  -15.46500 40.35100 42.51000
H  -15.27700 37.98400 44.18100
H  -15.10600 41.73600 44.33800
H  -13.89300 40.56800 45.07800
H  -15.67700 40.33900 45.16500
H  -15.24100 37.00400 41.50300
H  -16.15700 38.42900 41.46000
H  -17.04600 36.87300 43.74200
H  -17.23400 35.86000 42.26500
H  -18.00100 37.47300 42.36000
H  -11.65600 32.82900 44.23500
H  -12.78000 32.90000 42.83900
H  -13.15900 33.70600 44.30100
H  -7.87900 34.37800 40.38700
H  -4.29400 35.98000 43.29300
H  -5.05300 34.83900 44.47200
H  -5.55900 36.40800 44.57900

