158

Mg 26.31800 51.73600 25.72300
C  23.89000 52.49500 28.21100
C  28.51900 51.19000 28.31200
C  28.80300 51.63400 23.48800
C  24.12600 52.52300 23.30400
N  26.27200 52.14000 28.00600
C  25.14000 52.21700 28.77900
C  25.43300 52.09600 30.27700
C  26.97700 51.82600 30.33200
C  27.32700 51.74800 28.78500
C  27.90300 52.59300 31.32600
C  24.46500 51.17600 31.07100
C  24.99900 50.33300 32.31900
H  24.20200 50.23000 33.57000
N  28.28300 51.39600 25.85800
C  29.01200 51.18600 27.02600
C  30.37300 50.91300 26.64500
C  30.54600 50.99000 25.22700
C  29.19000 51.39200 24.79400
C  31.41900 50.47600 27.60800
C  31.77200 50.89000 24.33800
O  31.77700 50.92700 23.12600
C  33.20400 50.77800 24.95900
N  26.41900 52.00400 23.69700
C  27.54700 51.86500 22.94800
C  27.29200 52.05600 21.48000
C  25.72400 52.18300 21.40500
C  25.41200 52.25300 22.88600
C  28.15000 53.20700 20.87400
C  25.03500 51.19000 20.51000
C  23.70500 51.67900 19.85500
N  24.47500 52.47000 25.72700
C  23.62000 52.69800 24.64600
C  22.35300 53.12000 25.05900
C  22.41200 53.04900 26.45000
C  23.73100 52.65400 26.82200
C  21.13200 53.51000 24.24000
C  21.60300 53.18600 27.65200
O  20.45200 53.57100 27.80200
C  22.56000 52.82500 28.85600
C  22.66400 53.96300 29.73800
O  23.30800 54.96000 29.48000
O  21.90500 53.80400 30.84700
C  21.99400 54.89700 31.85600
H  29.20200 50.99300 29.14100
H  29.43800 51.44600 22.62000
H  23.37300 52.68400 22.53000
H  25.22400 53.06900 30.72200
H  27.10600 50.78500 30.62600
H  28.57400 53.24000 30.76000
H  28.50400 51.85100 31.85000
H  27.38000 53.19300 32.07100
H  24.20100 50.37800 30.37700
H  23.49000 51.59200 31.32600
H  25.78800 51.03500 32.59200
H  25.49500 49.37200 32.18600
H  31.77200 49.47700 27.35400
H  31.09100 50.46500 28.64800
H  32.34200 51.05600 27.60700
H  33.98500 50.94000 24.21600
H  33.26100 49.78100 25.39500
H  33.27700 51.56800 25.70600
H  27.58300 51.11900 21.00500
H  25.52000 53.19500 21.05400
H  27.47200 54.02000 20.61000
H  28.75400 52.82500 20.05100
H  28.84200 53.75000 21.51700
H  24.58500 50.45300 21.17400
H  25.65200 50.74400 19.73000
H  23.56700 51.35600 18.82300
H  23.65900 52.76800 19.81300
H  22.77900 51.53900 20.41200
H  20.20600 53.06200 24.60000
H  21.11800 53.17600 23.20200
H  20.86900 54.56500 24.16800
H  22.17200 52.01400 29.47400
H  21.78800 54.41700 32.81300
H  21.24900 55.64800 31.59200
H  22.96900 55.38500 31.83900
Mg 7.06100 54.12400 41.21900
C  6.36800 50.64500 41.09200
C  10.10600 53.54100 39.86600
C  7.05400 57.33700 40.17000
C  3.75800 54.42900 42.28400
N  8.00500 52.28700 40.41100
C  7.53400 50.97800 40.38300
C  8.61200 50.04300 39.78800
C  9.97300 50.90900 39.85700
C  9.33900 52.31100 40.06500
C  11.01100 50.56500 41.00900
C  8.36500 49.36200 38.38200
C  7.36700 50.00600 37.45000
H  7.38600 49.62400 35.97000
N  8.41700 55.34100 40.21800
C  9.65700 54.91500 39.88500
C  10.52500 56.00600 39.56500
C  9.62800 57.16500 39.56800
C  8.29700 56.64200 39.96000
C  12.07000 55.84000 39.35200
C  9.91500 58.53500 39.17400
O  11.07100 58.92400 39.05500
C  8.88500 59.66300 39.02300
N  5.51200 55.67200 41.02400
C  5.83200 56.94200 40.72600
C  4.66400 57.92400 41.05200
C  3.54200 56.91300 41.58500
C  4.29700 55.59100 41.61400
C  5.02300 59.15200 41.96900
C  2.21000 56.70100 40.67400
C  0.83200 56.87200 41.35100
N  5.45600 52.85000 41.75300
C  4.29200 53.14200 42.30900
C  3.66600 51.96400 42.84200
C  4.43600 50.98900 42.25500
C  5.53700 51.53400 41.66300
C  2.38000 51.87800 43.58400
C  4.54600 49.55900 42.23800
O  3.77500 48.67900 42.60900
C  5.88100 49.20900 41.49500
C  5.71300 48.20400 40.44300
O  5.07900 48.39600 39.41300
O  6.29100 47.07800 40.91600
C  6.18800 45.92200 40.05000
H  11.16400 53.35000 39.67400
H  6.99500 58.39500 39.90600
H  2.71800 54.39500 42.61300
H  8.84300 49.27400 40.52600
H  10.44500 50.98500 38.87700
H  10.92900 49.63800 41.57700
H  11.05000 51.49300 41.58100
H  11.90400 50.44100 40.39600
H  8.03800 48.34300 38.58900
H  9.27800 49.28700 37.79000
H  7.51100 51.07800 37.59100
H  6.33100 49.81900 37.73000
H  12.19100 55.57800 38.30100
H  12.39700 54.95700 39.90200
H  12.59200 56.76400 39.60100
H  8.42800 59.86600 39.99200
H  8.13700 59.55900 38.23700
H  9.47600 60.56700 38.87300
H  4.44600 58.38600 40.09000
H  3.16700 57.12200 42.58600
H  6.07100 59.18900 42.26900
H  4.29300 59.04600 42.77100
H  4.87400 60.08300 41.42100
H  2.14900 55.74900 40.14600
H  2.12500 57.46600 39.90200
H  0.24500 57.65300 40.86900
H  0.86500 57.15300 42.40400
H  0.26000 55.95100 41.24200
H  2.37600 51.09700 44.34400
H  1.61700 51.70600 42.82400
H  2.17100 52.81700 44.09500
H  6.33900 48.77800 42.38500
H  5.25200 45.86300 39.49500
H  6.28600 45.01600 40.64800
H  7.00600 45.84400 39.33400

