158

Mg 37.01400 49.77900 24.71500
C  37.26400 47.98700 27.63600
C  35.45200 52.27900 26.28700
C  36.54300 51.32500 21.68800
C  38.09200 46.91100 22.93900
N  36.43100 49.99500 26.68800
C  36.76000 49.25000 27.79000
C  36.44100 49.96600 29.08000
C  35.65000 51.23400 28.57300
C  35.84700 51.17400 27.06800
C  34.23800 51.41800 29.03400
C  37.68600 50.20100 29.90100
C  37.43100 50.06800 31.42300
H  35.99200 50.34800 32.00600
N  36.28400 51.58700 24.10400
C  35.65400 52.49700 24.95000
C  35.17800 53.65900 24.20900
C  35.55200 53.40900 22.85000
C  36.17700 52.07600 22.83300
C  34.38300 54.83500 24.82300
C  35.42100 54.28000 21.63100
O  35.80800 53.89800 20.52000
C  34.89400 55.64100 21.66400
N  37.20900 49.14900 22.59300
C  36.98800 50.01200 21.55400
C  37.23000 49.39900 20.15800
C  37.92300 48.02800 20.62800
C  37.64500 47.98100 22.15700
C  35.92200 49.11700 19.33100
C  39.40300 47.86900 20.14600
C  40.51200 48.40700 21.11000
N  37.57100 47.86200 25.17300
C  38.08300 46.82900 24.36500
C  38.64800 45.80500 25.12600
C  38.26800 46.17000 26.43600
C  37.63900 47.41600 26.39800
C  39.52500 44.65500 24.57200
C  38.33500 45.84400 27.80900
O  38.80200 44.87600 28.40300
C  37.63600 47.00800 28.61700
C  36.41500 46.48000 29.26500
O  35.35700 46.18900 28.70900
O  36.65700 46.42100 30.60000
C  35.56900 45.78600 31.39400
H  35.08700 53.18000 26.78400
H  36.26300 51.82700 20.76000
H  38.58700 46.16100 22.31900
H  35.75900 49.35100 29.66800
H  36.24600 52.04200 28.99800
H  33.87400 50.53500 29.55800
H  33.45600 51.53100 28.28200
H  34.12200 52.28400 29.68600
H  38.01100 51.23000 29.74400
H  38.49600 49.58100 29.51600
H  38.07300 50.84300 31.84100
H  37.75000 49.04400 31.61700
H  33.40400 54.67500 24.37000
H  34.68000 55.78600 24.38100
H  34.22000 54.87200 25.90000
H  34.93700 56.03700 20.64900
H  35.45100 56.32700 22.30400
H  33.86900 55.63000 22.03500
H  37.90900 50.02300 19.57700
H  37.35300 47.18100 20.24600
H  34.98800 49.19900 19.88700
H  36.08700 48.26200 18.67500
H  35.83100 49.97400 18.66500
H  39.42500 48.34000 19.16400
H  39.58800 46.79700 20.07500
H  40.13000 49.05500 21.89900
H  41.12300 48.97900 20.41200
H  41.20100 47.73900 21.62700
H  39.41500 44.47600 23.50300
H  39.29500 43.75700 25.14600
H  40.59600 44.81900 24.69000
H  38.28900 47.30600 29.43700
H  35.80300 44.73000 31.53000
H  34.59600 45.66400 30.91900
H  35.37700 46.31200 32.32900
Mg 17.46200 50.58000 26.28300
C  19.11900 49.33400 29.17900
C  14.99000 51.56100 28.39600
C  15.95600 51.48600 23.63300
C  19.96700 48.97600 24.39300
N  17.07100 50.46300 28.60900
C  17.98300 50.00600 29.55500
C  17.52400 50.27600 30.95200
C  16.06900 50.70100 30.71600
C  15.99300 50.93500 29.20300
C  15.01400 49.74000 31.24800
C  18.48100 51.27100 31.61300
C  18.86900 51.13900 33.06000
H  17.79200 50.47900 33.99100
N  15.77600 51.49400 25.99800
C  14.87300 51.81000 27.01100
C  13.74600 52.48400 26.39200
C  14.05400 52.56600 24.95400
C  15.25400 51.82900 24.80100
C  12.56400 52.96300 27.15600
C  13.21700 53.17900 23.80500
O  13.61100 53.12800 22.61900
C  11.92100 53.83000 24.06400
N  17.90300 50.24500 24.24100
C  17.04800 50.67500 23.26500
C  17.57200 50.34400 21.85300
C  18.95800 49.60400 22.19400
C  18.94700 49.57300 23.68900
C  16.69700 49.33500 21.11900
C  20.16100 50.31300 21.52400
C  20.68300 51.58800 22.18200
N  19.24700 49.42200 26.65100
C  20.10000 48.88500 25.76100
C  21.27000 48.31900 26.54500
C  20.91400 48.50700 27.89300
C  19.67200 49.14000 27.85100
C  22.45900 47.72200 25.91500
C  21.30600 48.21200 29.27000
O  22.32900 47.73500 29.68800
C  20.27100 48.73400 30.12300
C  19.81200 47.58300 30.95400
O  18.97900 46.78700 30.61300
O  20.38500 47.65700 32.21500
C  19.88900 46.77400 33.32800
H  14.24000 51.95300 29.08600
H  15.43600 51.76700 22.71500
H  20.66200 48.44700 23.73700
H  17.61500 49.40100 31.59600
H  15.86800 51.67400 31.16400
H  15.37900 48.87000 31.79400
H  14.43300 49.42100 30.38300
H  14.49100 50.39900 31.94000
H  18.04300 52.26400 31.51600
H  19.43800 51.27000 31.09200
H  19.16100 52.05900 33.56500
H  19.71800 50.45700 33.09200
H  12.44700 52.39800 28.08100
H  11.72500 52.67400 26.52400
H  12.57400 54.03900 27.33000
H  12.00200 54.67600 24.74600
H  11.20700 53.08100 24.40700
H  11.38300 54.17800 23.18300
H  17.70800 51.29700 21.34200
H  18.98500 48.59100 21.79400
H  16.39800 48.67000 21.92900
H  17.13600 48.66100 20.38400
H  15.84800 49.88400 20.71100
H  19.92300 50.44200 20.46800
H  20.97700 49.60800 21.36900
H  19.88300 52.03400 22.77200
H  21.00100 52.32100 21.44000
H  21.55000 51.35500 22.80000
H  22.68900 48.21100 24.96700
H  22.34900 46.66500 25.67400
H  23.30500 47.79700 26.59700
H  20.69900 49.47600 30.79700
H  19.68900 47.50000 34.11700
H  20.68900 46.09700 33.62800
H  18.97000 46.26300 33.04200

