158

Mg 49.35200 44.90700 42.67600
C  45.91200 45.08200 42.35300
C  49.08600 41.48700 42.17300
C  52.70500 44.72000 42.14000
C  49.43500 48.28500 42.93400
N  47.60000 43.42200 42.06000
C  46.30200 43.77300 42.19500
C  45.47100 42.47000 42.13700
C  46.57300 41.33500 42.42100
C  47.82800 42.10900 42.25300
C  46.41900 40.53900 43.77000
C  44.62700 42.30800 40.78600
C  44.61800 43.32700 39.64800
H  44.65100 42.66900 38.26700
N  50.77200 43.30800 42.28700
C  50.45600 42.04400 42.19400
C  51.68500 41.21200 42.28600
C  52.76700 42.07300 42.25600
C  52.13800 43.41700 42.23900
C  51.80200 39.69100 42.25000
C  54.27800 41.75300 42.14900
O  54.62500 40.59300 42.08500
C  55.37500 42.79300 42.26700
N  50.78300 46.31200 42.33300
C  52.10300 45.99000 42.16200
C  52.88500 47.29100 41.89500
C  51.93400 48.45000 42.33000
C  50.63300 47.64300 42.53800
C  54.23600 47.32700 42.60400
C  51.84000 49.63900 41.34200
C  52.17300 51.12600 41.83100
N  48.01600 46.44600 42.70400
C  48.16800 47.75500 42.90600
C  46.87800 48.39900 42.94500
C  45.97400 47.37500 42.69300
C  46.71100 46.21400 42.56800
C  46.49000 49.85700 43.12300
C  44.55200 47.09800 42.46300
O  43.57900 47.80300 42.38100
C  44.55600 45.65500 42.11800
C  43.43900 44.98600 42.77000
O  42.58700 44.36100 42.15000
O  43.33800 45.30900 44.13900
C  42.07800 45.00200 44.87100
H  49.05800 40.40300 42.29900
H  53.78700 44.66100 42.01200
H  49.47800 49.33900 43.21600
H  44.79800 42.40400 42.99200
H  46.66400 40.60600 41.61500
H  47.32100 40.32200 44.34300
H  45.79400 39.67000 43.56300
H  45.82900 41.09200 44.50100
H  43.60600 42.22800 41.16000
H  44.73200 41.31800 40.34200
H  45.31300 44.16600 39.68700
H  43.61900 43.76200 39.61100
H  52.29100 39.41400 41.31600
H  50.75800 39.39900 42.36500
H  52.45400 39.34700 43.05300
H  56.25100 42.22000 42.57100
H  55.03800 43.50800 43.01700
H  55.56700 43.17400 41.26400
H  53.02800 47.43400 40.82400
H  52.23900 48.89200 43.27800
H  54.15500 46.68500 43.48000
H  54.41600 48.36300 42.89300
H  55.02300 47.05000 41.90200
H  50.86600 49.59400 40.85300
H  52.43900 49.44800 40.45200
H  52.27000 51.21500 42.91300
H  51.24000 51.63200 41.58200
H  53.00100 51.56300 41.27300
H  45.97800 50.05500 42.18200
H  47.30900 50.57300 43.19500
H  45.92100 49.84800 44.05300
H  44.38400 45.59800 41.04300
H  41.30700 44.52700 44.26400
H  41.58200 45.80600 45.41600
H  42.43600 44.29900 45.62300
Mg -5.21800 25.41000 24.73100
C  -3.82200 26.81800 27.50700
C  -6.84000 23.11100 26.76500
C  -6.53900 23.79500 21.96600
C  -3.36200 27.37700 22.64600
N  -5.10100 24.87600 26.83400
C  -4.59800 25.70800 27.86600
C  -5.12500 25.24500 29.26000
C  -5.74900 23.85700 28.91700
C  -5.89300 23.93200 27.37700
C  -4.85700 22.61500 29.34000
C  -6.02400 26.30800 29.88200
C  -5.70100 26.70600 31.35200
H  -5.41400 25.54100 32.15300
N  -6.48900 23.73100 24.40500
C  -7.16200 23.04000 25.35400
C  -8.31700 22.35500 24.83100
C  -8.15000 22.43100 23.42700
C  -7.03700 23.31100 23.17700
C  -9.38000 21.73500 25.64100
C  -8.92000 21.63700 22.32100
O  -8.53300 21.60100 21.15600
C  -10.07500 20.72500 22.60200
N  -5.00300 25.61400 22.59300
C  -5.63200 24.81000 21.64500
C  -5.27100 25.23300 20.22000
C  -4.38200 26.51800 20.50500
C  -4.19400 26.52800 21.98700
C  -4.67300 24.07200 19.38900
C  -4.95300 27.76900 19.86700
C  -6.08800 28.55700 20.71400
N  -3.81000 26.76300 24.99600
C  -3.18900 27.55800 24.04200
C  -2.33300 28.51200 24.75600
C  -2.54500 28.31000 26.16600
C  -3.37100 27.17700 26.18900
C  -1.46100 29.47000 23.99900
C  -2.12700 28.62300 27.56200
O  -1.32900 29.46800 27.98100
C  -3.07400 27.70700 28.48600
C  -2.17800 26.85500 29.29800
O  -1.41700 25.90600 28.95000
O  -2.12100 27.29200 30.60000
C  -1.39100 26.47600 31.50000
H  -7.46700 22.50300 27.42000
H  -7.03200 23.42000 21.06600
H  -2.72800 27.98900 22.00100
H  -4.23400 25.11300 29.87400
H  -6.77200 23.77100 29.28300
H  -3.79900 22.85600 29.45100
H  -4.97900 21.83100 28.59300
H  -5.23000 22.22300 30.28600
H  -6.97400 25.77400 29.89000
H  -6.15200 27.20500 29.27500
H  -6.51300 27.26100 31.82100
H  -4.83000 27.35800 31.29000
H  -10.17200 21.09100 25.25800
H  -9.90300 22.64300 25.94100
H  -8.93800 21.21300 26.48900
H  -10.25300 20.19700 21.66500
H  -11.00000 21.20500 22.92200
H  -9.75600 19.97000 23.32000
H  -6.20500 25.57700 19.77500
H  -3.42600 26.28800 20.03400
H  -4.43900 23.31300 20.13500
H  -3.73700 24.36200 18.91100
H  -5.48400 23.90600 18.68000
H  -5.43500 27.49600 18.92800
H  -4.11900 28.39600 19.55200
H  -6.55300 28.00700 21.53300
H  -6.91600 28.60900 20.00800
H  -5.73800 29.56200 20.95100
H  -1.20500 29.16300 22.98500
H  -0.62000 29.68000 24.66000
H  -2.04300 30.38600 23.89100
H  -3.74300 28.31000 29.09900
H  -1.51900 26.92800 32.48400
H  -0.33400 26.46000 31.23400
H  -1.80100 25.46600 31.47700

