158

Mg 8.00500 2.98700 26.99100
C  8.94400 1.57800 29.94500
C  5.76400 5.05300 28.78100
C  6.49500 4.25900 24.10100
C  9.26000 0.29900 25.31100
N  7.37400 3.27900 29.17600
C  8.04900 2.64400 30.17500
C  7.56500 3.29300 31.57900
C  6.41200 4.31400 31.17000
C  6.43100 4.18700 29.61300
C  5.08100 4.10200 31.85800
C  8.85000 3.90500 32.24700
C  8.49000 4.79200 33.51600
H  9.28300 4.41800 34.77400
N  6.45400 4.50500 26.55500
C  5.72300 5.22500 27.42400
C  4.86000 6.19000 26.70800
C  5.10400 6.00700 25.32700
C  6.05000 4.91400 25.27100
C  3.98400 7.20500 27.35900
C  4.64200 6.84800 24.10700
O  4.62400 6.44900 22.97500
C  4.09300 8.17600 24.38100
N  8.02000 2.47800 24.97400
C  7.40700 3.18100 23.96700
C  7.59600 2.49900 22.66400
C  8.52000 1.24500 23.07400
C  8.58700 1.30600 24.57300
C  6.23200 2.14000 21.95800
C  9.94400 1.14800 22.30800
C  10.21700 -0.17700 21.62000
N  9.04100 1.35900 27.44100
C  9.70100 0.45700 26.67300
C  10.42600 -0.53800 27.46900
C  10.30800 0.01000 28.78900
C  9.38400 1.05800 28.68800
C  11.31100 -1.61500 26.95600
C  10.59500 -0.23000 30.14600
O  11.31100 -1.07900 30.75000
C  9.71000 0.76300 30.95100
C  8.74100 -0.04400 31.81400
O  7.64300 -0.56900 31.47600
O  9.31300 -0.17300 33.06100
C  8.62900 -1.01500 34.08900
H  5.08900 5.70700 29.33700
H  6.11400 4.76100 23.21000
H  9.56300 -0.54300 24.68600
H  7.22700 2.50100 32.24600
H  6.68100 5.35500 31.35100
H  4.80500 5.04500 32.33000
H  5.20700 3.41000 32.69000
H  4.27100 3.77900 31.20400
H  9.49300 4.36800 31.49800
H  9.40200 3.11100 32.75000
H  7.44000 4.68500 33.78500
H  8.61700 5.85700 33.32100
H  2.95300 7.03900 27.04600
H  4.36900 8.18600 27.08100
H  4.03600 7.27500 28.44500
H  3.15500 8.06200 24.92300
H  3.77600 8.69400 23.47600
H  4.91400 8.71900 24.85000
H  8.15200 3.15100 21.99100
H  7.90700 0.36700 22.87000
H  6.19400 2.76600 21.06600
H  5.47500 2.27300 22.73000
H  6.16200 1.07300 21.74400
H  10.77600 1.28100 23.00000
H  10.15100 2.04300 21.72000
H  11.13800 -0.48400 22.11600
H  10.50100 -0.02500 20.57900
H  9.42200 -0.90600 21.77700
H  11.91700 -1.16800 26.16800
H  10.64400 -2.41700 26.64000
H  11.94300 -1.70900 27.83900
H  10.44200 1.31400 31.54100
H  9.44700 -1.58000 34.53600
H  7.87300 -1.69100 33.69000
H  8.22700 -0.34300 34.84700
Mg 43.31400 42.26400 26.78400
C  42.15500 44.46300 29.30500
C  44.31200 40.18900 29.39100
C  44.76600 40.40000 24.49800
C  43.06900 44.96200 24.54800
N  43.23500 42.24000 29.05300
C  42.55200 43.22400 29.82400
C  42.52400 42.96800 31.38100
C  43.49600 41.73600 31.43900
C  43.75400 41.36600 29.87200
C  44.84000 41.90700 32.28500
C  41.07200 42.82100 31.86100
C  40.65700 43.38100 33.19900
H  41.58900 43.37300 34.35600
N  44.33900 40.46300 26.92100
C  44.65000 39.77300 28.05700
C  45.26200 38.51700 27.60800
C  45.15100 38.45600 26.22600
C  44.76500 39.79200 25.77500
C  45.67900 37.39300 28.48600
C  45.44200 37.29200 25.17300
O  45.25300 37.53500 23.95400
C  45.64800 35.90000 25.58400
N  43.84800 42.59700 24.73200
C  44.35400 41.63400 24.05000
C  44.45100 41.97200 22.60200
C  43.77200 43.45000 22.61800
C  43.52900 43.73700 23.99800
C  45.81900 41.84700 21.91400
C  42.47300 43.56000 21.65900
C  41.16200 42.82500 22.13600
N  42.73900 44.26500 26.88200
C  42.57400 45.22000 25.87700
C  42.05000 46.49200 26.43400
C  41.76300 46.18200 27.73400
C  42.28500 44.89900 27.99200
C  41.73000 47.71900 25.67500
C  41.09500 46.68200 28.95300
O  40.44000 47.72400 29.08800
C  41.41900 45.62700 30.01000
C  42.20300 46.39200 31.00100
O  43.39700 46.62900 30.87500
O  41.43500 46.74200 32.14000
C  42.14400 47.41200 33.18400
H  44.72100 39.57500 30.19600
H  45.26000 39.75600 23.76800
H  42.95900 45.82000 23.88300
H  43.08300 43.78800 31.83200
H  42.95600 40.93400 31.94200
H  45.02600 42.92100 32.63900
H  45.60900 41.60200 31.57500
H  45.01100 41.27100 33.15300
H  40.95200 41.73900 31.90200
H  40.42200 43.09700 31.03100
H  39.74100 42.93600 33.58800
H  40.48000 44.43400 32.98400
H  45.67200 37.87900 29.46200
H  46.67700 37.02000 28.26000
H  44.92700 36.60500 28.49900
H  46.32000 35.66000 26.40700
H  45.85100 35.35000 24.66500
H  44.65000 35.63300 25.93200
H  43.81900 41.25800 22.07400
H  44.44000 44.25400 22.30800
H  46.55900 41.50300 22.63600
H  45.98700 42.89800 21.67900
H  45.93200 41.35600 20.94800
H  42.81600 43.19200 20.69200
H  42.28500 44.62000 21.48900
H  41.17700 42.67700 23.21600
H  40.88900 41.90500 21.61900
H  40.33700 43.51200 21.95000
H  42.51900 47.73600 24.92400
H  41.75700 48.53000 26.40300
H  40.76200 47.65700 25.17600
H  40.47600 45.25200 30.41000
H  42.42100 48.41000 32.84400
H  43.03600 46.83500 33.42500
H  41.45800 47.48000 34.02800

