158

Mg 16.70800 53.12600 26.70800
C  18.36100 51.64400 29.22800
C  13.97600 53.82700 28.89600
C  14.98800 54.49900 24.18600
C  18.90300 51.69200 24.38500
N  16.21300 52.71300 28.79300
C  17.15800 52.30600 29.63100
C  16.75800 52.52000 31.11400
C  15.27500 52.97300 31.04100
C  15.10900 53.20600 29.51100
C  14.13900 51.99200 31.53900
C  17.72400 53.47200 31.91200
C  18.20000 53.11300 33.33400
H  17.24400 52.49700 34.34700
N  14.83900 54.06700 26.62600
C  13.88400 54.29000 27.61500
C  12.82500 55.12400 27.10400
C  13.20200 55.46900 25.78300
C  14.42800 54.67000 25.52700
C  11.51200 55.34800 27.78000
C  12.49300 56.38300 24.74300
O  12.93800 56.67700 23.58400
C  11.15400 56.99600 25.05200
N  16.76100 52.88000 24.50600
C  15.99700 53.68200 23.75000
C  16.26200 53.42300 22.26100
C  17.59900 52.56700 22.30600
C  17.85000 52.43800 23.80600
C  15.11800 52.63100 21.62400
C  18.83800 53.17700 21.56100
C  19.37800 54.42500 22.27000
N  18.27400 51.84200 26.67800
C  19.17300 51.46400 25.68600
C  20.23000 50.71100 26.36100
C  19.97600 50.76900 27.76700
C  18.81700 51.46700 27.89900
C  21.34700 50.17300 25.54700
C  20.44400 50.35500 29.04500
O  21.53200 49.82700 29.35200
C  19.40400 50.94800 30.04600
C  18.83900 49.78300 30.75200
O  18.23000 48.87400 30.27100
O  19.20400 49.81600 32.07100
C  18.78700 48.69000 32.96300
H  13.18600 54.13900 29.58200
H  14.56600 55.04300 23.33800
H  19.54900 51.17400 23.67200
H  16.82400 51.52600 31.55700
H  15.20600 53.93600 31.54700
H  13.68900 52.33700 32.47000
H  14.55000 51.01400 31.79000
H  13.43700 51.89600 30.71000
H  17.15600 54.40000 31.98100
H  18.55000 53.61400 31.21500
H  18.64900 54.02200 33.73300
H  19.01500 52.39000 33.35500
H  10.71300 55.17800 27.05900
H  11.39500 56.36500 28.15400
H  11.42200 54.68200 28.63900
H  10.98300 57.40500 26.04800
H  10.42500 56.22300 24.81000
H  11.00600 57.79300 24.32300
H  16.52700 54.32300 21.70700
H  17.30200 51.58500 21.93800
H  14.32800 52.33700 22.31400
H  15.41800 51.78300 21.00900
H  14.63900 53.32000 20.92900
H  18.51800 53.38100 20.54000
H  19.58200 52.38300 21.48500
H  19.57600 55.09600 21.43400
H  20.13700 54.24300 23.03100
H  18.56000 54.86400 22.84000
H  22.09000 49.75800 26.22800
H  21.89100 50.88600 24.92700
H  21.01700 49.42400 24.82800
H  19.83900 51.55000 30.84400
H  19.00500 49.11400 33.94300
H  19.36300 47.78500 32.77100
H  17.71900 48.46900 32.94100
Mg 0.48900 43.26400 25.98600
C  2.86600 43.02300 28.44200
C  -1.91000 42.09800 28.05500
C  -1.56400 43.04700 23.24700
C  3.21100 43.99100 23.62400
N  0.57200 42.57500 27.99100
C  1.53900 42.76700 28.86100
C  1.01000 42.69900 30.30200
C  -0.42100 42.11900 30.10300
C  -0.63400 42.19600 28.61100
C  -0.50400 40.58300 30.50700
C  1.14200 44.01400 31.14100
C  1.23800 43.96600 32.66200
H  0.86300 42.60000 33.29100
N  -1.53300 42.73400 25.73500
C  -2.33600 42.37900 26.71900
C  -3.71900 42.17900 26.15100
C  -3.61900 42.43800 24.70600
C  -2.16800 42.72700 24.48500
C  -4.98000 41.86600 27.01500
C  -4.62300 42.35500 23.72600
O  -4.44300 42.76700 22.61400
C  -5.96800 41.87700 24.12300
N  0.81300 43.37700 23.81300
C  -0.25500 43.38600 22.93600
C  0.16200 43.84800 21.51100
C  1.70800 44.08300 21.62300
C  1.93300 43.83200 23.11600
C  -0.15400 42.95400 20.26400
C  2.25900 45.46800 21.12000
C  2.33100 46.67100 22.00600
N  2.60300 43.51800 25.97300
C  3.53300 43.81600 24.98700
C  4.85200 43.81300 25.61000
C  4.64500 43.52100 26.93000
C  3.26400 43.31300 27.11900
C  6.12300 43.92500 24.85900
C  5.30500 43.23500 28.16500
O  6.49600 43.07800 28.46800
C  4.15500 43.05000 29.24900
C  4.43100 41.87200 30.07400
O  4.17900 40.70900 29.79500
O  4.86900 42.30600 31.30000
C  5.10800 41.35300 32.36500
H  -2.61900 41.66300 28.76200
H  -2.21000 43.13900 22.37100
H  3.98800 44.21500 22.89100
H  1.55900 41.94300 30.86400
H  -1.22100 42.63100 30.63600
H  0.40400 40.33100 31.05400
H  -0.48600 39.87100 29.68200
H  -1.43300 40.38500 31.04200
H  0.29400 44.62900 30.83900
H  2.01300 44.53600 30.74600
H  0.78400 44.78700 33.21600
H  2.29400 44.03200 32.92600
H  -4.86700 41.80600 28.09700
H  -5.25000 40.86100 26.68800
H  -5.78900 42.58400 26.88000
H  -5.83000 40.90200 24.58900
H  -6.59800 41.77500 23.23900
H  -6.46000 42.55500 24.82000
H  -0.29000 44.82900 21.36300
H  2.31700 43.34300 21.10400
H  -0.59900 41.98500 20.49300
H  0.70200 42.89300 19.59300
H  -0.88800 43.55100 19.72300
H  1.72700 45.78800 20.22300
H  3.29500 45.32400 20.81200
H  3.29000 46.73900 22.52000
H  1.61000 46.66400 22.82300
H  2.25500 47.50400 21.30800
H  6.31500 44.87300 24.35600
H  6.22500 43.24400 24.01500
H  6.86100 43.66900 25.62000
H  4.05400 43.98100 29.80600
H  5.34100 41.81300 33.32500
H  5.82500 40.57900 32.09200
H  4.20600 40.77900 32.57900

