158

Mg 2.81400 -0.35500 43.74900
C  6.27100 -0.17400 43.13000
C  2.43400 2.71200 42.09700
C  -0.45000 -1.08200 43.32600
C  3.31100 -3.58800 44.83900
N  4.23000 0.98700 42.73300
C  5.54900 0.90100 42.66000
C  6.13300 2.27000 42.13100
C  4.93900 3.18700 42.07000
C  3.76800 2.17400 42.23700
C  4.86100 4.26800 43.20300
C  6.85000 2.07700 40.74000
C  6.03800 1.32500 39.63800
H  5.97000 1.99700 38.26400
N  1.17100 0.83400 42.96300
C  1.21700 2.05800 42.39400
C  -0.17800 2.42700 42.05300
C  -0.99100 1.26500 42.35100
C  -0.07200 0.24100 42.87600
C  -0.59300 3.73900 41.42600
C  -2.44700 1.13100 42.00600
O  -2.99300 2.19000 41.72800
C  -3.26300 -0.15000 42.11200
N  1.66500 -2.02400 43.93200
C  0.32800 -2.13600 43.85000
C  -0.25500 -3.53400 44.09400
C  0.99100 -4.29800 44.61900
C  2.07100 -3.22800 44.45500
C  -1.53500 -3.51500 44.99100
C  1.33100 -5.74900 44.11800
C  1.46100 -6.88300 45.24100
N  4.43000 -1.64000 44.08500
C  4.44200 -2.86900 44.62700
C  5.84500 -3.31700 44.80700
C  6.62000 -2.29200 44.28600
C  5.71700 -1.28800 43.82700
C  6.35100 -4.60900 45.23100
C  7.99800 -1.76700 43.92100
O  9.09200 -2.24900 44.19200
C  7.82800 -0.44300 43.10800
C  8.66500 0.73900 43.69000
O  9.77800 1.07200 43.26800
O  8.05900 1.26200 44.70100
C  8.74800 2.34800 45.41800
H  2.15300 3.68200 41.68100
H  -1.49400 -1.36800 43.18200
H  3.48700 -4.53500 45.35300
H  6.88200 2.56800 42.86500
H  4.84500 3.59900 41.06500
H  4.49100 3.92500 44.16900
H  4.44900 5.14300 42.70100
H  5.89800 4.53400 43.40900
H  7.81700 1.63000 40.97200
H  7.06300 3.06700 40.33600
H  5.00900 1.16500 39.95800
H  6.40000 0.31600 39.44100
H  -0.66100 3.65700 40.34100
H  0.09900 4.53900 41.68900
H  -1.49900 4.05200 41.94500
H  -3.32000 -0.34700 43.18200
H  -2.67200 -0.86800 41.54300
H  -4.27600 -0.12500 41.70900
H  -0.58300 -3.98700 43.15800
H  1.11400 -4.28300 45.70200
H  -1.58600 -2.65100 45.65400
H  -1.51600 -4.41200 45.61000
H  -2.43600 -3.51000 44.37600
H  2.28300 -5.70000 43.59000
H  0.59800 -6.02900 43.36100
H  0.49800 -7.38700 45.32700
H  1.57000 -6.30200 46.15700
H  2.29800 -7.55900 45.07200
H  5.70600 -5.12700 45.94000
H  7.36300 -4.55200 45.63100
H  6.39200 -5.30100 44.39000
H  8.20000 -0.42200 42.08300
H  8.89900 3.18800 44.74000
H  9.76500 2.11100 45.73100
H  8.04100 2.80100 46.11300
Mg 7.14700 56.78900 42.44300
C  6.00200 53.38600 41.94900
C  10.00300 55.89000 40.96300
C  7.69900 60.00200 42.16200
C  3.83900 57.43400 43.68600
N  7.82200 54.87100 41.37100
C  7.27500 53.63400 41.30000
C  8.21500 52.70900 40.50400
C  9.55200 53.37700 40.79500
C  9.13300 54.82800 40.98100
C  10.45800 52.75900 41.94200
C  7.79400 52.61500 38.98300
C  7.54300 51.24100 38.44000
H  6.69500 51.16400 37.13200
N  8.57800 57.80600 41.48000
C  9.78600 57.28000 41.06700
C  10.68600 58.41400 40.67100
C  9.91100 59.64400 40.90500
C  8.71100 59.19500 41.59900
C  12.10100 58.07900 40.23100
C  10.35600 61.08200 40.54000
O  11.51500 61.20700 40.16800
C  9.35400 62.29100 40.46200
N  5.90900 58.45800 42.94100
C  6.41200 59.66800 42.74000
C  5.35400 60.79100 43.10400
C  4.09300 59.91500 43.50800
C  4.68600 58.46600 43.56600
C  5.71300 61.84200 44.15800
C  2.82100 60.02000 42.63700
C  1.51600 60.72800 43.16000
N  5.36600 55.70100 42.83600
C  4.14700 56.12900 43.43500
C  3.35200 54.96400 43.67900
C  4.04300 53.84700 43.11300
C  5.28500 54.37100 42.62500
C  1.93300 54.99500 44.31600
C  3.99700 52.39600 42.77500
O  3.10100 51.59900 43.00700
C  5.27600 52.07600 42.05600
C  4.94500 51.48800 40.67400
O  4.67500 52.09200 39.65900
O  4.98100 50.12400 40.76100
C  4.53400 49.46100 39.54400
H  11.01800 55.57400 40.71400
H  7.87600 61.07900 42.12200
H  2.94100 57.59700 44.28400
H  8.16500 51.70400 40.92200
H  10.23700 53.36400 39.94800
H  9.88600 52.07800 42.57100
H  10.92900 53.52400 42.55900
H  11.30200 52.17500 41.57500
H  8.58400 53.13800 38.44200
H  6.93200 53.24900 38.77700
H  6.89100 50.72000 39.14100
H  8.45600 50.66300 38.29500
H  12.24100 58.10100 39.15000
H  12.35600 57.04200 40.45100
H  12.77600 58.74300 40.76900
H  8.40000 61.91200 40.09600
H  9.66300 62.90400 39.61500
H  9.37700 62.85400 41.39500
H  5.15900 61.40000 42.22100
H  3.76700 60.30500 44.47200
H  6.54100 61.33600 44.65600
H  4.91400 62.04500 44.87100
H  5.98400 62.80300 43.72100
H  2.62800 59.06700 42.14400
H  3.00100 60.62800 41.75000
H  1.31900 61.68200 42.67300
H  1.60400 60.96600 44.22000
H  0.60000 60.15600 43.01400
H  1.91200 55.39000 45.33200
H  1.50900 53.99300 44.24200
H  1.29200 55.64200 43.71800
H  5.83800 51.31400 42.59700
H  3.44800 49.50300 39.46300
H  4.89400 48.43700 39.63700
H  5.02500 49.87600 38.66400

