158

Mg 16.87100 -1.36600 27.81500
C  15.80900 0.46700 30.64000
C  18.67100 -3.32200 29.76300
C  18.19000 -2.70700 24.99200
C  14.94800 0.85100 25.79400
N  17.20300 -1.38300 29.94900
C  16.66100 -0.62000 30.95500
C  17.11200 -1.07600 32.31800
C  18.21100 -2.26600 31.95400
C  18.04400 -2.34800 30.45000
C  19.63600 -1.91300 32.41400
C  15.82400 -1.50200 33.15600
C  15.66600 -0.96300 34.60000
H  16.92600 -0.37400 35.30500
N  18.25500 -2.84200 27.46600
C  18.90700 -3.54400 28.42200
C  19.77000 -4.51600 27.80700
C  19.70900 -4.31500 26.36000
C  18.68000 -3.23900 26.19000
C  20.58600 -5.51600 28.52300
C  20.48200 -4.97400 25.24900
O  20.52900 -4.56000 24.07900
C  21.33900 -6.23500 25.40500
N  16.46100 -1.14900 25.73300
C  17.18600 -1.79400 24.74400
C  16.81300 -1.34800 23.30500
C  15.67800 -0.34600 23.61800
C  15.67600 -0.18200 25.17300
C  17.98700 -0.88600 22.48200
C  14.31000 -0.67000 23.09600
C  13.98900 -0.15900 21.69600
N  15.53000 0.28900 28.13100
C  14.86700 1.06000 27.21000
C  14.11300 2.15400 27.92900
C  14.46200 1.94900 29.26800
C  15.32900 0.82800 29.34700
C  13.09200 3.11600 27.22400
C  14.24200 2.42300 30.60100
O  13.57600 3.35300 31.01600
C  15.11300 1.56200 31.58800
C  16.01500 2.50700 32.25600
O  16.99000 3.09200 31.72800
O  15.55000 2.87900 33.49200
C  16.27600 3.92400 34.26100
H  19.24900 -4.03700 30.35200
H  18.75900 -2.98500 24.10200
H  14.52400 1.72200 25.29000
H  17.50900 -0.24600 32.90200
H  17.95300 -3.21700 32.42100
H  20.03700 -1.25400 31.64300
H  20.21500 -2.82200 32.57800
H  19.61600 -1.35000 33.34700
H  15.77600 -2.58900 33.21400
H  14.93400 -1.16600 32.62300
H  15.18700 -1.67200 35.27500
H  14.92800 -0.16700 34.49300
H  21.64400 -5.26400 28.45800
H  20.52700 -6.47700 28.01200
H  20.22200 -5.68000 29.53700
H  21.92600 -6.22900 24.48700
H  20.74900 -7.12300 25.63600
H  22.09600 -6.00400 26.15500
H  16.44200 -2.11200 22.62100
H  16.05300 0.61100 23.25500
H  17.91200 0.18700 22.30500
H  18.09900 -1.47300 21.57100
H  18.89300 -0.95600 23.08400
H  13.47200 -0.36200 23.72200
H  14.23800 -1.75500 23.16500
H  13.86000 -1.08900 21.14200
H  14.81100 0.44200 21.30900
H  13.06800 0.40000 21.53300
H  12.17700 3.15900 27.81500
H  12.88400 2.73000 26.22600
H  13.43500 4.14900 27.28300
H  14.54800 1.13800 32.41900
H  17.36200 3.88500 34.18600
H  16.03700 3.74100 35.30900
H  15.93900 4.91800 33.96800
Mg -11.84200 16.70200 42.91500
C  -8.45300 15.62800 42.41700
C  -10.85000 19.75800 41.58000
C  -15.12700 17.34700 42.40100
C  -12.57400 13.56400 44.04100
N  -9.85600 17.47600 41.92200
C  -8.64900 16.90200 41.99000
C  -7.60400 17.81600 41.38200
C  -8.27900 19.29300 41.48500
C  -9.74500 18.88900 41.63800
C  -7.72300 20.28400 42.55200
C  -6.97600 17.28100 40.06900
C  -5.46400 17.19500 40.00000
H  -4.75300 16.27100 38.93600
N  -12.86100 18.29100 42.13200
C  -12.24400 19.44900 41.64700
C  -13.30900 20.32800 41.14700
C  -14.57500 19.65500 41.28000
C  -14.24300 18.38100 41.96600
C  -13.08600 21.65200 40.34900
C  -15.95300 20.20700 40.77800
O  -15.99200 21.29100 40.18000
C  -17.23100 19.47200 40.84900
N  -13.72000 15.61500 43.17000
C  -14.95200 16.10800 42.97100
C  -15.98900 15.21200 43.42000
C  -15.16800 14.09800 44.08500
C  -13.70700 14.39700 43.73500
C  -17.12100 15.73400 44.29800
C  -15.67400 12.63000 43.75900
C  -15.59400 11.52900 44.85900
N  -10.77100 14.88300 43.19400
C  -11.19700 13.73200 43.81400
C  -10.03100 12.82000 43.95100
C  -8.96300 13.52500 43.42400
C  -9.46400 14.77900 42.93500
C  -10.01800 11.38600 44.57300
C  -7.55500 13.51900 43.27800
O  -6.82000 12.62000 43.64600
C  -7.08800 14.89400 42.63100
C  -6.28000 15.67700 43.60400
O  -6.73300 16.45800 44.45400
O  -4.98500 15.41100 43.44700
C  -4.04300 16.35800 44.17300
H  -10.60700 20.79500 41.33800
H  -16.17000 17.57300 42.16800
H  -12.87900 12.64600 44.54600
H  -6.76900 17.87000 42.08000
H  -8.22500 19.74400 40.49400
H  -7.42000 21.19500 42.03600
H  -6.88600 19.96000 43.17100
H  -8.57000 20.55000 43.18300
H  -7.45100 17.90800 39.31400
H  -7.39800 16.30500 39.82900
H  -5.03400 16.90900 40.96000
H  -5.13000 18.21500 39.81000
H  -13.67900 21.76300 39.44100
H  -12.04900 21.71700 40.02100
H  -13.31400 22.46400 41.04000
H  -17.61700 19.54600 41.86600
H  -17.12100 18.42100 40.58400
H  -17.97500 20.00800 40.26000
H  -16.38100 14.90100 42.45200
H  -15.33900 14.25800 45.15000
H  -17.97100 16.16900 43.77100
H  -16.67900 16.47900 44.95900
H  -17.46800 14.87400 44.87000
H  -15.11800 12.28900 42.88600
H  -16.74400 12.62100 43.54800
H  -15.15300 11.92400 45.77400
H  -15.07000 10.69000 44.40200
H  -16.60900 11.16400 45.01600
H  -9.13100 11.08300 45.12800
H  -10.12000 10.60300 43.82200
H  -10.93700 11.30000 45.15300
H  -6.47600 14.80400 41.73400
H  -4.03600 16.03100 45.21300
H  -4.33100 17.40900 44.17300
H  -3.01200 16.22800 43.84300

