158

Mg 35.00600 3.07800 30.18000
C  32.69500 3.98300 32.80900
C  37.35300 3.18000 32.45600
C  37.07500 2.62800 27.63100
C  32.29200 3.45300 27.97500
N  34.99400 3.41400 32.37300
C  33.96100 3.60900 33.26100
C  34.41100 3.63900 34.71500
C  35.97000 3.68200 34.54100
C  36.15000 3.45600 33.02900
C  36.76100 4.97100 34.87800
C  33.91200 2.40800 35.46100
C  33.61400 2.56000 36.96200
H  34.34500 3.63900 37.78700
N  36.90400 2.84800 30.03600
C  37.79100 2.81600 31.09400
C  39.11200 2.63300 30.61300
C  39.04600 2.43300 29.19900
C  37.61000 2.58300 28.89000
C  40.25800 2.50900 31.54100
C  40.20200 2.06400 28.16000
O  40.03400 1.91200 26.94000
C  41.61900 1.85000 28.67300
N  34.76900 3.03000 28.07300
C  35.75800 2.79900 27.22100
C  35.25700 2.50900 25.79800
C  33.70100 2.72000 25.88900
C  33.54200 3.09600 27.40400
C  36.02100 3.33100 24.71000
C  32.80700 1.52800 25.50000
C  33.16400 0.15600 26.14700
N  32.99100 3.67100 30.28100
C  31.99800 3.76700 29.34600
C  30.82200 4.29500 29.93500
C  31.06400 4.31000 31.27800
C  32.39300 3.95700 31.47800
C  29.59400 4.57100 29.12900
C  30.35700 4.67500 32.47300
O  29.20700 5.11800 32.68500
C  31.41000 4.40600 33.61100
C  31.53900 5.61900 34.50700
O  31.92500 6.67400 34.13400
O  30.94800 5.36000 35.72000
C  30.65900 6.45100 36.69000
H  38.04300 2.99600 33.28200
H  37.76600 2.42300 26.81100
H  31.49200 3.50000 27.23200
H  34.27400 4.60100 35.21000
H  36.49400 2.97400 35.18400
H  37.76000 4.83500 35.29200
H  36.11800 5.54400 35.54500
H  36.92500 5.56700 33.98000
H  34.60600 1.60600 35.20900
H  32.96500 2.22700 34.95400
H  33.60000 1.62400 37.51900
H  32.56700 2.86200 36.98500
H  40.87100 3.41100 31.53000
H  40.86100 1.66000 31.22000
H  39.86600 2.37300 32.54900
H  42.27800 1.88500 27.80600
H  41.61300 0.85500 29.11800
H  41.93400 2.61200 29.38600
H  35.49800 1.47100 25.56800
H  33.40800 3.52200 25.21200
H  36.65600 4.08900 25.17000
H  35.35900 3.76200 23.95900
H  36.70800 2.59300 24.29700
H  32.89400 1.36600 24.42600
H  31.75000 1.66500 25.72900
H  32.40900 -0.31500 26.77600
H  34.02000 0.36700 26.78700
H  33.44700 -0.58900 25.40400
H  29.55500 3.96300 28.22500
H  29.53700 5.62700 28.86600
H  28.74100 4.37400 29.78000
H  31.05000 3.50800 34.11300
H  31.20700 6.32400 37.62300
H  29.64200 6.45500 37.08100
H  30.79600 7.42700 36.22300
Mg 36.80400 49.82600 25.54000
C  36.98100 47.90200 28.44400
C  35.41500 52.46400 27.38200
C  36.20100 51.61000 22.67900
C  37.57000 47.03200 23.69200
N  36.27800 50.08000 27.63000
C  36.52100 49.22200 28.68400
C  36.22300 49.88000 30.03200
C  35.63000 51.30800 29.62200
C  35.78300 51.28200 28.07600
C  34.22000 51.71300 30.12200
C  37.43700 49.92900 31.03200
C  37.16000 49.67900 32.48600
H  35.81400 49.92600 33.20900
N  35.94300 51.74600 25.11600
C  35.46600 52.63400 26.01200
C  35.11100 53.89800 25.39400
C  35.41000 53.67100 23.99600
C  35.90500 52.30600 23.89400
C  34.61700 55.16300 26.05700
C  35.27300 54.76400 22.90700
O  35.63400 54.57000 21.79400
C  34.82500 56.12100 23.20000
N  36.68300 49.33900 23.49300
C  36.59600 50.24900 22.49100
C  37.02300 49.65100 21.15700
C  37.48100 48.21400 21.48700
C  37.15900 48.18700 22.94400
C  35.93200 49.87000 20.10000
C  39.00000 47.84500 21.15200
C  39.13000 47.23000 19.72100
N  37.20500 47.86700 25.90600
C  37.49200 46.82400 25.03900
C  37.86700 45.68400 25.80200
C  37.62000 46.02700 27.15200
C  37.20900 47.34600 27.12400
C  38.17100 44.28200 25.37500
C  37.65000 45.49400 28.58000
O  37.91600 44.37800 28.99600
C  37.29600 46.79700 29.44700
C  36.12300 46.44200 30.24300
O  34.97400 46.66900 29.88500
O  36.51100 45.80600 31.36500
C  35.47800 45.48600 32.33500
H  35.00800 53.23000 28.04600
H  36.21200 52.26100 21.80200
H  37.84600 46.11200 23.17200
H  35.39000 49.29800 30.42700
H  36.30700 52.12500 29.87100
H  34.09900 51.10200 31.01700
H  33.49200 51.37500 29.38400
H  34.09700 52.75600 30.41300
H  37.96200 50.88400 31.00500
H  38.17300 49.20700 30.67800
H  37.68200 50.40700 33.10800
H  37.59800 48.68600 32.59100
H  33.60100 55.32300 25.69800
H  35.10300 56.11100 25.82600
H  34.73000 55.19200 27.14000
H  34.01600 56.28500 23.91300
H  34.45100 56.63100 22.31200
H  35.75000 56.65400 23.41800
H  37.82300 50.24600 20.71500
H  36.78600 47.46900 21.09900
H  35.36700 48.94000 20.04900
H  36.39900 50.15500 19.15700
H  35.39400 50.71800 20.52500
H  39.43600 47.10100 21.81900
H  39.59400 48.73200 21.37100
H  39.47100 48.01400 19.04500
H  38.12400 46.91500 19.44600
H  39.83500 46.40200 19.65200
H  39.22400 44.03700 25.24100
H  37.58300 44.26500 24.45700
H  37.68400 43.51300 25.97400
H  38.08800 46.98900 30.17000
H  35.45300 44.40600 32.18800
H  34.49900 45.90600 32.10600
H  35.75800 45.88100 33.31100

