158

Mg -0.44500 7.05700 26.94800
C  0.37200 9.05300 29.76700
C  -0.36700 4.36500 28.89300
C  -0.93100 5.31400 24.18700
C  0.24900 9.86800 24.99900
N  0.10500 6.76000 29.02900
C  0.22500 7.70400 30.05200
C  0.22900 7.03900 31.39700
C  0.33100 5.50400 30.98300
C  -0.07400 5.56400 29.52400
C  1.72400 4.93400 31.09200
C  -1.00400 7.49000 32.30100
C  -0.58800 7.57700 33.80100
H  0.67100 6.94900 34.32500
N  -0.79600 5.11800 26.56800
C  -0.74700 4.13900 27.52400
C  -1.11100 2.84200 26.96500
C  -1.12400 3.12400 25.52800
C  -0.91700 4.58600 25.34400
C  -1.22200 1.57700 27.78800
C  -1.32300 2.18300 24.39000
O  -1.38900 2.50800 23.21900
C  -1.50200 0.69600 24.61200
N  -0.49900 7.57500 24.96400
C  -0.70900 6.65300 23.98700
C  -0.40900 7.19900 22.60600
C  -0.45200 8.71700 22.83900
C  -0.19000 8.71600 24.35100
C  0.98000 6.74600 22.06200
C  -1.71900 9.51000 22.47600
C  -3.10400 9.08500 22.96800
N  0.17200 9.07300 27.24800
C  0.42400 10.06500 26.38300
C  0.93700 11.24400 27.07200
C  0.87500 10.92700 28.40100
C  0.33800 9.63800 28.48400
C  1.29700 12.57600 26.39800
C  1.13000 11.39800 29.71100
O  1.58800 12.47900 30.10900
C  0.70900 10.17300 30.70000
C  1.96100 10.02800 31.50800
O  2.94600 9.39600 31.22900
O  1.77200 10.79900 32.69200
C  2.96000 10.86200 33.51000
H  -0.42600 3.54500 29.61200
H  -1.08100 4.87900 23.19600
H  0.58800 10.71100 24.39300
H  1.13800 7.39800 31.88100
H  -0.43700 4.96000 31.53300
H  1.91000 4.45800 32.05500
H  2.48100 5.70000 30.92700
H  1.90900 4.25600 30.25900
H  -1.76500 6.71100 32.26100
H  -1.56400 8.37900 32.00900
H  -1.38600 7.10400 34.37200
H  -0.62400 8.63000 34.08100
H  -1.50300 0.78100 27.09800
H  -2.00200 1.59300 28.54900
H  -0.26300 1.37400 28.26500
H  -0.63900 0.20800 25.06700
H  -1.44200 0.23300 23.62700
H  -2.42900 0.55400 25.16700
H  -1.28400 6.99000 21.99100
H  0.39500 9.12700 22.28800
H  1.14700 7.37300 21.18600
H  0.84800 5.68700 21.83900
H  1.76700 6.79900 22.81500
H  -1.58000 9.39300 21.40100
H  -1.56000 10.54800 22.76700
H  -3.65800 9.92400 23.38900
H  -3.00800 8.26500 23.68100
H  -3.68300 8.60400 22.18000
H  1.90200 13.18700 27.06800
H  0.36200 13.09300 26.18400
H  1.80000 12.51000 25.43300
H  -0.05800 10.44300 31.42600
H  3.30100 9.89200 33.87300
H  2.47400 11.37300 34.34100
H  3.71800 11.44800 32.99100
Mg 24.20600 -6.07900 44.78400
C  26.50200 -3.68500 43.59200
C  21.69600 -4.54500 43.27600
C  22.30800 -8.83900 45.40000
C  27.04200 -7.61700 46.35000
N  24.17900 -4.36000 43.44500
C  25.19100 -3.48700 43.11500
C  24.69300 -2.39700 42.12400
C  23.13000 -2.62500 42.35100
C  22.94500 -3.92800 43.08400
C  22.42300 -1.50300 43.15300
C  25.26600 -2.64100 40.68200
C  25.44800 -1.37000 39.77400
H  24.73900 -1.35200 38.36600
N  22.26500 -6.58000 44.34200
C  21.38800 -5.80000 43.76700
C  20.07900 -6.39500 43.69400
C  20.29500 -7.68000 44.29500
C  21.67700 -7.74400 44.71000
C  18.86100 -5.70200 43.09400
C  19.16000 -8.81000 44.39400
O  18.04500 -8.69200 43.84900
C  19.41600 -10.10100 45.20400
N  24.62400 -7.92300 45.62200
C  23.62200 -8.86600 45.81200
C  24.20600 -10.14200 46.38100
C  25.55600 -9.65100 47.02700
C  25.79900 -8.32200 46.24200
C  23.32800 -10.88900 47.44800
C  26.75600 -10.65200 46.97900
C  27.35600 -10.91000 48.35600
N  26.39800 -5.69100 45.10700
C  27.36900 -6.35100 45.74900
C  28.59800 -5.72200 45.63400
C  28.29700 -4.59900 44.78100
C  26.92500 -4.59900 44.51900
C  29.98700 -6.22300 46.05400
C  28.90100 -3.56300 44.02700
O  30.05300 -3.17200 44.02700
C  27.79800 -2.86200 43.28000
C  27.67600 -1.43700 43.73200
O  27.49600 -1.06200 44.86400
O  27.78300 -0.61100 42.65200
C  27.77900 0.80200 43.00100
H  20.85600 -4.01800 42.81800
H  21.76800 -9.76700 45.60100
H  27.80000 -8.06000 47.00000
H  25.14800 -1.48600 42.51200
H  22.63000 -2.63100 41.38300
H  23.07900 -0.63400 43.21100
H  22.20800 -1.85200 44.16300
H  21.48100 -1.14200 42.74100
H  24.48500 -3.20800 40.17600
H  26.17800 -3.23900 40.67900
H  26.52200 -1.30100 39.59700
H  25.22200 -0.43300 40.28200
H  19.06000 -5.20700 42.14300
H  18.53400 -4.99900 43.86000
H  18.03400 -6.37300 42.86500
H  18.54800 -10.74800 45.33100
H  19.76400 -9.67400 46.14400
H  20.23600 -10.71000 44.82400
H  24.52300 -10.81800 45.58600
H  25.50300 -9.22900 48.03100
H  22.55000 -10.23200 47.83500
H  23.90600 -11.25700 48.29600
H  22.85600 -11.72500 46.93300
H  27.55100 -10.35400 46.29500
H  26.34100 -11.61300 46.67400
H  27.53400 -11.98400 48.40900
H  26.60700 -10.68900 49.11700
H  28.25700 -10.33100 48.55500
H  30.44300 -6.62500 45.14900
H  29.89300 -7.00200 46.81000
H  30.68400 -5.46700 46.41700
H  28.05500 -2.81400 42.22200
H  28.80900 1.08900 43.21500
H  27.09700 1.08500 43.80200
H  27.49100 1.32200 42.08700

