158

Mg 35.72000 49.59700 25.75800
C  35.30700 47.81100 28.73100
C  34.91800 52.41800 27.54500
C  35.90000 51.19300 22.85900
C  36.27500 46.52600 24.13900
N  35.01600 50.01000 27.88400
C  35.06900 49.15700 28.91800
C  34.90500 49.88800 30.28200
C  34.58900 51.31000 29.80700
C  34.88100 51.29000 28.32300
C  33.14000 51.98800 30.06100
C  36.26800 49.72300 31.00500
C  36.30800 49.58000 32.49400
H  35.07200 49.85100 33.36900
N  35.46300 51.51000 25.29300
C  35.16800 52.53400 26.12500
C  34.91700 53.75500 25.45600
C  35.21700 53.48500 24.09000
C  35.50500 51.96600 23.98800
C  34.75600 55.09700 26.21100
C  35.23000 54.55400 22.99500
O  35.64300 54.28300 21.84000
C  34.94100 56.07900 23.31200
N  35.88200 48.86400 23.69700
C  36.17000 49.80200 22.78300
C  36.55000 49.17100 21.45200
C  36.90500 47.71100 21.94700
C  36.36000 47.67600 23.35900
C  35.42300 49.27200 20.37200
C  38.41900 47.28700 21.80800
C  38.55100 45.87600 21.20200
N  35.72600 47.55000 26.26000
C  35.93000 46.46100 25.51900
C  35.99400 45.26200 26.35500
C  35.74800 45.75700 27.67100
C  35.59900 47.16900 27.56000
C  36.19600 43.81300 25.90000
C  35.59400 45.37000 29.00500
O  35.46500 44.23000 29.48800
C  35.42200 46.71600 29.79200
C  34.21100 46.47700 30.61100
O  33.07200 46.69600 30.25700
O  34.42000 45.83500 31.82600
C  33.40300 45.83700 32.86200
H  34.60500 53.30600 28.09800
H  35.99500 51.76700 21.93400
H  36.69000 45.60700 23.72200
H  34.11000 49.45000 30.88600
H  35.33600 51.97500 30.24200
H  33.24900 52.78200 30.80000
H  32.63200 51.17200 30.57400
H  32.68300 52.37200 29.14900
H  36.86300 50.59700 30.74000
H  36.76800 48.86700 30.55100
H  37.16300 50.18500 32.79500
H  36.48300 48.52000 32.67900
H  33.88200 55.74000 26.10800
H  35.65100 55.70900 26.10900
H  34.73400 54.97700 27.29400
H  35.17300 56.64000 22.40600
H  35.71200 56.31300 24.04600
H  33.94300 56.29700 23.69100
H  37.49100 49.58500 21.09000
H  36.16400 47.05300 21.49200
H  35.65500 48.84900 19.39400
H  35.25900 50.34000 20.23000
H  34.54800 48.66200 20.59500
H  39.00400 47.28900 22.72800
H  38.85600 48.00900 21.11900
H  38.63300 45.90700 20.11500
H  37.68000 45.25100 21.39900
H  39.26800 45.28000 21.76600
H  35.67800 43.51000 24.99000
H  35.78500 43.08300 26.59700
H  37.27800 43.69300 25.83900
H  36.34900 46.84000 30.35200
H  33.84000 46.28400 33.75500
H  33.06700 44.81400 33.03000
H  32.56800 46.50400 32.64600
Mg -9.47200 18.40300 42.65700
C  -6.02000 17.40400 42.43000
C  -8.56500 21.47300 41.89200
C  -12.76000 18.96500 42.25600
C  -10.19400 14.92300 42.82900
N  -7.45500 19.27500 42.17700
C  -6.20900 18.74200 42.12300
C  -5.13000 19.82800 41.84900
C  -6.01200 21.12300 41.88400
C  -7.46400 20.59900 42.00200
C  -5.60700 22.19800 42.89400
C  -4.32200 19.47000 40.54800
C  -5.15400 19.20500 39.28200
H  -4.79100 19.86900 38.02300
N  -10.51800 20.06900 42.16500
C  -9.97200 21.25000 41.78500
C  -10.97800 22.24300 41.47300
C  -12.18200 21.53000 41.60100
C  -11.89500 20.12500 42.05200
C  -10.70000 23.71100 41.22600
C  -13.52200 22.14500 41.27200
O  -13.64000 23.32700 40.98300
C  -14.80100 21.32100 41.22400
N  -11.16500 17.05800 42.26200
C  -12.36700 17.60100 42.45700
C  -13.51100 16.49500 42.69500
C  -12.72400 15.16800 42.59100
C  -11.26300 15.73500 42.51500
C  -14.27600 16.74900 44.04600
C  -13.15400 14.22000 41.39900
C  -13.55700 12.72900 41.80500
N  -8.35400 16.49600 42.62300
C  -8.81000 15.16400 42.74400
C  -7.71200 14.22400 42.83800
C  -6.51400 15.01900 42.76000
C  -7.00700 16.40800 42.61300
C  -7.77300 12.75700 43.13700
C  -5.09500 15.02600 42.79400
O  -4.25900 14.11800 42.90800
C  -4.71000 16.55300 42.55200
C  -3.83400 16.91700 43.64500
O  -2.62800 16.78300 43.60300
O  -4.52600 17.44100 44.70900
C  -3.70900 17.94800 45.79100
H  -8.33200 22.53900 41.83100
H  -13.81400 19.25200 42.23800
H  -10.35800 13.86200 43.03000
H  -4.47400 19.88100 42.71800
H  -5.82800 21.60500 40.92400
H  -5.29900 23.10900 42.37900
H  -4.78800 21.89200 43.54400
H  -6.43400 22.39500 43.57600
H  -3.63900 18.62800 40.65600
H  -3.71100 20.32300 40.25300
H  -6.21300 19.43500 39.39800
H  -5.08900 18.13500 39.08200
H  -11.22400 24.43400 41.85200
H  -10.96300 23.86500 40.18000
H  -9.67500 24.02400 41.42500
H  -15.06400 21.08400 42.25400
H  -14.62400 20.43300 40.61800
H  -15.59900 21.89300 40.74900
H  -14.25000 16.52600 41.89400
H  -12.89300 14.64100 43.53000
H  -13.90700 17.65800 44.52100
H  -14.06500 15.98600 44.79500
H  -15.32100 17.01800 43.89400
H  -12.27000 14.13100 40.76800
H  -13.96400 14.67700 40.83000
H  -13.44400 12.46100 42.85500
H  -12.92800 12.07000 41.20500
H  -14.57600 12.49800 41.49500
H  -8.82000 12.47900 43.01800
H  -7.24200 12.40500 44.02200
H  -7.34100 12.18800 42.31500
H  -4.10700 16.67400 41.65200
H  -2.98900 18.73000 45.55100
H  -3.36400 17.07400 46.34300
H  -4.38300 18.58600 46.36300

