158

Mg -1.22200 17.16900 26.58900
C  -1.71100 14.98500 29.21700
C  -2.52700 19.79600 28.44900
C  -1.50900 19.03400 23.85400
C  -1.39400 14.33300 24.54900
N  -1.86500 17.34700 28.56800
C  -1.84900 16.40200 29.55700
C  -2.15400 16.96000 30.95200
C  -2.72000 18.33800 30.59300
C  -2.38300 18.47700 29.10500
C  -4.14400 18.60700 31.09900
C  -0.92500 17.02000 31.89600
C  -1.07000 17.52400 33.33800
H  -0.36200 16.78700 34.49000
N  -1.54000 19.20200 26.24800
C  -2.17200 20.10000 27.13100
C  -2.26000 21.41900 26.52600
C  -1.84400 21.21900 25.17700
C  -1.63800 19.73600 25.05100
C  -2.70300 22.77600 27.25200
C  -1.72000 22.26700 24.18000
O  -1.36300 21.95300 23.06900
C  -1.83500 23.76100 24.42200
N  -1.30600 16.69800 24.49400
C  -1.46200 17.68700 23.53900
C  -1.48100 17.18300 22.09100
C  -1.23300 15.60000 22.34500
C  -1.38800 15.53400 23.88300
C  -2.82100 17.55500 21.34100
C  0.11600 15.09400 21.75900
C  1.48500 15.52100 22.46400
N  -1.53500 15.09100 26.82600
C  -1.57700 14.03900 25.88400
C  -1.58600 12.81500 26.48800
C  -1.71800 13.12000 27.87000
C  -1.65100 14.52300 27.96200
C  -1.70000 11.54500 25.92200
C  -1.75000 12.55900 29.23700
O  -1.74100 11.39300 29.62600
C  -1.80300 13.76100 30.14100
C  -0.65100 13.69300 31.09600
O  0.55700 13.85200 30.85300
O  -1.10400 13.11800 32.28400
C  -0.04600 12.69600 33.11200
H  -2.82300 20.51000 29.22000
H  -1.70700 19.67300 22.99100
H  -1.37600 13.45300 23.90400
H  -2.89500 16.32000 31.43100
H  -2.15900 19.01900 31.23300
H  -4.56100 17.68400 31.50100
H  -4.68300 18.82200 30.17700
H  -4.13100 19.34000 31.90500
H  -0.24300 17.66600 31.34200
H  -0.47800 16.02600 31.92300
H  -2.12100 17.66100 33.59300
H  -0.60500 18.51000 33.32400
H  -3.39200 23.29600 26.58600
H  -1.85100 23.42000 27.47100
H  -3.12600 22.55900 28.23300
H  -1.38700 24.08800 25.36100
H  -2.88000 24.04000 24.28300
H  -1.19700 24.27100 23.70100
H  -0.61700 17.66800 21.63700
H  -2.08400 15.04700 21.94700
H  -3.44500 18.08200 22.06300
H  -3.31300 16.68100 20.91500
H  -2.56000 18.29500 20.58500
H  0.12100 15.60000 20.79300
H  0.10300 14.02300 21.55700
H  1.86500 16.28200 21.78300
H  2.05200 14.62200 22.70900
H  1.18600 16.05500 23.36600
H  -1.29900 11.58000 24.90900
H  -2.75700 11.31000 25.79700
H  -1.24700 10.73600 26.49400
H  -2.68400 13.73100 30.78300
H  0.71100 13.41000 33.43500
H  0.47400 11.79100 32.79700
H  -0.41300 12.49000 34.11800
Mg -0.20300 43.46700 24.72800
C  1.98900 43.10100 27.49000
C  -2.77600 42.72600 26.83100
C  -2.20900 43.57400 21.96500
C  2.65000 43.73500 22.59400
N  -0.38900 43.00500 26.87200
C  0.62400 43.04500 27.76100
C  0.06000 42.86600 29.19800
C  -1.43800 42.61900 29.05300
C  -1.56000 42.94100 27.53000
C  -1.88700 41.19200 29.55500
C  0.39100 44.03500 30.15500
C  0.42800 43.76100 31.68700
H  0.32900 42.33900 32.24600
N  -2.19300 43.09500 24.44500
C  -3.10100 42.83300 25.44000
C  -4.47300 42.73500 24.81900
C  -4.25100 42.87300 23.41800
C  -2.84700 43.26800 23.19700
C  -5.60700 42.25900 25.65000
C  -5.21800 42.53600 22.27500
O  -4.87600 42.64100 21.08300
C  -6.58800 42.16600 22.49000
N  0.18500 43.53400 22.59200
C  -0.80700 43.64100 21.64200
C  -0.30800 43.71500 20.13500
C  1.20300 43.93000 20.43400
C  1.39800 43.77500 21.96200
C  -0.67200 42.39000 19.50800
C  1.83400 45.17800 19.81800
C  1.62700 46.49700 20.61000
N  1.86900 43.46400 24.97500
C  2.89500 43.67200 24.05700
C  4.16500 43.61700 24.71900
C  3.84800 43.42400 26.06800
C  2.43500 43.30800 26.16800
C  5.51300 43.81500 24.09300
C  4.44200 43.09900 27.31000
O  5.57300 42.96400 27.62500
C  3.18400 42.91900 28.30500
C  3.41300 41.66400 29.13900
O  3.38800 40.52300 28.74700
O  3.64800 42.08300 30.43300
C  4.22500 41.07200 31.36400
H  -3.62700 42.45200 27.45800
H  -2.84300 43.66400 21.08000
H  3.57300 43.60300 22.02600
H  0.51800 41.98100 29.63900
H  -1.91700 43.42400 29.61200
H  -1.87400 40.37800 28.83100
H  -2.91300 41.24500 29.92100
H  -1.15100 40.78600 30.24900
H  -0.26400 44.87500 29.92400
H  1.36400 44.40100 29.82800
H  -0.42900 44.38200 31.94600
H  1.37600 44.16200 32.04600
H  -6.12000 43.15800 25.98900
H  -5.23500 41.60400 26.43800
H  -6.20700 41.62300 24.99900
H  -6.69500 41.15400 22.88100
H  -7.12500 42.28500 21.54900
H  -7.00100 42.84100 23.24000
H  -0.83000 44.58400 19.73300
H  1.79200 43.12500 19.99400
H  -0.39400 41.54900 20.14300
H  -0.11100 42.33900 18.57400
H  -1.75100 42.34200 19.36200
H  1.37500 45.40300 18.85500
H  2.87900 44.97500 19.58300
H  2.55500 46.81400 21.08500
H  0.90500 46.27100 21.39500
H  1.16900 47.26300 19.98400
H  5.65900 43.44900 23.07700
H  6.18500 43.20900 24.70000
H  5.73700 44.87200 24.23700
H  3.22000 43.77200 28.98300
H  3.57300 40.20700 31.47900
H  4.36400 41.51900 32.34900
H  5.17900 40.73200 30.95900

