158

Mg 17.21700 -2.86700 28.01600
C  16.58700 -0.73900 30.82200
C  18.69100 -4.99300 30.26900
C  18.21500 -4.65500 25.27600
C  16.21100 -0.30300 25.87700
N  17.47300 -2.81200 30.44300
C  17.27800 -1.82000 31.31600
C  17.83500 -2.11500 32.70100
C  18.70100 -3.34000 32.28600
C  18.27200 -3.80300 30.93100
C  20.28000 -3.21800 32.37100
C  16.67700 -2.34400 33.73000
C  16.76000 -1.51100 34.98400
H  18.16600 -1.19600 35.58900
N  18.24500 -4.63000 27.80200
C  18.75100 -5.35000 28.86900
C  19.34300 -6.52300 28.32200
C  19.21900 -6.44600 26.91400
C  18.50800 -5.16700 26.58400
C  19.71600 -7.67400 29.22800
C  19.57200 -7.46000 25.89400
O  19.39400 -7.23600 24.67300
C  20.18100 -8.80800 26.13900
N  16.90000 -2.60000 25.72000
C  17.60100 -3.40000 24.86400
C  17.68500 -2.69600 23.50400
C  16.87500 -1.36900 23.69800
C  16.67500 -1.39700 25.19200
C  19.15300 -2.33400 22.99700
C  15.54200 -1.35800 22.86300
C  14.14700 -1.52900 23.59300
N  16.47500 -0.94500 28.20400
C  15.95800 -0.13500 27.25600
C  15.22300 0.96200 27.95000
C  15.50300 0.74300 29.31000
C  16.27400 -0.38700 29.43200
C  14.36900 1.95800 27.29400
C  15.23900 1.25400 30.60100
O  14.72000 2.31600 30.97500
C  15.97900 0.38700 31.63000
C  16.99100 1.31100 32.24400
O  18.06500 1.57800 31.74200
O  16.46600 1.96100 33.27900
C  17.24200 3.09200 33.86400
H  19.15200 -5.69700 30.96500
H  18.63500 -5.15800 24.40300
H  15.96300 0.53800 25.22700
H  18.52000 -1.32400 33.00500
H  18.36100 -4.22900 32.81700
H  20.75600 -3.62300 31.47800
H  20.62100 -3.75700 33.25500
H  20.61100 -2.19500 32.55100
H  16.67200 -3.40600 33.97400
H  15.80600 -2.06800 33.13700
H  16.10700 -2.04700 35.67300
H  16.25200 -0.58100 34.72800
H  20.80200 -7.75800 29.18000
H  19.28400 -8.62200 28.90600
H  19.50400 -7.47600 30.27800
H  20.48300 -9.31500 25.22200
H  19.34400 -9.24600 26.68300
H  21.12200 -8.82600 26.68900
H  17.17400 -3.35000 22.79700
H  17.37800 -0.45400 23.38600
H  19.10700 -1.73500 22.08800
H  19.72200 -3.25200 22.85000
H  19.65000 -1.72600 23.75300
H  15.59100 -1.93000 21.93600
H  15.49100 -0.29600 22.62600
H  13.44000 -1.70800 22.78300
H  13.91900 -0.57400 24.06600
H  14.06600 -2.33500 24.32200
H  14.33400 1.64900 26.25000
H  14.69500 2.99700 27.35000
H  13.39600 1.84000 27.77100
H  15.31200 0.04400 32.42100
H  17.84800 2.67800 34.67000
H  16.52700 3.70300 34.41500
H  17.74400 3.62200 33.05400
Mg 26.05900 -0.49100 29.04200
C  28.02000 -0.33000 31.85400
C  23.21900 0.06200 31.12200
C  24.07000 -0.62200 26.28000
C  28.73900 -1.45200 27.09300
N  25.71000 -0.29600 31.18700
C  26.69200 -0.09100 32.12800
C  26.13600 0.14100 33.56200
C  24.54300 0.31700 33.23100
C  24.43600 -0.03600 31.80300
C  23.49700 -0.29900 34.22100
C  26.93100 1.23300 34.33400
C  26.23600 1.99400 35.42700
H  27.06000 2.10600 36.76800
N  23.96100 -0.37900 28.73600
C  23.00800 -0.16200 29.74300
C  21.72400 -0.15200 29.05000
C  21.97000 -0.26800 27.67300
C  23.38600 -0.37600 27.49500
C  20.48700 -0.10000 29.77800
C  20.99600 -0.09100 26.50100
O  21.36300 -0.08600 25.36100
C  19.58400 0.00200 26.74800
N  26.35000 -0.79700 27.07900
C  25.36800 -0.80900 26.11500
C  25.89400 -0.93100 24.66200
C  27.42500 -1.12100 24.89700
C  27.55000 -1.12900 26.44900
C  25.28700 -2.09700 23.80500
C  28.36800 -0.12300 24.17700
C  28.83400 1.17200 24.91100
N  28.01100 -0.96800 29.39800
C  29.03200 -1.30100 28.47300
C  30.26400 -1.39400 29.23000
C  29.87700 -0.99800 30.55300
C  28.51700 -0.73700 30.55800
C  31.59200 -1.72400 28.54200
C  30.33700 -0.84300 31.84300
O  31.48300 -0.97800 32.24200
C  29.24100 -0.39200 32.79400
C  29.16600 -1.48700 33.91100
O  28.59800 -2.55500 33.73900
O  29.71000 -0.95500 35.12300
C  29.41900 -1.89500 36.23800
H  22.33200 0.33500 31.69800
H  23.51600 -0.72600 25.34500
H  29.56500 -1.57900 26.39100
H  26.30600 -0.70400 34.22800
H  24.32800 1.38000 33.34600
H  22.76300 -1.00600 33.83400
H  22.93200 0.51300 34.67700
H  24.12800 -0.68400 35.02200
H  27.47800 1.87800 33.64700
H  27.79000 0.78300 34.83100
H  25.33000 1.44800 35.69000
H  25.99900 3.00700 35.10200
H  20.10100 -1.08600 29.51800
H  19.88700 0.78000 29.54700
H  20.66200 -0.12600 30.85400
H  18.92700 0.30200 25.93100
H  19.52600 0.74600 27.54300
H  19.26500 -0.97700 27.10500
H  25.75700 -0.04300 24.04600
H  27.61700 -2.16900 24.66800
H  26.06400 -2.53700 23.17900
H  24.57000 -1.55200 23.19100
H  24.75900 -2.82100 24.42600
H  27.97400 0.20100 23.21300
H  29.28100 -0.71600 24.11700
H  28.18900 1.39000 25.76300
H  28.86300 2.06600 24.28900
H  29.82700 1.01800 25.33300
H  31.71300 -1.34400 27.52700
H  31.75200 -2.79900 28.45800
H  32.41800 -1.30700 29.11900
H  29.49700 0.58900 33.19400
H  28.50200 -1.50100 36.67700
H  30.21100 -1.79500 36.98000
H  29.30300 -2.94300 35.96000

