158

Mg 1.01300 7.76700 27.95200
C  1.46800 9.96300 30.55200
C  0.85300 5.22600 30.37200
C  0.57700 5.52600 25.42000
C  1.30700 10.25700 25.64400
N  1.32300 7.60700 30.22200
C  1.35300 8.70100 31.06200
C  1.03200 8.23500 32.53500
C  1.21400 6.70400 32.43100
C  1.10900 6.48200 30.89900
C  2.44000 6.18100 33.10800
C  -0.39700 8.64100 32.98700
C  -0.84400 8.46800 34.49400
H  0.20400 8.15900 35.61900
N  0.71600 5.72700 27.87100
C  0.69700 4.86900 28.97500
C  0.35800 3.55000 28.52000
C  0.28100 3.60600 27.08900
C  0.63500 4.98600 26.75600
C  -0.00900 2.40700 29.55600
C  -0.21500 2.48800 26.06700
O  -0.26600 2.56900 24.86200
C  -0.64800 1.18400 26.74100
N  0.87600 7.84300 25.83300
C  0.61400 6.87500 24.96000
C  0.63900 7.28300 23.37900
C  0.76900 8.80900 23.61800
C  1.02700 9.00700 25.13100
C  1.85000 6.73000 22.53300
C  -0.43400 9.59200 23.00700
C  -0.07500 10.52600 21.82500
N  1.36400 9.71700 27.99100
C  1.48200 10.62800 26.96000
C  1.59100 11.96900 27.54700
C  1.60100 11.72000 28.92300
C  1.45000 10.34700 29.16200
C  1.68400 13.27800 26.75500
C  1.64700 12.46100 30.13100
O  1.77800 13.68900 30.32500
C  1.42700 11.36900 31.27900
C  2.55100 11.62600 32.24800
O  3.70100 11.32000 32.08000
O  1.92100 12.06500 33.38800
C  2.83600 12.19500 34.57300
H  0.83000 4.51200 31.19800
H  0.55900 4.82300 24.58500
H  1.28100 11.02800 24.87100
H  1.80600 8.72400 33.12600
H  0.32400 6.23300 32.84800
H  3.14200 6.88000 33.56100
H  2.94200 5.58900 32.34300
H  2.09000 5.58300 33.95000
H  -0.99600 7.92000 32.42900
H  -0.57100 9.60800 32.51700
H  -1.57900 7.67000 34.38600
H  -1.25900 9.43700 34.77000
H  0.65800 1.54800 29.47900
H  -1.00100 2.02000 29.32200
H  -0.02100 2.70000 30.60600
H  -0.88900 0.37000 26.05800
H  -1.50800 1.29700 27.40200
H  0.12100 0.69300 27.33700
H  -0.23500 7.05200 22.77000
H  1.71100 9.18600 23.21900
H  2.12600 5.71200 22.80900
H  2.77800 7.27900 22.69400
H  1.65900 6.89900 21.47400
H  -0.81000 10.11400 23.88700
H  -1.22700 8.90000 22.72100
H  -0.71500 10.17400 21.01600
H  1.00500 10.43500 21.70500
H  -0.26500 11.55800 22.11800
H  2.59600 13.74100 27.13200
H  0.74600 13.82100 26.64600
H  1.92200 13.16100 25.69700
H  0.46700 11.60100 31.74100
H  2.45900 12.91400 35.30000
H  3.76700 12.62300 34.20300
H  2.97400 11.26000 35.11500
Mg -5.13000 25.17900 25.96300
C  -3.72000 26.78900 28.92400
C  -7.04300 23.26800 28.15900
C  -5.99700 23.31800 23.30400
C  -2.75600 27.01600 24.09900
N  -5.14900 24.90500 28.23800
C  -4.61100 25.67700 29.27300
C  -5.24900 25.36400 30.67700
C  -6.09400 24.11700 30.33500
C  -6.13300 24.06200 28.76600
C  -5.49900 22.76800 30.95300
C  -6.09300 26.56900 31.22000
C  -5.56600 27.04600 32.63100
H  -5.08000 25.98100 33.68300
N  -6.45200 23.76200 25.73800
C  -7.17200 23.14700 26.75000
C  -8.18000 22.28900 26.13800
C  -8.02000 22.44200 24.76700
C  -6.70400 23.16800 24.53200
C  -9.08400 21.31700 26.84900
C  -8.88400 21.83100 23.61000
O  -8.66700 22.07800 22.44200
C  -10.09000 20.97800 23.88900
N  -4.50400 25.23300 23.91500
C  -4.93100 24.25700 23.03700
C  -4.12800 24.35400 21.68700
C  -3.15400 25.61300 22.01200
C  -3.40300 25.93800 23.48400
C  -3.32900 23.06700 21.33200
C  -3.46300 26.84200 21.09600
C  -2.18400 27.61600 20.63200
N  -3.65400 26.67400 26.38500
C  -2.84700 27.38300 25.44300
C  -2.13100 28.41500 26.15700
C  -2.45500 28.20400 27.53800
C  -3.33100 27.11100 27.59700
C  -1.27500 29.47700 25.49900
C  -2.26200 28.73500 28.85100
O  -1.61800 29.67800 29.19600
C  -3.01000 27.81000 29.87200
C  -1.90700 27.07700 30.65500
O  -1.17700 26.26600 30.14300
O  -1.77400 27.51600 31.92200
C  -0.77000 26.74800 32.70700
H  -7.63200 22.58500 28.77500
H  -6.22200 22.64000 22.47800
H  -2.01500 27.48300 23.44700
H  -4.40400 25.19400 31.34400
H  -7.05700 24.22000 30.83700
H  -5.17000 22.13100 30.13200
H  -6.21600 22.25200 31.59200
H  -4.53600 22.97500 31.41900
H  -7.16900 26.40500 31.26800
H  -5.98100 27.41100 30.53700
H  -6.46600 27.40400 33.13100
H  -4.86600 27.86800 32.48100
H  -10.15000 21.47000 26.68100
H  -8.94600 21.42000 27.92500
H  -8.79100 20.31700 26.53100
H  -9.82400 20.26800 24.67100
H  -10.43600 20.54400 22.95100
H  -10.91000 21.58200 24.27900
H  -4.75500 24.61100 20.83400
H  -2.12500 25.26700 21.92200
H  -2.24400 23.04300 21.43600
H  -3.64200 22.83600 20.31400
H  -3.77800 22.30200 21.96500
H  -4.00700 27.54900 21.72300
H  -4.12300 26.59100 20.26500
H  -2.05400 27.45100 19.56300
H  -1.30700 27.30000 21.19800
H  -2.32000 28.65500 20.93100
H  -0.26500 29.39300 25.90100
H  -1.75400 30.41400 25.78300
H  -1.28000 29.33300 24.41900
H  -3.66800 28.43400 30.47600
H  0.14000 26.53000 32.14700
H  -1.30400 25.88700 33.10900
H  -0.48100 27.35100 33.56800

