158

Mg 26.84000 49.15700 26.31500
C  25.08000 50.98600 28.82400
C  28.88400 47.96300 28.74700
C  28.91500 48.28700 23.90000
C  24.97300 50.87600 24.06400
N  26.85100 49.28700 28.60600
C  25.98700 50.05800 29.35500
C  26.21600 49.78200 30.89500
C  27.64200 49.00100 30.81600
C  27.80600 48.71900 29.34400
C  28.86500 49.84500 31.37900
C  25.01600 49.03000 31.40800
C  24.54100 49.52500 32.83700
H  24.21600 48.52100 33.96000
N  28.57500 48.15500 26.38500
C  29.22600 47.64400 27.45100
C  30.44100 46.95800 27.01500
C  30.49900 47.18000 25.58100
C  29.28600 47.92900 25.21700
C  31.38900 46.27900 27.91400
C  31.64400 46.72700 24.68900
O  31.60500 47.02100 23.49500
C  32.87100 45.93900 25.26600
N  26.98600 49.69900 24.24100
C  27.82100 48.97300 23.41500
C  27.46900 49.15300 21.89500
C  26.03700 49.92000 22.02000
C  25.92800 50.07800 23.52900
C  28.46600 49.78300 20.90300
C  24.79400 49.16200 21.45900
C  24.33500 47.88600 22.23800
N  25.25000 50.64900 26.36600
C  24.64000 51.25200 25.33900
C  23.55500 52.13500 25.86700
C  23.70300 52.00000 27.22800
C  24.81100 51.17500 27.43900
C  22.64800 52.93000 24.95600
C  23.15200 52.46400 28.55600
O  22.14400 53.16600 28.92800
C  24.03500 51.83800 29.62100
C  24.56600 52.89400 30.55300
O  25.24100 53.86800 30.27900
O  23.83600 52.79100 31.74000
C  23.70500 53.87000 32.74700
H  29.54400 47.50300 29.48600
H  29.61200 47.82300 23.19900
H  24.39900 51.36000 23.27000
H  26.36700 50.64800 31.54000
H  27.74500 48.06100 31.35900
H  28.55200 50.81300 31.77000
H  29.58300 50.04200 30.58400
H  29.31200 49.19500 32.13200
H  25.31100 47.99200 31.55900
H  24.21300 49.06800 30.67200
H  23.53700 49.90700 32.65100
H  25.22300 50.27600 33.23400
H  31.46300 45.25500 27.55000
H  30.95300 46.28900 28.91300
H  32.31300 46.82700 28.10300
H  33.43000 46.53000 25.99000
H  33.52100 45.72200 24.41800
H  32.40900 45.06800 25.73000
H  27.39500 48.13500 21.51300
H  26.20200 50.89700 21.56700
H  29.26700 50.30000 21.43100
H  27.86400 50.57200 20.45400
H  28.83800 49.08500 20.15200
H  24.99700 48.85400 20.43300
H  23.90200 49.78000 21.35100
H  24.56100 47.08400 21.53600
H  23.25100 47.98700 22.28500
H  24.96000 47.68500 23.10900
H  21.98600 53.46500 25.63700
H  22.00000 52.25800 24.39300
H  23.24100 53.57500 24.30700
H  23.54300 51.04900 30.19000
H  24.19600 53.44100 33.62000
H  22.68700 54.08200 33.07600
H  24.22900 54.74200 32.35600
Mg -10.97300 38.54100 40.87200
C  -9.80600 35.20100 40.09400
C  -7.94700 39.71000 39.60000
C  -12.28500 41.62400 40.72100
C  -14.07700 37.20200 41.69800
N  -9.11900 37.47700 39.76800
C  -8.82100 36.16800 39.70400
C  -7.48600 35.95600 39.11900
C  -6.76900 37.36700 39.47300
C  -7.99400 38.24500 39.65200
C  -5.75700 37.40000 40.63700
C  -7.36800 35.47100 37.64200
C  -7.94700 36.50100 36.58400
H  -9.21300 36.21100 35.80300
N  -10.28100 40.34000 40.17900
C  -9.00100 40.69000 39.67300
C  -8.93200 42.12700 39.34000
C  -10.18200 42.65900 39.67600
C  -11.02100 41.53600 40.23200
C  -7.77600 42.78500 38.61200
C  -10.61600 44.10200 39.34600
O  -9.83400 44.86100 38.82200
C  -12.09200 44.58800 39.49100
N  -12.97000 39.32000 40.99500
C  -13.19800 40.59500 41.10100
C  -14.64200 40.95700 41.54600
C  -15.16600 39.46400 41.76900
C  -13.96300 38.59200 41.53900
C  -14.82600 41.87200 42.75300
C  -16.47200 39.10500 40.98900
C  -17.64500 38.61200 41.82800
N  -11.76800 36.67500 40.91000
C  -13.03000 36.27000 41.35200
C  -13.06500 34.84500 41.33900
C  -11.84200 34.36300 40.89200
C  -11.08900 35.53100 40.61700
C  -14.28300 34.06600 41.69100
C  -11.05300 33.18600 40.67500
O  -11.36300 32.01800 40.74900
C  -9.70800 33.66900 40.08800
C  -8.54900 33.00400 40.80600
O  -8.45800 32.76200 42.01700
O  -7.52200 32.74100 39.90500
C  -6.35700 32.29100 40.49600
H  -6.90600 40.03500 39.54300
H  -12.71500 42.61900 40.85100
H  -15.10500 37.00100 42.00900
H  -7.07100 35.11000 39.66700
H  -6.21900 37.77700 38.62600
H  -4.79400 37.76800 40.28400
H  -5.73700 36.41100 41.09600
H  -6.07200 38.08000 41.42800
H  -8.10100 34.66900 37.55600
H  -6.37200 35.23000 37.27300
H  -7.15200 36.67400 35.85900
H  -8.01800 37.52300 36.95600
H  -8.03800 43.41400 37.76200
H  -7.00600 42.06700 38.32900
H  -7.26900 43.49800 39.26200
H  -12.34900 44.83500 40.52100
H  -12.80500 43.83300 39.16100
H  -12.11000 45.56200 39.00200
H  -15.19900 41.31300 40.67900
H  -15.29600 39.39500 42.84900
H  -14.00900 42.58300 42.87700
H  -14.94300 41.33400 43.69400
H  -15.80900 42.33200 42.65700
H  -16.33900 38.27900 40.29000
H  -16.78600 39.93300 40.35300
H  -18.52700 39.25300 41.80900
H  -17.34400 38.53000 42.87200
H  -17.93700 37.61800 41.49000
H  -13.99300 33.11900 42.14600
H  -14.88000 33.74300 40.83800
H  -14.94700 34.48600 42.44600
H  -9.84700 33.24800 39.09300
H  -6.27900 31.24500 40.79500
H  -6.11700 32.80100 41.42900
H  -5.53500 32.43100 39.79400

