158

Mg 43.97800 4.27600 46.79800
C  41.61600 6.75000 46.09400
C  41.57400 1.98400 46.35900
C  46.45200 1.98100 46.54000
C  46.25400 6.79600 47.49100
N  41.96000 4.35500 46.10300
C  41.16200 5.44200 45.81400
C  39.72300 4.99900 45.47900
C  39.66200 3.67000 46.22700
C  41.14000 3.28200 46.23900
C  39.17600 3.81100 47.71800
C  39.36500 4.94500 43.93700
C  38.35100 5.87000 43.44100
H  38.80300 6.54000 42.14100
N  44.00200 2.18200 46.53200
C  42.89400 1.46700 46.45100
C  43.30800 0.04200 46.31300
C  44.74400 -0.00600 46.26700
C  45.14900 1.43200 46.43400
C  42.41700 -1.13900 46.44700
C  45.58300 -1.32500 46.28800
O  45.06300 -2.37400 46.47000
C  47.06900 -1.34200 45.97200
N  46.00800 4.37800 46.88800
C  46.86600 3.28400 46.87600
C  48.31800 3.73000 47.15500
C  48.14700 5.12200 47.70500
C  46.67800 5.47300 47.29400
C  49.17900 2.68800 48.04200
C  49.24700 6.08600 47.18700
C  49.90200 6.93800 48.26000
N  43.97700 6.41500 46.76000
C  44.89300 7.30400 47.19900
C  44.45000 8.65700 47.02300
C  43.10300 8.48000 46.66300
C  42.89500 7.08700 46.51400
C  45.24500 9.92300 47.30100
C  41.89500 9.13600 46.30500
O  41.65000 10.31900 46.33300
C  40.80200 8.09100 46.00900
C  39.84800 8.16700 47.08100
O  39.97800 7.77200 48.28800
O  38.65800 8.77200 46.60200
C  37.44900 8.85100 47.37800
H  40.71400 1.32200 46.23700
H  47.30500 1.30600 46.44300
H  46.94500 7.51600 47.93500
H  38.95300 5.58300 45.98200
H  39.14000 2.88600 45.67900
H  39.88300 3.25300 48.33200
H  38.16900 3.39300 47.72600
H  39.22200 4.77300 48.22900
H  38.93700 3.97000 43.70200
H  40.29200 5.19600 43.42100
H  38.25600 6.61000 44.23600
H  37.43900 5.32600 43.19700
H  42.81600 -1.82900 45.70300
H  41.38100 -0.86100 46.25500
H  42.34000 -1.53300 47.46000
H  47.27000 -0.37600 45.51000
H  47.31800 -2.09900 45.22800
H  47.69800 -1.36400 46.86300
H  48.90400 3.86200 46.24500
H  48.22200 5.17000 48.79100
H  49.54500 3.24000 48.90800
H  49.98600 2.38700 47.37500
H  48.56200 1.86000 48.39100
H  48.89800 6.86500 46.50900
H  50.03100 5.59800 46.60800
H  49.66000 7.98900 48.10400
H  50.96400 6.69600 48.21400
H  49.53500 6.64700 49.24400
H  45.69600 10.27700 46.37400
H  46.12200 9.80600 47.93600
H  44.51100 10.66300 47.62100
H  40.39900 8.19000 45.00100
H  37.49300 8.45800 48.39400
H  36.70000 8.22200 46.89800
H  37.01300 9.84900 47.43400
Mg 35.39500 0.94400 29.43700
C  33.07400 1.64300 31.99100
C  37.76100 0.53900 31.68800
C  37.67200 0.44300 26.68000
C  32.91800 1.64600 26.97500
N  35.42200 1.37600 31.68000
C  34.35700 1.33100 32.48600
C  34.80300 1.23800 33.99400
C  36.32600 1.15700 33.82000
C  36.50700 0.96000 32.36000
C  37.14700 2.32400 34.43200
C  34.13200 0.10200 34.72900
C  33.74100 0.55000 36.18000
H  34.61200 1.56900 36.99700
N  37.37200 0.50900 29.22100
C  38.17300 0.48500 30.34100
C  39.53000 0.14400 29.94600
C  39.57300 0.17700 28.51500
C  38.13600 0.39000 28.02500
C  40.75700 0.07900 30.95200
C  40.71300 -0.09600 27.61500
O  40.59400 -0.09300 26.40200
C  42.12100 -0.43400 28.05500
N  35.21000 0.94100 27.13800
C  36.29100 0.66400 26.25700
C  35.97900 0.71500 24.77000
C  34.37800 0.88400 24.89200
C  34.12600 1.18400 26.43700
C  36.65300 1.90500 24.04600
C  33.61200 -0.40400 24.47200
C  33.81400 -1.68500 25.28800
N  33.43300 1.52200 29.38600
C  32.56400 1.72200 28.35500
C  31.32400 2.15800 28.89400
C  31.40600 2.10200 30.30300
C  32.78600 1.71700 30.56200
C  30.15100 2.68300 28.10500
C  30.75900 2.36600 31.59800
O  29.62000 2.81200 31.85000
C  31.91800 2.13400 32.77100
C  32.21100 3.50700 33.34800
O  32.87600 4.36300 32.77200
O  31.69100 3.62300 34.65500
C  31.90000 4.84700 35.37000
H  38.54800 0.25100 32.38800
H  38.40500 0.29600 25.88400
H  32.18600 1.81900 26.18300
H  34.55800 2.18900 34.46700
H  36.73100 0.21400 34.18900
H  37.46500 2.22000 35.47000
H  36.56600 3.23700 34.56400
H  38.08400 2.43300 33.88700
H  34.71200 -0.81300 34.84700
H  33.21100 -0.21000 34.23700
H  33.68800 -0.37300 36.75900
H  32.70300 0.88100 36.17800
H  41.31700 -0.84600 30.82100
H  40.57700 0.07200 32.02700
H  41.33800 0.98800 30.80100
H  42.49900 0.19800 28.85800
H  42.69900 -0.36300 27.13300
H  42.24000 -1.48400 28.32200
H  36.31900 -0.23600 24.35900
H  33.94900 1.77300 24.42900
H  37.13200 1.41800 23.19700
H  37.51200 2.34700 24.55100
H  35.90100 2.66300 23.82600
H  33.85400 -0.58700 23.42500
H  32.54500 -0.18600 24.52900
H  34.24900 -1.48600 26.26800
H  34.46400 -2.35200 24.72200
H  32.92400 -2.31300 25.31600
H  29.79000 1.86300 27.48500
H  30.44000 3.47400 27.41400
H  29.52400 3.27300 28.77300
H  31.50500 1.47100 33.53200
H  30.92400 5.30200 35.53900
H  32.55600 5.54000 34.84400
H  32.39200 4.66200 36.32500

