158

Mg 1.40200 8.46000 25.09400
C  2.47300 10.42900 27.95100
C  1.69100 5.74200 27.03600
C  0.42200 6.72000 22.39600
C  1.67900 11.33700 23.08800
N  1.90500 8.11100 27.34100
C  2.32600 9.07200 28.27800
C  2.24200 8.39500 29.68400
C  2.32800 6.86400 29.30800
C  2.03400 6.89900 27.78500
C  3.58900 6.03400 29.67900
C  0.97600 8.76200 30.43200
C  1.02300 8.84400 31.97000
H  2.08600 7.99300 32.78100
N  0.95400 6.43100 24.78100
C  1.14000 5.44100 25.74300
C  0.65000 4.26700 25.16400
C  0.31500 4.51600 23.86300
C  0.52600 5.94000 23.60900
C  0.75600 2.95700 25.81100
C  -0.14300 3.59900 22.69300
O  -0.33900 3.99100 21.59100
C  -0.31900 2.13100 22.94400
N  1.28000 8.98900 23.07400
C  0.82100 8.05500 22.15200
C  0.95500 8.56600 20.73000
C  1.05800 10.16600 21.03100
C  1.47400 10.12700 22.49500
C  2.13800 8.06700 19.83400
C  -0.33700 10.82200 20.68500
C  -0.18900 12.21600 19.98500
N  1.96500 10.50000 25.42100
C  1.97900 11.53000 24.48000
C  2.36700 12.74500 25.15100
C  2.41400 12.40600 26.56900
C  2.20300 11.00300 26.66600
C  2.66600 14.05800 24.53700
C  2.72400 12.89700 27.88700
O  3.01700 13.99500 28.33900
C  2.75800 11.59000 28.82400
C  4.00900 11.37800 29.56000
O  4.97100 10.73500 29.26700
O  3.83000 11.92100 30.76200
C  4.94500 11.57800 31.69400
H  1.69700 4.89000 27.71900
H  0.10800 6.23000 21.47200
H  1.77400 12.27000 22.52900
H  3.03900 8.83300 30.28600
H  1.53700 6.25000 29.74100
H  4.03600 6.64800 30.46100
H  4.23300 5.77900 28.83700
H  3.17800 5.12600 30.11900
H  0.22000 8.06400 30.07200
H  0.72100 9.70700 29.95200
H  0.04300 8.74400 32.43700
H  1.26400 9.86800 32.25600
H  -0.23600 2.58300 26.06200
H  1.31900 2.93000 26.74400
H  1.37900 2.20900 25.32100
H  -0.89300 2.01400 23.86300
H  0.67700 1.69900 23.03900
H  -0.74400 1.64700 22.06500
H  0.07300 8.29300 20.15100
H  1.85600 10.63700 20.45700
H  2.78200 7.31700 20.29300
H  2.76500 8.84100 19.39100
H  1.59700 7.55100 19.04100
H  -0.81500 10.94500 21.65700
H  -0.98700 10.14400 20.13200
H  -0.91700 12.29600 19.17800
H  0.73400 12.51800 19.48800
H  -0.46000 12.99400 20.69800
H  2.04100 14.10700 23.64500
H  3.74600 14.13500 24.40700
H  2.40500 14.85600 25.23200
H  1.94600 11.68200 29.54600
H  5.00700 10.51500 31.92400
H  4.70000 12.10300 32.61800
H  5.89200 11.88900 31.25300
Mg 15.63800 51.45900 25.91300
C  17.22900 50.35300 28.67600
C  13.06700 52.66500 27.87900
C  13.96800 52.12100 23.06200
C  17.99600 49.85700 23.88100
N  15.24100 51.58900 28.06900
C  16.08700 51.13600 29.03000
C  15.69500 51.56300 30.39500
C  14.22500 52.09000 30.18700
C  14.12800 52.16900 28.64900
C  13.13600 51.08400 30.74800
C  16.62100 52.65900 30.95200
C  17.02100 52.70600 32.43200
H  16.08800 51.83900 33.23900
N  13.84500 52.35200 25.52400
C  12.93100 52.75800 26.46900
C  11.71700 53.12100 25.78400
C  11.95500 53.03900 24.36500
C  13.30700 52.49300 24.23800
C  10.49700 53.46100 26.46000
C  11.02900 53.30900 23.33200
O  11.31700 52.99500 22.15700
C  9.66000 53.99100 23.56100
N  16.06700 51.20600 23.81700
C  15.22200 51.53800 22.84600
C  15.80600 51.45900 21.37400
C  17.10100 50.70200 21.67800
C  17.02200 50.52600 23.24200
C  14.89500 50.60200 20.37500
C  18.35400 51.41200 21.12100
C  19.26000 50.69100 20.05500
N  17.40500 50.42900 26.21600
C  18.22200 49.84300 25.30300
C  19.16400 49.07100 26.08700
C  18.80300 49.25400 27.37400
C  17.73600 50.10000 27.42500
C  20.19600 48.16500 25.61300
C  19.16600 48.88900 28.70500
O  19.95200 48.02000 29.05500
C  18.22600 49.66900 29.60400
C  17.67100 48.77300 30.53400
O  16.60600 48.19900 30.55000
O  18.54600 48.75300 31.62800
C  18.02300 48.08800 32.82000
H  12.24900 52.94500 28.54500
H  13.52200 52.45700 22.12300
H  18.70600 49.31800 23.25100
H  15.76000 50.67500 31.02200
H  14.09900 53.11600 30.53200
H  12.47200 51.60000 31.44100
H  13.60300 50.18500 31.15100
H  12.50600 50.72000 29.93600
H  16.28100 53.68300 30.79400
H  17.56000 52.60800 30.40000
H  17.11600 53.76100 32.68700
H  17.95300 52.16200 32.58100
H  9.73500 52.70400 26.27900
H  10.13200 54.39800 26.03800
H  10.47800 53.63900 27.53500
H  9.05300 53.43500 24.27600
H  9.22500 54.13800 22.57200
H  9.99100 54.97900 23.87900
H  16.02500 52.44500 20.96200
H  17.19700 49.71000 21.23700
H  14.08700 50.09000 20.89800
H  15.45400 49.89400 19.76400
H  14.53300 51.32200 19.64000
H  19.04900 51.63700 21.93100
H  18.17100 52.37400 20.64200
H  19.30900 49.61400 20.21600
H  20.28800 50.98400 20.26700
H  19.00200 51.02000 19.04900
H  20.31700 47.26700 26.21800
H  21.17500 48.60700 25.42900
H  19.81200 47.94600 24.61600
H  18.84300 50.38600 30.14400
H  17.16200 47.45000 32.62300
H  17.81800 48.81100 33.61000
H  18.79000 47.43300 33.23200

