158

Mg 1.98900 -1.30700 43.58600
C  5.43700 -1.40300 42.88200
C  1.78700 1.55100 41.76700
C  -1.30300 -1.85300 43.25700
C  2.31900 -4.71900 44.60600
N  3.41000 -0.11800 42.36500
C  4.77000 -0.28500 42.29700
C  5.42000 0.73600 41.26700
C  4.30500 1.84800 41.29700
C  3.10100 1.13000 41.91900
C  4.70200 3.13100 42.09600
C  5.75500 0.12700 39.81600
C  7.03800 0.67500 39.11800
H  6.93500 1.22000 37.71200
N  0.40500 -0.15400 42.82300
C  0.55900 1.01100 42.16000
C  -0.75000 1.64400 41.96900
C  -1.68700 0.54500 42.07500
C  -0.89300 -0.56100 42.66800
C  -0.95700 3.01100 41.37800
C  -3.13600 0.58600 41.70000
O  -3.61900 1.58400 41.18700
C  -3.96700 -0.68200 41.85300
N  0.68800 -3.14200 43.75600
C  -0.65700 -2.88600 43.83700
C  -1.33500 -4.09600 44.43600
C  -0.20000 -5.00900 44.98300
C  1.00500 -4.27200 44.46600
C  -2.45700 -3.82600 45.47500
C  -0.23400 -6.52700 44.41100
C  0.24000 -7.70700 45.31800
N  3.52100 -2.71300 43.93000
C  3.49200 -4.07700 44.19000
C  4.85900 -4.46000 44.52400
C  5.66200 -3.47300 43.96100
C  4.79800 -2.41800 43.64600
C  5.24900 -5.78400 45.11200
C  7.04900 -3.15700 43.55800
O  8.11700 -3.73000 43.74600
C  6.88400 -1.85100 42.70900
C  7.87200 -0.75100 43.27200
O  8.93000 -0.46800 42.78500
O  7.41400 -0.30000 44.40900
C  8.08200 0.80300 45.08800
H  1.77100 2.57600 41.39000
H  -2.37200 -1.98600 43.43000
H  2.34900 -5.70400 45.07700
H  6.41300 0.95600 41.66000
H  4.09800 2.11700 40.26100
H  4.03600 3.35700 42.92900
H  4.57500 3.97900 41.42200
H  5.71700 3.20700 42.48300
H  5.00200 0.42200 39.08500
H  6.03800 -0.92400 39.88000
H  7.80800 -0.09700 39.13800
H  7.51600 1.45500 39.71100
H  -0.17100 3.68500 41.71900
H  -1.87200 3.56000 41.60300
H  -0.80700 2.93100 40.30200
H  -4.94700 -0.36900 41.49300
H  -4.11100 -0.85600 42.91900
H  -3.50800 -1.55600 41.39000
H  -1.75200 -4.65300 43.59700
H  -0.18100 -5.09300 46.06900
H  -2.30800 -2.84700 45.92900
H  -2.48900 -4.56900 46.27200
H  -3.33900 -3.89300 44.83800
H  0.30700 -6.53900 43.46500
H  -1.29100 -6.69700 44.20600
H  -0.58900 -8.38500 45.11600
H  0.11600 -7.47400 46.37600
H  1.20300 -8.04200 44.93400
H  5.13600 -6.51300 44.31000
H  4.74200 -6.07100 46.03300
H  6.30300 -5.90300 45.36500
H  7.29700 -2.03700 41.71700
H  7.85300 1.78000 44.66300
H  9.11800 0.51800 45.27100
H  7.69200 0.90800 46.10100
Mg 40.54000 9.06700 29.89900
C  42.35900 10.44900 32.63200
C  38.63000 7.34600 31.93100
C  39.05900 7.85700 27.14400
C  43.03700 10.55800 27.84000
N  40.63300 8.80500 32.05400
C  41.29100 9.55000 33.04900
C  40.84300 9.16700 34.50800
C  39.74000 8.12900 34.25900
C  39.61300 8.08400 32.63100
C  40.07200 6.70500 34.78500
C  40.46400 10.40100 35.39900
C  39.86800 10.23600 36.76400
H  40.35300 11.10300 37.93000
N  39.03800 7.73500 29.53500
C  38.19600 7.25400 30.58200
C  37.10400 6.49300 29.99500
C  37.18400 6.73300 28.58600
C  38.45700 7.44300 28.36600
C  36.01000 5.79000 30.76300
C  36.28600 6.20800 27.49300
O  36.49800 6.39200 26.26000
C  35.10700 5.31600 27.84100
N  41.07500 9.05700 27.77700
C  40.18400 8.67500 26.88400
C  40.70500 8.88200 25.47500
C  41.84100 9.84200 25.67200
C  41.96700 9.92200 27.18300
C  40.81600 7.64300 24.60500
C  41.75200 11.26200 24.99900
C  42.71700 11.52400 23.88600
N  42.37700 10.11700 30.08700
C  43.25000 10.63100 29.23600
C  44.23700 11.46600 29.88700
C  43.94200 11.47100 31.24300
C  42.80400 10.58800 31.32800
C  45.38400 12.16300 29.28200
C  44.34300 11.93700 32.51900
O  45.15500 12.75000 32.84700
C  43.42200 11.21300 33.53600
C  44.10200 10.26400 34.47000
O  44.81700 9.41100 34.00600
O  43.75600 10.46500 35.79300
C  44.00800 9.39400 36.79400
H  37.94600 6.87000 32.63600
H  38.61300 7.57800 26.18700
H  43.74800 11.08400 27.20000
H  41.66100 8.62900 34.99000
H  38.76900 8.43400 34.64800
H  40.19300 6.04900 33.92200
H  39.31600 6.27700 35.44200
H  41.02000 6.68300 35.32400
H  39.74400 10.99600 34.83700
H  41.39600 10.91700 35.62900
H  39.79900 9.18600 37.04900
H  38.82300 10.54600 36.72700
H  36.20600 6.07100 31.79800
H  36.08700 4.71200 30.62100
H  35.00600 6.15400 30.54500
H  34.37500 5.77400 28.50700
H  35.50700 4.45200 28.37200
H  34.60900 4.95600 26.94100
H  39.93600 9.38100 24.88500
H  42.77000 9.36000 25.36700
H  40.44400 6.72300 25.05600
H  41.88500 7.44900 24.51600
H  40.41400 7.94900 23.63900
H  41.75900 12.05400 25.74700
H  40.73500 11.39400 24.62900
H  43.22800 12.43500 24.19600
H  42.32500 11.70800 22.88500
H  43.58600 10.86600 23.88300
H  45.72000 11.73000 28.34000
H  46.17500 12.47500 29.96400
H  44.89800 13.07500 28.93700
H  42.97300 12.00000 34.14400
H  43.54900 9.52300 37.77400
H  45.07500 9.35300 37.00900
H  43.76400 8.45100 36.30400

