158

Mg 8.72900 4.08400 27.06100
C  10.37900 2.68900 29.98300
C  7.11600 6.11600 29.28000
C  7.07000 5.26200 24.49800
C  10.41000 1.65000 25.19700
N  8.65200 4.17000 29.47900
C  9.40200 3.59500 30.40200
C  9.21700 4.20700 31.79100
C  8.12400 5.30400 31.51100
C  7.97800 5.23000 29.93800
C  6.82300 5.29700 32.37400
C  10.55000 4.84500 32.49000
C  10.87900 4.34200 33.91900
H  11.01600 5.38200 35.03700
N  7.31800 5.61600 26.81100
C  6.79500 6.32500 27.85600
C  5.88200 7.30800 27.30900
C  5.86100 7.09400 25.87200
C  6.77200 5.95100 25.68300
C  5.05900 8.26900 28.16400
C  5.14900 7.81300 24.71800
O  5.18400 7.46700 23.52400
C  4.53900 9.10000 24.94700
N  8.73700 3.52700 25.10300
C  7.96600 4.14900 24.24700
C  8.20800 3.54100 22.84700
C  9.29900 2.44600 23.06400
C  9.47900 2.47800 24.53500
C  6.94400 2.89300 22.16800
C  10.55400 2.78300 22.29100
C  11.37100 1.52200 21.75400
N  10.03800 2.46000 27.47200
C  10.62900 1.56600 26.60300
C  11.47600 0.62000 27.31600
C  11.48300 1.14100 28.65000
C  10.58600 2.22800 28.65900
C  12.18900 -0.53900 26.71100
C  11.99900 0.91400 29.97900
O  12.76500 0.03400 30.37800
C  11.36500 1.96700 30.87900
C  10.77400 1.18900 32.09200
O  9.79300 0.45900 32.06500
O  11.50600 1.36800 33.21400
C  11.19700 0.73500 34.53800
H  6.64600 6.82500 29.96500
H  6.53200 5.53900 23.58900
H  10.96000 0.85800 24.68500
H  8.71100 3.42400 32.35600
H  8.63500 6.25900 31.63400
H  5.94900 5.27300 31.72300
H  6.78000 6.22900 32.93900
H  6.89100 4.39800 32.98700
H  10.53100 5.93400 32.50200
H  11.46000 4.68600 31.91200
H  11.78200 3.73300 33.93600
H  10.15200 3.58100 34.20500
H  5.51200 9.24100 27.97000
H  5.07900 8.00400 29.22100
H  4.04500 8.46400 27.81300
H  3.80400 8.96900 25.74100
H  4.02700 9.35600 24.01900
H  5.36400 9.76700 25.19600
H  8.64600 4.23600 22.13100
H  8.93900 1.43900 22.85400
H  6.17000 2.60300 22.87900
H  7.20200 2.07300 21.49800
H  6.48100 3.67200 21.56300
H  11.14200 3.19100 23.11300
H  10.39600 3.42500 21.42400
H  11.70300 1.80000 20.75400
H  10.75900 0.63300 21.60400
H  12.21600 1.36600 22.42500
H  13.15300 -0.20600 26.32700
H  11.58900 -0.99300 25.92200
H  12.26300 -1.37800 27.40300
H  12.15400 2.60200 31.28300
H  10.15000 0.81800 34.83000
H  11.79500 1.30700 35.24800
H  11.56300 -0.28800 34.45500
Mg 25.67300 1.49000 29.04000
C  27.53800 0.78700 31.98600
C  22.86800 1.68100 30.88300
C  23.99900 1.66400 26.12300
C  28.61700 0.46600 27.21900
N  25.30200 1.24500 31.25200
C  26.17600 1.11000 32.27500
C  25.46800 1.24600 33.62700
C  23.97700 1.57000 33.18800
C  24.05200 1.58200 31.70300
C  22.95700 0.45800 33.62800
C  26.17200 2.31500 34.58100
C  26.92700 1.92900 35.90500
H  26.57800 2.81500 37.11400
N  23.68700 1.70000 28.52900
C  22.69400 1.78100 29.42200
C  21.43900 2.01200 28.75500
C  21.72500 2.04300 27.34200
C  23.17300 1.76000 27.25600
C  20.08900 2.25200 29.46900
C  20.80500 2.24300 26.11700
O  21.13900 2.03000 24.95200
C  19.25400 2.55300 26.24300
N  26.24400 0.97000 26.94100
C  25.30000 1.24200 25.97400
C  26.01900 1.26100 24.56100
C  27.48000 0.88800 24.87900
C  27.48000 0.71300 26.40300
C  25.38500 0.44200 23.45700
C  28.53000 1.80900 24.20500
C  29.02300 1.51300 22.77200
N  27.72700 0.85900 29.43500
C  28.73800 0.41000 28.62400
C  29.81800 -0.09800 29.47200
C  29.49700 0.16300 30.75900
C  28.12000 0.66800 30.74000
C  31.00400 -0.73900 28.91900
C  29.94800 0.01400 32.09600
O  31.03000 -0.27900 32.57100
C  28.68700 0.44500 32.98400
C  28.23400 -0.68000 33.73800
O  27.39900 -1.50200 33.32500
O  28.87600 -0.69300 34.95500
C  28.42200 -1.65000 35.92000
H  21.87000 1.70100 31.32600
H  23.50400 1.86400 25.17000
H  29.43900 0.23100 26.53900
H  25.59500 0.27500 34.10500
H  23.57600 2.48100 33.63100
H  22.07700 0.94100 34.05300
H  23.47500 -0.12600 34.38900
H  22.61800 -0.17500 32.80800
H  25.40300 2.99100 34.95700
H  26.76100 2.97400 33.94400
H  27.97100 1.77700 35.63000
H  26.53100 0.92100 36.03200
H  20.15400 1.60500 30.34400
H  19.17500 1.97600 28.94400
H  19.90900 3.27900 29.78700
H  18.88500 2.66500 25.22400
H  19.18900 3.50500 26.77000
H  18.68100 1.83900 26.83500
H  25.86100 2.30400 24.28500
H  27.69800 -0.09600 24.46300
H  25.65300 -0.61400 23.45100
H  25.58900 0.78600 22.44300
H  24.31200 0.48700 23.64200
H  29.44800 1.72200 24.78600
H  28.28300 2.86600 24.29800
H  30.09200 1.69200 22.65600
H  28.37300 2.18100 22.20500
H  28.65500 0.51000 22.55500
H  30.82100 -1.05200 27.89100
H  31.36100 -1.59600 29.49000
H  31.78500 0.00300 29.09000
H  28.82700 1.32000 33.61800
H  29.24400 -1.80500 36.61900
H  28.29400 -2.63500 35.47000
H  27.59800 -1.31400 36.54900

