158

Mg 25.05200 1.87300 29.34800
C  27.18300 1.45700 32.09900
C  22.42400 1.72000 31.56800
C  22.95600 1.95700 26.67700
C  27.75900 1.10400 27.27600
N  24.86300 1.92400 31.56900
C  25.89300 1.75200 32.52600
C  25.36400 1.81900 33.97900
C  23.81800 1.71100 33.78500
C  23.67900 1.66600 32.17000
C  23.08500 0.59000 34.50500
C  25.79700 3.13900 34.72400
C  26.44100 2.96400 36.00700
H  26.04200 3.93800 37.12800
N  22.90900 1.90500 29.12300
C  22.03900 1.76100 30.18500
C  20.65800 1.84000 29.55000
C  20.74500 1.86300 28.14800
C  22.25300 2.00000 27.90400
C  19.39600 1.97400 30.43400
C  19.63900 1.79700 27.07600
O  19.84300 1.89200 25.86800
C  18.28300 1.45800 27.53800
N  25.34800 1.75700 27.31800
C  24.32600 1.88100 26.37600
C  24.89800 1.64800 24.96000
C  26.48600 1.54400 25.17300
C  26.54100 1.41000 26.66300
C  24.32800 0.51900 24.13400
C  27.20200 2.82200 24.64600
C  26.69700 4.23600 25.28600
N  27.05400 1.45200 29.60900
C  28.04700 1.14600 28.68000
C  29.27400 0.76700 29.29800
C  29.01600 0.94000 30.65400
C  27.64300 1.32900 30.77000
C  30.50000 0.13200 28.63500
C  29.59300 0.78500 31.93400
O  30.69500 0.31500 32.31000
C  28.49400 1.24800 32.93700
C  28.34400 0.15700 34.00200
O  27.67900 -0.83100 33.86900
O  28.99800 0.51200 35.15600
C  28.65900 -0.27500 36.38700
H  21.61900 1.89100 32.28500
H  22.30500 2.13100 25.81800
H  28.56000 0.95500 26.54900
H  25.74200 0.90500 34.43700
H  23.29800 2.63000 34.05700
H  23.11500 -0.15300 33.70800
H  22.11600 1.03900 34.72200
H  23.51200 0.21600 35.43600
H  24.90500 3.71600 34.96500
H  26.42400 3.79400 34.11900
H  27.50500 3.16400 35.88300
H  26.28200 1.99200 36.47300
H  18.77600 2.77500 30.03200
H  19.58200 2.14700 31.49400
H  18.79900 1.06400 30.38200
H  18.35500 0.63100 28.24300
H  17.71600 1.04600 26.70300
H  17.73500 2.33000 27.89700
H  24.63500 2.58500 24.47100
H  26.98500 0.73600 24.63900
H  25.07100 0.15400 23.42500
H  23.51500 0.84700 23.48600
H  23.87200 -0.27800 24.72100
H  26.96900 2.83800 23.58100
H  28.27400 2.70000 24.80300
H  26.36000 4.85600 24.45600
H  27.54700 4.65100 25.82900
H  25.87900 4.17000 26.00400
H  31.35100 0.15000 29.31700
H  30.85600 0.66100 27.75100
H  30.18900 -0.89600 28.44700
H  28.75000 2.19100 33.41800
H  29.23600 0.06800 37.24500
H  28.95500 -1.31900 36.29100
H  27.57900 -0.15400 36.47900
Mg 45.51400 5.04000 47.01000
C  43.71200 7.89600 46.65400
C  42.75400 3.13000 46.48100
C  47.62400 2.35000 46.88200
C  48.47900 7.08800 46.97400
N  43.50400 5.45500 46.56800
C  42.96700 6.66000 46.44400
C  41.52100 6.58700 45.88100
C  41.09400 5.09300 46.14100
C  42.50700 4.50600 46.56600
C  40.09400 5.01700 47.33700
C  41.30700 7.05200 44.41300
C  39.93100 7.83300 44.17600
H  39.26200 7.43200 42.83600
N  45.18800 2.95900 46.77400
C  43.94900 2.35000 46.60100
C  44.17600 0.96000 46.39500
C  45.59800 0.68800 46.56900
C  46.24800 2.03000 46.77700
C  43.02000 0.03200 46.14500
C  46.22000 -0.70800 46.53300
O  45.68000 -1.70700 46.10400
C  47.67700 -0.93000 46.88000
N  47.79100 4.75000 46.98000
C  48.38600 3.48400 46.89000
C  49.92000 3.66200 47.02600
C  50.18600 5.17200 46.94700
C  48.74800 5.71700 46.95400
C  50.57500 2.96300 48.28800
C  50.77400 5.72100 45.66300
C  52.31800 5.95200 45.57100
N  46.03500 7.12000 46.87100
C  47.26500 7.77300 46.91800
C  46.95600 9.20900 46.89400
C  45.54100 9.29400 46.80900
C  45.05800 8.01800 46.87100
C  47.95500 10.30100 47.02200
C  44.44500 10.20300 46.68800
O  44.45100 11.40800 46.59200
C  43.15700 9.32000 46.57100
C  42.21100 9.66100 47.66000
O  42.16500 9.17300 48.72200
O  41.28500 10.48100 47.13400
C  40.21900 10.90600 48.06400
H  41.79900 2.60500 46.41000
H  48.33100 1.51900 46.92100
H  49.35900 7.73100 47.03600
H  40.86500 7.20100 46.49900
H  40.68500 4.61500 45.25100
H  39.77700 6.01500 47.64200
H  40.55100 4.44400 48.14500
H  39.22000 4.38800 47.17300
H  41.36500 6.21000 43.72400
H  42.19700 7.62800 44.15600
H  40.16800 8.88300 44.35100
H  39.28500 7.66000 45.03600
H  42.69300 -0.21700 47.15400
H  43.42700 -0.79100 45.55800
H  42.14600 0.45400 45.64800
H  47.94500 -0.28000 47.71300
H  48.35300 -0.72000 46.05100
H  47.83900 -1.90400 47.34000
H  50.50900 3.25500 46.20300
H  50.73100 5.53100 47.82000
H  51.48700 3.50400 48.54000
H  50.96000 1.97100 48.05200
H  49.91700 2.95100 49.15800
H  50.36200 6.70500 45.43700
H  50.40800 5.08900 44.85400
H  52.74600 5.89500 46.57200
H  52.59900 6.91700 45.14700
H  52.76800 5.10100 45.05900
H  48.80500 9.74100 47.41000
H  47.48600 10.89700 47.80500
H  48.04100 10.93400 46.14000
H  42.78700 9.55000 45.57200
H  39.30400 11.02200 47.48200
H  40.54700 11.76100 48.65500
H  39.97200 10.03500 48.67100

