158

Mg -0.31600 7.06900 26.20700
C  0.32100 9.14800 28.84800
C  0.10300 4.34200 28.31200
C  -0.36800 4.90500 23.50800
C  0.07800 9.77600 23.96800
N  0.08500 6.84000 28.30300
C  0.19100 7.82400 29.23100
C  0.29800 7.30700 30.68900
C  0.59800 5.78500 30.36300
C  0.22500 5.65100 28.90400
C  2.05200 5.26600 30.74600
C  -1.02600 7.75700 31.42900
C  -0.80900 8.18500 32.85700
H  0.39400 7.60500 33.59600
N  -0.45000 4.97200 25.96400
C  -0.24000 4.06200 26.98000
C  -0.34700 2.74200 26.37900
C  -0.65500 2.87200 25.02700
C  -0.44100 4.27900 24.77400
C  -0.37800 1.51900 27.24500
C  -1.08500 1.79800 24.01700
O  -1.42300 2.08000 22.88300
C  -1.23500 0.34900 24.48100
N  -0.17300 7.27800 24.09400
C  -0.28300 6.23000 23.17900
C  -0.37000 6.73200 21.73600
C  -0.25300 8.27300 21.93800
C  -0.06700 8.51600 23.41000
C  0.71500 6.15300 20.75700
C  -1.17500 9.13100 21.14600
C  -2.51900 9.49500 21.79900
N  0.21000 9.10300 26.34600
C  0.30300 10.03600 25.33600
C  0.46700 11.36700 25.99100
C  0.48800 11.08600 27.35700
C  0.39700 9.68400 27.51900
C  0.63000 12.73000 25.10500
C  0.65800 11.59500 28.67500
O  0.98800 12.71400 28.99300
C  0.48500 10.39900 29.66700
C  1.65100 10.35100 30.50200
O  2.77800 10.01400 30.18400
O  1.33100 10.85900 31.72100
C  2.52000 11.16400 32.54100
H  0.26300 3.51900 29.01100
H  -0.54700 4.29500 22.62000
H  -0.06500 10.59300 23.25700
H  1.14500 7.84900 31.10900
H  -0.15500 5.21500 30.90700
H  2.69000 5.11000 29.87600
H  2.04600 4.36100 31.35300
H  2.52600 6.03500 31.35600
H  -1.74800 6.94300 31.49900
H  -1.54000 8.52500 30.85100
H  -1.64000 7.97000 33.52800
H  -0.84300 9.26500 33.00200
H  -0.03200 1.64100 28.27200
H  0.25900 0.73700 26.83200
H  -1.42000 1.21500 27.34200
H  -0.29900 -0.14300 24.74600
H  -1.65200 -0.12700 23.59400
H  -1.76200 0.19100 25.42200
H  -1.39300 6.60500 21.38200
H  0.72000 8.51900 21.51400
H  1.25700 6.85300 20.12000
H  0.14600 5.62200 19.99400
H  1.33300 5.38400 21.22000
H  -1.40000 8.66500 20.18600
H  -0.77800 10.13200 20.97800
H  -3.33000 9.50600 21.07100
H  -2.48900 10.52600 22.15000
H  -2.80800 8.77300 22.56300
H  -0.33500 13.21200 24.94800
H  1.16900 12.42600 24.20800
H  1.28000 13.49000 25.53900
H  -0.37900 10.47900 30.32700
H  2.27800 10.76700 33.52700
H  2.77300 12.21700 32.66400
H  3.44600 10.61700 32.36300
Mg 48.23100 35.77500 28.48200
C  46.25900 33.96400 30.76000
C  48.27900 38.38100 30.71700
C  49.46100 37.63600 26.00800
C  47.66300 33.15100 26.19900
N  47.55600 36.03300 30.52600
C  46.80000 35.15700 31.28300
C  46.78900 35.62000 32.68700
C  46.88400 37.20900 32.53600
C  47.56400 37.24600 31.16900
C  45.52500 37.99500 32.42500
C  47.95600 35.02500 33.49500
C  47.80200 34.90700 35.00400
H  46.85600 35.95300 35.57900
N  48.92600 37.70000 28.38300
C  48.90200 38.62900 29.41400
C  49.63200 39.81100 28.97300
C  50.04900 39.58100 27.60500
C  49.45700 38.24300 27.25500
C  49.87400 40.91100 29.98700
C  50.91200 40.47400 26.65800
O  51.29500 40.13900 25.56000
C  51.26600 41.83900 27.09700
N  48.43100 35.43400 26.37500
C  48.98300 36.42000 25.59800
C  49.07000 35.96500 24.15400
C  48.82000 34.42000 24.22800
C  48.34300 34.26300 25.71800
C  48.25600 36.69200 23.14500
C  49.86000 33.39500 23.77000
C  50.76500 33.76600 22.54700
N  47.19000 33.95500 28.42500
C  47.12200 32.94700 27.45200
C  46.42600 31.77800 27.91900
C  46.03800 32.10400 29.25200
C  46.54500 33.47400 29.49900
C  46.17200 30.50100 27.07700
C  45.39900 31.60000 30.44200
O  44.91500 30.50800 30.79200
C  45.35200 32.89500 31.44800
C  45.83600 32.47100 32.85000
O  46.82400 31.79500 32.98400
O  44.92900 32.86700 33.75900
C  45.07500 32.17300 35.01500
H  48.04300 39.12400 31.48200
H  49.82300 38.26600 25.19300
H  47.63200 32.42600 25.38300
H  45.82300 35.31600 33.09100
H  47.51800 37.49300 33.37600
H  44.71400 37.38900 32.02300
H  45.75400 38.78000 31.70500
H  45.20100 38.27600 33.42800
H  48.86400 35.59800 33.30800
H  48.14500 34.03200 33.08900
H  48.78800 35.10500 35.42400
H  47.47800 33.92000 35.33300
H  49.74100 40.66200 31.03900
H  49.53300 41.91000 29.71500
H  50.96300 40.93500 30.02800
H  51.08100 42.48800 26.24100
H  52.31300 41.95700 27.37400
H  50.57200 42.08100 27.90200
H  50.09100 36.21900 23.86900
H  47.89000 34.08300 23.77000
H  47.45200 35.99800 22.89700
H  48.89000 36.89500 22.28200
H  47.83400 37.64400 23.46700
H  49.40800 32.42300 23.57300
H  50.58000 33.22900 24.57100
H  51.75100 33.88800 22.99500
H  50.42100 34.73900 22.19800
H  50.81300 32.95800 21.81700
H  47.07200 30.11200 26.60000
H  45.40300 30.51700 26.30400
H  45.80900 29.73700 27.76600
H  44.35400 33.32000 31.55900
H  44.77000 32.90900 35.76000
H  46.08300 31.82800 35.24600
H  44.35600 31.35400 35.00700

