158

Mg 17.27000 -1.99600 28.28900
C  16.21900 0.19200 30.87500
C  19.16800 -3.73000 30.78500
C  18.69800 -3.72900 25.85100
C  15.36100 -0.16000 26.06400
N  17.73100 -1.63500 30.57900
C  16.99800 -0.80400 31.40100
C  17.17100 -1.15300 32.82700
C  18.34000 -2.31300 32.84100
C  18.42100 -2.67600 31.34600
C  19.67100 -1.85300 33.52300
C  15.93300 -1.68000 33.54500
C  15.74300 -1.04600 34.91400
H  16.88200 -0.44600 35.76300
N  18.66100 -3.51800 28.30300
C  19.25100 -4.17000 29.35900
C  20.08800 -5.25800 28.91100
C  20.15700 -5.16400 27.47600
C  19.14400 -4.12400 27.13000
C  20.85800 -6.12700 29.87100
C  21.10700 -5.92600 26.49800
O  21.04800 -5.72800 25.28100
C  22.07000 -7.00800 27.08300
N  17.08800 -1.90600 26.30600
C  17.74900 -2.75000 25.47700
C  17.09100 -2.74100 23.98400
C  15.98300 -1.68000 24.13700
C  16.10400 -1.27200 25.61900
C  18.16500 -2.52300 22.85500
C  14.51000 -2.13600 23.72900
C  14.38200 -2.19000 22.17800
N  16.07700 -0.26400 28.36000
C  15.30300 0.30800 27.39500
C  14.62100 1.40900 27.96400
C  14.94500 1.39200 29.29900
C  15.79200 0.33100 29.53100
C  13.64400 2.37700 27.34500
C  14.81000 2.17000 30.49100
O  14.22300 3.24500 30.77100
C  15.51900 1.36300 31.63300
C  16.42400 2.26600 32.39000
O  17.58600 2.59600 32.09400
O  15.66300 2.61200 33.58600
C  16.31700 3.52200 34.54400
H  19.62700 -4.36500 31.54500
H  19.10100 -4.28400 25.00100
H  14.75600 0.31100 25.28600
H  17.54600 -0.25200 33.31400
H  18.08800 -3.27900 33.27900
H  19.55200 -0.87500 33.98800
H  20.47000 -1.80800 32.78400
H  20.00400 -2.50700 34.32900
H  15.87000 -2.76200 33.65900
H  15.05400 -1.44300 32.94500
H  15.23100 -1.75700 35.56200
H  15.04200 -0.22500 34.76200
H  20.94200 -7.17100 29.56800
H  20.25800 -6.20000 30.77800
H  21.81100 -5.61700 30.01000
H  22.51500 -6.60000 27.99100
H  22.80500 -7.02300 26.27900
H  21.62000 -7.97400 27.31500
H  16.66500 -3.73900 23.87400
H  16.21500 -0.82800 23.49800
H  19.11800 -2.20700 23.28000
H  17.84400 -1.83600 22.07200
H  18.22700 -3.50800 22.39200
H  13.87600 -1.31800 24.07200
H  14.28900 -3.08500 24.21900
H  13.68600 -3.01200 22.01300
H  15.31600 -2.44800 21.67900
H  13.96300 -1.24800 21.82300
H  13.14000 1.95000 26.47700
H  14.18400 3.24100 26.95800
H  13.05700 2.75200 28.18300
H  14.60200 0.98800 32.08800
H  15.76800 3.44900 35.48300
H  16.45600 4.54800 34.20300
H  17.30700 3.10800 34.73600
Mg 30.56600 58.21000 39.52000
C  27.64700 56.44100 38.54000
C  32.30000 55.52600 38.68200
C  33.10900 60.25900 39.56000
C  28.39700 61.09200 39.99600
N  29.96900 56.20800 38.77000
C  28.77900 55.71100 38.35800
C  28.88500 54.35800 37.61500
C  30.29900 53.89900 38.14600
C  30.93600 55.27200 38.64900
C  30.36700 52.77700 39.16700
C  28.76600 54.63000 36.12500
C  27.49900 54.08500 35.45400
H  26.68000 54.99200 34.52900
N  32.46500 57.94000 39.10000
C  33.03500 56.72400 38.86100
C  34.44500 56.91100 38.74700
C  34.71000 58.27100 39.00700
C  33.44100 58.90300 39.21100
C  35.43600 55.76200 38.37800
C  36.11600 59.04000 39.11100
O  37.16400 58.39600 38.89900
C  36.27700 60.49200 39.30600
N  30.70700 60.33900 39.85200
C  31.90500 60.91900 39.81400
C  31.90900 62.39000 40.42000
C  30.34400 62.70400 40.38800
C  29.77500 61.30200 40.16100
C  32.54000 62.56500 41.80700
C  29.88400 63.79000 39.35600
C  29.70500 65.26400 39.89300
N  28.43400 58.66900 39.41000
C  27.74400 59.89500 39.68000
C  26.31600 59.66200 39.58700
C  26.22600 58.31000 39.10800
C  27.55700 57.77300 39.08400
C  25.24700 60.69400 39.71400
C  25.27400 57.24400 38.74200
O  24.05000 57.26400 38.60600
C  26.16800 56.03600 38.43600
C  25.84600 54.89600 39.33100
O  26.44800 54.59300 40.30900
O  24.71100 54.29300 38.79000
C  24.04900 53.32300 39.69400
H  32.96800 54.69200 38.45500
H  33.91600 60.99300 39.58500
H  27.76800 61.97900 40.08800
H  28.13800 53.66500 38.00200
H  30.77500 53.52900 37.23800
H  29.37500 52.38800 39.39300
H  30.64500 53.14900 40.15400
H  31.07100 52.03300 38.79400
H  29.55700 54.22000 35.49700
H  28.85200 55.70500 35.96300
H  26.88000 53.60800 36.21300
H  27.80800 53.27100 34.79800
H  36.47000 56.10700 38.39100
H  35.08600 55.49200 37.38200
H  35.24800 54.87600 38.98500
H  35.90200 60.93500 40.22900
H  35.87500 61.06400 38.47000
H  37.35200 60.66200 39.23700
H  32.50100 63.01900 39.75600
H  30.04900 63.00600 41.39300
H  32.75300 61.51300 41.99600
H  31.95400 63.12600 42.53400
H  33.40700 63.22500 41.81100
H  29.02300 63.47100 38.76700
H  30.76300 63.93000 38.72700
H  30.59800 65.86600 39.72500
H  29.46300 65.18300 40.95300
H  28.90800 65.71100 39.29900
H  25.01800 60.80900 40.77400
H  24.34500 60.56800 39.11400
H  25.70200 61.62300 39.37200
H  25.88600 55.83200 37.40300
H  22.98700 53.55900 39.76600
H  24.38400 53.33700 40.73100
H  24.06200 52.30100 39.31400

