158

Mg -1.55200 17.33200 25.56100
C  -2.14800 14.82900 28.10500
C  -1.94900 19.67000 27.90500
C  -1.01500 19.50000 23.10800
C  -1.19400 14.56300 23.18000
N  -2.19500 17.18200 27.74500
C  -2.39100 16.10700 28.58300
C  -2.66500 16.58500 30.03900
C  -2.69000 18.17400 29.88500
C  -2.26200 18.38300 28.42400
C  -4.02100 18.73900 30.44700
C  -1.75300 15.97200 31.05900
C  -1.33900 16.79900 32.30900
H  -0.86500 16.00500 33.50900
N  -1.35700 19.31200 25.54300
C  -1.61200 20.13500 26.60100
C  -1.60800 21.54900 26.11700
C  -1.33700 21.49000 24.70500
C  -1.19400 20.06100 24.38400
C  -1.96100 22.75900 26.99600
C  -1.23700 22.60300 23.67800
O  -0.73800 22.47700 22.55200
C  -1.59700 24.04500 24.21400
N  -1.39900 17.01500 23.38300
C  -1.10300 18.14000 22.64600
C  -0.75100 17.79700 21.24200
C  -0.62800 16.22500 21.23400
C  -1.09800 15.88900 22.65600
C  -1.66400 18.28900 20.11700
C  0.80500 15.79500 20.91300
C  1.92800 16.16900 21.92600
N  -1.78400 15.19800 25.50900
C  -1.57400 14.24500 24.48200
C  -1.85400 12.90200 25.06400
C  -2.06900 13.13600 26.44000
C  -1.94900 14.52900 26.71800
C  -1.83200 11.56900 24.33000
C  -2.25400 12.42000 27.61900
O  -2.35600 11.22900 27.87600
C  -2.38500 13.55200 28.78100
C  -1.28100 13.20400 29.69600
O  -0.11800 13.48800 29.59300
O  -1.87000 12.54200 30.78300
C  -0.96500 11.93900 31.80300
H  -1.95600 20.50000 28.61400
H  -0.71200 20.21100 22.33700
H  -1.14700 13.73500 22.47000
H  -3.59400 16.08300 30.31000
H  -1.90600 18.61700 30.49800
H  -4.05100 18.84600 31.53100
H  -4.90700 18.11900 30.31500
H  -4.30300 19.60100 29.84200
H  -0.81800 15.71200 30.56300
H  -2.13300 15.02700 31.44600
H  -2.14000 17.48800 32.57500
H  -0.49600 17.39700 31.96200
H  -2.91000 23.16400 26.64500
H  -1.23200 23.55700 26.85700
H  -1.96000 22.46600 28.04600
H  -1.22400 24.65800 23.39400
H  -1.09400 24.35500 25.13100
H  -2.67000 24.22900 24.26600
H  0.23900 18.24200 21.13700
H  -1.29100 15.85300 20.45200
H  -1.22100 19.22300 19.77000
H  -2.59400 18.56700 20.61400
H  -1.74300 17.67400 19.22000
H  1.10400 16.39800 20.05600
H  0.96700 14.75300 20.63700
H  2.43400 17.08600 21.62500
H  2.63100 15.37100 22.16300
H  1.37200 16.36200 22.84300
H  -1.04700 11.57800 23.57400
H  -2.74600 11.46000 23.74600
H  -1.65700 10.73700 25.01200
H  -3.30400 13.49600 29.36500
H  -1.24900 10.90300 31.98600
H  -1.00700 12.33500 32.81800
H  0.07300 11.94400 31.47100
Mg 40.83000 41.53100 26.75800
C  40.25000 43.90500 29.28100
C  41.79700 39.32800 29.14800
C  41.84900 39.41500 24.26400
C  39.93300 44.00000 24.34500
N  40.86100 41.56500 29.00800
C  40.60600 42.66700 29.76300
C  40.70900 42.25000 31.22500
C  41.26800 40.77100 31.21600
C  41.32600 40.54700 29.73000
C  42.64300 40.39100 31.90800
C  39.32800 42.43000 31.95400
C  39.18000 41.66800 33.22300
H  38.73500 42.53500 34.44000
N  41.57500 39.59700 26.67600
C  42.00500 38.84400 27.81800
C  42.55900 37.63700 27.30100
C  42.61000 37.70300 25.90900
C  42.02900 38.97300 25.58800
C  42.87400 36.45900 28.19500
C  43.13200 36.66600 24.85600
O  42.98400 36.82500 23.67500
C  43.75500 35.46600 25.40900
N  40.83800 41.73000 24.60100
C  41.13400 40.59600 23.80900
C  40.89300 40.93600 22.33600
C  40.05700 42.28300 22.43700
C  40.15100 42.70100 23.87300
C  42.25800 41.21000 21.60000
C  38.58300 42.17700 21.93800
C  37.42900 41.73600 22.88300
N  40.25100 43.60400 26.74200
C  39.97700 44.46500 25.75000
C  39.66900 45.77200 26.28100
C  39.71000 45.57900 27.68000
C  40.15200 44.29500 27.92600
C  39.34700 47.06800 25.48000
C  39.70900 46.28100 28.95900
O  39.42300 47.38500 29.31500
C  39.95200 45.14800 30.04600
C  41.11500 45.61700 30.76600
O  42.23900 45.61200 30.29400
O  40.77200 46.28600 31.89300
C  41.85200 46.94300 32.56100
H  41.95100 38.53200 29.88000
H  42.06800 38.82000 23.37500
H  39.56700 44.72300 23.61400
H  41.54100 42.86500 31.56900
H  40.47200 40.11300 31.56300
H  42.52600 39.57300 32.61900
H  43.00100 41.23700 32.49500
H  43.40900 40.10000 31.19000
H  38.59600 42.13200 31.20200
H  39.26400 43.48600 32.21400
H  40.07400 41.11200 33.50700
H  38.45100 40.88800 33.00500
H  42.14200 35.72200 27.86600
H  42.69300 36.70900 29.24100
H  43.93500 36.39900 27.95400
H  42.89400 34.91900 25.79300
H  44.56500 35.73800 26.08600
H  44.06100 34.81000 24.59400
H  40.20800 40.26600 21.81800
H  40.52900 43.03200 21.80000
H  43.10100 41.01000 22.26100
H  42.27200 42.12500 21.00700
H  42.31200 40.46100 20.81000
H  38.54200 41.41300 21.16100
H  38.37300 43.14100 21.47300
H  36.78900 42.60100 23.05700
H  37.86200 41.39800 23.82400
H  36.91100 40.86700 22.47600
H  39.06300 46.83500 24.45400
H  40.26400 47.65100 25.40000
H  38.51900 47.58700 25.96300
H  39.10600 45.17600 30.73300
H  42.21800 47.77000 31.95200
H  42.70000 46.32900 32.86500
H  41.38100 47.39300 33.43500

