158

Mg 16.36400 -1.19800 28.18500
C  15.16000 0.68200 30.79400
C  18.37300 -2.90500 30.42000
C  17.79400 -2.90800 25.61900
C  14.62600 0.80000 25.95400
N  16.72800 -1.08000 30.43700
C  16.12000 -0.17600 31.29800
C  16.58300 -0.42300 32.72900
C  17.85400 -1.38600 32.52400
C  17.55700 -1.93500 31.10400
C  19.21600 -0.70100 32.57300
C  15.51200 -1.13200 33.64300
C  15.37200 -0.45700 35.03000
H  16.57800 0.23400 35.63100
N  17.85200 -2.72000 28.01300
C  18.43300 -3.37000 29.08300
C  19.22000 -4.53800 28.63600
C  19.13100 -4.48300 27.22500
C  18.26700 -3.35200 26.87600
C  20.02900 -5.50200 29.46100
C  19.86000 -5.39300 26.20200
O  19.93200 -5.03800 25.05300
C  20.54100 -6.70600 26.65700
N  16.40500 -0.87800 26.12800
C  17.02200 -1.78700 25.33400
C  16.75100 -1.32900 23.83800
C  15.52200 -0.45100 23.97400
C  15.50900 -0.21900 25.43900
C  17.96700 -0.56700 23.27900
C  14.23700 -1.14800 23.43600
C  13.79100 -0.73800 21.99700
N  15.15400 0.48900 28.32300
C  14.50100 1.19900 27.30400
C  13.62100 2.15900 27.90200
C  13.78700 2.00800 29.25400
C  14.82900 1.07300 29.46500
C  12.91200 3.19400 27.22300
C  13.45100 2.51600 30.59500
O  12.61500 3.36800 30.92300
C  14.31500 1.60500 31.64700
C  15.16900 2.50800 32.56100
O  16.30800 2.94400 32.18900
O  14.49100 2.81900 33.68400
C  15.02400 3.92200 34.46200
H  18.85500 -3.46700 31.22300
H  18.12400 -3.44000 24.72500
H  14.02800 1.18300 25.12400
H  16.95500 0.50500 33.16500
H  17.83700 -2.20500 33.24200
H  19.65300 -0.84200 31.58400
H  19.86700 -1.21800 33.27700
H  19.00700 0.33600 32.83500
H  15.59800 -2.21700 33.69700
H  14.53300 -1.01300 33.18000
H  15.05400 -1.25400 35.70100
H  14.64500 0.35500 35.02200
H  19.58000 -6.46800 29.22900
H  19.96900 -5.23300 30.51500
H  21.03400 -5.52500 29.04000
H  21.53000 -6.59600 27.10300
H  20.69100 -7.28800 25.74800
H  19.83200 -7.14600 27.35900
H  16.59200 -2.21900 23.23000
H  15.61600 0.56700 23.59500
H  18.80800 -0.40800 23.95300
H  17.65500 0.42200 22.94100
H  18.38500 -1.24000 22.53000
H  13.48000 -0.81800 24.14700
H  14.34900 -2.23200 23.47000
H  12.70300 -0.70400 21.95700
H  14.22300 -1.35400 21.20800
H  14.24800 0.24600 21.88800
H  13.00800 3.25500 26.13900
H  13.34300 4.13000 27.57800
H  11.84800 3.19900 27.45900
H  13.63400 1.08200 32.31900
H  14.81000 4.86700 33.96300
H  16.08800 3.79200 34.66200
H  14.60400 3.96400 35.46700
Mg -10.18200 39.05600 41.23400
C  -9.00000 35.81300 40.70500
C  -7.13300 40.13700 39.96900
C  -11.32700 42.20100 41.01600
C  -13.39300 37.81600 41.96400
N  -8.35500 38.02500 40.27000
C  -8.08900 36.71100 40.22600
C  -6.75700 36.55100 39.43000
C  -6.03500 37.89700 39.62000
C  -7.26500 38.74400 39.98000
C  -4.95300 37.92000 40.69100
C  -7.08300 36.12300 37.96200
C  -6.11700 35.12600 37.31300
H  -5.70400 35.71300 35.94500
N  -9.37300 40.94800 40.62300
C  -8.09100 41.18800 40.17600
C  -7.85800 42.55700 39.99200
C  -9.06700 43.14400 40.33000
C  -9.98900 42.10600 40.62800
C  -6.64200 43.17800 39.43200
C  -9.35300 44.68500 40.31800
O  -8.44600 45.50700 39.98600
C  -10.74100 45.29300 40.55400
N  -12.18100 39.93900 41.24400
C  -12.34500 41.28600 41.30800
C  -13.78200 41.63300 41.86500
C  -14.42400 40.16400 42.03200
C  -13.26500 39.19400 41.70700
C  -13.92200 42.52200 43.01100
C  -15.73500 39.84300 41.13400
C  -16.87900 39.24300 41.87200
N  -11.02000 37.24800 41.34300
C  -12.32700 36.88500 41.81800
C  -12.42300 35.44800 41.89200
C  -11.14100 34.96400 41.46400
C  -10.31700 36.12300 41.13300
C  -13.54800 34.55800 42.35300
C  -10.30500 33.82000 41.27900
O  -10.52000 32.64300 41.46400
C  -8.91900 34.30400 40.76300
C  -7.75100 33.80200 41.54600
O  -6.94600 32.98100 41.14500
O  -7.84500 34.16400 42.86900
C  -6.93400 33.64600 43.85500
H  -6.15700 40.43700 39.58200
H  -11.73300 43.19100 41.23300
H  -14.40800 37.52200 42.23500
H  -6.25200 35.71400 39.91300
H  -5.65700 38.17300 38.63600
H  -4.63500 36.92600 41.00700
H  -5.31200 38.45900 41.56800
H  -4.17600 38.47100 40.16100
H  -7.24000 37.02600 37.37200
H  -8.04400 35.61400 38.03100
H  -6.70600 34.22100 37.17000
H  -5.24100 34.87200 37.91000
H  -6.74800 43.26900 38.35100
H  -5.75700 42.54200 39.46700
H  -6.40800 44.14300 39.88100
H  -11.38500 44.98600 39.73000
H  -10.61100 46.37500 40.53500
H  -11.16700 44.95500 41.49900
H  -14.37400 42.16600 41.12200
H  -14.68900 40.09500 43.08700
H  -14.91000 42.51000 43.47200
H  -13.83800 43.58400 42.77700
H  -13.07600 42.26400 43.64800
H  -15.56800 39.17000 40.29300
H  -16.18000 40.74800 40.72000
H  -17.70800 39.93400 42.02900
H  -16.52800 38.97400 42.86800
H  -17.34400 38.39300 41.37300
H  -13.26000 33.62900 42.84400
H  -13.93600 34.13100 41.42800
H  -14.21500 35.11200 43.01300
H  -8.78300 33.90100 39.76000
H  -6.23400 32.87600 43.53200
H  -7.45800 33.25200 44.72600
H  -6.40000 34.51800 44.23300

