158

Mg 47.80400 25.03700 28.04900
C  48.76800 27.29800 30.56600
C  46.69400 22.85900 30.47200
C  46.86300 23.09000 25.58800
C  48.94500 27.52000 25.73400
N  47.66100 25.12000 30.21900
C  48.16400 26.09100 31.01100
C  47.86100 25.85000 32.48700
C  47.32700 24.33400 32.47100
C  47.22200 24.06600 30.96700
C  48.21800 23.32900 33.24500
C  46.83200 26.83500 33.16900
C  47.12300 27.20500 34.58300
H  45.90700 27.16500 35.54800
N  46.96500 23.12800 28.00500
C  46.59400 22.34600 29.10000
C  45.95300 21.14200 28.62500
C  46.00100 21.19100 27.17600
C  46.59000 22.53000 26.83200
C  45.38400 20.11300 29.55100
C  45.45300 20.12900 26.22300
O  45.54900 20.19700 24.98100
C  45.01800 18.77200 26.79000
N  47.82000 25.29700 25.92200
C  47.39700 24.31300 25.14400
C  47.70400 24.60700 23.68400
C  48.15900 26.15100 23.73600
C  48.31500 26.34400 25.23100
C  48.78400 23.63900 23.09400
C  47.20500 27.20700 23.07500
C  47.70500 27.82000 21.74200
N  48.70900 26.97600 28.09700
C  49.10700 27.85000 27.11700
C  49.72900 29.01400 27.65900
C  49.55900 28.82700 29.02500
C  48.93800 27.64800 29.22600
C  50.31200 30.21500 26.91600
C  49.81200 29.54800 30.28300
O  50.36000 30.60900 30.59800
C  49.18400 28.54200 31.28700
C  50.09900 28.38300 32.47600
O  51.10900 27.69000 32.48100
O  49.61100 29.18200 33.53700
C  50.35200 29.10300 34.82100
H  46.53600 22.13200 31.27100
H  46.58400 22.35700 24.82900
H  49.27200 28.22900 24.97000
H  48.84100 25.95000 32.95600
H  46.34100 24.18300 32.91100
H  47.80500 22.46700 33.76900
H  48.57200 23.96100 34.05900
H  49.12600 23.09700 32.69000
H  45.85100 26.36000 33.16600
H  46.58500 27.64200 32.47900
H  47.49300 28.22900 34.52900
H  47.92200 26.57700 34.97700
H  44.33500 20.08200 29.25800
H  45.54700 20.49500 30.55900
H  45.96900 19.20100 29.43200
H  45.77500 18.18500 27.31100
H  44.55700 18.17200 26.00500
H  44.19300 19.11300 27.41500
H  46.82600 24.59800 23.03800
H  49.13200 26.35900 23.29100
H  48.45600 22.97400 22.29500
H  49.27100 23.01800 23.84600
H  49.60100 24.24000 22.69300
H  46.95900 27.90200 23.87800
H  46.29000 26.64300 22.89100
H  48.71800 27.43700 21.61700
H  47.71600 28.91000 21.76200
H  46.96200 27.51500 21.00600
H  51.04500 30.70100 27.56100
H  49.49900 30.94000 26.88400
H  50.60400 29.95900 25.89800
H  48.26400 28.96400 31.69000
H  50.03200 28.25800 35.43000
H  50.12600 30.00700 35.38600
H  51.43700 28.99800 34.81000
Mg 49.49500 46.65700 43.85800
C  46.34700 46.93100 42.50300
C  49.96200 43.67500 42.29400
C  52.95100 46.93000 44.46800
C  49.32700 50.02200 44.82100
N  48.22400 45.44400 42.45200
C  46.96400 45.68200 42.07000
C  46.41700 44.59500 41.11300
C  47.59600 43.48800 41.18000
C  48.68400 44.20800 42.03000
C  47.18000 42.10700 41.74100
C  46.02500 45.21400 39.70200
C  44.68200 44.83500 39.14000
H  44.58100 43.78300 38.06300
N  51.15800 45.46300 43.49500
C  51.14500 44.24200 42.93000
C  52.45900 43.62100 42.90100
C  53.29500 44.49800 43.65000
C  52.49500 45.71100 43.91100
C  52.73400 42.24200 42.42300
C  54.71500 44.20000 43.99800
O  55.23100 43.14100 43.68700
C  55.49300 45.10600 44.85900
N  50.97200 48.33500 44.51700
C  52.30200 48.15500 44.70000
C  52.93500 49.45600 45.34700
C  51.75400 50.42100 45.43100
C  50.61700 49.54100 45.01300
C  53.87600 49.21700 46.56700
C  51.75000 51.89700 44.70900
C  51.79100 53.11400 45.70500
N  48.07800 48.11900 43.91700
C  48.14700 49.43900 44.31300
C  46.84900 50.05200 44.12000
C  46.07500 49.06700 43.49900
C  46.90600 47.96300 43.31800
C  46.43700 51.40100 44.45100
C  44.86400 48.79100 42.79700
O  43.85000 49.37200 42.61500
C  44.97000 47.35300 42.22400
C  44.03700 46.52800 43.01600
O  43.94800 46.57600 44.23500
O  43.23300 45.91000 42.12500
C  42.01100 45.29100 42.65300
H  50.00600 42.76200 41.69700
H  54.04100 46.97500 44.52200
H  49.18300 51.07400 45.08000
H  45.53600 44.10700 41.53100
H  48.05200 43.29000 40.21000
H  47.84900 41.95200 42.58700
H  47.37200 41.24100 41.10800
H  46.14500 41.99100 42.06200
H  46.81500 44.82200 39.06200
H  45.95100 46.30000 39.65300
H  44.09000 45.68000 38.78800
H  44.03800 44.54100 39.96900
H  53.22100 42.38400 41.45800
H  51.81800 41.65200 42.42100
H  53.34300 41.77800 43.19800
H  56.32400 44.47000 45.16500
H  54.83600 45.45800 45.65400
H  55.88100 45.99400 44.36200
H  53.52600 50.01300 44.62000
H  51.68400 50.58900 46.50600
H  54.01900 48.15700 46.77300
H  53.47800 49.73800 47.43800
H  54.86100 49.56500 46.25600
H  50.85000 51.95900 44.09600
H  52.58600 51.94700 44.01100
H  52.38300 53.86800 45.18700
H  52.17600 52.92800 46.70800
H  50.74200 53.38200 45.82700
H  46.71900 51.54400 45.49400
H  45.40200 51.53200 44.13400
H  46.99600 52.11800 43.85100
H  44.80000 47.34300 41.14700
H  42.28700 44.23900 42.73600
H  41.18800 45.46000 41.95900
H  41.71900 45.75100 43.59700

