158

Mg -1.79500 17.59700 27.55400
C  -2.82700 15.40700 30.35900
C  -2.26300 20.26100 29.58200
C  -1.24700 19.48000 24.95900
C  -2.13600 14.69100 25.47400
N  -2.56900 17.78400 29.75900
C  -2.62700 16.77500 30.69000
C  -2.71600 17.48100 32.02500
C  -2.78700 18.97600 31.73300
C  -2.49200 19.03700 30.25700
C  -4.09600 19.44600 32.26100
C  -1.71700 17.10700 33.18700
C  -2.41400 16.56900 34.52600
H  -1.40200 16.28400 35.57300
N  -1.82600 19.64800 27.25000
C  -1.92000 20.58500 28.26800
C  -1.76700 21.91000 27.66800
C  -1.33300 21.67800 26.32000
C  -1.44300 20.25700 26.07500
C  -1.70800 23.21500 28.43800
C  -0.97400 22.67700 25.29800
O  -0.63600 22.36400 24.15600
C  -0.90700 24.16300 25.60100
N  -1.78100 17.16700 25.48400
C  -1.48000 18.14600 24.61400
C  -1.29700 17.58100 23.21600
C  -1.41700 15.98700 23.38100
C  -1.73700 15.91400 24.85800
C  -2.35200 18.10800 22.20800
C  -0.14800 15.30400 22.91400
C  1.21900 15.78700 23.58500
N  -2.39700 15.47700 27.81800
C  -2.38700 14.44400 26.88300
C  -2.93900 13.22300 27.56200
C  -3.01400 13.57000 28.90300
C  -2.73100 14.92400 29.03000
C  -3.19400 11.90800 26.92700
C  -3.35500 13.05300 30.28000
O  -3.61000 11.91200 30.67300
C  -3.10900 14.21500 31.29400
C  -1.87500 13.80500 32.05900
O  -0.73000 13.93700 31.69200
O  -2.26700 13.30800 33.28400
C  -1.19200 13.07300 34.23700
H  -2.17100 21.05400 30.32700
H  -0.98500 20.12500 24.11800
H  -2.04800 13.90000 24.72600
H  -3.68800 17.13500 32.37700
H  -2.08600 19.50200 32.38100
H  -4.81300 19.70600 31.48200
H  -3.91700 20.43600 32.68200
H  -4.53900 18.87700 33.07800
H  -0.96300 17.89200 33.24500
H  -1.03000 16.37000 32.77200
H  -2.98300 15.64400 34.43700
H  -3.01000 17.40900 34.88200
H  -2.51400 23.88200 28.13300
H  -0.77100 23.77100 28.41300
H  -1.82300 23.01800 29.50300
H  -0.17600 24.29800 26.39800
H  -1.92600 24.42700 25.88600
H  -0.57300 24.74100 24.73900
H  -0.34000 17.94400 22.84100
H  -2.27400 15.52800 22.88700
H  -2.90400 18.96800 22.58700
H  -3.01600 17.29000 21.92700
H  -1.87400 18.39400 21.27100
H  -0.15700 15.48300 21.83900
H  -0.26800 14.26400 23.21700
H  1.05900 15.95500 24.65000
H  1.61700 16.69300 23.12800
H  1.95200 14.98000 23.57100
H  -3.38500 11.10700 27.64100
H  -2.37600 11.58300 26.28500
H  -4.07200 11.99100 26.28500
H  -3.97600 14.25600 31.95400
H  -1.40100 13.53400 35.20300
H  -0.24400 13.54800 33.98200
H  -1.13300 11.98500 34.21800
Mg -0.67600 7.80100 26.58500
C  0.26400 9.39900 29.63400
C  -0.76900 4.89900 28.24900
C  -0.62800 6.51700 23.70600
C  0.05500 11.04500 25.03500
N  -0.21300 7.30900 28.73700
C  -0.07900 8.06800 29.81500
C  -0.30900 7.32700 31.14100
C  -0.58000 5.86100 30.55200
C  -0.42900 5.98100 29.04200
C  0.20700 4.71600 31.21700
C  -1.53200 7.84000 32.00100
C  -1.32300 8.27500 33.43300
H  0.02800 7.84100 34.13100
N  -0.76800 5.92500 26.04400
C  -0.90400 4.80400 26.83500
C  -1.10100 3.62800 26.01200
C  -1.00600 4.18600 24.65100
C  -0.84800 5.67000 24.79100
C  -1.21200 2.18100 26.57700
C  -1.18000 3.43200 23.34500
O  -1.33900 3.96500 22.24800
C  -1.34400 1.91600 23.42100
N  -0.53900 8.72900 24.60800
C  -0.42700 7.89800 23.58300
C  -0.12300 8.70000 22.26600
C  -0.38800 10.18400 22.75300
C  -0.34900 10.04000 24.26100
C  1.35700 8.47600 21.87100
C  -1.60800 10.77100 22.03100
C  -1.34100 11.43100 20.65800
N  -0.04500 9.86400 27.18500
C  0.25900 11.01200 26.43600
C  0.79300 11.97900 27.29800
C  0.75800 11.41300 28.60200
C  0.25200 10.14200 28.43600
C  1.18800 13.36600 26.98700
C  1.05800 11.69500 29.95400
O  1.61400 12.61800 30.54800
C  0.53100 10.40600 30.72300
C  1.62800 10.08600 31.71100
O  2.63100 9.41700 31.45600
O  1.38500 10.80000 32.86800
C  2.56900 10.87800 33.70200
H  -1.00500 3.93500 28.70500
H  -0.52300 6.05200 22.72300
H  0.37700 12.02100 24.66600
H  0.62300 7.26900 31.70400
H  -1.63300 5.58800 30.49100
H  0.83300 5.17000 31.98500
H  0.99400 4.38800 30.53700
H  -0.43500 3.90300 31.55800
H  -2.32000 7.09300 31.89900
H  -1.83000 8.75900 31.49800
H  -2.12900 7.97900 34.10400
H  -1.26300 9.35700 33.55200
H  -0.38700 1.62100 26.13600
H  -2.13300 1.70900 26.23400
H  -0.94800 1.98400 27.61600
H  -1.48100 1.58700 22.39100
H  -2.23000 1.64300 23.99400
H  -0.48100 1.37900 23.81600
H  -0.86000 8.54300 21.47800
H  0.46000 10.83300 22.53600
H  1.95000 9.37300 22.05000
H  1.43900 8.10700 20.84900
H  1.79300 7.69500 22.49500
H  -1.92700 11.61200 22.64700
H  -2.39500 10.03900 21.84900
H  -0.69200 10.78300 20.06900
H  -0.91800 12.42600 20.79900
H  -2.31200 11.46600 20.16300
H  0.64400 14.08700 27.59700
H  1.08300 13.65400 25.94100
H  2.23700 13.41000 27.27700
H  -0.30400 10.60300 31.39700
H  3.23100 11.61400 33.24700
H  2.96300 9.86800 33.81100
H  2.30400 11.25900 34.68800

