158

Mg 44.60900 3.61900 47.07800
C  42.58500 6.23500 46.51700
C  41.69500 1.47700 47.11900
C  46.53800 0.87200 47.05100
C  47.34400 5.70100 46.62900
N  42.36100 3.77600 46.76700
C  41.81600 5.05900 46.55100
C  40.30900 4.95400 46.56100
C  40.02100 3.42300 46.95000
C  41.40000 2.86600 47.05500
C  39.06500 3.15900 48.17100
C  39.60000 5.39700 45.21700
C  40.32000 5.56400 43.88400
H  39.93400 6.65200 42.93100
N  44.18300 1.47300 47.10200
C  42.94500 0.82600 47.17900
C  43.16200 -0.62200 47.07100
C  44.57300 -0.84700 47.02300
C  45.18000 0.53900 47.05600
C  42.07200 -1.62200 46.94300
C  45.19600 -2.24500 46.88200
O  44.53500 -3.26800 46.71400
C  46.71400 -2.40700 46.89000
N  46.58900 3.25500 46.68500
C  47.19300 2.09200 46.84100
C  48.74300 2.08900 46.93000
C  48.95600 3.60700 46.75000
C  47.55300 4.24800 46.68100
C  49.38100 1.54500 48.18400
C  49.74800 4.00500 45.55300
C  51.03700 4.79700 45.65200
N  44.90900 5.64700 46.75000
C  46.10200 6.33800 46.65900
C  45.78200 7.70400 46.47800
C  44.39600 7.77900 46.52800
C  43.93100 6.47200 46.52300
C  46.77800 8.83300 46.40200
C  43.22200 8.63000 46.42500
O  43.10700 9.84200 46.38100
C  41.98900 7.68900 46.51900
C  41.03800 7.98100 47.60000
O  41.29900 7.97600 48.79500
O  39.86500 8.24400 46.98500
C  38.92500 8.90300 47.92600
H  40.84000 0.82300 46.93000
H  47.34700 0.13900 47.08400
H  48.20200 6.35400 46.80200
H  39.93600 5.57300 47.37700
H  39.58400 2.84600 46.13500
H  38.55500 2.24500 47.86600
H  38.25300 3.88600 48.19200
H  39.54900 3.07900 49.14400
H  38.89400 6.21700 45.34600
H  38.90100 4.60500 44.94800
H  40.14000 4.66700 43.29100
H  41.39000 5.35400 43.90000
H  41.11600 -1.15200 47.17200
H  42.18100 -2.50200 47.57700
H  41.96900 -1.90600 45.89600
H  46.93000 -3.46100 47.06800
H  47.14000 -1.90500 47.75900
H  47.05800 -2.03400 45.92500
H  49.09900 1.50200 46.08300
H  49.47500 3.97900 47.63300
H  50.06300 2.23600 48.67800
H  49.90800 0.63500 47.89700
H  48.68700 1.33700 48.99900
H  49.02100 4.67300 45.09100
H  49.85900 3.17800 44.85100
H  51.85100 4.32300 45.10400
H  51.38900 4.97700 46.66800
H  50.81900 5.78600 45.24700
H  47.52900 8.70200 45.62300
H  47.35400 8.77500 47.32500
H  46.32100 9.79600 46.17400
H  41.44400 7.84900 45.58900
H  37.98000 9.12500 47.43000
H  39.30400 9.88400 48.21200
H  38.84600 8.35700 48.86700
Mg 0.43400 42.49200 25.96400
C  2.28400 42.68700 29.05200
C  -2.23300 41.34800 27.80000
C  -0.99200 41.84500 23.12500
C  3.36200 43.40700 24.36000
N  0.08600 42.17500 28.26300
C  0.97000 42.32700 29.31000
C  0.16100 42.37900 30.57500
C  -1.31800 41.87700 30.19500
C  -1.15400 41.84400 28.63000
C  -1.73900 40.42800 30.70500
C  0.28300 43.64900 31.38000
C  0.58300 43.56800 32.87600
H  0.36100 42.29400 33.62000
N  -1.34500 41.76100 25.52800
C  -2.31600 41.24900 26.37500
C  -3.48400 40.77800 25.66600
C  -3.09200 40.84000 24.25700
C  -1.75200 41.49800 24.26100
C  -4.73400 40.28400 26.31900
C  -4.02500 40.48200 23.09900
O  -3.54600 40.42000 21.94100
C  -5.39700 39.91300 23.26200
N  1.14700 42.59700 24.02600
C  0.31900 42.38000 23.01400
C  1.00500 42.65600 21.64200
C  2.23900 43.46400 22.08500
C  2.27800 43.13800 23.55500
C  1.35200 41.44800 20.76600
C  2.17000 44.98600 21.95300
C  3.19000 45.60500 20.97200
N  2.43300 42.89400 26.47600
C  3.48900 43.19700 25.71100
C  4.71600 43.36900 26.42000
C  4.27000 43.13000 27.76700
C  2.88400 42.86500 27.75900
C  6.06100 43.71300 25.92600
C  4.71100 43.05600 29.09600
O  5.87600 42.98500 29.54900
C  3.40400 42.82600 30.01700
C  3.56400 41.59800 30.86900
O  3.70800 40.46200 30.46900
O  3.85700 42.08400 32.14800
C  4.38200 40.98300 33.04500
H  -3.10100 41.02800 28.38100
H  -1.42800 41.69400 22.13600
H  4.22200 43.77800 23.79800
H  0.67600 41.58600 31.11800
H  -2.17100 42.54500 30.31600
H  -1.19100 40.17000 31.61100
H  -1.42000 39.77800 29.89000
H  -2.81200 40.32100 30.86700
H  -0.67100 44.15300 31.22600
H  1.08500 44.34800 31.14100
H  -0.02400 44.30800 33.39800
H  1.60100 43.94300 32.99000
H  -4.59300 40.15400 27.39200
H  -5.16300 39.38600 25.87500
H  -5.47300 41.07700 26.20100
H  -6.07400 40.60800 23.75800
H  -5.15100 38.99500 23.79600
H  -5.80200 39.70800 22.27100
H  0.37400 43.35600 21.09400
H  3.17800 43.10000 21.66700
H  0.84100 40.57800 21.17800
H  2.43200 41.32100 20.68600
H  0.87200 41.71600 19.82500
H  2.21200 45.55200 22.88300
H  1.13700 45.13000 21.63800
H  2.64900 46.20100 20.23700
H  3.57400 44.80900 20.33300
H  4.10300 46.00700 21.41000
H  6.74100 43.10200 26.51900
H  6.27900 44.78100 25.90800
H  6.16800 43.25600 24.94200
H  3.20600 43.74700 30.56500
H  4.49200 41.24700 34.09600
H  5.35800 40.63900 32.70200
H  3.70400 40.13300 32.96500

