158

Mg 30.04400 58.90700 40.76400
C  27.34100 56.90200 39.67200
C  32.12100 56.36500 39.66600
C  32.81400 60.92100 40.75200
C  27.94400 61.54500 41.16100
N  29.71400 56.92900 39.75000
C  28.56400 56.32400 39.38500
C  28.79700 55.17000 38.42000
C  30.23600 54.78300 38.80200
C  30.73900 56.10600 39.47900
C  30.26000 53.56300 39.70500
C  28.56100 55.54100 36.92500
C  27.36800 55.08100 36.17100
H  26.62000 56.05200 35.30700
N  32.20100 58.56000 40.42500
C  32.83100 57.49200 39.97700
C  34.31200 57.62000 39.90000
C  34.53000 58.97500 40.28800
C  33.12600 59.57100 40.44200
C  35.30700 56.61200 39.26900
C  35.85100 59.74200 40.54600
O  36.90300 59.10600 40.51800
C  35.94400 61.12300 41.17600
N  30.33800 60.94700 40.90700
C  31.55100 61.52900 41.04500
C  31.43700 63.03700 41.34100
C  29.93000 63.18600 41.46300
C  29.33000 61.83700 41.17000
C  32.31500 63.58500 42.44800
C  29.24400 64.31700 40.55900
C  30.00900 65.60000 40.33000
N  28.06300 59.17200 40.71400
C  27.31400 60.29500 40.95100
C  25.86900 59.88800 40.91800
C  25.88000 58.57100 40.41400
C  27.20100 58.20300 40.24500
C  24.69300 60.82600 41.15100
C  25.02200 57.59100 39.93900
O  23.77900 57.63500 39.96700
C  25.93800 56.37700 39.45600
C  25.53300 55.21300 40.21000
O  25.96400 54.92800 41.28500
O  24.55700 54.52300 39.50200
C  24.06100 53.31600 40.17100
H  32.78700 55.57400 39.31600
H  33.60900 61.66900 40.78600
H  27.28400 62.38700 41.37900
H  28.24300 54.28700 38.74200
H  30.92500 54.61000 37.97500
H  29.27600 53.28700 40.08200
H  30.91700 53.74200 40.55600
H  30.54100 52.70000 39.10100
H  29.48300 55.25800 36.41600
H  28.62300 56.62500 36.83400
H  26.71700 54.56400 36.87600
H  27.71100 54.37500 35.41500
H  36.25100 56.99000 38.87700
H  34.88100 56.21100 38.35000
H  35.41100 55.71000 39.87100
H  35.28700 61.15000 42.04500
H  35.50800 61.83100 40.47100
H  37.00000 61.23600 41.42300
H  31.64300 63.50600 40.37900
H  29.63000 63.43300 42.48200
H  32.96700 62.81000 42.85100
H  31.76800 63.99900 43.29600
H  32.88000 64.41000 42.01400
H  28.21000 64.47400 40.86600
H  29.04500 63.85500 39.59200
H  29.26200 66.38600 40.44200
H  30.44100 65.70300 39.33400
H  30.70900 65.72200 41.15700
H  24.51200 61.24400 40.16100
H  25.09800 61.47400 41.92900
H  23.87800 60.22600 41.55700
H  25.61700 56.17400 38.43400
H  24.06400 53.21500 41.25600
H  24.63100 52.42200 39.91500
H  23.05600 53.13300 39.79100
Mg -4.83900 25.22600 25.30800
C  -3.28900 26.73200 28.01000
C  -6.44000 23.07000 27.44400
C  -5.99300 23.64400 22.59600
C  -2.93200 27.34700 23.19600
N  -4.84700 24.86700 27.41800
C  -4.16700 25.68600 28.37200
C  -4.57800 25.34300 29.75900
C  -5.40900 24.02500 29.57600
C  -5.58300 23.97300 28.07900
C  -4.78000 22.76700 30.18300
C  -5.23300 26.52600 30.51700
C  -4.89100 26.75900 32.01200
H  -4.80700 25.36800 32.75800
N  -6.08300 23.61400 25.05600
C  -6.67500 22.89800 26.03800
C  -7.55300 21.93100 25.46600
C  -7.41300 21.97400 24.03400
C  -6.50700 23.15700 23.83300
C  -8.42700 21.04400 26.29000
C  -8.08500 21.19600 22.89600
O  -7.90000 21.43500 21.70200
C  -8.95800 20.05800 23.22900
N  -4.54500 25.53200 23.13600
C  -5.11000 24.68200 22.26500
C  -4.53300 24.91900 20.83500
C  -3.79000 26.33200 20.95700
C  -3.71800 26.42400 22.50900
C  -3.65600 23.74700 20.32800
C  -4.63100 27.50100 20.33400
C  -4.15500 28.03400 18.98700
N  -3.53700 26.88900 25.51400
C  -2.77200 27.51100 24.58300
C  -1.90000 28.45100 25.24400
C  -2.04400 28.19000 26.62500
C  -3.02500 27.19100 26.71600
C  -1.02200 29.46300 24.52700
C  -1.54800 28.53100 27.93300
O  -0.67100 29.30800 28.36000
C  -2.36300 27.61600 28.86700
C  -1.49400 26.87900 29.94100
O  -1.05400 25.75800 29.81800
O  -1.51000 27.61700 31.08800
C  -0.88700 26.95600 32.23300
H  -7.02900 22.38200 28.05300
H  -6.18600 23.11900 21.65800
H  -2.41400 28.13700 22.65000
H  -3.68100 25.16100 30.35000
H  -6.41700 24.08900 29.98600
H  -5.53200 22.13400 30.65400
H  -4.12800 23.02000 31.01900
H  -4.32100 22.15700 29.40400
H  -6.31700 26.41400 30.54300
H  -5.11100 27.46300 29.97400
H  -5.61400 27.34900 32.57600
H  -3.94200 27.28700 32.10100
H  -8.12300 19.99700 26.30300
H  -9.34600 21.10400 25.70700
H  -8.59700 21.38600 27.31100
H  -8.40600 19.39200 23.89200
H  -9.28300 19.60400 22.29300
H  -9.90600 20.33200 23.69300
H  -5.41700 24.94100 20.19700
H  -2.80300 26.31800 20.49400
H  -4.27600 22.85400 20.40600
H  -2.75100 23.67600 20.93100
H  -3.39400 23.82700 19.27300
H  -4.60700 28.39500 20.95700
H  -5.64300 27.10500 20.24000
H  -4.02600 29.11600 19.03000
H  -5.03400 27.87400 18.36300
H  -3.28500 27.50600 18.59600
H  -1.41600 30.47600 24.61500
H  -0.96300 29.34000 23.44500
H  -0.08100 29.46300 25.07700
H  -3.12400 28.17200 29.41500
H  -0.79800 25.87300 32.14700
H  -1.41000 27.08800 33.18000
H  0.07900 27.45400 32.31200

