158

Mg -1.84200 18.23100 27.02100
C  -2.34200 16.08900 29.66100
C  -2.83900 20.88900 28.82300
C  -1.62600 20.07000 24.17600
C  -1.71200 15.30900 25.01700
N  -2.35400 18.45900 29.01100
C  -2.37900 17.46500 29.97700
C  -2.69400 18.03300 31.36600
C  -3.16300 19.49600 31.07800
C  -2.80100 19.65900 29.56600
C  -4.65000 19.95300 31.49400
C  -1.51400 17.85400 32.34300
C  -1.87800 17.37400 33.74400
H  -0.78400 17.39400 34.81900
N  -2.09000 20.22500 26.56300
C  -2.43000 21.20700 27.44600
C  -2.32000 22.52500 26.79700
C  -1.83300 22.24900 25.46800
C  -1.82500 20.81400 25.38200
C  -2.40900 23.85800 27.48700
C  -1.36400 23.22800 24.37300
O  -1.00000 22.89400 23.29900
C  -1.30900 24.67000 24.73700
N  -1.69400 17.76200 24.95200
C  -1.58900 18.73200 23.97400
C  -1.36300 18.06300 22.53800
C  -1.06600 16.56200 22.95900
C  -1.58500 16.49900 24.37300
C  -2.46300 18.34700 21.44300
C  0.46400 16.03200 22.83400
C  1.59900 16.95700 23.50600
N  -1.97100 16.12200 27.24200
C  -1.84500 15.09500 26.35200
C  -1.80700 13.79700 27.06800
C  -2.04500 14.15300 28.39800
C  -2.15400 15.54300 28.40600
C  -1.58000 12.40900 26.43000
C  -2.17200 13.67300 29.71600
O  -2.17100 12.50400 30.12200
C  -2.33600 14.86100 30.63800
C  -1.24300 14.69200 31.60400
O  -0.15400 15.07500 31.33000
O  -1.66600 14.04000 32.73800
C  -0.46700 13.59500 33.52700
H  -3.03000 21.77300 29.43600
H  -1.48000 20.57800 23.22100
H  -1.51700 14.43200 24.39600
H  -3.49900 17.41100 31.75600
H  -2.58500 20.25200 31.60800
H  -5.11400 19.12700 32.03300
H  -5.22300 20.40400 30.68400
H  -4.56900 20.66100 32.31900
H  -1.01500 18.80300 32.53600
H  -0.74000 17.24400 31.87700
H  -2.19000 16.33100 33.69000
H  -2.77300 17.83600 34.16000
H  -2.58700 23.75500 28.55800
H  -3.19800 24.46000 27.03900
H  -1.54200 24.50900 27.37500
H  -0.55600 24.67700 25.52500
H  -2.33400 24.83800 25.06600
H  -1.09700 25.29800 23.87100
H  -0.47900 18.49200 22.06700
H  -1.67500 15.99600 22.25500
H  -3.30800 17.66200 21.50300
H  -2.09900 18.39800 20.41700
H  -2.83100 19.32300 21.76100
H  0.64700 15.95200 21.76300
H  0.50200 15.15400 23.47900
H  1.19500 17.94400 23.73200
H  2.55200 16.95900 22.97800
H  1.77900 16.55000 24.50100
H  -2.52000 12.04400 26.01700
H  -1.25900 11.62800 27.12000
H  -0.82900 12.52900 25.64900
H  -3.30900 14.71400 31.10600
H  -0.45900 14.14100 34.47000
H  0.51700 13.73100 33.07700
H  -0.61500 12.52900 33.70300
Mg 41.60100 41.20800 26.44200
C  40.91000 43.59700 28.83200
C  42.48800 39.07200 29.09900
C  42.11500 38.86200 24.19200
C  40.85700 43.51300 23.90200
N  41.87600 41.44300 28.70100
C  41.36500 42.41900 29.44700
C  41.48500 42.15100 30.93100
C  42.39000 40.87200 30.94000
C  42.28900 40.42800 29.49200
C  43.88300 41.07900 31.47100
C  40.19700 41.99800 31.77600
C  40.19200 42.75600 33.07200
H  39.47100 42.11300 34.34000
N  42.36500 39.32400 26.60800
C  42.51700 38.58600 27.77200
C  42.97200 37.29400 27.33800
C  43.02300 37.25500 25.91800
C  42.42000 38.51100 25.50300
C  43.31600 36.21200 28.35000
C  43.55000 36.15900 24.96200
O  43.70000 36.27500 23.75000
C  43.86700 34.79200 25.50600
N  41.60200 41.18100 24.32800
C  41.76800 40.01800 23.63400
C  41.46300 40.22400 22.11500
C  41.09000 41.77300 22.08600
C  41.24800 42.23600 23.52400
C  42.68700 39.76900 21.19200
C  39.70600 41.93500 21.53400
C  38.52700 41.91000 22.48700
N  41.03000 43.13700 26.33200
C  40.73100 43.97000 25.24700
C  40.35000 45.28100 25.69400
C  40.34300 45.22100 27.14200
C  40.76000 43.88400 27.45300
C  40.02400 46.56400 24.85800
C  39.93700 45.86100 28.36500
O  39.30600 46.90300 28.57400
C  40.33000 44.82200 29.55400
C  41.31600 45.52500 30.43200
O  42.39400 46.01700 30.14800
O  40.77000 45.68800 31.63300
C  41.50500 46.52700 32.57000
H  42.64700 38.32700 29.88100
H  42.01500 38.13400 23.38400
H  40.52300 44.25500 23.17400
H  42.07700 42.98800 31.30300
H  41.84900 40.13000 31.52700
H  44.00000 42.16200 31.44900
H  44.50400 40.54000 30.75600
H  44.01700 40.79500 32.51500
H  39.82900 40.97300 31.82500
H  39.40200 42.46000 31.19100
H  39.77400 43.75300 32.93600
H  41.21200 42.95400 33.40000
H  42.77000 36.33600 29.28600
H  44.37700 36.14900 28.58900
H  42.94600 35.22900 28.06000
H  44.83900 34.92600 25.98000
H  43.93600 34.09600 24.67100
H  43.03500 34.39600 26.08900
H  40.58600 39.60700 21.92200
H  41.82100 42.27500 21.45200
H  42.55900 38.74100 20.85300
H  43.61000 39.74000 21.77100
H  42.79600 40.49900 20.39000
H  39.47700 41.10400 20.86600
H  39.68500 42.89900 21.02500
H  38.90200 41.64900 23.47700
H  37.84500 41.07800 22.31200
H  38.07100 42.89900 22.52600
H  40.24100 47.46700 25.42800
H  38.96200 46.78100 24.74100
H  40.77200 46.60300 24.06600
H  39.40300 44.57000 30.06800
H  41.90800 47.45000 32.15200
H  42.36700 45.89400 32.78000
H  40.99300 46.70800 33.51500

