158

Mg 47.35300 25.63300 27.84700
C  48.46400 27.70100 30.41400
C  46.81500 23.15000 30.15300
C  46.94300 23.53500 25.36200
C  48.54800 28.09900 25.63100
N  47.56700 25.50900 29.97900
C  47.96000 26.53700 30.87600
C  47.66400 26.11300 32.35800
C  47.39800 24.61700 32.20100
C  47.22300 24.35900 30.66100
C  48.53900 23.79500 32.89700
C  46.69400 27.01100 33.26800
C  47.34900 27.55900 34.49800
H  46.39000 28.07000 35.63600
N  46.95000 23.63800 27.74800
C  46.64400 22.81900 28.80700
C  46.01500 21.59700 28.32600
C  46.08800 21.67600 26.89600
C  46.76900 22.92900 26.62000
C  45.45700 20.47900 29.27700
C  45.71300 20.64000 25.89000
O  45.87600 20.69500 24.63300
C  45.12000 19.33900 26.36200
N  47.69600 25.79400 25.79000
C  47.44400 24.79700 24.90800
C  47.55700 25.26100 23.48300
C  48.02600 26.71900 23.50600
C  47.97100 26.94300 25.03600
C  48.25600 24.30000 22.38800
C  47.19000 27.76100 22.72500
C  47.94200 28.50900 21.61500
N  48.24500 27.49200 27.90400
C  48.69200 28.35400 26.97900
C  49.24500 29.61900 27.53500
C  49.09600 29.41300 28.89100
C  48.56700 28.02200 29.08400
C  49.87200 30.81100 26.84500
C  49.22900 29.99400 30.20000
O  49.67300 31.08200 30.51500
C  48.84600 28.89100 31.24900
C  50.08700 28.83600 32.11300
O  51.12800 28.29100 31.80800
O  49.82100 29.27300 33.39500
C  50.87100 29.05100 34.41900
H  46.62400 22.37700 30.90100
H  46.66300 22.94100 24.48900
H  48.97000 28.77900 24.88800
H  48.66200 26.33300 32.73800
H  46.43500 24.33900 32.63100
H  48.01100 23.04500 33.48700
H  49.01900 24.37600 33.68500
H  49.11600 23.25200 32.14900
H  45.92700 26.36300 33.69200
H  46.15000 27.80100 32.74900
H  47.95000 28.41800 34.19900
H  48.06600 26.90000 34.98700
H  45.52200 20.78300 30.32200
H  46.08300 19.59200 29.38200
H  44.41000 20.24400 29.08800
H  45.85200 18.77400 26.93800
H  44.93100 18.79300 25.43800
H  44.17600 19.51800 26.87700
H  46.51300 25.37000 23.18500
H  49.05800 26.85700 23.18400
H  49.01100 23.73100 22.92900
H  48.63800 25.02700 21.67100
H  47.43000 23.68700 22.02900
H  46.69400 28.50000 23.35500
H  46.44400 27.24300 22.12300
H  48.17200 27.80000 20.81900
H  48.78200 29.01700 22.08800
H  47.31100 29.34200 21.30500
H  49.32900 31.02500 25.92500
H  50.88100 30.46900 26.61600
H  49.91600 31.73200 27.42800
H  48.06500 29.34400 31.86000
H  50.57400 28.27700 35.12700
H  51.03400 29.93800 35.03000
H  51.89800 28.97600 34.06300
Mg 49.52900 45.95300 43.20300
C  46.22500 46.82000 42.34400
C  49.04700 43.00000 41.35300
C  52.79000 45.47000 43.41200
C  50.01700 49.35200 44.08700
N  47.78500 45.06900 41.86600
C  46.57900 45.57700 41.77700
C  45.73500 44.71600 40.87300
C  46.63800 43.40400 40.65100
C  47.87300 43.80900 41.33100
C  46.07300 42.10300 41.20100
C  45.17700 45.34700 39.60700
C  43.70200 45.17000 39.24100
H  43.31800 44.90400 37.76800
N  50.73100 44.36800 42.56900
C  50.34300 43.19600 41.93000
C  51.55100 42.34500 41.69900
C  52.60300 42.99600 42.38300
C  52.10000 44.36100 42.79200
C  51.47500 41.05100 40.90600
C  53.99000 42.41800 42.74700
O  54.15700 41.22100 42.49800
C  55.01300 43.19000 43.27700
N  51.18900 47.30700 43.65200
C  52.41000 46.76800 43.85500
C  53.33400 47.92600 44.41200
C  52.33200 49.12300 44.56300
C  51.10900 48.56700 43.96400
C  54.08300 47.61600 45.73000
C  52.81300 50.51200 43.96200
C  53.36100 51.63200 44.92200
N  48.34800 47.70900 43.29500
C  48.65200 48.96500 43.75100
C  47.45900 49.75600 43.84000
C  46.47400 48.96300 43.25800
C  47.07300 47.75400 42.89700
C  47.38300 51.02600 44.50700
C  45.02600 48.86800 42.92100
O  44.11600 49.69200 43.02500
C  44.82800 47.47600 42.20800
C  43.83100 46.71900 42.96700
O  43.82200 46.56600 44.17900
O  42.93300 46.09600 42.14800
C  42.07400 45.11800 42.80200
H  48.88800 41.96500 41.04400
H  53.87600 45.35800 43.38200
H  50.17900 50.36500 44.46000
H  44.91300 44.33700 41.48000
H  46.84300 43.30600 39.58500
H  44.98500 42.10000 41.26000
H  46.43000 41.92900 42.21600
H  46.35500 41.29500 40.52600
H  45.82600 45.13900 38.75600
H  45.34000 46.42000 39.70100
H  43.07400 46.00900 39.54000
H  43.37600 44.26100 39.74800
H  52.16000 40.28100 41.26000
H  51.55800 41.33100 39.85600
H  50.47600 40.64300 41.05600
H  54.86200 43.65400 44.25100
H  55.32400 43.97700 42.59100
H  55.89300 42.55100 43.35200
H  54.08600 48.26500 43.70000
H  52.13400 49.32700 45.61500
H  53.88900 46.54600 45.81100
H  53.60100 48.13800 46.55600
H  55.14700 47.84800 45.68300
H  52.04800 50.97600 43.33900
H  53.57900 50.28800 43.22000
H  53.19400 51.22100 45.91700
H  52.74500 52.51800 44.76500
H  54.38900 51.90800 44.68600
H  48.06400 51.78400 44.11800
H  47.62200 50.96300 45.56900
H  46.37100 51.42400 44.42700
H  44.53000 47.67300 41.17800
H  41.24700 45.66400 43.25700
H  42.61900 44.45500 43.47300
H  41.50500 44.60800 42.02400

