158

Mg 35.19400 2.68500 29.70400
C  33.17400 3.85300 32.17500
C  37.83000 2.51900 31.96900
C  37.22200 1.84400 27.25800
C  32.55100 2.86500 27.50600
N  35.44200 3.14600 31.83200
C  34.42600 3.61300 32.58600
C  34.89200 3.71200 34.10900
C  36.47600 3.40900 33.97200
C  36.58200 2.89200 32.54900
C  37.38800 4.68100 34.07500
C  34.18400 2.80000 35.21300
C  34.11300 3.36700 36.64700
H  34.85900 4.72700 36.99100
N  37.32700 2.24800 29.54000
C  38.18600 2.20500 30.60100
C  39.49800 1.72500 30.12300
C  39.38500 1.59600 28.68000
C  37.93700 1.91600 28.45600
C  40.74200 1.48400 30.97700
C  40.43000 1.11000 27.62000
O  40.15100 1.06600 26.41700
C  41.80800 0.79500 28.12100
N  35.00400 2.61900 27.59700
C  35.90000 2.08900 26.88600
C  35.47100 1.95400 25.36800
C  33.93100 1.88300 25.55200
C  33.82900 2.50400 26.97700
C  36.06900 3.09600 24.51000
C  33.37500 0.37700 25.58500
C  32.10800 0.13500 24.81600
N  33.28500 3.33600 29.68900
C  32.32300 3.42700 28.77300
C  31.08400 3.92400 29.31300
C  31.35200 4.16000 30.65300
C  32.74800 3.79000 30.84400
C  29.84000 4.06600 28.53700
C  30.76900 4.72400 31.91200
O  29.68700 5.26100 32.25200
C  31.96200 4.38300 32.91700
C  32.21300 5.68500 33.55500
O  32.89800 6.57700 33.07200
O  31.55900 5.86200 34.79200
C  31.37600 7.19500 35.23900
H  38.66600 2.57100 32.67100
H  37.77800 1.53100 26.37200
H  31.70400 2.73300 26.83000
H  34.62600 4.75300 34.28800
H  36.83300 2.58500 34.58900
H  36.76300 5.51600 33.75600
H  38.18500 4.72000 33.33300
H  37.84900 4.77100 35.05900
H  34.65100 1.81800 35.28500
H  33.16100 2.57200 34.91300
H  34.43600 2.55200 37.29500
H  33.03500 3.44000 36.78900
H  40.46700 1.54900 32.03000
H  41.61200 2.05400 30.65400
H  40.95300 0.42000 30.86800
H  41.88400 0.15800 29.00200
H  42.33500 1.72100 28.34900
H  42.44900 0.32400 27.37600
H  35.84300 0.98900 25.02300
H  33.30300 2.50300 24.91200
H  35.22800 3.73100 24.23300
H  36.71700 2.76700 23.69700
H  36.68700 3.66200 25.20600
H  33.22100 0.20100 26.64900
H  34.05100 -0.40100 25.23300
H  31.28600 0.32200 25.50700
H  32.11900 -0.88200 24.42600
H  32.08000 0.89500 24.03500
H  29.51000 3.08800 28.18700
H  30.10300 4.72400 27.70900
H  29.03900 4.50400 29.13100
H  31.56400 3.69200 33.66000
H  32.02400 7.39200 36.09300
H  30.32100 7.09200 35.49600
H  31.55700 7.96100 34.48600
Mg 47.45700 16.69200 28.48000
C  45.52800 16.47400 31.53600
C  49.94000 18.18400 30.25000
C  48.95600 17.09600 25.61800
C  44.60600 15.44700 26.89000
N  47.60700 17.26600 30.62800
C  46.77400 17.08500 31.70700
C  47.43100 17.64800 33.02000
C  48.58900 18.49300 32.40600
C  48.70500 17.95200 31.00400
C  48.41900 20.02500 32.54800
C  47.84000 16.54400 34.02900
C  47.24600 16.70300 35.50300
H  47.00900 18.21000 35.92100
N  49.26500 17.29900 28.00400
C  50.20400 17.80800 28.86900
C  51.47400 17.88300 28.17200
C  51.21400 17.63900 26.81000
C  49.75900 17.26600 26.80600
C  52.82300 18.11800 28.88100
C  52.16400 17.60900 25.56100
O  51.74600 17.34100 24.42600
C  53.60300 18.02800 25.75900
N  46.87100 16.30600 26.59600
C  47.63800 16.69700 25.52500
C  46.91400 16.50200 24.19800
C  45.61400 15.72200 24.59900
C  45.70400 15.80000 26.10300
C  46.62200 17.91400 23.59400
C  45.62700 14.21700 24.02200
C  44.44300 13.86400 23.13200
N  45.48100 15.95000 29.03500
C  44.47900 15.48100 28.28500
C  43.38300 14.99300 29.07900
C  43.84500 15.32400 30.37800
C  45.07900 15.96300 30.25300
C  42.07200 14.41000 28.61500
C  43.43600 15.32100 31.75200
O  42.34400 14.87700 32.18500
C  44.52800 16.07600 32.58400
C  43.82500 17.17200 33.32600
O  43.56000 18.28600 32.84500
O  43.59000 16.84800 34.65800
C  42.83800 17.75600 35.56400
H  50.83400 18.60800 30.71200
H  49.39100 17.26800 24.63200
H  43.71000 15.13400 26.35100
H  46.72800 18.33600 33.49000
H  49.51500 18.26100 32.93300
H  47.40100 20.28500 32.84000
H  48.56100 20.52600 31.59100
H  49.12200 20.42100 33.28100
H  48.92400 16.45200 34.09000
H  47.38700 15.61900 33.67100
H  47.85300 16.27000 36.29800
H  46.32500 16.12600 35.59800
H  53.49500 17.36000 28.47900
H  52.70300 17.77600 29.90900
H  53.13800 19.15900 28.80100
H  53.52500 18.96900 26.30400
H  54.00700 18.23500 24.76800
H  54.28200 17.42200 26.35700
H  47.61600 15.93400 23.58800
H  44.73200 16.23100 24.21000
H  47.02400 17.98100 22.58300
H  47.28800 18.66100 24.02700
H  45.60300 18.30000 23.56600
H  45.61700 13.58800 24.91200
H  46.53000 14.09800 23.42300
H  44.76100 13.32200 22.24200
H  44.02200 14.80400 22.77300
H  43.81600 13.19600 23.72200
H  42.29300 13.35700 28.44000
H  41.74600 14.88100 27.68700
H  41.34900 14.45700 29.43000
H  44.91700 15.43600 33.37600
H  42.85100 17.34900 36.57500
H  41.93100 18.11000 35.07400
H  43.36400 18.70700 35.65200

