158

Mg 2.06100 -0.96200 43.36200
C  5.45900 -0.69600 42.89300
C  1.48300 1.66600 41.33500
C  -1.37400 -1.50900 43.75400
C  2.61300 -3.96000 45.10300
N  3.29100 0.44600 42.33800
C  4.72000 0.33400 42.23800
C  5.24400 1.41200 41.37600
C  4.00700 2.28000 40.94700
C  2.90500 1.42600 41.53000
C  4.00500 3.76400 41.51800
C  6.06300 0.84800 40.14300
C  7.30400 1.68000 39.66000
H  7.12800 2.72700 38.51500
N  0.32100 0.00700 42.71600
C  0.30400 1.06400 41.88700
C  -1.04000 1.51100 41.74600
C  -1.91200 0.63800 42.48200
C  -0.99600 -0.29900 43.11800
C  -1.45100 2.78500 40.94400
C  -3.41600 0.72800 42.48900
O  -4.03800 1.56300 41.84000
C  -4.26000 -0.33300 43.34200
N  0.73300 -2.57700 44.37700
C  -0.63300 -2.58100 44.31400
C  -1.21700 -3.91200 44.82000
C  0.14400 -4.57400 45.36700
C  1.23600 -3.63800 44.92100
C  -2.44700 -3.95800 45.77700
C  0.35700 -6.05300 44.85200
C  1.07600 -6.95600 45.85200
N  3.64800 -2.14900 43.90100
C  3.76700 -3.29500 44.64700
C  5.08800 -3.70500 44.76100
C  5.86400 -2.71000 44.08300
C  4.90500 -1.79500 43.59500
C  5.54300 -4.88300 45.49100
C  7.13100 -2.25200 43.73800
O  8.25800 -2.60300 44.01800
C  6.97400 -0.88700 42.93300
C  7.65800 0.06200 43.82100
O  7.68100 0.06800 45.03900
O  8.32800 0.92700 43.03700
C  9.17300 1.95300 43.67800
H  1.30300 2.52100 40.68000
H  -2.42500 -1.72400 43.95900
H  2.84500 -4.88900 45.62800
H  5.77400 2.04800 42.08400
H  3.91200 2.37200 39.86600
H  3.68000 4.46600 40.75000
H  5.01400 4.12300 41.72300
H  3.48800 3.98000 42.45300
H  5.49100 0.80200 39.21700
H  6.34100 -0.19600 40.29200
H  8.04900 0.90400 39.48200
H  7.53500 2.31600 40.51400
H  -2.07100 3.49100 41.49700
H  -1.94200 2.52500 40.00600
H  -0.54000 3.31500 40.66700
H  -5.29600 -0.01300 43.23200
H  -4.22700 -0.19100 44.42300
H  -4.16600 -1.35500 42.97600
H  -1.49800 -4.45500 43.91700
H  0.01400 -4.58100 46.44900
H  -2.75700 -2.92700 45.94400
H  -2.26900 -4.50800 46.70100
H  -3.30900 -4.46900 45.34800
H  0.99800 -6.02600 43.97000
H  -0.54100 -6.53100 44.46100
H  0.41700 -7.80400 46.03800
H  1.27600 -6.49500 46.81900
H  1.95500 -7.38300 45.36900
H  5.49600 -5.77200 44.86400
H  5.02100 -4.99100 46.44200
H  6.61400 -4.91400 45.69000
H  7.58900 -1.08400 42.05500
H  8.56400 2.41400 44.45600
H  9.61000 2.65300 42.96600
H  10.01100 1.38700 44.08500
Mg 47.46400 34.55700 27.54900
C  45.80200 32.75400 30.21800
C  47.43500 37.38800 29.58100
C  48.16400 36.47400 24.89000
C  46.70400 31.84800 25.49600
N  46.80400 34.92100 29.73800
C  46.19000 34.05100 30.62800
C  46.16400 34.74300 31.92700
C  46.34600 36.23700 31.63600
C  46.86800 36.21600 30.20100
C  45.08600 37.12400 31.77600
C  47.21500 34.12000 32.88700
C  46.70200 33.89400 34.34700
H  47.38500 34.82100 35.40400
N  47.95900 36.62800 27.32900
C  48.00300 37.61400 28.26500
C  48.48400 38.84300 27.73700
C  48.87600 38.52800 26.35200
C  48.21900 37.24500 26.12200
C  48.45600 40.06300 28.55600
C  49.58100 39.38400 25.29000
O  49.83900 38.98100 24.14600
C  49.98300 40.71400 25.72800
N  47.39300 34.18700 25.50500
C  47.73300 35.20400 24.59300
C  47.87000 34.59300 23.16600
C  47.54400 33.08400 23.36000
C  47.19400 33.00800 24.86800
C  47.08200 35.28900 22.02000
C  48.83200 32.16000 23.03600
C  48.47300 30.81000 22.41500
N  46.50000 32.71100 27.70800
C  46.30400 31.70600 26.81200
C  45.79200 30.54200 27.44000
C  45.49600 30.93800 28.74200
C  46.00000 32.24200 28.90000
C  45.51800 29.16500 26.82900
C  44.96700 30.46600 30.02800
O  44.52900 29.33900 30.25500
C  45.02100 31.58700 30.98800
C  45.64300 31.03800 32.27500
O  46.83400 30.77700 32.50000
O  44.58600 30.86900 33.18700
C  44.95000 30.24600 34.44700
H  47.49400 38.23900 30.26300
H  48.44600 36.99700 23.97400
H  46.57800 31.07300 24.73800
H  45.14000 34.48300 32.19100
H  47.20100 36.71800 32.11200
H  44.54500 37.22200 30.83500
H  45.38800 38.09800 32.16000
H  44.35400 36.57200 32.36500
H  47.95700 34.86500 33.17400
H  47.68100 33.24100 32.44100
H  46.92100 32.86700 34.63800
H  45.62700 34.07300 34.33900
H  49.05800 39.81700 29.43000
H  47.40800 40.20900 28.82100
H  48.89600 40.90800 28.02500
H  50.77600 40.68800 26.47500
H  49.07700 41.28100 25.94200
H  50.35100 41.28300 24.87500
H  48.86600 34.74800 22.75300
H  46.72200 32.79200 22.70600
H  46.73400 36.25800 22.37600
H  46.21200 34.75800 21.63400
H  47.69900 35.64400 21.19500
H  49.25500 32.03400 24.03300
H  49.50800 32.66300 22.34400
H  47.43600 30.50800 22.27200
H  48.89700 30.01200 23.02400
H  48.96500 30.73200 21.44500
H  46.44800 28.82500 26.37300
H  44.73700 29.41200 26.11100
H  44.99600 28.42200 27.43100
H  43.96300 31.78500 31.16100
H  44.10800 30.49400 35.09400
H  45.92600 30.59400 34.78500
H  44.98800 29.16500 34.30900

