158

Mg 2.15700 -2.49600 44.60300
C  5.14600 -0.95900 43.74500
C  0.44600 -0.11100 42.86800
C  -0.57900 -4.43500 45.02700
C  4.05100 -5.32200 45.71600
N  2.72100 -0.94800 43.17600
C  4.01600 -0.42400 43.09400
C  4.05900 0.80000 42.23700
C  2.50200 1.07500 41.98000
C  1.83600 -0.09100 42.68000
C  2.09400 2.40100 42.44700
C  4.81700 0.81900 40.85600
C  6.01200 1.84500 40.67400
H  6.76600 1.34400 39.50500
N  0.22000 -2.24600 44.11500
C  -0.34800 -1.18300 43.38300
C  -1.78600 -1.35400 43.23000
C  -2.08900 -2.63100 43.84000
C  -0.81700 -3.16700 44.40100
C  -2.60600 -0.45100 42.27600
C  -3.48200 -3.40100 43.79700
O  -4.48700 -2.84700 43.35000
C  -3.62700 -4.75100 44.32900
N  1.73700 -4.55800 45.47100
C  0.50400 -5.09600 45.42800
C  0.50100 -6.50000 46.03800
C  1.99400 -6.81400 46.02600
C  2.65200 -5.50700 45.81000
C  -0.27200 -6.78300 47.35000
C  2.52900 -7.91500 45.00600
C  3.49800 -8.94400 45.64300
N  4.22100 -3.03200 44.89300
C  4.79300 -4.18500 45.33500
C  6.26100 -4.05200 45.19800
C  6.48300 -2.74100 44.62500
C  5.20600 -2.19400 44.46200
C  7.21900 -5.21200 45.53800
C  7.45700 -1.81400 44.20500
O  8.66900 -1.87500 44.26300
C  6.61500 -0.56600 43.71700
C  7.10200 0.37700 44.77300
O  7.02800 0.15000 45.97400
O  7.25300 1.60600 44.18700
C  7.59400 2.62300 45.23400
H  -0.06900 0.76800 42.47600
H  -1.44500 -5.07400 45.21300
H  4.59400 -6.24100 45.95000
H  4.43100 1.56600 42.91700
H  2.30600 0.91800 40.91900
H  2.89800 3.13700 42.44800
H  1.72600 2.38600 43.47300
H  1.23100 2.81000 41.92300
H  4.10300 1.13800 40.09700
H  5.16100 -0.17900 40.58400
H  6.65400 1.82800 41.55500
H  5.66100 2.85300 40.45400
H  -2.80400 -1.04900 41.38600
H  -2.13600 0.51100 42.07200
H  -3.61100 -0.28200 42.66200
H  -4.63100 -5.09200 44.07700
H  -3.57300 -4.70600 45.41600
H  -2.92200 -5.47200 43.91400
H  0.06500 -7.10900 45.24500
H  2.22100 -7.05500 47.06400
H  0.41300 -7.02700 48.16200
H  -1.02800 -7.56600 47.29200
H  -0.70600 -5.82500 47.63500
H  3.02400 -7.41100 44.17600
H  1.70700 -8.41900 44.49900
H  3.39200 -9.99600 45.37500
H  3.51200 -8.96800 46.73300
H  4.48200 -8.63900 45.28800
H  8.21600 -5.02700 45.13800
H  6.92200 -6.14100 45.05200
H  7.15600 -5.22100 46.62600
H  6.99300 -0.23600 42.74900
H  6.96200 3.50400 45.35100
H  8.53300 3.08400 44.93000
H  7.85500 2.21100 46.20900
Mg -2.65000 35.33900 26.87700
C  -3.99200 33.33000 29.37200
C  -1.02200 37.24300 29.19400
C  -1.39900 37.20900 24.36900
C  -4.57800 33.63800 24.57200
N  -2.55200 35.29100 28.99800
C  -3.21100 34.40900 29.86100
C  -2.83500 34.72800 31.34300
C  -1.93500 35.95600 31.22100
C  -1.81300 36.25400 29.70000
C  -2.41300 37.19000 32.07900
C  -2.20300 33.56600 32.20700
C  -2.97600 33.08100 33.42100
H  -2.26800 32.84700 34.79400
N  -1.35800 36.96200 26.79700
C  -0.77600 37.64500 27.86000
C  0.31500 38.41300 27.32100
C  0.27900 38.41100 25.92000
C  -0.85800 37.48100 25.64000
C  1.31100 39.13800 28.22900
C  1.18600 39.06500 24.89600
O  1.06100 38.98800 23.70600
C  2.43200 39.77300 25.37500
N  -3.17400 35.52700 24.73700
C  -2.44400 36.31000 23.90700
C  -3.01400 36.30700 22.48600
C  -3.82100 35.01800 22.49200
C  -3.90200 34.66400 23.98000
C  -3.87000 37.57500 22.14500
C  -3.09300 33.90200 21.76500
C  -3.21700 33.91700 20.26200
N  -4.04900 33.81800 26.91800
C  -4.69300 33.12500 25.89600
C  -5.39300 32.01900 26.41600
C  -5.16300 32.06100 27.75700
C  -4.30800 33.15400 28.03900
C  -6.15800 31.06500 25.66800
C  -5.53700 31.44000 28.91200
O  -6.27000 30.46200 29.07000
C  -4.73900 32.22100 30.11900
C  -5.77400 32.84200 31.02100
O  -6.29300 33.87400 30.84500
O  -5.89800 32.09500 32.22000
C  -6.89700 32.68800 33.19700
H  -0.37700 37.61400 29.99300
H  -0.92000 37.81700 23.59900
H  -5.13000 33.13100 23.77800
H  -3.81200 34.98600 31.75100
H  -0.89600 35.77100 31.49300
H  -3.11500 36.94500 32.87600
H  -2.79800 37.90400 31.35100
H  -1.48600 37.53300 32.53900
H  -1.20000 33.71100 32.60900
H  -2.07200 32.74900 31.49700
H  -3.34200 32.06400 33.27400
H  -3.89200 33.66500 33.51700
H  0.95900 40.13900 27.97800
H  2.35500 39.13000 27.91500
H  1.23000 38.93800 29.29800
H  2.01400 40.64000 25.88700
H  3.06800 40.09700 24.55100
H  3.00800 39.06700 25.97300
H  -2.21200 36.29200 21.74800
H  -4.78400 35.08100 21.98600
H  -4.90700 37.50500 22.47400
H  -3.65100 37.70300 21.08400
H  -3.56200 38.44700 22.72200
H  -3.62300 33.00300 22.07800
H  -2.06700 33.79700 22.12100
H  -3.56800 34.88100 19.89500
H  -3.87900 33.10000 19.97700
H  -2.18600 33.72700 19.96400
H  -6.23600 31.13000 24.58300
H  -7.09700 30.94200 26.20700
H  -5.58000 30.14600 25.76200
H  -3.95800 31.65900 30.63200
H  -7.82200 32.86200 32.64800
H  -6.56300 33.58500 33.71900
H  -7.11800 32.04900 34.05100

