158

Mg 34.98800 48.21800 26.24100
C  35.80100 46.18500 29.07900
C  33.71000 50.48500 28.38100
C  34.46800 50.25700 23.59000
C  35.95100 45.58500 24.22200
N  34.78900 48.32200 28.48700
C  35.22200 47.42600 29.45100
C  35.23800 48.03300 30.79200
C  34.13200 49.18300 30.59600
C  34.17600 49.35900 29.08100
C  32.71700 48.81400 31.15500
C  36.63900 48.52700 31.24500
C  36.86200 48.55100 32.73200
H  35.75300 48.85700 33.64700
N  34.22200 50.18400 26.01700
C  33.70300 50.91300 27.03000
C  33.41000 52.25800 26.46000
C  33.60900 52.18800 25.02500
C  34.13300 50.85900 24.80200
C  32.84700 53.35200 27.34500
C  33.43000 53.26200 23.99200
O  33.87500 53.14400 22.83000
C  32.78600 54.52500 24.47900
N  35.18000 48.01700 24.19900
C  34.88800 48.95200 23.26200
C  35.12800 48.35500 21.89300
C  35.64700 46.88400 22.10100
C  35.55900 46.79500 23.61300
C  33.90500 48.63500 20.97000
C  37.08200 46.65600 21.50100
C  37.16700 46.20800 20.05400
N  35.57100 46.16000 26.51900
C  36.06900 45.32600 25.59000
C  36.66700 44.16100 26.30900
C  36.56500 44.47700 27.63000
C  35.84300 45.70600 27.76400
C  37.22400 42.81500 25.74700
C  36.80500 43.97400 28.98700
O  37.27000 42.86700 29.36700
C  36.40000 45.12600 29.98600
C  35.46300 44.73700 31.06700
O  34.39000 44.18900 30.96200
O  35.95200 45.07900 32.30500
C  35.12300 44.53500 33.42200
H  33.15500 51.13000 29.06500
H  34.13700 50.80800 22.70700
H  36.23300 44.72400 23.61200
H  34.77000 47.36700 31.51700
H  34.49500 49.98600 31.23700
H  32.82200 47.77300 31.46000
H  31.98600 48.77100 30.34700
H  32.31700 49.56000 31.84200
H  36.83000 49.50000 30.79000
H  37.41100 47.97500 30.70800
H  37.66900 49.23800 32.98600
H  37.32000 47.60100 33.00900
H  32.73800 52.91600 28.33800
H  31.80900 53.60000 27.12500
H  33.50600 54.21500 27.44100
H  33.32000 54.83300 25.37800
H  31.76300 54.39400 24.83300
H  32.86900 55.24300 23.66400
H  35.86800 48.96700 21.37900
H  34.98100 46.14600 21.65500
H  33.75000 49.70500 20.83300
H  33.01900 48.14100 21.36900
H  34.07500 48.15600 20.00600
H  37.46100 45.85700 22.13900
H  37.72900 47.52900 21.58100
H  36.25200 46.40100 19.49500
H  37.39200 45.15300 20.20800
H  38.00700 46.71700 19.58100
H  37.75700 42.26800 26.52500
H  37.80500 42.92900 24.83200
H  36.33700 42.19600 25.61200
H  37.33500 45.48700 30.41600
H  34.89500 43.49800 33.17500
H  34.21300 45.13000 33.49700
H  35.76200 44.60000 34.30300
Mg -12.28800 38.48800 42.19100
C  -10.00500 35.89000 41.22100
C  -10.70100 40.56500 39.95200
C  -14.65400 40.49800 42.80900
C  -14.32300 35.72400 43.67300
N  -10.55300 38.14700 40.74600
C  -9.73300 37.05300 40.56100
C  -8.58800 37.34100 39.52700
C  -8.75300 38.92200 39.25600
C  -10.08100 39.26400 40.01700
C  -7.54000 39.86800 39.78800
C  -8.72900 36.37900 38.25200
C  -7.75800 35.16900 38.23700
H  -7.03200 34.97000 36.93700
N  -12.66900 40.33700 41.52500
C  -11.84600 41.08500 40.65500
C  -12.40400 42.42400 40.68500
C  -13.55800 42.42800 41.45800
C  -13.66500 41.04900 41.97000
C  -11.71400 43.63100 39.95900
C  -14.36900 43.66300 41.78500
O  -14.20600 44.68600 41.19200
C  -15.37100 43.79400 43.02300
N  -14.32500 38.04100 43.01100
C  -14.98100 39.16000 43.21800
C  -16.40800 38.82300 43.62400
C  -16.41200 37.25600 43.86800
C  -14.93300 36.98900 43.50100
C  -16.90200 39.70600 44.79400
C  -17.42200 36.39800 43.09200
C  -18.12400 35.23000 43.97200
N  -12.14700 36.33200 42.54000
C  -13.01900 35.39300 43.19400
C  -12.32500 34.10900 43.32000
C  -11.13900 34.30000 42.59600
C  -11.09000 35.63100 42.07700
C  -12.84200 32.89200 43.98200
C  -9.90300 33.64400 42.26500
O  -9.42100 32.55900 42.62000
C  -9.20800 34.65200 41.25800
C  -7.78700 34.75300 41.71400
O  -6.92800 34.01500 41.23500
O  -7.71100 35.68200 42.75200
C  -6.45000 35.89200 43.42000
H  -10.14600 41.31700 39.38800
H  -15.43400 41.24600 42.95800
H  -14.88900 35.00800 44.27200
H  -7.69300 37.01600 40.05600
H  -8.88400 39.06500 38.18300
H  -6.74600 39.20500 40.13200
H  -7.82400 40.41100 40.69000
H  -7.14600 40.45300 38.95700
H  -8.79500 37.01600 37.37000
H  -9.73800 35.97800 38.34900
H  -8.36300 34.27700 38.40400
H  -7.03900 35.20400 39.05500
H  -11.93600 44.65100 40.27400
H  -11.89500 43.60500 38.88500
H  -10.64300 43.50800 40.12400
H  -15.03800 43.24200 43.90200
H  -16.38700 43.46800 42.80200
H  -15.35300 44.84700 43.30200
H  -16.92500 39.07600 42.69800
H  -16.53900 37.08900 44.93800
H  -17.74000 40.40200 44.75200
H  -16.08100 40.30700 45.18600
H  -17.09300 39.02000 45.62000
H  -17.00500 35.97400 42.17900
H  -18.23500 37.05600 42.78600
H  -17.40300 34.62400 44.52000
H  -18.56000 34.40600 43.40800
H  -18.94000 35.60100 44.59100
H  -13.86300 32.78000 43.61700
H  -13.01500 32.99600 45.05300
H  -12.20000 32.01400 43.91000
H  -9.17400 34.12200 40.30700
H  -5.65100 36.13000 42.71900
H  -6.21800 35.06400 44.09000
H  -6.69800 36.76300 44.02700

