158

Mg 39.76200 8.76300 29.20900
C  41.66100 10.01200 31.89900
C  37.76200 7.17100 31.36400
C  38.03800 7.48600 26.53800
C  42.23100 9.87900 27.05100
N  39.65300 8.58600 31.40500
C  40.53500 9.28900 32.28100
C  39.97700 9.09700 33.73800
C  38.67500 8.19800 33.52900
C  38.72000 7.89300 32.07000
C  38.53500 6.94800 34.42300
C  39.75400 10.43400 34.44500
C  38.82700 10.59300 35.62600
H  39.27100 11.37300 36.91800
N  38.06000 7.57000 28.98200
C  37.40100 6.96200 30.02300
C  36.23600 6.24600 29.48400
C  36.23500 6.42100 28.10500
C  37.48000 7.22100 27.83000
C  35.26300 5.53700 30.50700
C  35.19900 5.77400 27.18900
O  35.40900 5.76900 26.01600
C  34.05100 5.01000 27.58900
N  40.18600 8.55100 27.14600
C  39.25700 8.13500 26.23700
C  39.78000 8.37800 24.77000
C  40.81400 9.40300 24.97400
C  41.10900 9.33000 26.47400
C  40.40300 7.13700 24.09200
C  40.38800 10.87000 24.59000
C  38.91500 11.26100 24.66600
N  41.67800 9.63400 29.35100
C  42.54700 9.96300 28.43300
C  43.74500 10.47800 29.06600
C  43.49400 10.58200 30.42200
C  42.15300 10.03500 30.56400
C  44.87800 11.05600 28.22000
C  43.88100 11.07100 31.66800
O  44.84000 11.71800 31.97300
C  42.75300 10.70700 32.72900
C  43.40100 9.95500 33.80800
O  43.72700 8.77900 33.65700
O  43.62100 10.83500 34.81700
C  44.38200 10.29300 35.93700
H  37.03100 6.64100 31.97900
H  37.53500 7.16300 25.62400
H  42.94100 10.46100 26.46000
H  40.61900 8.50500 34.39000
H  37.83000 8.86400 33.70400
H  37.52200 6.85400 34.81200
H  39.25100 7.05600 35.23900
H  38.83600 6.12400 33.77600
H  39.20200 10.96000 33.66600
H  40.76300 10.84200 34.50800
H  38.64300 9.63200 36.10500
H  37.89100 11.03200 35.28100
H  34.64600 4.77600 30.03000
H  34.65000 6.32900 30.93700
H  35.91800 5.12800 31.27700
H  33.54200 5.65400 28.30600
H  34.48900 4.07000 27.92500
H  33.37100 4.92400 26.74200
H  38.88900 8.69600 24.22900
H  41.67400 9.24400 24.32300
H  39.89900 7.02900 23.13100
H  40.15500 6.28600 24.72600
H  41.49200 7.19200 24.10800
H  40.58700 10.91100 23.51900
H  40.90700 11.72500 25.02400
H  38.50600 11.36000 23.66000
H  38.91400 12.23500 25.15500
H  38.26800 10.57300 25.21000
H  45.82600 10.98100 28.75300
H  44.72000 12.10200 27.95600
H  45.03500 10.45700 27.32300
H  42.46800 11.69300 33.09700
H  43.71700 9.73100 36.59300
H  44.85900 11.14500 36.42200
H  45.14000 9.55000 35.68900
Mg 6.74700 56.51400 41.83000
C  5.94100 53.10000 41.35500
C  9.79800 55.94700 40.29400
C  7.20200 59.84600 41.60300
C  3.39600 56.94400 42.87200
N  7.72900 54.74500 40.91800
C  7.16700 53.46600 40.74700
C  8.11900 52.48800 40.02600
C  9.43800 53.38600 40.09600
C  8.97500 54.81300 40.43200
C  10.50500 52.91900 41.11300
C  7.67700 52.14200 38.58900
C  8.24400 50.78700 38.12000
H  7.51900 50.11900 36.94400
N  8.28000 57.71700 41.13300
C  9.45100 57.28800 40.54100
C  10.28500 58.44800 40.27700
C  9.59800 59.56400 40.70000
C  8.33200 59.06700 41.20000
C  11.67000 58.36600 39.68800
C  10.12600 61.03500 40.62800
O  11.28400 61.22600 40.17300
C  9.40600 62.21900 41.17800
N  5.36900 58.16200 41.94200
C  5.91100 59.47300 42.02600
C  4.77500 60.47000 42.23900
C  3.74500 59.53500 42.92800
C  4.15700 58.09000 42.52700
C  5.11800 61.86500 42.85300
C  2.26400 59.79100 42.52700
C  1.33400 60.08200 43.73000
N  5.03900 55.30500 42.08000
C  3.78800 55.61900 42.66500
C  3.12600 54.34500 43.06000
C  3.91600 53.34900 42.54300
C  5.10500 53.95800 41.97000
C  1.76200 54.25000 43.61800
C  4.02900 51.91100 42.37500
O  3.24400 51.05700 42.70400
C  5.37700 51.67000 41.57600
C  4.89700 51.01200 40.36600
O  4.10100 51.43100 39.58200
O  5.33900 49.74500 40.34900
C  4.75300 48.82900 39.43600
H  10.73700 55.71100 39.78900
H  7.21000 60.91900 41.40100
H  2.48100 57.17800 43.41900
H  8.22400 51.64100 40.70400
H  10.02800 53.30800 39.18300
H  11.48900 52.83900 40.65000
H  10.24700 51.90300 41.41000
H  10.53000 53.46300 42.05700
H  8.03400 52.96400 37.96800
H  6.59800 52.10000 38.43500
H  8.00400 50.13000 38.95600
H  9.33000 50.88000 38.09000
H  11.90500 57.41700 39.20700
H  12.44900 58.55300 40.42700
H  11.82300 59.02300 38.83100
H  9.13000 61.98900 42.20800
H  8.53400 62.47300 40.57700
H  10.03600 63.10200 41.07300
H  4.39800 60.67500 41.23700
H  3.98400 59.79100 43.96000
H  4.26700 62.28700 43.38800
H  5.42000 62.49700 42.01800
H  6.00200 61.58100 43.42300
H  2.02500 58.95400 41.87200
H  2.19900 60.68400 41.90400
H  0.93400 61.09100 43.82600
H  1.91800 60.03000 44.64900
H  0.49000 59.39500 43.79300
H  1.14800 53.55300 43.04800
H  1.29600 55.23200 43.54500
H  1.89400 53.92100 44.64900
H  6.04200 51.10300 42.22700
H  5.13400 49.08200 38.44700
H  3.67200 48.95900 39.37700
H  5.06400 47.81700 39.69700

