158

Mg 25.98300 0.86800 29.61100
C  27.98500 0.70200 32.42500
C  23.24500 1.15900 31.65400
C  24.17600 0.93500 26.76800
C  28.79700 0.09000 27.62200
N  25.67500 1.01900 31.84500
C  26.64500 1.03100 32.78200
C  26.15700 1.54300 34.10700
C  24.62000 1.27500 33.97700
C  24.44400 1.26100 32.40300
C  24.01800 0.02000 34.70800
C  26.54400 3.01900 34.50300
C  27.29500 3.11000 35.88000
H  26.59500 3.80100 37.02900
N  23.99900 0.90400 29.27800
C  23.00800 1.03300 30.26900
C  21.76000 1.13200 29.64100
C  22.02900 1.19400 28.23600
C  23.46600 0.98300 28.01300
C  20.40600 1.21000 30.43300
C  20.96300 1.21300 27.10300
O  21.25600 1.04700 25.90500
C  19.54400 1.67400 27.52900
N  26.49900 0.84300 27.39100
C  25.55300 0.74100 26.50200
C  26.15000 0.49300 25.09600
C  27.66000 0.32800 25.38000
C  27.68900 0.46700 26.86900
C  25.42400 -0.65400 24.39400
C  28.73500 1.27100 24.66200
C  29.52700 0.62800 23.49100
N  27.96400 0.42600 29.89900
C  28.96100 0.11300 29.03600
C  30.21600 -0.23500 29.80800
C  29.89300 0.16900 31.08800
C  28.50900 0.39100 31.16000
C  31.60900 -0.59500 29.28700
C  30.42600 0.33400 32.48100
O  31.53800 0.29600 32.93000
C  29.16800 0.71500 33.39500
C  29.01800 -0.21400 34.54000
O  28.68300 -1.38400 34.45500
O  29.36100 0.46300 35.67000
C  29.19700 -0.36700 36.84700
H  22.37700 1.15100 32.31700
H  23.57400 0.87800 25.85900
H  29.63700 -0.03600 26.93600
H  26.54000 0.88600 34.88700
H  23.92400 2.09200 34.16800
H  24.02100 -0.83600 34.03300
H  22.98300 0.07800 35.04700
H  24.66100 -0.04000 35.58600
H  25.69400 3.70000 34.54700
H  27.20800 3.39000 33.72300
H  28.22900 3.65000 35.72400
H  27.62000 2.10300 36.14500
H  19.97000 0.41500 29.82800
H  19.89900 2.17100 30.35800
H  20.48100 0.86200 31.46300
H  19.11200 0.79400 28.00600
H  18.99000 1.87400 26.61200
H  19.72800 2.57000 28.12200
H  26.00900 1.46700 24.62700
H  27.94300 -0.68400 25.09000
H  24.89700 -1.25200 25.13800
H  26.13500 -1.29600 23.87500
H  24.67600 -0.22300 23.72800
H  29.49100 1.51800 25.40700
H  28.24800 2.19100 24.33800
H  29.61400 1.33000 22.66200
H  29.01400 -0.28400 23.18500
H  30.55200 0.38500 23.77000
H  32.27600 -0.07700 29.97600
H  31.80600 -0.37500 28.23800
H  31.72400 -1.67400 29.38900
H  29.28000 1.70100 33.84700
H  28.15100 -0.28200 37.14100
H  29.83500 -0.04300 37.67000
H  29.48600 -1.41600 36.78000
Mg -11.66300 38.29800 42.26000
C  -9.43600 35.76800 41.18700
C  -9.74300 40.47800 40.76300
C  -14.30500 40.28300 42.41100
C  -13.69100 35.64500 43.73100
N  -9.90500 38.05000 40.91300
C  -9.14100 36.99800 40.64000
C  -7.93200 37.34100 39.72200
C  -7.90000 38.91000 39.88400
C  -9.24100 39.21700 40.59300
C  -6.69900 39.36100 40.78200
C  -8.11400 36.73100 38.24200
C  -6.96700 35.76300 37.76300
H  -5.88600 36.37000 36.76100
N  -11.96500 40.19300 41.72600
C  -10.96500 40.94500 41.24000
C  -11.47900 42.28400 40.97600
C  -12.88900 42.27800 41.27700
C  -13.15300 40.86100 41.81500
C  -10.66100 43.42300 40.53700
C  -13.82800 43.37200 41.13100
O  -13.44900 44.46600 40.77300
C  -15.26500 43.28600 41.50600
N  -13.86100 37.93700 42.84300
C  -14.66200 38.99300 42.85700
C  -16.02000 38.63200 43.62600
C  -15.83500 37.15700 44.02200
C  -14.39500 36.88500 43.57100
C  -16.37200 39.59200 44.84200
C  -16.91500 36.12900 43.54800
C  -17.22600 34.94200 44.48300
N  -11.62900 36.13300 42.42200
C  -12.39300 35.26400 43.19700
C  -11.77300 33.95200 43.19100
C  -10.60500 34.13900 42.37400
C  -10.55700 35.41300 41.97300
C  -12.16500 32.61600 43.95400
C  -9.45100 33.45600 41.83700
O  -9.09300 32.26300 42.06100
C  -8.65700 34.47400 40.98400
C  -7.25500 34.58800 41.50300
O  -6.80000 35.47800 42.19000
O  -6.56400 33.46700 40.98800
C  -5.12000 33.73900 40.98600
H  -9.07300 41.19400 40.28300
H  -15.12600 40.98800 42.55500
H  -14.27000 34.93100 44.31900
H  -7.03600 36.94200 40.19700
H  -7.83100 39.44500 38.93700
H  -6.29300 40.35400 40.59400
H  -5.85800 38.68200 40.64000
H  -7.03100 39.25500 41.81500
H  -8.03300 37.62000 37.61800
H  -9.09000 36.24700 38.20000
H  -7.36500 34.84700 37.32600
H  -6.42300 35.45900 38.65700
H  -9.61000 43.15600 40.42500
H  -10.81900 44.28000 41.19200
H  -11.00100 43.75500 39.55600
H  -15.73800 42.37500 41.14000
H  -15.80100 44.11600 41.04500
H  -15.34300 43.42100 42.58500
H  -16.79700 38.77600 42.87500
H  -15.76800 37.05100 45.10500
H  -15.39700 39.96400 45.15400
H  -16.91700 38.96000 45.54400
H  -17.03200 40.38900 44.50000
H  -16.53600 35.61700 42.66400
H  -17.85700 36.65800 43.40400
H  -17.02800 34.07200 43.85900
H  -18.26500 34.96800 44.81100
H  -16.66100 34.90700 45.41500
H  -12.93600 32.94000 44.65300
H  -11.30100 32.26800 44.52000
H  -12.53400 31.87900 43.24000
H  -8.67900 34.19800 39.93000
H  -4.80400 34.10200 40.00700
H  -4.59400 32.82000 41.24600
H  -4.86000 34.52900 41.69000

