158

Mg 46.97000 45.67900 44.13800
C  43.71700 45.21000 43.26200
C  47.49100 42.25200 42.86500
C  50.39300 46.09600 43.68700
C  46.48700 49.05300 44.31000
N  45.74800 43.94400 43.08700
C  44.42000 43.99500 43.12500
C  43.87800 42.70000 42.46600
C  44.95800 41.68300 42.67500
C  46.13800 42.71300 42.91800
C  44.72500 40.62400 43.82600
C  43.49000 42.97600 40.94000
C  42.08800 42.37700 40.53000
H  41.91200 41.70000 39.19900
N  48.78500 44.31600 43.66000
C  48.70300 42.97200 43.14100
C  50.03300 42.41400 42.99000
C  50.90500 43.55000 43.33900
C  50.05200 44.73100 43.47400
C  50.31400 41.08300 42.46100
C  52.42400 43.41500 43.37700
O  52.94900 42.43200 42.95800
C  53.29700 44.50700 43.91900
N  48.21700 47.32200 44.17400
C  49.55800 47.23800 43.94200
C  50.17800 48.65700 44.20300
C  48.92200 49.65500 44.03500
C  47.80500 48.64000 44.18800
C  50.92500 48.91600 45.52400
C  48.68100 50.38000 42.67000
C  48.56700 51.89800 42.82000
N  45.36400 46.85400 44.07400
C  45.33200 48.21300 44.21800
C  43.91200 48.69900 43.99600
C  43.30200 47.59100 43.66200
C  44.16700 46.48200 43.72700
C  43.36800 50.08400 44.12400
C  41.98900 47.00800 43.27100
O  40.90600 47.65600 43.15600
C  42.22300 45.47300 43.02500
C  41.24100 44.73300 43.88700
O  40.29600 44.05800 43.43800
O  41.50700 45.04100 45.19400
C  40.54000 44.32900 46.08200
H  47.59700 41.21400 42.54300
H  51.45900 46.21900 43.48400
H  46.34700 50.11500 44.52500
H  42.97900 42.44900 43.03100
H  45.12400 41.17600 41.72500
H  43.65200 40.65400 44.01500
H  45.22500 40.99100 44.72200
H  45.08600 39.63200 43.55700
H  44.24000 42.52500 40.29000
H  43.54000 44.04800 40.75300
H  41.41000 43.23000 40.50500
H  41.73700 41.63900 41.25100
H  50.94600 41.22000 41.58300
H  49.46400 40.47300 42.15700
H  50.96700 40.57500 43.17000
H  53.44800 45.07600 43.00200
H  54.24400 44.12500 44.29900
H  52.92900 45.20500 44.67100
H  50.87300 48.81800 43.37900
H  48.77800 50.22600 44.95200
H  50.90600 48.04700 46.18200
H  50.47800 49.77500 46.02400
H  51.97500 49.16100 45.36400
H  47.86600 49.97100 42.07300
H  49.44400 50.16800 41.92100
H  48.57800 52.28300 43.83900
H  47.74300 52.26000 42.20500
H  49.49800 52.34800 42.47500
H  42.96100 50.44400 45.06900
H  42.61400 50.17500 43.34200
H  44.10200 50.84200 43.85100
H  42.04900 45.33100 41.95800
H  39.55800 44.67700 45.76200
H  40.79400 44.68100 47.08200
H  40.63500 43.25200 46.22000
Mg -2.43000 33.93900 26.74700
C  -3.83100 32.22200 29.59700
C  -0.60100 35.72100 29.01000
C  -1.38100 35.73800 24.26800
C  -4.24500 31.99500 24.67300
N  -2.41200 34.12100 29.11000
C  -2.94300 33.26000 30.02500
C  -2.33500 33.46100 31.45400
C  -1.32700 34.59100 31.18900
C  -1.42200 34.75000 29.63500
C  -1.66800 35.85700 31.94400
C  -1.57800 32.22100 32.05000
C  -2.14600 31.66600 33.32600
H  -1.19600 31.67200 34.56800
N  -1.18000 35.51400 26.67400
C  -0.47600 36.08100 27.72100
C  0.34500 37.11600 27.16900
C  0.15300 37.17400 25.74400
C  -0.86200 36.15200 25.48800
C  1.20500 38.08000 28.06500
C  0.76000 38.04100 24.71700
O  0.36600 38.04600 23.58500
C  1.95500 38.95900 25.07300
N  -2.95900 34.01200 24.74600
C  -2.26200 34.75900 23.90700
C  -2.64100 34.42500 22.40900
C  -3.34000 33.00900 22.55900
C  -3.42100 32.95200 24.05800
C  -3.57300 35.48800 21.68400
C  -2.52200 31.78400 21.93900
C  -1.05100 31.62500 22.31600
N  -3.91500 32.57800 26.99500
C  -4.57100 31.79600 26.07200
C  -5.38300 30.73000 26.70500
C  -5.13600 30.87200 28.10400
C  -4.23200 32.00100 28.18700
C  -6.14400 29.64000 26.06300
C  -5.41800 30.34300 29.40400
O  -6.14300 29.40400 29.76400
C  -4.60300 31.19200 30.35400
C  -5.51000 31.76600 31.40800
O  -6.18300 32.72900 31.22200
O  -5.31000 31.15600 32.65400
C  -6.01100 31.65000 33.83700
H  0.13400 36.15500 29.69200
H  -0.86300 36.27200 23.46800
H  -4.64900 31.21900 24.01800
H  -3.16700 33.70200 32.11600
H  -0.28700 34.31500 31.35800
H  -2.16500 36.52100 31.23700
H  -0.81300 36.46400 32.24200
H  -2.34300 35.77100 32.79600
H  -0.53700 32.48100 32.24100
H  -1.55900 31.38800 31.34700
H  -2.46200 30.65400 33.07300
H  -3.03200 32.23200 33.61400
H  0.76700 39.01900 28.40100
H  2.17200 38.14400 27.56400
H  1.50300 37.51900 28.95100
H  2.79400 38.33000 25.36900
H  1.73500 39.59500 25.93100
H  2.35200 39.53500 24.23700
H  -1.74200 34.35600 21.79700
H  -4.36700 33.00700 22.19300
H  -3.98500 35.03300 20.78300
H  -2.98400 36.31400 21.28400
H  -4.34400 35.87800 22.34800
H  -2.53300 31.97400 20.86600
H  -3.08000 30.85700 22.06900
H  -0.51100 31.60800 21.36900
H  -0.73900 30.76200 22.90400
H  -0.73200 32.51700 22.85400
H  -5.97300 28.76800 26.69500
H  -5.69200 29.52200 25.07800
H  -7.18500 29.96200 26.04200
H  -3.82000 30.54900 30.75800
H  -6.58000 32.56100 33.65100
H  -5.22900 31.87400 34.56200
H  -6.61900 30.82700 34.21400

