158

Mg 53.39400 24.02300 44.64600
C  50.53000 26.10900 43.89200
C  51.79400 21.52600 43.17600
C  56.33100 22.46900 44.74400
C  54.90600 27.01700 45.87900
N  51.53300 23.93200 43.44200
C  50.53100 24.88500 43.29200
C  49.40500 24.30000 42.39200
C  49.58100 22.80400 42.72600
C  51.04700 22.68200 43.12300
C  48.73000 22.19800 43.82100
C  49.75500 24.59200 40.90700
C  48.56700 24.68300 39.90600
H  48.87400 24.14500 38.45400
N  53.99700 22.22900 44.07500
C  53.19100 21.27900 43.53600
C  53.91600 20.08700 43.42700
C  55.16600 20.34400 44.05700
C  55.25700 21.72900 44.22800
C  53.33100 18.85500 42.96600
C  56.20100 19.28700 44.29900
O  56.19800 18.21800 43.76500
C  57.41000 19.54300 45.10000
N  55.34500 24.68600 45.23600
C  56.36700 23.78200 45.26400
C  57.69600 24.43100 45.82500
C  57.17000 25.85500 46.26800
C  55.74200 25.89200 45.70100
C  58.49100 23.65600 46.89600
C  58.03800 27.14800 45.90800
C  58.45800 27.54100 44.45100
N  52.84100 26.13000 44.91300
C  53.55200 27.15000 45.53000
C  52.68800 28.26700 45.76700
C  51.46500 27.89900 45.11800
C  51.62800 26.59800 44.61300
C  52.89300 29.56800 46.58900
C  50.11100 28.36200 44.76500
O  49.50400 29.33600 45.14700
C  49.47600 27.16800 43.88800
C  49.18200 27.76200 42.57700
O  50.06000 28.18300 41.82900
O  47.85900 27.67600 42.18600
C  47.37300 28.55700 41.11800
H  51.22200 20.63000 42.92700
H  57.30100 22.00800 44.93700
H  55.27300 27.94900 46.31400
H  48.39300 24.65600 42.58600
H  49.42500 22.16300 41.85900
H  48.71500 21.13400 43.58300
H  47.73200 22.63000 43.73900
H  49.22200 22.34100 44.78200
H  50.32300 23.73900 40.53600
H  50.38300 25.47800 40.81400
H  48.49500 25.75900 39.75300
H  47.63200 24.30500 40.31800
H  53.53300 18.83900 41.89500
H  52.25600 18.77100 43.12300
H  53.80300 17.94000 43.32300
H  58.17700 20.09000 44.55300
H  57.85000 18.56200 45.28200
H  57.23200 19.97900 46.08300
H  58.52000 24.66300 45.14900
H  57.05200 25.95300 47.34800
H  59.52300 23.51900 46.57500
H  58.07200 22.69800 47.20300
H  58.59700 24.26200 47.79600
H  58.93100 26.99300 46.51400
H  57.49300 27.95900 46.39000
H  58.22100 26.81400 43.67400
H  59.53200 27.36500 44.49700
H  58.19500 28.53900 44.10100
H  51.91600 30.04900 46.63800
H  53.60000 30.22100 46.07900
H  53.28400 29.22700 47.54800
H  48.47800 26.95600 44.27300
H  46.49300 29.07600 41.49900
H  47.23000 27.87700 40.27800
H  48.00400 29.36100 40.74000
Mg 47.39600 24.23900 28.21800
C  48.15200 26.48400 30.98500
C  46.65100 21.82700 30.41900
C  47.19600 22.22000 25.59200
C  48.39500 26.98300 26.05600
N  47.35700 24.22900 30.51600
C  47.69400 25.25900 31.41000
C  47.43500 24.74000 32.80200
C  47.00100 23.19500 32.59400
C  46.92800 23.06300 31.05900
C  47.86100 22.13800 33.31000
C  46.42400 25.62600 33.47500
C  46.69300 25.86200 34.99000
H  45.54700 25.85800 36.02500
N  46.88200 22.27200 28.05200
C  46.53500 21.44600 29.09700
C  46.22900 20.16600 28.53400
C  46.41500 20.23200 27.15800
C  46.89400 21.60200 26.85700
C  45.90900 18.94500 29.36500
C  46.20800 19.13300 26.14000
O  46.48300 19.33400 24.95200
C  45.52000 17.76200 26.53600
N  47.69300 24.59500 26.14800
C  47.61300 23.54000 25.28400
C  47.92200 24.03200 23.84700
C  47.91600 25.61500 23.94100
C  48.02200 25.78900 25.48600
C  49.35200 23.52900 23.36300
C  46.69800 26.38900 23.35200
C  45.29000 26.11300 23.94700
N  48.08700 26.31300 28.41200
C  48.48200 27.26600 27.43300
C  48.88700 28.47400 28.07900
C  48.79100 28.17500 29.42800
C  48.34500 26.84400 29.62400
C  49.29500 29.79900 27.52200
C  49.02900 28.77700 30.70900
O  49.36800 29.95100 30.90000
C  48.71400 27.63000 31.82200
C  50.01100 27.20400 32.45900
O  50.87500 26.52200 31.97600
O  50.07100 27.72700 33.69300
C  51.25900 27.29100 34.47100
H  46.31400 21.08800 31.14900
H  47.27600 21.63300 24.67500
H  48.56600 27.90200 25.49000
H  48.42900 24.93400 33.20600
H  45.98800 22.97700 32.93200
H  48.43300 22.68500 34.06000
H  48.60500 21.85500 32.56500
H  47.43400 21.29300 33.84800
H  45.43600 25.24300 33.22100
H  46.34100 26.60600 33.00500
H  47.21000 26.81900 35.05500
H  47.42200 25.15000 35.37600
H  44.87600 18.67600 29.14500
H  45.96300 19.16700 30.43100
H  46.59700 18.13100 29.13600
H  45.22200 17.18400 25.66200
H  44.57500 17.90600 27.05900
H  46.15500 17.17600 27.20100
H  47.20900 23.79100 23.05900
H  48.69300 25.93700 23.24700
H  49.30900 23.25000 22.31000
H  49.86200 22.76400 23.94800
H  50.12600 24.29500 23.40000
H  46.79300 26.20900 22.28200
H  46.86700 27.44400 23.56500
H  45.45000 25.34500 24.70400
H  44.64600 25.71800 23.16200
H  44.79500 26.96800 24.40800
H  48.76400 29.76700 26.57100
H  50.36800 29.89700 27.35800
H  48.85500 30.57100 28.15400
H  48.02300 27.95200 32.60100
H  52.08200 27.59800 33.82500
H  51.20700 26.24900 34.78400
H  51.26500 27.96100 35.33100

