158

Mg 35.59800 2.61300 30.31900
C  33.44500 3.86700 32.80700
C  38.12000 2.65800 32.62300
C  37.72000 1.77100 27.88500
C  33.05400 3.19300 27.97800
N  35.77000 3.31500 32.45400
C  34.73700 3.63800 33.34600
C  35.20500 3.75500 34.79200
C  36.77700 3.56000 34.57100
C  36.87200 3.04900 33.11200
C  37.64200 4.87600 34.64800
C  34.59700 2.67500 35.72200
C  34.35100 3.19200 37.12100
H  35.34400 4.28400 37.64800
N  37.58100 2.14400 30.29400
C  38.45000 2.21000 31.36100
C  39.77700 1.78200 30.93800
C  39.74400 1.62200 29.50300
C  38.35800 1.87500 29.16100
C  41.01600 1.68500 31.78600
C  40.82700 1.34200 28.47600
O  40.61600 1.10800 27.31600
C  42.23300 1.15900 28.91500
N  35.50100 2.69300 28.31100
C  36.44300 2.18200 27.52100
C  36.00400 2.16500 26.04200
C  34.45400 2.19300 26.17100
C  34.32700 2.81000 27.59500
C  36.61800 3.37100 25.19200
C  33.75000 0.70600 26.02900
C  32.47500 0.69800 25.18800
N  33.64100 3.29200 30.33300
C  32.72000 3.51400 29.28900
C  31.44000 3.86400 29.89700
C  31.66400 4.10700 31.26000
C  33.04800 3.73100 31.45100
C  30.09800 4.05900 29.17800
C  31.04000 4.51300 32.45500
O  29.90300 4.90600 32.66100
C  32.24600 4.34300 33.56500
C  32.47400 5.65000 34.32400
O  32.91700 6.66000 33.80100
O  32.01100 5.67500 35.59700
C  32.09900 6.95900 36.25700
H  38.97400 2.54800 33.29400
H  38.31200 1.43100 27.03200
H  32.33400 3.19000 27.15700
H  35.10100 4.80100 35.07900
H  37.16000 2.83700 35.29100
H  37.79400 5.23100 33.62900
H  38.61200 4.84800 35.14400
H  37.01700 5.71500 34.95600
H  35.16100 1.74100 35.72600
H  33.64600 2.35700 35.29400
H  34.35100 2.35900 37.82400
H  33.32500 3.55600 37.07500
H  41.52900 0.80700 31.39500
H  40.73100 1.57800 32.83300
H  41.72300 2.51100 31.70500
H  42.30300 0.24800 29.50900
H  42.46800 2.05800 29.48500
H  42.89300 1.06600 28.05200
H  36.36000 1.19200 25.70200
H  34.17200 2.92800 25.41600
H  35.83700 3.98800 24.74900
H  37.21100 3.02000 24.34700
H  37.37900 3.90100 25.76400
H  33.54700 0.25300 27.00000
H  34.56800 0.10200 25.63700
H  32.68900 0.25200 24.21700
H  32.19300 1.74400 25.07200
H  31.75900 0.09200 25.74300
H  30.19200 4.99100 28.62100
H  29.23200 4.32700 29.78200
H  29.94300 3.16400 28.57400
H  31.99300 3.57400 34.29500
H  32.28900 6.73100 37.30600
H  31.15200 7.46800 36.07700
H  33.00100 7.54900 36.09200
Mg 48.14700 16.04600 28.71800
C  46.12400 16.08300 31.55700
C  50.40200 18.10500 30.53000
C  49.64200 17.01700 25.83100
C  45.54300 14.71200 26.98700
N  48.35000 16.83800 30.88700
C  47.35100 16.73200 31.80300
C  47.83800 17.29700 33.09900
C  48.94900 18.28600 32.59100
C  49.27600 17.72400 31.21600
C  48.64000 19.78500 32.62000
C  48.22800 16.07600 34.03300
C  47.74000 16.28300 35.45800
H  47.32700 17.65500 35.97600
N  49.81600 17.27200 28.31900
C  50.75000 17.82100 29.17800
C  51.87500 18.36900 28.45700
C  51.60700 18.18700 27.08200
C  50.25000 17.46000 27.02700
C  53.09800 19.02000 29.12000
C  52.40500 18.63400 25.81700
O  52.06500 18.35700 24.69300
C  53.66000 19.57600 25.95000
N  47.59300 16.05700 26.72100
C  48.40000 16.36600 25.72400
C  47.96800 15.90900 24.35800
C  46.81300 15.01100 24.71800
C  46.64800 15.19100 26.23300
C  47.49300 17.06300 23.45900
C  47.12200 13.46500 24.48900
C  45.95700 12.64700 23.94300
N  46.28700 15.19200 29.23200
C  45.34800 14.62900 28.39600
C  44.20700 14.15500 29.15500
C  44.45300 14.64400 30.46700
C  45.67500 15.40100 30.43500
C  42.93200 13.63300 28.52600
C  43.88500 14.90300 31.75600
O  42.86700 14.55300 32.30600
C  45.05000 15.72500 32.56200
C  44.39700 16.84500 33.33100
O  44.04900 17.93800 32.84300
O  44.25900 16.44900 34.61000
C  43.33700 17.34300 35.37900
H  51.14200 18.67500 31.09500
H  50.25600 17.16500 24.94000
H  44.71800 14.18700 26.50100
H  47.05100 17.92700 33.51300
H  49.84800 18.16200 33.19400
H  47.67800 20.07400 33.04200
H  48.77100 20.24800 31.64200
H  49.33800 20.29400 33.28500
H  49.31200 15.96000 34.01700
H  47.66500 15.23700 33.62300
H  48.54400 16.05400 36.15700
H  46.98200 15.51900 35.62900
H  53.21000 20.01000 28.67700
H  53.90300 18.32100 28.89000
H  52.85800 19.22100 30.16400
H  53.88400 19.86600 24.92300
H  54.49100 19.05500 26.42500
H  53.37300 20.50500 26.44300
H  48.80400 15.36000 23.92500
H  45.88600 15.12000 24.15500
H  46.53100 16.85400 22.99200
H  48.29600 17.11700 22.72400
H  47.39500 17.95200 24.08300
H  47.40700 13.11100 25.47900
H  47.97400 13.43300 23.80900
H  46.31100 12.07100 23.08800
H  45.01600 13.15900 23.74200
H  45.74100 12.00200 24.79400
H  42.09300 14.13500 29.00700
H  42.87700 12.56700 28.74800
H  42.86700 13.75400 27.44500
H  45.38400 15.05200 33.35200
H  42.56200 17.73900 34.72200
H  43.87900 18.10600 35.93700
H  42.82300 16.86900 36.21600

