158

Mg 17.19900 -1.38500 27.78100
C  15.92600 0.73500 30.32500
C  18.90400 -3.00000 30.25000
C  18.37900 -3.26600 25.39700
C  15.58500 0.74500 25.42100
N  17.42600 -1.09200 30.05900
C  16.86600 -0.18300 30.83100
C  17.19300 -0.33800 32.36400
C  18.34800 -1.36200 32.22200
C  18.20600 -1.90300 30.79300
C  19.83500 -0.89700 32.64900
C  16.00100 -0.70800 33.22800
C  15.97400 -0.27400 34.74500
H  16.52000 -1.32000 35.73100
N  18.42000 -3.00000 27.80800
C  19.02800 -3.53900 28.95300
C  19.80000 -4.62900 28.55400
C  19.60100 -4.79800 27.16200
C  18.74300 -3.68500 26.71000
C  20.78700 -5.46900 29.53000
C  20.15100 -5.89400 26.25500
O  19.91100 -5.90100 25.05100
C  20.76800 -7.12300 26.86400
N  17.13700 -1.10400 25.76200
C  17.72300 -2.08200 24.96300
C  17.59000 -1.75000 23.43900
C  16.53500 -0.61400 23.46800
C  16.37200 -0.34900 24.97200
C  18.96100 -1.29000 22.77700
C  15.15800 -0.85100 22.85700
C  14.17100 -1.78900 23.51100
N  15.88600 0.30500 27.79100
C  15.39500 1.06700 26.77900
C  14.44400 2.14200 27.32200
C  14.71800 2.10200 28.70000
C  15.60200 0.98400 28.92400
C  13.57800 3.09300 26.56800
C  14.54800 2.77100 29.96300
O  13.98300 3.80700 30.27000
C  15.21600 1.85400 30.99700
C  15.93300 2.76200 31.85400
O  16.94500 3.36900 31.55600
O  15.33500 2.85100 33.11500
C  16.00700 3.83300 34.05200
H  19.55000 -3.57000 30.92000
H  18.78400 -3.89500 24.60100
H  15.01400 1.37000 24.73000
H  17.66100 0.58800 32.69800
H  18.14800 -2.21900 32.86500
H  20.01000 0.08300 33.09300
H  20.37200 -0.81300 31.70400
H  20.36900 -1.72700 33.11200
H  15.92000 -1.79100 33.14100
H  15.07000 -0.36200 32.77900
H  14.91400 -0.14700 34.96500
H  16.58700 0.62700 34.74200
H  21.78200 -5.36900 29.09600
H  20.40700 -6.48700 29.61100
H  20.81700 -5.07900 30.54700
H  21.72300 -6.96600 27.36400
H  20.89900 -7.85900 26.07000
H  19.98100 -7.53900 27.49300
H  17.22900 -2.68200 23.00400
H  17.00900 0.26300 23.02800
H  19.39700 -0.49500 23.38300
H  18.80400 -1.02600 21.73100
H  19.63100 -2.14900 22.74900
H  15.23600 -1.16700 21.81600
H  14.61700 0.09500 22.86500
H  13.27600 -1.29400 23.88700
H  14.69900 -2.35800 24.27700
H  13.83500 -2.49500 22.75200
H  14.06900 3.15700 25.59700
H  13.64700 4.12700 26.90600
H  12.55700 2.75000 26.40200
H  14.44000 1.40400 31.61700
H  15.31800 3.97400 34.88500
H  16.04100 4.88200 33.76000
H  16.95200 3.39700 34.37800
Mg -11.75200 17.48800 41.84800
C  -8.57500 15.88000 41.59600
C  -10.43800 20.24100 40.39200
C  -14.81600 18.44700 41.21400
C  -13.10400 14.23800 42.73400
N  -9.69900 17.97700 41.21300
C  -8.52600 17.20300 41.15800
C  -7.36400 17.96500 40.40700
C  -8.01500 19.43900 40.29100
C  -9.50300 19.19700 40.64100
C  -7.41000 20.56800 41.22900
C  -7.09700 17.30300 38.97800
C  -5.62800 17.17000 38.68100
H  -5.21000 17.73300 37.29400
N  -12.50300 19.17200 41.17900
C  -11.79100 20.24300 40.63700
C  -12.70200 21.32600 40.25800
C  -14.04300 20.84800 40.40000
C  -13.86400 19.43000 40.92500
C  -12.29700 22.64300 39.70600
C  -15.28500 21.64100 40.27000
O  -15.26200 22.81200 39.87700
C  -16.60600 20.99100 40.50300
N  -13.68200 16.36700 41.83200
C  -14.77700 17.16400 41.78300
C  -16.03200 16.49300 42.25100
C  -15.51800 15.13900 42.75900
C  -13.99700 15.27700 42.45400
C  -16.72200 17.31800 43.35800
C  -16.09800 13.92700 41.94900
C  -17.11600 13.04600 42.76100
N  -10.99700 15.47800 42.19300
C  -11.68100 14.35600 42.59500
C  -10.72700 13.18800 42.62100
C  -9.44700 13.77200 42.31700
C  -9.65200 15.17300 42.05700
C  -10.97500 11.76600 42.90900
C  -8.03800 13.54100 42.07600
O  -7.38500 12.49900 42.10300
C  -7.44800 14.87100 41.68700
C  -6.45000 15.33100 42.69500
O  -6.68600 15.46200 43.89400
O  -5.26900 15.66400 42.09200
C  -4.16400 16.06600 42.97200
H  -9.97000 21.09000 39.89100
H  -15.84000 18.68000 40.91700
H  -13.53200 13.38100 43.25800
H  -6.49700 17.94800 41.06700
H  -8.10900 19.78800 39.26300
H  -7.39800 21.43900 40.57400
H  -6.37800 20.36500 41.51500
H  -8.13000 20.75100 42.02600
H  -7.38900 18.04200 38.23200
H  -7.71100 16.41200 38.84700
H  -5.31600 16.12600 38.69900
H  -4.88800 17.63200 39.33400
H  -11.32800 22.58200 39.21000
H  -12.12200 23.45500 40.41100
H  -12.95300 22.99500 38.91000
H  -17.41700 21.71800 40.46300
H  -16.53700 20.54700 41.49700
H  -16.79000 20.25000 39.72500
H  -16.76600 16.46400 41.44600
H  -15.60800 15.09500 43.84400
H  -17.12900 16.65800 44.12500
H  -17.47700 17.83200 42.76300
H  -15.98100 17.96500 43.82800
H  -15.29500 13.26200 41.63300
H  -16.58400 14.19900 41.01100
H  -17.11500 13.46100 43.76800
H  -16.66600 12.05400 42.81200
H  -18.12100 13.00600 42.34100
H  -10.09600 11.12900 43.01400
H  -11.55300 11.46200 42.03600
H  -11.47800 11.57100 43.85600
H  -7.10000 14.77400 40.65900
H  -3.91800 17.12800 42.97700
H  -3.25300 15.63900 42.55100
H  -4.17700 15.67400 43.98900

