158

Mg 1.49800 -1.59500 43.23100
C  4.95400 -1.04000 42.55900
C  0.83100 1.26000 41.35000
C  -1.76000 -2.25000 43.45500
C  2.35200 -4.68500 44.51300
N  2.81300 -0.16600 41.95200
C  4.17800 -0.07000 41.93200
C  4.68000 1.07700 41.02000
C  3.36100 1.81300 40.64200
C  2.23400 0.93400 41.30200
C  3.30800 3.28900 40.98900
C  5.53000 0.57200 39.86200
C  7.01500 1.20900 39.81200
H  7.55900 1.71000 38.37300
N  -0.21300 -0.62200 42.59500
C  -0.26800 0.52900 41.79300
C  -1.64300 0.87900 41.48300
C  -2.48800 -0.11900 42.13500
C  -1.48300 -1.03900 42.83800
C  -2.02800 2.09700 40.62900
C  -3.99700 -0.15200 42.06800
O  -4.65900 0.76100 41.54300
C  -4.78700 -1.26700 42.65500
N  0.42800 -3.33000 43.70000
C  -0.95200 -3.27000 43.90100
C  -1.43700 -4.62200 44.43200
C  -0.11300 -5.45700 44.73600
C  0.94700 -4.44900 44.26600
C  -2.52500 -4.62500 45.52100
C  0.00500 -6.82300 44.02400
C  0.60600 -7.91600 44.84800
N  3.26100 -2.69000 43.53500
C  3.46900 -3.89400 44.17100
C  4.87800 -4.11800 44.38700
C  5.52700 -2.96700 43.84200
C  4.47300 -2.18100 43.27200
C  5.51600 -5.30700 44.97000
C  6.83300 -2.30400 43.53700
O  7.94400 -2.66400 43.82600
C  6.48200 -1.04900 42.75400
C  7.03600 0.07000 43.51300
O  6.90100 0.18700 44.71800
O  7.59200 1.05000 42.72300
C  7.75700 2.35600 43.37700
H  0.65300 2.25200 40.93000
H  -2.79600 -2.56700 43.59500
H  2.59300 -5.59500 45.06700
H  5.23600 1.77600 41.64400
H  3.25000 1.68700 39.56500
H  2.23700 3.48000 41.05500
H  3.71000 3.83200 40.13400
H  3.87800 3.61600 41.85900
H  4.95500 0.90100 38.99700
H  5.72400 -0.49800 39.78600
H  7.71400 0.49000 40.23800
H  7.11100 2.07100 40.47300
H  -2.96000 2.03800 40.06500
H  -1.16600 2.24800 39.98000
H  -1.99700 2.97300 41.27500
H  -5.83200 -0.95800 42.64200
H  -4.46700 -1.41000 43.68700
H  -4.60600 -2.13100 42.01500
H  -1.97500 -5.08300 43.60400
H  -0.00300 -5.59600 45.81200
H  -2.08000 -4.97100 46.45400
H  -3.24700 -5.38800 45.23000
H  -3.02300 -3.67100 45.69900
H  0.66700 -6.68400 43.16800
H  -0.96300 -7.09300 43.60200
H  0.01100 -8.82900 44.85200
H  0.81900 -7.61200 45.87300
H  1.57800 -8.13300 44.40600
H  4.94300 -5.73400 45.79400
H  6.55100 -5.28100 45.31100
H  5.59300 -6.01100 44.14100
H  7.08500 -1.11300 41.84800
H  8.59700 2.26900 44.06600
H  6.87500 2.73700 43.89100
H  8.00400 3.14800 42.67000
Mg 0.21500 43.63100 26.08700
C  2.45500 43.42900 28.87200
C  -2.33300 43.21900 28.24200
C  -1.79800 43.06400 23.48900
C  3.04300 43.61900 24.03900
N  0.08900 43.33200 28.30900
C  1.07200 43.45100 29.23200
C  0.50800 43.52900 30.64600
C  -1.01200 43.31200 30.43100
C  -1.14200 43.40800 28.87500
C  -1.65700 41.84100 30.81700
C  0.86100 44.88100 31.24800
C  0.89200 44.84700 32.80200
H  0.49500 43.63100 33.55000
N  -1.85800 43.35300 25.88800
C  -2.72800 43.13900 26.92200
C  -3.99000 43.02200 26.41800
C  -3.92200 42.92300 24.97500
C  -2.50700 43.13600 24.68000
C  -5.29600 43.23400 27.38000
C  -4.90600 42.67100 23.99600
O  -4.76000 42.80700 22.80800
C  -6.27900 42.23200 24.44600
N  0.63000 43.47500 24.09400
C  -0.43000 43.26400 23.21000
C  0.15100 43.22600 21.77200
C  1.69600 43.53900 21.91000
C  1.80800 43.58200 23.44000
C  -0.23500 41.95300 20.99400
C  2.07500 44.84500 21.18100
C  1.41500 46.17800 21.67200
N  2.40200 43.49800 26.31300
C  3.39800 43.62900 25.40300
C  4.69600 43.56700 26.05100
C  4.40000 43.42800 27.44000
C  2.98200 43.53200 27.52500
C  6.01100 43.58800 25.31100
C  4.91000 43.34400 28.78200
O  6.08300 43.35000 29.11700
C  3.67800 43.40900 29.78600
C  3.71500 42.31600 30.75700
O  3.63400 41.10000 30.51100
O  3.93500 42.92800 31.95300
C  4.15800 42.01600 33.10100
H  -3.09200 42.93500 28.97400
H  -2.43800 42.88000 22.62300
H  3.86600 43.61000 23.32200
H  0.84700 42.70600 31.27600
H  -1.61300 44.12400 30.84000
H  -2.27300 41.34900 30.06500
H  -2.39000 41.95000 31.61700
H  -0.82600 41.17600 31.05100
H  0.09800 45.61100 30.97600
H  1.81500 45.14300 30.79100
H  0.21400 45.66400 33.04800
H  1.94500 45.09100 32.94600
H  -6.15800 42.61800 27.12100
H  -5.62000 44.27400 27.35700
H  -5.13900 42.94000 28.41800
H  -6.18500 41.54700 25.28800
H  -6.91000 41.86200 23.63800
H  -6.65600 43.12900 24.93500
H  -0.39900 44.01100 21.25100
H  2.28400 42.68200 21.58400
H  -0.63800 41.19100 21.66000
H  0.66100 41.42700 20.66300
H  -0.96900 42.16700 20.21700
H  1.76900 44.66000 20.15200
H  3.16300 44.84100 21.25300
H  0.54000 46.20600 22.32100
H  1.07700 46.75300 20.81000
H  2.10900 46.84400 22.18400
H  6.39500 44.60600 25.24600
H  5.88400 43.27500 24.27400
H  6.73800 42.91400 25.76400
H  3.77100 44.38800 30.25700
H  3.80600 42.59500 33.95500
H  5.23000 41.85200 33.21200
H  3.66400 41.05700 33.26100

