158

Mg 47.39800 14.81000 27.81600
C  45.38600 14.77300 30.75900
C  49.44900 16.98000 29.42500
C  48.87100 15.19600 24.95900
C  44.70000 13.23000 26.13000
N  47.35600 15.68100 29.94200
C  46.55600 15.54000 31.00200
C  47.12600 15.97200 32.32800
C  48.37500 16.77300 31.81500
C  48.42900 16.48500 30.28000
C  48.29200 18.34800 32.13300
C  47.36800 14.81800 33.30000
C  47.00700 15.12700 34.76800
H  46.94100 16.61900 35.27400
N  48.98100 15.87200 27.29000
C  49.72700 16.63000 28.08300
C  50.87700 17.22200 27.39000
C  50.85300 16.70300 26.08300
C  49.51500 15.88700 26.00300
C  51.89400 18.12000 28.10700
C  51.88900 16.77800 24.94500
O  51.63000 16.20500 23.87200
C  53.23400 17.49500 25.01200
N  46.75700 14.41100 25.80400
C  47.66000 14.57800 24.85000
C  47.18600 13.96900 23.52300
C  45.74700 13.38500 23.85800
C  45.70200 13.73400 25.35500
C  47.33900 14.80500 22.20200
C  45.47900 12.06100 23.30500
C  46.12100 10.88800 24.04300
N  45.57300 13.95400 28.35200
C  44.58800 13.36700 27.51400
C  43.47400 13.07800 28.36300
C  43.71500 13.61400 29.64200
C  44.98700 14.18100 29.57000
C  42.21600 12.28400 27.98200
C  43.12400 13.79700 30.94300
O  42.03800 13.52200 31.36600
C  44.28500 14.44800 31.79900
C  43.69600 15.67300 32.53400
O  43.54500 16.82500 32.15100
O  43.34400 15.23300 33.76900
C  42.68500 16.23800 34.57800
H  50.25600 17.37200 30.04700
H  49.40300 15.27100 24.00900
H  43.92300 12.63600 25.64300
H  46.52100 16.74700 32.79900
H  49.23000 16.39600 32.37400
H  48.04400 18.98100 31.28100
H  49.29300 18.59800 32.48400
H  47.65100 18.46700 33.00700
H  48.44800 14.75700 33.16000
H  46.92000 13.86800 33.00900
H  47.71000 14.58100 35.39700
H  45.98500 14.76000 34.85800
H  52.30600 18.89500 27.46100
H  52.71400 17.55600 28.55100
H  51.28100 18.65300 28.83400
H  53.80700 16.80100 25.62800
H  53.04400 18.45400 25.49300
H  53.69100 17.51900 24.02300
H  47.79000 13.06700 23.42300
H  45.00600 13.94400 23.28600
H  46.90700 14.25100 21.36800
H  48.37500 15.10300 22.04200
H  46.69800 15.67700 22.33600
H  45.73300 12.14500 22.24800
H  44.41300 11.94600 23.50300
H  45.41300 10.18200 24.47700
H  46.81500 11.23300 24.80900
H  46.58000 10.29600 23.25100
H  42.24400 11.34200 28.52900
H  42.14400 12.09600 26.91100
H  41.35900 12.92000 28.20300
H  44.63500 13.75200 32.56100
H  41.82700 16.69900 34.08700
H  43.24800 17.11200 34.90400
H  42.34500 15.88500 35.55200
Mg 6.16100 53.94900 40.95800
C  5.72400 50.46400 40.85400
C  9.41100 53.50600 39.95900
C  6.26100 57.28200 40.27300
C  2.67900 54.09600 41.44900
N  7.38000 52.28900 40.37900
C  6.97800 50.95900 40.43900
C  8.12100 50.05700 40.03100
C  9.39700 50.92000 40.25800
C  8.68000 52.33200 40.12100
C  10.12400 50.66800 41.62200
C  7.96700 49.42500 38.66300
C  7.55900 50.41300 37.47500
H  6.36300 49.99900 36.49000
N  7.67100 55.19600 40.28100
C  8.95900 54.85800 40.03600
C  9.68800 56.07200 39.68700
C  8.83800 57.20300 39.84100
C  7.52300 56.61300 40.13100
C  11.14900 56.00400 39.38200
C  9.25200 58.75000 39.75400
O  10.39100 59.03600 39.59400
C  8.23700 59.80300 40.06000
N  4.68900 55.40700 40.79500
C  4.99200 56.72100 40.54300
C  3.73200 57.63500 40.40000
C  2.60300 56.62200 40.78300
C  3.32800 55.27100 40.96100
C  3.69400 58.80000 41.40300
C  1.36900 56.70400 39.90200
C  0.00500 56.70800 40.69600
N  4.53800 52.60700 41.40600
C  3.21500 52.84100 41.65600
C  2.51800 51.56700 41.96200
C  3.51200 50.62400 41.65300
C  4.68700 51.28600 41.35100
C  1.08100 51.40300 42.33600
C  3.72700 49.22300 41.59800
O  3.01100 48.30200 41.92300
C  5.16500 49.03900 40.94600
C  4.89600 48.33500 39.65600
O  4.22800 48.79600 38.74000
O  5.32100 47.02300 39.71400
C  4.92000 46.25200 38.56400
H  10.47100 53.31200 39.78800
H  6.28500 58.37000 40.17900
H  1.61400 54.22000 41.65400
H  8.13900 49.23400 40.74600
H  10.13200 50.79000 39.46400
H  11.19900 50.70900 41.44500
H  9.95100 49.62200 41.87500
H  9.74100 51.32700 42.40100
H  7.22900 48.63400 38.79600
H  8.94400 49.01800 38.40000
H  8.47100 50.67300 36.93700
H  7.08100 51.31300 37.86100
H  11.63200 55.41200 40.15900
H  11.81000 56.87100 39.37700
H  11.38700 55.56300 38.41400
H  7.46900 59.95000 39.30200
H  8.65300 60.79100 40.25800
H  7.79600 59.54600 41.02400
H  3.69600 58.08000 39.40600
H  2.26000 56.78200 41.80500
H  4.04800 59.66900 40.85000
H  4.44000 58.63100 42.18000
H  2.70600 58.94000 41.84000
H  1.38600 55.83000 39.25100
H  1.36500 57.55200 39.21600
H  -0.59000 57.55100 40.34400
H  0.00600 56.60000 41.78100
H  -0.36100 55.74100 40.35300
H  1.08600 50.54200 43.00500
H  0.54800 51.11600 41.43000
H  0.67400 52.26800 42.85900
H  5.77300 48.49700 41.67000
H  5.27100 46.75000 37.66000
H  3.84200 46.29300 38.40800
H  5.33300 45.25300 38.70400

