158

Mg -1.50400 17.72300 26.93300
C  -1.88400 15.28300 29.47000
C  -2.09800 20.13000 29.31900
C  -1.53300 19.90200 24.45700
C  -1.62000 15.04900 24.57300
N  -1.97900 17.69400 29.07700
C  -1.94300 16.61500 29.93600
C  -2.24400 17.06900 31.40600
C  -2.52700 18.58900 31.24700
C  -2.19200 18.82100 29.77700
C  -3.98200 18.97100 31.71200
C  -1.18900 16.65100 32.43300
C  -1.23300 17.31100 33.84800
H  -0.68300 16.60700 35.06700
N  -1.62100 19.74700 26.87400
C  -1.81500 20.60100 27.98200
C  -1.73600 22.00400 27.46900
C  -1.43200 21.92900 26.07000
C  -1.53700 20.50000 25.74300
C  -1.98800 23.15600 28.38700
C  -1.11900 22.99400 25.16200
O  -0.74400 22.73900 24.03300
C  -1.28100 24.44500 25.54500
N  -1.60800 17.41500 24.84200
C  -1.61300 18.55800 24.01500
C  -1.52500 18.21500 22.55500
C  -1.37400 16.61800 22.58200
C  -1.54800 16.32700 24.04900
C  -2.80800 18.67600 21.75400
C  -0.04300 16.17600 21.93300
C  1.15000 15.57700 22.82500
N  -1.67000 15.57900 26.91500
C  -1.67100 14.63900 25.88200
C  -1.80500 13.26500 26.48700
C  -1.90800 13.51000 27.87100
C  -1.79700 14.88300 28.09400
C  -1.77100 11.96000 25.66700
C  -2.02600 12.83300 29.12100
O  -2.03400 11.59800 29.29900
C  -2.04300 13.89700 30.28100
C  -1.02000 13.46500 31.16000
O  0.16900 13.72300 31.10100
O  -1.56700 12.63100 32.06900
C  -0.56000 11.97800 32.98900
H  -2.22400 20.90900 30.07400
H  -1.58100 20.61100 23.62800
H  -1.57900 14.41900 23.68200
H  -3.16500 16.56000 31.69400
H  -1.78800 19.19900 31.76600
H  -4.37300 19.69500 30.99800
H  -3.92700 19.55300 32.63200
H  -4.67500 18.14900 31.89100
H  -0.21900 16.76400 31.94900
H  -1.40800 15.60800 32.66300
H  -2.24300 17.71000 33.94400
H  -0.56600 18.16800 33.75500
H  -1.06500 23.66200 28.66800
H  -2.46500 22.81800 29.30800
H  -2.65700 23.80400 27.82100
H  -2.27600 24.72700 25.89100
H  -0.90000 25.15600 24.81200
H  -0.60000 24.58500 26.38400
H  -0.64700 18.66500 22.09300
H  -2.21500 16.17400 22.04900
H  -3.62600 18.92500 22.42900
H  -3.14300 18.01200 20.95700
H  -2.45500 19.56300 21.22800
H  0.33700 16.93300 21.24700
H  -0.32900 15.37200 21.25500
H  0.78600 15.26000 23.80200
H  1.82600 16.39500 23.07700
H  1.73500 14.84700 22.26600
H  -1.92100 11.02800 26.21100
H  -0.90600 11.87200 25.00900
H  -2.67600 12.02000 25.06200
H  -3.04500 13.85300 30.70600
H  -0.20100 11.21500 32.29800
H  -1.05100 11.60900 33.89000
H  0.27600 12.61100 33.28500
Mg 40.99000 8.47100 30.02200
C  42.89000 9.87200 32.54500
C  38.48600 7.83700 32.22500
C  39.32900 6.98500 27.44200
C  43.63600 9.15300 27.86300
N  40.72100 8.75300 32.10000
C  41.59800 9.41800 32.94900
C  41.01600 9.55800 34.38100
C  39.70700 8.65900 34.29600
C  39.56900 8.43400 32.74800
C  39.69900 7.46200 35.19200
C  40.82100 11.09700 34.82600
C  39.72300 11.28800 35.85700
H  40.19300 12.08600 37.09000
N  39.12900 7.53500 29.86200
C  38.26600 7.35700 30.89400
C  37.16000 6.57100 30.39500
C  37.35900 6.33900 29.02900
C  38.67300 6.96700 28.70900
C  35.97600 6.08800 31.25800
C  36.35900 5.58600 28.06300
O  36.56400 5.42800 26.84700
C  34.91100 5.22200 28.51400
N  41.43000 8.07600 27.96900
C  40.58600 7.56100 27.12500
C  41.07200 7.43700 25.66300
C  42.37600 8.30400 25.75600
C  42.42000 8.68000 27.26300
C  41.18400 5.97500 25.17600
C  42.33400 9.60000 24.91800
C  43.65900 9.94700 24.18400
N  42.95800 9.13600 30.16200
C  43.86000 9.48500 29.18300
C  45.10500 10.08900 29.79700
C  44.67800 10.29300 31.13800
C  43.40500 9.75900 31.27000
C  46.41600 10.45500 29.10500
C  45.06700 10.86300 32.41700
O  46.08200 11.44800 32.73300
C  43.93900 10.63400 33.36900
C  44.36900 9.75700 34.44000
O  44.92700 8.66300 34.23300
O  44.06900 10.18100 35.72300
C  44.40400 9.24700 36.84000
H  37.67000 7.72500 32.94200
H  38.76600 6.43600 26.68400
H  44.46000 9.03200 27.15600
H  41.65200 8.97900 35.05100
H  38.87800 9.33100 34.51900
H  38.94300 7.79000 35.90500
H  40.63100 7.24700 35.71500
H  39.30600 6.60300 34.64800
H  40.75000 11.70400 33.92300
H  41.77300 11.46100 35.21300
H  39.52200 10.25100 36.12700
H  38.82900 11.73000 35.41700
H  35.86500 5.02500 31.04000
H  35.06500 6.58100 30.92000
H  36.15900 6.25000 32.32000
H  34.36400 6.08100 28.90300
H  34.87100 4.36800 29.19100
H  34.30800 5.01900 27.62900
H  40.32400 8.00400 25.10900
H  43.33700 7.81300 25.59700
H  40.50100 5.81100 24.34200
H  40.76100 5.28800 25.90900
H  42.19400 5.67100 24.90200
H  42.09400 10.50700 25.47300
H  41.52400 9.52600 24.19200
H  44.01500 9.00100 23.77500
H  44.38000 10.26400 24.93700
H  43.60000 10.68600 23.38500
H  46.23500 10.97700 28.16500
H  47.07900 9.60800 28.92800
H  46.86400 11.15100 29.81400
H  43.60100 11.59900 33.74400
H  45.29100 9.48700 37.42600
H  44.56400 8.24200 36.45200
H  43.55500 9.25500 37.52300

