158

Mg 44.15400 4.39600 46.87000
C  42.11200 7.26300 46.68900
C  41.49900 2.38700 46.39200
C  46.29300 1.95300 46.08900
C  47.07900 6.67700 47.00500
N  42.05600 4.84400 46.65600
C  41.37500 6.02800 46.52600
C  39.91400 5.83500 46.16700
C  39.79300 4.26400 46.55600
C  41.20500 3.75600 46.50100
C  39.07300 3.84900 47.83800
C  39.51400 6.05000 44.67800
C  37.92600 5.93800 44.43100
H  37.37100 5.71600 43.02200
N  43.85200 2.42400 46.35400
C  42.71700 1.77400 46.34500
C  43.01100 0.34500 46.10800
C  44.37600 0.17300 46.00300
C  44.93700 1.53500 46.19800
C  41.94100 -0.77700 45.96100
C  45.11400 -1.14000 45.70300
O  44.49200 -2.18700 45.70400
C  46.49300 -1.20100 45.21600
N  46.36000 4.33700 46.46200
C  46.91800 3.13800 46.19200
C  48.50000 3.24500 46.25300
C  48.79700 4.71800 46.52800
C  47.35000 5.31100 46.67500
C  49.27400 2.29200 47.13200
C  49.69300 5.34200 45.47100
C  50.45500 6.55000 46.01900
N  44.57300 6.55500 47.00800
C  45.78400 7.28100 47.03700
C  45.37300 8.68200 47.20900
C  44.00000 8.70700 47.00200
C  43.53900 7.40500 46.90200
C  46.27100 9.84300 47.45700
C  42.83500 9.57400 46.82700
O  42.74400 10.76400 46.96900
C  41.51100 8.62000 46.66400
C  40.58100 8.76600 47.84900
O  40.38300 8.00000 48.78100
O  39.83100 9.93300 47.63200
C  38.76600 9.97900 48.67300
H  40.59600 1.77200 46.41100
H  47.03100 1.15300 46.00400
H  47.95400 7.30700 47.17900
H  39.32800 6.44900 46.85100
H  39.38500 3.78500 45.66500
H  38.69600 4.75300 48.31700
H  39.78700 3.40100 48.53000
H  38.25600 3.17700 47.57700
H  40.07200 5.36500 44.04000
H  39.74500 7.10300 44.51400
H  37.45700 6.85500 44.78800
H  37.60700 5.15800 45.12300
H  41.89400 -1.42100 45.08300
H  41.01500 -0.20300 45.91400
H  41.75600 -1.35200 46.86800
H  46.57200 -0.49100 44.39300
H  46.72200 -2.18600 44.81100
H  47.17900 -1.00200 46.03900
H  48.86300 3.11100 45.23400
H  49.33900 4.73800 47.47400
H  49.53400 1.43200 46.51600
H  48.60000 2.02100 47.94500
H  50.17000 2.73700 47.56300
H  48.91800 5.69800 44.79200
H  50.29100 4.71300 44.81200
H  49.99100 7.46900 45.66000
H  51.47200 6.36200 45.67600
H  50.54400 6.55400 47.10600
H  46.50400 9.82900 48.52200
H  45.87700 10.79200 47.09500
H  47.19900 9.65600 46.91600
H  40.87700 8.77900 45.79200
H  38.22100 9.04600 48.53100
H  38.10800 10.79400 48.37000
H  39.08500 10.10000 49.70800
Mg 40.43800 8.24800 29.01000
C  42.19000 9.71800 31.73600
C  38.05300 7.16500 31.06100
C  39.09700 6.64200 26.43400
C  43.18400 9.14300 26.90200
N  40.17900 8.41300 31.21500
C  40.91500 9.11700 32.10600
C  40.25000 9.08900 33.52000
C  39.06500 8.10100 33.22900
C  39.07100 7.84200 31.75000
C  39.10400 6.79200 34.07900
C  39.84800 10.51700 34.09200
C  39.61600 10.45100 35.62700
H  40.83200 10.53700 36.56500
N  38.73500 7.26200 28.75000
C  37.82000 6.92000 29.69300
C  36.72100 6.19800 29.11000
C  36.93200 6.18700 27.71200
C  38.31100 6.60000 27.63100
C  35.55700 5.57300 29.94800
C  36.02800 5.61300 26.63600
O  36.32700 5.51700 25.47500
C  34.70100 5.11100 27.08300
N  41.16000 7.76100 26.97700
C  40.34500 7.11500 26.08300
C  40.84100 7.16300 24.64400
C  42.02200 8.22400 24.86300
C  42.15100 8.42100 26.37600
C  41.36700 5.85600 24.01200
C  41.88500 9.56900 24.09000
C  40.87700 10.71300 24.42000
N  42.36000 9.05500 29.20600
C  43.31600 9.35800 28.22400
C  44.43300 9.96400 28.87800
C  44.05900 10.19900 30.17500
C  42.75000 9.61100 30.39500
C  45.70500 10.38600 28.18700
C  44.50800 10.79400 31.46400
O  45.50400 11.42400 31.78500
C  43.24600 10.45000 32.50300
C  43.78900 9.70300 33.74900
O  43.69300 8.51800 33.97900
O  44.43500 10.55500 34.59200
C  45.28600 10.06700 35.67800
H  37.23700 6.83200 31.70500
H  38.60300 6.20800 25.56200
H  44.14400 9.33600 26.41900
H  40.89100 8.62700 34.27200
H  38.13300 8.50000 33.62900
H  38.29500 6.50000 34.74900
H  39.99300 6.86500 34.70500
H  39.20600 5.96400 33.37700
H  38.85100 10.76000 33.72300
H  40.47600 11.38100 33.87300
H  39.11400 9.51900 35.88700
H  38.91100 11.27400 35.74200
H  35.70300 5.73700 31.01600
H  35.58800 4.50300 29.74000
H  34.61900 6.06900 29.70100
H  34.80100 4.19000 27.65700
H  34.11100 4.77700 26.22900
H  34.23100 5.97800 27.54600
H  40.01200 7.58300 24.07400
H  42.98900 7.89600 24.48100
H  42.24400 6.08200 23.40600
H  40.58400 5.29600 23.50000
H  41.67900 5.30600 24.90000
H  41.86600 9.23900 23.05100
H  42.90200 9.94700 23.99400
H  40.49000 10.53300 25.42300
H  40.08000 10.91600 23.70600
H  41.39300 11.67300 24.40400
H  46.32600 11.02000 28.82000
H  45.39200 10.98500 27.33100
H  46.39700 9.62600 27.82400
H  42.67000 11.37100 32.58800
H  45.98300 10.81600 36.05300
H  45.83400 9.24700 35.21400
H  44.59700 9.70200 36.43900

