158

Mg 25.68000 1.65700 29.14600
C  27.63200 1.23400 32.17300
C  22.95000 1.76000 31.15100
C  24.00400 1.61200 26.37100
C  28.64100 0.86600 27.20600
N  25.30500 1.42800 31.42300
C  26.25700 1.37500 32.40700
C  25.64200 1.57400 33.79800
C  24.11000 1.71600 33.46000
C  24.08000 1.57300 31.93300
C  23.08200 0.94100 34.32900
C  26.24100 2.64600 34.76500
C  25.38200 3.18800 35.85400
H  26.05700 3.37900 37.21800
N  23.73000 1.58800 28.79400
C  22.72100 1.62800 29.76200
C  21.50400 1.66500 29.04000
C  21.79000 1.70700 27.62500
C  23.24700 1.56600 27.53800
C  20.15100 1.64600 29.71700
C  20.83600 1.84000 26.39600
O  21.25400 1.78100 25.25300
C  19.32800 1.94600 26.58100
N  26.27700 1.23300 27.04900
C  25.36200 1.42500 26.08300
C  25.98300 1.61100 24.68800
C  27.49700 1.18100 24.91500
C  27.49200 0.99400 26.46300
C  25.31700 0.72700 23.57200
C  28.44400 2.42400 24.45600
C  28.50300 2.73100 22.98300
N  27.70000 1.33900 29.55700
C  28.79700 1.02500 28.66200
C  29.95000 0.82100 29.48700
C  29.57300 0.87400 30.79400
C  28.17900 1.19500 30.83500
C  31.32800 0.55600 28.87700
C  30.03200 0.81700 32.19500
O  31.13400 0.65200 32.74000
C  28.83900 1.26600 33.08100
C  28.80200 0.38900 34.27100
O  28.49200 -0.78100 34.18600
O  29.23500 1.10300 35.38300
C  29.25500 0.34800 36.64000
H  22.06200 1.89200 31.77200
H  23.40200 1.83800 25.48800
H  29.47400 0.57100 26.56500
H  25.66900 0.59400 34.27600
H  23.91400 2.76600 33.67800
H  22.60000 1.63600 35.01600
H  23.42300 0.16500 35.01400
H  22.25100 0.59800 33.71300
H  26.74000 3.43000 34.19500
H  27.10200 2.17200 35.23700
H  24.51500 2.58200 36.11600
H  25.05700 4.18100 35.54400
H  19.59700 2.58500 29.70200
H  20.31100 1.40500 30.76800
H  19.51000 0.86200 29.31400
H  19.28100 2.51800 27.50800
H  19.01200 0.91000 26.70400
H  18.75900 2.43800 25.79200
H  25.84700 2.62400 24.30900
H  27.79900 0.27000 24.39800
H  24.50200 0.11600 23.95900
H  26.05400 0.08900 23.08500
H  24.92200 1.36500 22.78100
H  29.44400 2.20600 24.83300
H  28.09900 3.29000 25.02000
H  28.94700 3.69200 22.72300
H  27.56200 2.47800 22.49500
H  29.20600 2.12100 22.41400
H  31.26800 0.63000 27.79100
H  31.59300 -0.45400 29.19000
H  31.99400 1.30800 29.30100
H  28.93600 2.28300 33.46100
H  28.33200 0.49000 37.20200
H  29.95700 0.68100 37.40400
H  29.36400 -0.72100 36.46000
Mg 42.56200 41.30800 26.02400
C  41.90600 43.32600 28.74400
C  44.05700 39.06300 28.36300
C  43.46100 39.15300 23.55100
C  41.81400 43.66100 23.72300
N  43.07100 41.32100 28.33700
C  42.50300 42.17700 29.25600
C  42.74800 41.73200 30.71800
C  43.58700 40.48300 30.45100
C  43.59700 40.23700 28.98100
C  45.09400 40.48300 30.97400
C  41.40300 41.44000 31.38600
C  40.87900 42.48200 32.46400
H  41.79200 42.76000 33.73000
N  43.39500 39.31700 26.02200
C  43.97400 38.66100 27.02300
C  44.37600 37.36600 26.54800
C  44.08100 37.29500 25.17000
C  43.54700 38.62500 24.84600
C  44.91300 36.29800 27.52600
C  44.36800 36.12500 24.20300
O  43.97000 36.13700 23.08800
C  44.92800 34.79100 24.65000
N  42.84400 41.42300 23.92300
C  43.10600 40.44200 23.14200
C  42.92700 40.74600 21.60900
C  42.30800 42.16700 21.69200
C  42.28500 42.45800 23.20500
C  44.08100 40.54000 20.72800
C  40.93800 42.27800 20.94800
C  39.69400 41.51400 21.60500
N  42.09600 43.13000 26.17700
C  41.82600 44.01000 25.07000
C  41.30800 45.22000 25.62200
C  41.37700 45.04000 27.07800
C  41.78200 43.69500 27.33700
C  40.87800 46.50500 24.93000
C  41.10600 45.58800 28.30700
O  40.71200 46.75200 28.49500
C  41.38800 44.59300 29.42600
C  42.51600 45.11900 30.22600
O  43.63300 45.24000 29.83800
O  42.00300 45.54400 31.36800
C  42.97700 46.18500 32.20400
H  44.51400 38.45300 29.14500
H  43.63300 38.37500 22.80400
H  41.32100 44.39000 23.07700
H  43.29000 42.56700 31.16200
H  43.10500 39.62700 30.92300
H  45.19000 39.50400 31.44300
H  45.21800 41.24500 31.74400
H  45.85200 40.54000 30.19300
H  41.45600 40.49600 31.93000
H  40.64900 41.30400 30.61100
H  39.97600 41.92200 32.70900
H  40.55700 43.42000 32.01300
H  45.50700 36.78100 28.30100
H  45.55100 35.58500 27.00400
H  44.18600 35.70200 28.07900
H  44.70400 34.00800 23.92600
H  44.40600 34.49600 25.56100
H  46.00300 34.96900 24.68600
H  42.10100 40.17500 21.18500
H  42.95000 42.84300 21.12700
H  44.89400 41.13100 21.15000
H  43.87000 40.80100 19.69100
H  44.37800 39.49100 20.71700
H  41.08100 41.91900 19.92900
H  40.73400 43.34600 21.02900
H  39.39000 40.65000 21.01300
H  38.84600 42.15600 21.84000
H  40.00400 41.15300 22.58600
H  40.41400 46.48000 23.94400
H  41.79400 47.09400 24.98200
H  40.22400 47.04200 25.61700
H  40.50300 44.51000 30.05600
H  43.63600 46.89700 31.70700
H  43.63800 45.36600 32.48500
H  42.61300 46.57200 33.15600

