158

Mg 24.08800 -4.85300 45.40500
C  25.99500 -2.25500 44.00500
C  21.52100 -4.18300 43.33100
C  22.70500 -7.55400 46.51600
C  27.08900 -5.82500 47.05700
N  23.85100 -3.39600 43.85600
C  24.67600 -2.41700 43.45000
C  24.02800 -1.47400 42.40800
C  22.49900 -1.91100 42.48600
C  22.58400 -3.24800 43.31000
C  21.50600 -0.90500 43.20300
C  24.77400 -1.78800 41.06700
C  25.40400 -0.63200 40.22600
H  25.11700 -0.60700 38.74400
N  22.28300 -5.78300 45.01500
C  21.30800 -5.32900 44.12300
C  20.16000 -6.16100 44.19800
C  20.45200 -7.11200 45.18700
C  21.82900 -6.82700 45.66200
C  18.91500 -5.83000 43.35100
C  19.49700 -8.23600 45.55700
O  18.35500 -8.37300 45.07200
C  19.92900 -9.37800 46.52000
N  24.96100 -6.56400 46.42000
C  24.02800 -7.45700 46.90200
C  24.65100 -8.41000 47.90300
C  25.93000 -7.69300 48.25200
C  26.08200 -6.66700 47.12100
C  23.79200 -8.97300 49.09400
C  27.17600 -8.66100 48.41800
C  27.88500 -8.86900 49.76200
N  26.14800 -4.20300 45.47500
C  27.21600 -4.75800 46.15600
C  28.34800 -3.86500 46.03600
C  27.92500 -2.90000 45.15100
C  26.57600 -3.12600 44.92300
C  29.71800 -4.00000 46.64300
C  28.40600 -1.74100 44.43300
O  29.49000 -1.22300 44.30200
C  27.06600 -1.33700 43.64300
C  26.74900 0.06500 44.08000
O  26.43100 0.51000 45.17400
O  27.02800 0.85000 42.98000
C  27.22300 2.29500 43.16200
H  20.69000 -3.91300 42.67600
H  22.22300 -8.34400 47.09600
H  27.95800 -6.03500 47.68400
H  24.23400 -0.42800 42.63500
H  22.09700 -2.02500 41.48000
H  22.10100 -0.14300 43.70700
H  20.86900 -1.41100 43.92800
H  20.81500 -0.51200 42.45800
H  24.02500 -2.34700 40.50700
H  25.54800 -2.53900 41.23100
H  26.46300 -0.80200 40.41900
H  25.06700 0.34600 40.57100
H  18.00800 -6.29500 43.73500
H  19.00800 -6.29200 42.36800
H  18.72300 -4.76100 43.26100
H  19.12300 -10.09900 46.65500
H  20.14300 -8.96900 47.50800
H  20.79000 -9.94200 46.16100
H  24.94700 -9.32300 47.38600
H  25.75700 -7.04900 49.11400
H  22.92800 -8.33200 49.26700
H  24.46900 -8.96300 49.94800
H  23.35700 -9.94100 48.84500
H  27.93400 -8.40000 47.68000
H  26.98000 -9.70400 48.16800
H  27.60400 -9.86300 50.11000
H  27.50300 -8.12900 50.46600
H  28.94600 -8.72400 49.56200
H  29.45600 -4.02200 47.70100
H  30.33200 -3.10800 46.52100
H  30.19600 -4.95100 46.40500
H  27.26600 -1.44400 42.57700
H  26.71100 2.72800 44.02100
H  26.89800 2.79300 42.24800
H  28.28400 2.54200 43.16300
Mg 36.30200 48.83400 26.34800
C  36.58700 46.75000 29.23100
C  35.00900 51.25600 28.39500
C  35.95700 50.74300 23.70100
C  37.66800 46.20600 24.45600
N  35.78700 49.01200 28.59200
C  36.00100 48.00700 29.56100
C  35.73000 48.58100 30.96400
C  34.96900 49.94300 30.60200
C  35.34300 50.13700 29.14400
C  33.37400 49.91000 30.94800
C  36.98100 48.73300 31.65600
C  36.93900 48.98900 33.19200
H  35.55200 49.14400 33.82200
N  35.67100 50.76700 26.11800
C  35.10700 51.58700 27.05100
C  34.66600 52.78500 26.47600
C  34.97500 52.69500 25.10500
C  35.57400 51.39300 24.87700
C  34.20000 54.05500 27.24400
C  34.72600 53.73500 23.99100
O  35.06800 53.57400 22.79100
C  33.82300 54.89500 24.20100
N  36.79900 48.49600 24.40100
C  36.47100 49.47800 23.43200
C  36.74200 48.95700 21.96900
C  37.40700 47.65100 22.29500
C  37.28100 47.43000 23.76400
C  35.42300 48.84100 21.11000
C  38.95600 47.45100 21.77000
C  39.93900 47.85500 22.90100
N  36.83800 46.76500 26.65300
C  37.42000 45.84600 25.79900
C  37.67500 44.59600 26.52200
C  37.46700 44.92900 27.90900
C  36.86000 46.20400 27.95800
C  38.08500 43.30300 25.87800
C  37.57300 44.42200 29.25500
O  37.97900 43.29400 29.65400
C  37.02700 45.56400 30.21900
C  35.87800 44.97500 30.96800
O  35.00700 44.29900 30.46600
O  35.95000 45.31400 32.28500
C  34.84500 44.93200 33.17200
H  34.76500 52.15900 28.95800
H  35.65000 51.31500 22.82300
H  38.06000 45.49600 23.72500
H  35.19400 47.80500 31.51100
H  35.41700 50.72100 31.22100
H  33.07500 50.65300 31.68700
H  33.12300 48.89000 31.24100
H  32.81600 50.14900 30.04300
H  37.43800 49.56900 31.12600
H  37.60000 47.84000 31.57200
H  37.51200 49.89000 33.40800
H  37.43600 48.19000 33.74200
H  33.32400 54.45000 26.73000
H  35.03600 54.75400 27.22000
H  33.92600 53.82000 28.27300
H  32.81900 54.53800 24.43400
H  33.88800 55.44500 23.26300
H  34.27400 55.58600 24.91400
H  37.40700 49.58000 21.37100
H  36.84900 46.82000 21.86500
H  34.46500 48.73200 21.61800
H  35.59600 47.91200 20.56700
H  35.34600 49.68500 20.42400
H  39.21600 47.84600 20.78800
H  39.00100 46.38500 21.54700
H  40.77500 48.28700 22.35100
H  40.38600 47.03600 23.46500
H  39.56000 48.62900 23.56900
H  39.02100 42.85800 26.21600
H  37.86500 43.24500 24.81200
H  37.39400 42.56000 26.27700
H  37.82100 45.82600 30.91800
H  34.18800 44.16500 32.76200
H  34.29800 45.84400 33.40900
H  35.29500 44.44000 34.03400

