158

Mg 34.81300 3.50600 29.72800
C  32.85900 4.52800 32.36900
C  37.49400 3.22000 31.80800
C  36.82600 3.02100 27.07900
C  32.04500 3.83400 27.53500
N  35.17800 4.08400 31.91800
C  34.14000 4.15800 32.84400
C  34.76100 4.06000 34.23500
C  36.33100 3.84200 34.01000
C  36.36700 3.74600 32.43200
C  37.30900 4.98800 34.45200
C  34.09600 2.80900 34.94200
C  33.60300 3.07600 36.42600
H  34.27300 4.21400 37.15000
N  36.92700 3.08800 29.53000
C  37.82700 2.94200 30.49500
C  39.08800 2.42200 29.89000
C  38.88700 2.38700 28.46400
C  37.52700 2.86200 28.28500
C  40.28300 2.05500 30.70500
C  39.78700 1.90800 27.34200
O  39.49500 2.00200 26.12700
C  41.08000 1.23000 27.76800
N  34.42600 3.19200 27.62100
C  35.44500 3.17800 26.74300
C  34.93200 3.04100 25.32900
C  33.41800 2.98600 25.49800
C  33.25800 3.40400 26.96000
C  35.33100 4.32800 24.48600
C  32.76300 1.58800 25.19800
C  31.96600 1.47000 23.85900
N  32.89300 4.13300 29.88600
C  31.86700 4.24700 28.92100
C  30.64400 4.63800 29.58700
C  31.06400 4.84700 30.95500
C  32.41300 4.58800 31.03200
C  29.30500 4.71500 29.03000
C  30.52100 5.13700 32.26600
O  29.33500 5.32400 32.57700
C  31.66300 4.95300 33.25700
C  31.97800 6.16900 33.96300
O  32.52800 7.18300 33.60400
O  31.28100 6.06900 35.14000
C  31.09400 7.30000 35.90300
H  38.30000 3.02600 32.51900
H  37.34900 2.80900 26.14400
H  31.15000 3.68100 26.92800
H  34.61600 5.01000 34.75000
H  36.76900 2.92800 34.41000
H  38.13600 4.56600 35.02400
H  36.89400 5.81000 35.03400
H  37.78100 5.43100 33.57500
H  34.88100 2.05300 34.93400
H  33.29400 2.40000 34.32800
H  33.64600 2.17700 37.04100
H  32.56800 3.39900 36.31600
H  41.16400 2.47600 30.21900
H  40.44500 0.97800 30.66600
H  40.11900 2.42600 31.71600
H  41.39600 0.66900 26.88800
H  41.09900 0.57600 28.63900
H  41.81600 2.02500 27.88800
H  35.24100 2.17900 24.73800
H  32.95500 3.73200 24.85200
H  36.07400 4.83500 25.10200
H  34.55200 5.05900 24.26900
H  35.67700 4.05400 23.48900
H  32.19000 1.23600 26.05600
H  33.59000 0.88200 25.11900
H  30.96100 1.37700 24.27000
H  32.20900 0.63400 23.20200
H  31.99100 2.31400 23.16900
H  28.83500 5.68100 29.21000
H  28.64800 3.97800 29.49300
H  29.29500 4.64800 27.94200
H  31.61000 4.25600 34.09400
H  30.97300 7.13500 36.97400
H  30.38600 7.90400 35.33700
H  31.99900 7.90700 35.88800
Mg -10.97800 16.56000 40.99200
C  -7.53900 15.68000 40.93600
C  -10.04900 19.79000 40.46700
C  -14.21900 17.20600 40.35900
C  -11.71700 13.09000 40.99600
N  -8.96100 17.66300 40.87100
C  -7.72300 17.04000 40.90600
C  -6.64000 18.10200 40.74200
C  -7.42800 19.49300 40.91100
C  -8.89400 18.96200 40.72000
C  -7.28600 20.15600 42.23300
C  -5.85900 17.91400 39.48200
C  -4.35000 17.76700 39.48500
H  -3.83000 16.56500 38.68300
N  -11.99100 18.29400 40.55800
C  -11.41300 19.52900 40.43100
C  -12.51200 20.42200 40.10300
C  -13.78100 19.72100 40.14300
C  -13.39000 18.32000 40.31600
C  -12.19200 21.84700 39.91400
C  -15.16400 20.32200 40.01500
O  -15.26600 21.50900 39.92200
C  -16.43800 19.56100 40.13800
N  -12.69700 15.33200 40.63900
C  -13.91200 15.87500 40.48200
C  -14.97500 14.86400 40.45800
C  -14.24100 13.48100 40.66200
C  -12.77500 13.97700 40.73900
C  -16.16700 15.09300 41.38700
C  -14.45100 12.47600 39.48100
C  -14.81500 10.93900 39.65800
N  -9.90200 14.73700 41.03400
C  -10.35900 13.41100 41.07900
C  -9.25700 12.48200 41.19000
C  -8.13100 13.27400 41.09900
C  -8.53900 14.67900 40.92800
C  -9.36900 10.99100 41.27800
C  -6.73500 13.28900 41.09300
O  -5.96100 12.36900 41.17300
C  -6.30000 14.84700 41.07600
C  -5.62100 14.98300 42.32400
O  -6.15700 15.48900 43.33200
O  -4.25900 14.62400 42.26100
C  -3.53300 14.61900 43.49800
H  -9.87400 20.85200 40.28500
H  -15.30800 17.27300 40.33900
H  -12.02700 12.04600 41.07400
H  -5.97800 17.96100 41.59600
H  -7.04900 20.23000 40.20300
H  -6.80100 19.54600 42.99600
H  -8.13300 20.66600 42.69300
H  -6.64700 21.01900 42.04600
H  -6.02500 18.79300 38.85900
H  -6.27000 17.03900 38.97800
H  -4.03000 17.74900 40.52700
H  -3.86900 18.60100 38.97300
H  -11.66100 21.96300 38.97000
H  -11.41300 22.08600 40.63900
H  -12.95700 22.62400 39.93100
H  -16.48200 19.07800 39.16200
H  -17.34800 20.15800 40.19100
H  -16.50900 18.83800 40.95100
H  -15.41600 14.93100 39.46300
H  -14.52800 13.09000 41.63800
H  -16.46000 14.20500 41.94800
H  -16.95300 15.57600 40.80600
H  -15.87700 15.81700 42.14800
H  -13.47500 12.46100 38.99700
H  -15.16600 12.84200 38.74400
H  -15.11200 10.73800 40.68800
H  -13.98700 10.26000 39.45400
H  -15.61100 10.66200 38.96600
H  -10.26400 10.68900 41.82200
H  -8.52700 10.61000 41.85500
H  -9.31800 10.57300 40.27200
H  -5.63500 14.91300 40.21400
H  -3.27200 15.65700 43.70500
H  -2.65800 14.01900 43.24700
H  -4.02700 14.10800 44.32400

