158

Mg 47.71500 34.93200 27.74400
C  46.01000 33.02400 30.19600
C  47.81200 37.62100 29.91200
C  48.70900 36.84100 25.11700
C  46.99600 32.34900 25.32600
N  47.08400 35.20800 29.80000
C  46.55600 34.25500 30.64700
C  46.66100 34.84400 32.11500
C  46.80700 36.33200 31.91500
C  47.28200 36.41100 30.45100
C  45.48300 37.12300 32.11100
C  47.96400 34.15200 32.69200
C  47.88600 34.03300 34.26100
H  46.91800 34.93400 35.10300
N  48.33600 36.91000 27.58200
C  48.28200 37.78600 28.57300
C  48.84200 39.02900 28.12500
C  49.08700 38.87000 26.72900
C  48.79000 37.47300 26.40200
C  49.17200 40.13600 29.03300
C  49.83500 39.84000 25.73400
O  50.17700 39.53000 24.59200
C  50.36600 41.15500 26.28500
N  47.79600 34.59600 25.46600
C  48.29400 35.57800 24.65300
C  48.24900 35.13500 23.17900
C  47.82200 33.66200 23.26300
C  47.47200 33.54100 24.75500
C  47.33000 36.14200 22.39800
C  48.85000 32.62300 22.73300
C  50.13400 32.43000 23.59800
N  46.79900 33.06100 27.73000
C  46.54000 32.12500 26.69400
C  45.98900 30.89400 27.28500
C  45.74000 31.26700 28.62700
C  46.16500 32.59100 28.81300
C  45.80900 29.61900 26.56900
C  45.07800 30.79900 29.88800
O  44.56000 29.71700 30.11800
C  45.10200 32.07500 30.87400
C  45.56400 31.65600 32.18700
O  46.44700 30.89500 32.39700
O  44.73000 32.24500 33.12100
C  44.68500 31.77500 34.52900
H  47.88500 38.48400 30.57800
H  49.16600 37.35500 24.26900
H  46.82100 31.61500 24.53700
H  45.80300 34.76400 32.78200
H  47.55000 36.84200 32.52700
H  44.97400 37.26400 31.15700
H  45.63400 38.08800 32.59500
H  44.72400 36.60100 32.69300
H  48.75800 34.82800 32.37500
H  48.19500 33.22000 32.17500
H  48.89200 34.16300 34.66000
H  47.57400 33.01800 34.50700
H  50.22700 40.37400 28.90300
H  49.00800 40.00400 30.10200
H  48.50100 40.93300 28.71300
H  49.65300 41.76800 26.83700
H  50.57000 41.72900 25.38100
H  51.26800 40.89600 26.83900
H  49.23900 35.20400 22.72800
H  46.92800 33.68500 22.63900
H  46.75200 36.72900 23.11200
H  46.54600 35.70700 21.77800
H  47.93100 36.85700 21.83700
H  49.28000 32.87300 21.76300
H  48.23600 31.73200 22.59700
H  50.39800 31.39600 23.81700
H  49.90900 33.03000 24.48000
H  51.00700 32.94400 23.19400
H  46.16400 28.80900 27.20600
H  46.33400 29.46500 25.62600
H  44.77500 29.36900 26.33100
H  44.07200 32.34400 31.10600
H  44.92700 30.71200 34.53800
H  43.65000 31.90200 34.84500
H  45.40100 32.22600 35.21500
Mg 9.94200 48.39000 26.33200
C  7.88800 48.20900 29.16100
C  12.47200 49.30400 28.16900
C  11.64900 48.23500 23.49700
C  6.89600 47.70500 24.39000
N  10.10800 48.75500 28.41700
C  9.21100 48.68600 29.44600
C  9.90100 48.96700 30.73400
C  11.11300 49.87100 30.34600
C  11.26700 49.33000 28.84300
C  10.89700 51.36200 30.55400
C  10.14400 47.80000 31.70100
C  9.41100 47.92100 33.07600
H  9.57400 46.75800 34.05700
N  11.83700 48.68200 25.94500
C  12.79200 48.99900 26.83000
C  14.11200 48.88500 26.27700
C  13.91000 48.41900 24.94000
C  12.45000 48.46900 24.69900
C  15.40900 49.10000 27.07000
C  14.89700 47.90300 23.95300
O  14.57600 47.41800 22.86800
C  16.34300 47.84900 24.41800
N  9.31400 48.22200 24.23200
C  10.30300 48.11500 23.33600
C  9.66400 47.84000 21.91800
C  8.14200 47.69600 22.18400
C  8.10600 47.81200 23.69700
C  10.13000 48.76500 20.72900
C  7.39900 46.48900 21.61400
C  7.50200 46.31400 20.08100
N  7.80900 48.10900 26.63700
C  6.74300 47.82100 25.78100
C  5.59600 47.51300 26.58400
C  6.10100 47.50800 27.88000
C  7.36500 47.90900 27.85100
C  4.27900 47.06600 26.12400
C  5.56300 47.38300 29.23700
O  4.47000 47.06800 29.65400
C  6.82300 47.76000 30.12400
C  7.09600 46.55800 30.90700
O  7.83800 45.61200 30.62400
O  6.26200 46.66700 32.01700
C  6.41400 45.48800 32.92800
H  13.31900 49.55200 28.81100
H  12.21900 47.99900 22.59600
H  6.04500 47.29900 23.83900
H  9.15800 49.68100 31.09300
H  11.98500 49.54900 30.91500
H  10.29700 51.72600 29.72000
H  11.84300 51.89400 30.45300
H  10.56400 51.55800 31.57300
H  11.22700 47.72000 31.79400
H  9.77600 46.93600 31.14700
H  8.34300 48.11100 32.96800
H  9.76900 48.78000 33.64300
H  15.16000 49.02900 28.12900
H  15.80200 50.07900 26.79700
H  16.23700 48.43200 26.83400
H  16.48100 47.18600 25.27200
H  16.71700 48.86600 24.53500
H  16.89700 47.40400 23.59200
H  10.05100 46.83500 21.75100
H  7.64000 48.64000 21.97400
H  9.26100 49.31200 20.36300
H  10.65600 48.16000 19.99200
H  10.83800 49.50000 21.11300
H  6.34100 46.67900 21.79300
H  7.74400 45.57700 22.10200
H  6.64200 46.85000 19.68100
H  7.50800 45.23400 19.93000
H  8.46700 46.69600 19.74800
H  3.71600 47.87400 25.65600
H  3.70300 46.57600 26.90900
H  4.47600 46.21900 25.46700
H  6.42600 48.54000 30.77400
H  6.96900 45.63900 33.85300
H  6.89700 44.62900 32.46100
H  5.39200 45.24400 33.21800

