158

Mg -11.82700 38.11300 41.34100
C  -9.55400 35.45800 40.96500
C  -9.48800 40.17900 39.86300
C  -14.27400 40.32600 40.89500
C  -14.15100 35.81000 42.66200
N  -9.83800 37.75300 40.35200
C  -9.05400 36.64800 40.33100
C  -7.69400 36.85700 39.66200
C  -7.64900 38.38500 39.77100
C  -9.04600 38.84200 39.96200
C  -6.57900 38.94100 40.75800
C  -7.61900 36.20100 38.21500
C  -6.24800 35.53700 37.88200
H  -5.42000 36.16000 36.83100
N  -11.88700 40.02100 40.38200
C  -10.80900 40.75700 40.04700
C  -11.21100 42.11000 39.79400
C  -12.63000 42.19900 40.03800
C  -12.98500 40.77000 40.45200
C  -10.23700 43.25100 39.45500
C  -13.47900 43.46800 39.95400
O  -13.00600 44.53400 39.58600
C  -14.99700 43.42100 40.05600
N  -13.92500 38.03000 41.73400
C  -14.72100 39.10100 41.44100
C  -16.20400 38.87200 41.77600
C  -16.10400 37.37500 42.32500
C  -14.65200 37.01600 42.22400
C  -16.85000 39.87000 42.74800
C  -16.94900 36.40900 41.48200
C  -18.44500 36.50700 41.65200
N  -11.85100 36.05200 41.87900
C  -12.80800 35.26600 42.54700
C  -12.21000 33.95000 42.82000
C  -10.95900 34.00700 42.16700
C  -10.82000 35.21700 41.54000
C  -12.95700 32.91300 43.60000
C  -9.75400 33.26900 41.92400
O  -9.42300 32.13300 42.31500
C  -8.81100 34.16700 41.05900
C  -7.58500 34.19300 41.83100
O  -6.74900 33.30300 41.79500
O  -7.41900 35.36300 42.49100
C  -6.31000 35.22000 43.38100
H  -8.70200 40.88600 39.59100
H  -15.04600 41.07100 40.69000
H  -14.86200 35.12800 43.13400
H  -6.82600 36.52300 40.23000
H  -7.29000 38.85200 38.85400
H  -5.99600 38.13800 41.21000
H  -7.16800 39.38500 41.56100
H  -5.97000 39.69900 40.26600
H  -7.84800 36.99800 37.50800
H  -8.37400 35.41700 38.15700
H  -6.47600 34.50400 37.61700
H  -5.62800 35.44300 38.77400
H  -10.42900 43.61100 38.44400
H  -9.19400 43.04100 39.21800
H  -10.28600 44.04100 40.20400
H  -15.51000 44.37200 39.91200
H  -15.22100 42.98100 41.02800
H  -15.31100 42.66800 39.33400
H  -16.83700 38.85300 40.88800
H  -16.28500 37.32400 43.39800
H  -17.28500 39.34200 43.59700
H  -17.56400 40.48200 42.19700
H  -16.12000 40.57400 43.14800
H  -16.60600 35.37600 41.54700
H  -16.75900 36.71800 40.45400
H  -18.73600 35.46700 41.80000
H  -18.97100 36.92900 40.79600
H  -18.66900 37.09900 42.54000
H  -12.42400 32.56400 44.48500
H  -13.14100 32.02700 42.99300
H  -13.87000 33.36500 43.98900
H  -8.73500 33.65200 40.10100
H  -5.42100 35.20200 42.75100
H  -6.33900 34.29900 43.96300
H  -6.29200 36.07300 44.06000
Mg -1.60200 33.66400 27.12000
C  -3.44500 32.28000 29.85400
C  0.09700 35.69500 29.30900
C  -0.28400 35.25500 24.40900
C  -3.73200 32.02200 24.92100
N  -1.67800 33.96700 29.42200
C  -2.42500 33.24500 30.31300
C  -2.01000 33.67100 31.77100
C  -0.93900 34.82800 31.46800
C  -0.84600 34.89900 29.95300
C  -1.31800 36.22200 32.11700
C  -1.54300 32.47500 32.68700
C  -2.48500 31.92500 33.65800
H  -2.07700 31.89100 35.13500
N  -0.20200 35.21600 26.86800
C  0.33600 35.94100 27.91600
C  1.30200 36.82200 27.37000
C  1.16100 36.76900 25.90500
C  0.20800 35.71600 25.65000
C  2.07200 37.75900 28.22300
C  1.84300 37.56400 24.90800
O  1.70900 37.38100 23.68200
C  2.86400 38.65500 25.36400
N  -1.97200 33.74900 24.98400
C  -1.26400 34.34500 24.09100
C  -1.66100 34.03900 22.63600
C  -2.48400 32.71500 22.84700
C  -2.78000 32.82300 24.35800
C  -2.48100 35.15000 22.04300
C  -1.78100 31.31700 22.53600
C  -2.68500 30.18800 21.93100
N  -3.21000 32.35500 27.26000
C  -3.96200 31.73200 26.29200
C  -4.87100 30.85100 26.92000
C  -4.65600 30.99600 28.30700
C  -3.70200 31.95100 28.47800
C  -5.93500 29.99200 26.18800
C  -5.12600 30.63700 29.60800
O  -6.04500 29.78600 29.89900
C  -4.37200 31.48300 30.65400
C  -5.45600 32.37000 31.13700
O  -6.13300 33.19200 30.55500
O  -5.82700 31.97200 32.35900
C  -7.05200 32.62200 32.82700
H  0.69100 36.23000 30.05400
H  0.06400 35.58900 23.43000
H  -4.29700 31.52200 24.13200
H  -2.88300 34.13200 32.23200
H  0.07000 34.62400 31.82700
H  -1.75600 36.86900 31.35700
H  -0.44700 36.76400 32.48600
H  -2.07600 36.17500 32.89800
H  -0.69800 32.87800 33.24400
H  -1.12200 31.69000 32.05900
H  -2.69300 30.86400 33.52200
H  -3.47100 32.37600 33.54700
H  1.67100 37.74400 29.23700
H  1.92300 38.80400 27.94900
H  3.13300 37.51200 28.25600
H  3.42700 39.06300 24.52400
H  3.57500 38.13200 26.00400
H  2.29000 39.42700 25.87600
H  -0.75600 33.80400 22.07600
H  -3.42000 32.74200 22.28900
H  -2.35200 36.07100 22.61000
H  -3.52100 34.92400 21.80600
H  -2.04600 35.48200 21.10100
H  -1.48300 30.99800 23.53400
H  -0.84500 31.51800 22.01300
H  -2.86300 29.41200 22.67600
H  -2.20600 29.60300 21.14600
H  -3.63300 30.57900 21.56100
H  -5.46500 29.04100 25.93700
H  -6.33000 30.66500 25.42700
H  -6.74600 29.75900 26.87700
H  -3.90500 30.83300 31.39400
H  -7.82700 32.44900 32.08100
H  -6.86100 33.68800 32.95400
H  -7.44100 32.12300 33.71500

