158

Mg 40.72000 41.38000 27.83700
C  39.60100 44.12300 29.99600
C  41.32800 39.56100 30.53900
C  41.58000 39.17700 25.73300
C  40.39700 43.93200 25.26500
N  40.49600 41.83600 29.98200
C  39.90400 42.88400 30.63000
C  39.90300 42.61700 32.19900
C  40.55900 41.18800 32.38100
C  40.80200 40.77600 30.86800
C  41.71100 41.13800 33.43000
C  38.49700 42.84100 32.90700
C  38.09700 42.09100 34.21900
H  37.65500 42.83300 35.45900
N  41.29200 39.53800 28.03000
C  41.67300 38.94100 29.27300
C  42.23600 37.59900 29.00800
C  42.35000 37.52200 27.59100
C  41.70100 38.76000 27.07900
C  42.66400 36.63200 30.08700
C  42.97600 36.38500 26.82800
O  43.02900 36.42200 25.63000
C  43.56700 35.22100 27.52400
N  40.93700 41.51600 25.80800
C  41.23500 40.42400 25.12100
C  41.09800 40.65600 23.67600
C  40.54500 42.15000 23.47300
C  40.53600 42.56000 24.94700
C  42.57400 40.46100 23.10900
C  39.11200 42.13100 22.87900
C  38.12100 41.20300 23.48100
N  40.36500 43.61700 27.64000
C  40.23900 44.44900 26.53800
C  39.83800 45.76500 26.91200
C  39.50800 45.67700 28.26200
C  39.81900 44.35400 28.63600
C  39.69700 46.89900 26.03900
C  38.96000 46.44300 29.40900
O  38.50600 47.58200 29.49700
C  38.99300 45.39100 30.60200
C  39.76400 46.03600 31.73100
O  40.97800 46.29700 31.75400
O  38.80800 46.38400 32.68900
C  39.34200 47.00700 33.95700
H  41.47600 38.93800 31.42300
H  41.88000 38.50000 24.93100
H  40.27600 44.59300 24.40500
H  40.65900 43.35900 32.45400
H  39.77100 40.50500 32.69900
H  42.72400 40.93500 33.08200
H  41.55600 40.58300 34.35500
H  41.89000 42.16700 33.74100
H  37.72800 42.63100 32.16400
H  38.34800 43.87800 33.20700
H  39.01700 41.69100 34.64400
H  37.39200 41.32600 33.89200
H  42.58700 37.19700 31.01600
H  43.69000 36.27900 29.98300
H  41.99000 35.78400 30.20800
H  44.42100 35.51200 28.13500
H  44.04000 34.60500 26.75900
H  42.81300 34.64000 28.05500
H  40.45700 39.88600 23.24600
H  41.10700 42.64400 22.68100
H  42.85200 41.41600 22.66400
H  42.49400 39.67000 22.36300
H  43.30200 40.13000 23.85000
H  39.15300 41.87300 21.82100
H  38.70600 43.14000 22.95700
H  38.55300 40.77900 24.38800
H  37.57400 40.57800 22.77400
H  37.35100 41.84000 23.91600
H  38.70300 47.01600 25.60800
H  40.34700 46.94900 25.16500
H  39.81800 47.81400 26.61800
H  37.99200 45.11700 30.93800
H  39.34700 46.30100 34.78800
H  38.63900 47.77700 34.27600
H  40.36000 47.39000 33.88400
Mg 9.10500 47.75800 25.33600
C  7.29700 47.54500 28.35900
C  11.72800 49.15700 27.26800
C  10.96200 48.05800 22.64300
C  6.22900 47.33300 23.54600
N  9.41200 48.42200 27.52000
C  8.58000 48.05100 28.53800
C  9.24800 48.39400 29.84200
C  10.36400 49.45600 29.41600
C  10.54700 49.06000 27.99300
C  9.91400 50.95100 29.63900
C  9.78200 47.22600 30.59200
C  9.78800 47.36100 32.16600
H  8.96600 46.41000 33.03500
N  11.12900 48.27000 25.01400
C  12.02200 48.77000 25.89400
C  13.33500 48.70700 25.28700
C  13.11500 48.34200 23.93400
C  11.65500 48.13700 23.77800
C  14.59500 48.90900 26.02400
C  14.10500 47.93000 22.90000
O  13.79800 47.71100 21.77500
C  15.57000 47.71000 23.31500
N  8.61100 47.84200 23.36900
C  9.57300 47.94800 22.39200
C  8.91500 48.11100 21.03000
C  7.42700 47.70200 21.34100
C  7.43600 47.55100 22.84800
C  9.13300 49.34100 20.15800
C  6.98100 46.42900 20.52100
C  5.92200 46.78600 19.34700
N  7.19300 47.43300 25.84100
C  6.06100 47.27500 24.97000
C  4.91300 46.94000 25.78700
C  5.35700 47.06300 27.10100
C  6.69800 47.43500 27.07300
C  3.49800 46.99600 25.23700
C  4.88200 47.02600 28.45300
O  3.74300 46.74100 28.88700
C  6.11200 47.33300 29.31800
C  6.28900 46.06700 30.12900
O  6.95700 45.11200 29.80100
O  5.50600 46.10400 31.22600
C  5.11000 44.75300 31.71800
H  12.56500 49.53600 27.85800
H  11.50300 48.24700 21.71400
H  5.34400 46.93100 23.04900
H  8.40900 48.79800 30.41000
H  11.21300 49.29600 30.08200
H  8.85800 50.97500 29.91100
H  10.04100 51.59000 28.76600
H  10.45300 51.43100 30.45500
H  10.82800 46.99100 30.39500
H  9.20900 46.35500 30.27500
H  9.41400 48.33100 32.49700
H  10.80600 47.41600 32.55000
H  14.38400 48.90700 27.09300
H  14.93200 49.92900 25.84200
H  15.41700 48.20500 25.89800
H  15.81300 46.85400 23.94600
H  15.96500 48.55600 23.87700
H  16.15500 47.73800 22.39600
H  9.46100 47.29600 20.55400
H  6.76300 48.55600 21.20500
H  9.79500 50.03600 20.67500
H  8.14800 49.80200 20.08400
H  9.43400 49.05900 19.14900
H  6.48400 45.69700 21.15600
H  7.82500 45.86100 20.12800
H  6.22000 46.50700 18.33600
H  5.72700 47.85800 19.33300
H  4.95000 46.32100 19.51000
H  2.99800 46.03700 25.10100
H  3.37700 47.43800 24.24800
H  2.84100 47.51700 25.93400
H  5.77400 48.12600 29.98400
H  4.21600 44.83800 32.33500
H  5.87800 44.23200 32.29000
H  4.78400 44.16100 30.86200

