158

Mg 25.67200 1.32900 29.27200
C  27.76600 0.80700 32.04200
C  23.04700 1.70700 31.38000
C  23.80400 1.44500 26.58000
C  28.40600 0.30200 27.24200
N  25.47400 1.31000 31.40500
C  26.48500 1.22900 32.32800
C  25.96000 1.58400 33.68200
C  24.38300 1.47500 33.54000
C  24.24100 1.51300 32.03300
C  23.68200 0.19700 34.21600
C  26.42300 2.96100 34.19600
C  27.50500 3.03300 35.31400
H  27.16100 3.80100 36.59200
N  23.61600 1.57500 29.04000
C  22.71700 1.73600 30.00900
C  21.41300 2.02400 29.36800
C  21.71100 2.03700 27.94500
C  23.06500 1.71900 27.76400
C  20.18500 2.37700 30.11600
C  20.70300 2.27300 26.84300
O  20.97200 2.41600 25.62500
C  19.24100 2.35700 27.15000
N  25.92000 0.56700 27.35300
C  25.05000 0.88700 26.43700
C  25.52200 0.64600 24.99300
C  27.09600 0.57300 25.15800
C  27.12000 0.45900 26.71000
C  24.84600 -0.55000 24.43700
C  27.78100 1.90600 24.72800
C  29.04600 1.66400 23.83900
N  27.69900 0.61100 29.46900
C  28.74000 0.32400 28.58700
C  29.95300 0.06300 29.24100
C  29.62300 0.21900 30.64600
C  28.24000 0.53400 30.68100
C  31.26400 -0.24000 28.61100
C  30.20300 0.17400 31.95700
O  31.30700 -0.10100 32.38200
C  28.98300 0.65000 32.95700
C  28.90600 -0.27000 34.16600
O  28.28300 -1.28500 34.21900
O  29.56100 0.29600 35.18700
C  29.38800 -0.41700 36.43700
H  22.22300 1.91400 32.06600
H  23.26700 1.47700 25.63000
H  29.28500 0.20100 26.60200
H  26.28300 0.85000 34.42100
H  24.02000 2.37900 34.02900
H  22.97900 0.61500 34.93800
H  24.37700 -0.44100 34.76200
H  23.29300 -0.48500 33.46000
H  25.61100 3.64900 34.43300
H  26.78000 3.50000 33.31900
H  28.36800 3.55600 34.90300
H  27.78000 2.01100 35.57600
H  19.68100 3.24600 29.69300
H  20.35200 2.65400 31.15700
H  19.41300 1.60900 30.05900
H  18.88600 1.49900 27.72100
H  18.69900 2.49300 26.21400
H  19.17100 3.30100 27.69100
H  25.27800 1.58800 24.50200
H  27.57500 -0.33500 24.79100
H  24.80400 -1.32300 25.20400
H  25.29300 -1.05500 23.58000
H  23.84300 -0.23400 24.15200
H  28.14500 2.57000 25.51300
H  27.14500 2.44300 24.02400
H  29.84700 2.33000 24.16000
H  28.81300 1.76100 22.77900
H  29.45600 0.65700 23.92200
H  31.09000 -0.97500 27.82500
H  31.91200 -0.74200 29.32800
H  31.70900 0.63300 28.13400
H  29.24200 1.61300 33.39700
H  29.69100 -1.46400 36.39600
H  28.33700 -0.35400 36.71700
H  29.92200 0.05000 37.26400
Mg 48.87200 34.63700 26.67700
C  46.63300 33.29600 29.07700
C  49.36900 37.32800 28.73200
C  50.41700 36.21400 24.09000
C  47.93800 32.02200 24.49600
N  48.12400 35.24900 28.71500
C  47.25100 34.52800 29.51500
C  47.27400 35.07600 31.00300
C  47.84000 36.53900 30.67800
C  48.54700 36.38800 29.35800
C  46.85700 37.81700 30.71200
C  48.40800 34.24800 31.84200
C  48.11700 33.94000 33.30700
H  47.05000 34.81700 34.00900
N  49.84000 36.49200 26.43400
C  49.89900 37.44900 27.39100
C  50.62400 38.53800 26.90000
C  51.01000 38.21800 25.57400
C  50.39900 36.92700 25.34300
C  50.76800 39.86100 27.62500
C  51.79100 39.03100 24.54000
O  52.21800 38.60100 23.46100
C  52.14600 40.42700 24.81200
N  49.12000 34.16600 24.64400
C  49.86500 34.97300 23.78300
C  49.69500 34.46600 22.34300
C  49.24700 32.94600 22.49500
C  48.85600 32.98200 24.01900
C  48.81600 35.35700 21.49100
C  50.37200 31.92800 22.24600
C  49.93200 30.87800 21.18700
N  47.68500 32.95300 26.76400
C  47.32300 31.98500 25.77700
C  46.33300 31.07700 26.24600
C  46.02200 31.60200 27.54900
C  46.92600 32.71500 27.78300
C  45.67900 29.87500 25.60600
C  45.16600 31.38000 28.68600
O  44.22800 30.52400 28.84000
C  45.51800 32.43500 29.76100
C  45.91100 31.89300 31.08600
O  46.94000 31.24900 31.33000
O  44.84600 31.94500 31.94700
C  44.86600 31.29400 33.29100
H  49.40500 38.20100 29.38700
H  50.96200 36.61300 23.23200
H  47.59300 31.24300 23.81400
H  46.32600 35.01900 31.53600
H  48.61400 36.80800 31.39700
H  47.39600 38.61900 31.21700
H  45.95200 37.50000 31.23100
H  46.62800 38.04000 29.67000
H  49.42400 34.64500 31.82100
H  48.40200 33.27800 31.34500
H  49.09500 34.15300 33.73900
H  47.88600 32.87600 33.35000
H  51.84100 40.05000 27.66300
H  50.49700 39.74500 28.67400
H  50.25800 40.66000 27.08700
H  52.28300 40.83200 23.81000
H  53.09000 40.56000 25.34000
H  51.30200 40.94300 25.27100
H  50.72800 34.57400 22.01100
H  48.33100 32.78400 21.92800
H  49.21000 36.37200 21.44200
H  47.86300 35.55900 21.98000
H  48.73000 34.95500 20.48100
H  50.51100 31.29800 23.12500
H  51.29000 32.45400 21.98300
H  50.50400 31.13500 20.29600
H  48.89200 31.05400 20.91100
H  50.08000 29.87500 21.58600
H  44.75600 30.19100 25.11900
H  45.37600 29.32700 26.49800
H  46.30000 29.30600 24.91400
H  44.61600 33.04400 29.81700
H  45.00100 30.21300 33.26100
H  43.99400 31.54100 33.89700
H  45.76300 31.77800 33.67800

