158

Mg 24.91500 1.29400 29.40000
C  27.15900 0.93900 32.13100
C  22.31500 1.23400 31.58600
C  23.10300 1.84000 26.69900
C  27.70500 1.15100 27.20200
N  24.77300 0.92100 31.65700
C  25.81300 1.05200 32.56800
C  25.24200 1.16300 33.98800
C  23.71500 1.12300 33.83300
C  23.54700 1.07500 32.24000
C  22.96100 -0.04800 34.57000
C  25.66100 2.46600 34.72400
C  26.09000 2.35900 36.21700
H  25.84200 3.55300 37.14300
N  23.01600 1.37900 29.17300
C  22.07800 1.39400 30.17400
C  20.81900 1.67900 29.60200
C  20.98300 1.70300 28.17300
C  22.42500 1.66700 27.95700
C  19.50700 1.92200 30.35600
C  19.95300 1.93600 27.05300
O  20.20100 1.83000 25.87400
C  18.53300 2.26000 27.43400
N  25.28200 1.29000 27.15200
C  24.37900 1.68800 26.35500
C  24.91400 2.02200 24.95700
C  26.46800 1.94500 25.14900
C  26.53000 1.48200 26.62700
C  24.39000 1.06600 23.86500
C  27.36800 3.23500 24.86600
C  26.98800 4.57400 25.39700
N  26.97100 0.87100 29.56200
C  27.94200 0.92300 28.60300
C  29.13200 0.47900 29.21000
C  28.91400 0.53700 30.63100
C  27.56200 0.80200 30.76100
C  30.45700 0.21300 28.46800
C  29.54800 0.49400 31.92900
O  30.71900 0.28200 32.13200
C  28.40900 0.73100 32.96200
C  28.43900 -0.30000 33.98200
O  28.16700 -1.50800 33.72200
O  28.96500 0.13200 35.12100
C  29.11800 -0.72600 36.29000
H  21.56500 1.39500 32.36400
H  22.46300 1.90600 25.81700
H  28.62800 1.10900 26.62000
H  25.66800 0.32000 34.53200
H  23.28400 2.08100 34.12200
H  23.67100 -0.75500 34.99900
H  22.24000 -0.60600 33.97200
H  22.27200 0.37100 35.30400
H  24.78500 3.11400 34.75000
H  26.49500 3.01500 34.28700
H  27.15700 2.14900 36.29600
H  25.51000 1.55900 36.67600
H  19.13400 2.88800 30.01600
H  19.61300 2.04700 31.43300
H  18.75200 1.15600 30.18100
H  17.98700 1.49200 27.98100
H  17.93000 2.43500 26.54300
H  18.48500 3.23400 27.92200
H  24.70700 3.07300 24.75600
H  26.98200 1.20300 24.53800
H  23.69700 0.30400 24.22200
H  25.20400 0.56300 23.34200
H  23.89200 1.65300 23.09300
H  27.49200 3.26400 23.78400
H  28.39900 3.15300 25.21300
H  26.85300 5.30300 24.59900
H  27.71200 4.97900 26.10500
H  26.16400 4.55500 26.11000
H  31.11000 1.08500 28.48800
H  30.37400 -0.15600 27.44600
H  31.06100 -0.58500 28.89900
H  28.71000 1.67100 33.42400
H  29.93500 -0.32000 36.88600
H  29.24700 -1.79900 36.14800
H  28.27500 -0.54900 36.95800
Mg 47.16300 17.25700 27.87400
C  45.36300 17.05700 30.97600
C  49.75100 18.72200 29.49700
C  48.52500 17.81600 24.89400
C  44.26600 15.75500 26.22200
N  47.48400 17.88600 29.90900
C  46.59800 17.66300 31.01400
C  47.24600 18.08200 32.28700
C  48.55500 18.82000 31.77700
C  48.62100 18.39400 30.32800
C  48.58400 20.36200 32.02300
C  47.45500 16.94100 33.37900
C  46.78900 17.21800 34.70400
H  46.70300 18.71600 35.15600
N  48.88600 18.24800 27.30800
C  49.86100 18.68000 28.12500
C  51.01500 19.01000 27.34800
C  50.77500 18.71700 25.96900
C  49.32700 18.25400 26.00700
C  52.32400 19.41600 27.93900
C  51.59000 18.89600 24.65800
O  51.08900 18.56700 23.62500
C  53.03300 19.43800 24.71100
N  46.47700 16.88900 25.97100
C  47.29700 17.23900 24.92100
C  46.65700 16.85600 23.62000
C  45.52500 15.88400 24.04100
C  45.35100 16.20100 25.50500
C  46.31600 17.98500 22.67600
C  45.84500 14.32100 23.69100
C  44.80900 13.20400 23.63500
N  45.25500 16.45500 28.45200
C  44.14800 15.96000 27.67900
C  43.07200 15.53200 28.57500
C  43.52500 15.90200 29.86100
C  44.80400 16.44500 29.76400
C  41.79500 14.92300 28.20100
C  43.09200 15.96400 31.20300
O  42.00400 15.62100 31.69300
C  44.39700 16.52200 31.99400
C  43.97100 17.68600 32.80400
O  43.89400 18.84000 32.36900
O  43.57900 17.24700 34.04800
C  42.70300 18.17800 34.78200
H  50.45800 19.30900 30.08700
H  48.92300 18.02800 23.89900
H  43.45200 15.21700 25.73200
H  46.48600 18.83300 32.50400
H  49.41300 18.30900 32.21200
H  48.93000 20.93800 31.16500
H  49.33700 20.52300 32.79500
H  47.66600 20.79300 32.42400
H  48.52400 16.88100 33.58300
H  47.12000 15.99200 32.96000
H  47.33800 16.70200 35.49100
H  45.79900 16.76200 34.70800
H  52.28100 19.41600 29.02800
H  52.67800 20.41500 27.68300
H  53.04800 18.69400 27.56100
H  53.11600 20.06000 23.82000
H  53.65300 18.58400 24.43700
H  53.38600 19.88000 25.64200
H  47.42200 16.23400 23.15500
H  44.61000 16.23700 23.56600
H  45.25700 18.18300 22.84300
H  46.50400 17.58500 21.67900
H  46.85900 18.91600 22.83900
H  46.47700 14.07800 24.54500
H  46.46700 14.29300 22.79700
H  43.87400 13.61300 23.25200
H  44.61200 12.55500 24.48800
H  45.18900 12.48800 22.90600
H  41.66800 13.89100 28.52800
H  41.58100 15.10100 27.14700
H  41.05900 15.46400 28.79600
H  44.70200 15.65200 32.57600
H  41.83700 18.25300 34.12400
H  43.21100 19.08200 35.11700
H  42.33600 17.74900 35.71500

