158

Mg 1.98200 -0.97000 44.17000
C  5.36000 -0.20100 43.53600
C  1.13200 1.90300 42.47400
C  -1.16300 -2.27900 43.98400
C  3.20700 -4.17000 45.36800
N  3.10600 0.54300 43.01000
C  4.47900 0.68600 43.01100
C  4.89400 2.04200 42.29800
C  3.52800 2.84700 42.39500
C  2.50300 1.72000 42.66600
C  3.52900 3.93300 43.42200
C  5.33700 1.75000 40.85600
C  6.35000 2.79700 40.34200
H  5.82800 3.68000 39.18400
N  0.23500 -0.29400 43.40700
C  0.08600 0.93900 42.77300
C  -1.34300 1.09400 42.47200
C  -2.04600 -0.05200 42.98500
C  -0.96400 -0.95600 43.45900
C  -1.96600 2.31400 41.70300
C  -3.57600 -0.27700 43.07100
O  -4.35200 0.56000 42.57500
C  -4.23900 -1.39700 43.80800
N  1.16200 -2.92600 44.62900
C  -0.24200 -3.15600 44.58100
C  -0.55200 -4.61300 45.09400
C  0.83700 -5.17400 45.51000
C  1.81500 -4.03900 45.10900
C  -1.68200 -4.75700 46.11300
C  1.25900 -6.54000 44.87300
C  2.26800 -7.37000 45.55800
N  3.84400 -1.98500 44.57900
C  4.14800 -3.25600 45.00400
C  5.55600 -3.34900 45.19000
C  6.06500 -2.23300 44.55700
C  5.01000 -1.42500 44.18600
C  6.28300 -4.45200 45.71600
C  7.29400 -1.59400 44.16800
O  8.49900 -1.97900 44.30400
C  6.92500 -0.21300 43.49400
C  7.68200 0.83600 44.23000
O  7.74100 0.94600 45.45500
O  8.25700 1.81100 43.39600
C  8.96600 2.91800 44.03200
H  0.77900 2.83700 42.03200
H  -2.15900 -2.72600 44.02300
H  3.54300 -5.12200 45.78400
H  5.69600 2.49100 42.88400
H  3.34700 3.37200 41.45700
H  4.25900 3.94100 44.23200
H  2.58300 3.91900 43.96300
H  3.64800 4.83000 42.81500
H  4.53900 1.58100 40.13200
H  5.83300 0.78300 40.77400
H  7.29400 2.30800 40.10100
H  6.59000 3.48400 41.15300
H  -1.20300 2.60700 40.98200
H  -1.98900 3.11100 42.44600
H  -2.92700 2.26000 41.19100
H  -5.25600 -1.10400 44.07000
H  -3.66600 -1.70000 44.68400
H  -4.10400 -2.30100 43.21500
H  -0.94500 -5.19700 44.26200
H  0.79500 -5.19200 46.59900
H  -2.15300 -5.71000 45.87100
H  -2.40800 -3.95700 45.96900
H  -1.23300 -4.78100 47.10600
H  1.78400 -6.15400 43.99900
H  0.43700 -7.07300 44.39500
H  2.05800 -8.43600 45.47000
H  2.30100 -7.13300 46.62100
H  3.22300 -7.13700 45.08700
H  5.60100 -4.99700 46.36900
H  7.20800 -4.19400 46.23100
H  6.64500 -5.19600 45.00500
H  7.28100 -0.20000 42.46400
H  10.01800 2.75200 43.80400
H  8.77900 3.06400 45.09600
H  8.70600 3.83300 43.50000
Mg -9.66000 40.27400 39.30300
C  -8.87900 36.99900 38.43500
C  -6.44100 41.15400 38.27200
C  -10.68400 43.54600 39.07100
C  -13.04600 39.36700 39.67200
N  -7.93200 39.20500 38.33700
C  -7.82700 37.84100 38.16700
C  -6.39000 37.50800 37.65500
C  -5.60200 38.80500 37.90200
C  -6.70800 39.80700 38.22100
C  -4.48200 38.63500 38.93800
C  -6.36700 36.93000 36.17800
C  -7.14900 37.75600 35.18900
H  -8.29400 37.00700 34.46200
N  -8.65800 42.04000 38.82500
C  -7.34100 42.23700 38.49600
C  -7.02000 43.64000 38.32900
C  -8.23300 44.35900 38.59700
C  -9.30000 43.30000 38.83200
C  -5.60300 44.03100 38.20300
C  -8.28900 45.85600 38.68900
O  -7.36800 46.58200 38.39100
C  -9.50600 46.61000 39.27600
N  -11.61500 41.31300 39.36100
C  -11.77900 42.67100 39.30800
C  -13.31200 43.11400 39.46800
C  -13.99300 41.73000 39.57700
C  -12.84500 40.71800 39.48300
C  -13.60100 44.18800 40.57200
C  -15.19100 41.34900 38.65900
C  -16.65100 41.28100 39.35600
N  -10.79300 38.58000 39.29100
C  -12.13900 38.36400 39.46600
C  -12.35100 36.94600 39.47100
C  -11.10800 36.39400 39.16700
C  -10.14600 37.42200 38.97300
C  -13.61900 36.26400 39.37400
C  -10.38300 35.15100 38.84500
O  -10.85500 33.97000 38.90200
C  -8.93100 35.46700 38.32500
C  -7.87900 34.74700 39.11300
O  -8.02100 34.32500 40.25500
O  -6.82800 34.45400 38.23900
C  -5.73600 33.81600 38.91300
H  -5.40100 41.39300 38.03900
H  -11.04200 44.57100 38.95500
H  -14.07600 39.03300 39.81300
H  -6.17800 36.73800 38.39600
H  -5.12900 39.25700 37.03000
H  -4.26900 37.58300 39.12700
H  -4.78400 39.12600 39.86300
H  -3.50500 38.99000 38.61000
H  -6.72200 35.90500 36.28200
H  -5.38000 36.80900 35.73000
H  -6.33400 38.01100 34.51100
H  -7.63600 38.67600 35.51200
H  -5.36300 45.08100 38.03500
H  -5.08500 43.42800 37.45800
H  -5.12900 43.83400 39.16400
H  -9.77600 45.97000 40.11500
H  -10.31200 46.70600 38.54800
H  -9.15700 47.54300 39.71900
H  -13.61100 43.49100 38.49000
H  -14.37500 41.60400 40.58900
H  -12.71500 44.77500 40.81700
H  -13.98500 43.69800 41.46700
H  -14.35700 44.91100 40.26400
H  -15.04000 40.37100 38.20100
H  -15.27700 42.04100 37.82200
H  -17.12300 40.37700 38.97000
H  -17.29700 42.02500 38.88900
H  -16.56500 41.22300 40.44100
H  -14.46100 36.94900 39.27600
H  -13.78700 35.66400 40.26900
H  -13.67900 35.67900 38.45600
H  -8.95000 35.09000 37.30300
H  -5.92800 32.77100 39.15600
H  -5.35300 34.38300 39.76200
H  -4.91400 33.93300 38.20700

