158

Mg 8.83100 3.23900 27.44600
C  10.13900 1.79300 30.34500
C  6.61900 5.00400 29.46000
C  7.28200 4.48700 24.71600
C  10.54300 0.83100 25.52200
N  8.38600 3.25400 29.64200
C  9.19500 2.77400 30.62800
C  8.81800 3.25400 32.03800
C  7.72500 4.31200 31.67600
C  7.57000 4.21100 30.11000
C  6.39600 3.96600 32.32800
C  10.01800 3.84300 32.82200
C  9.59900 4.61200 34.01300
H  10.05400 4.15300 35.37200
N  7.23000 4.58400 27.20700
C  6.40000 5.19000 28.10900
C  5.51700 6.09800 27.49900
C  5.83300 6.06800 26.10000
C  6.86900 5.01300 25.97900
C  4.55700 7.03000 28.24300
C  5.27800 6.90300 24.97700
O  5.40100 6.71200 23.77300
C  4.52200 8.14300 25.30600
N  8.97700 2.72800 25.34000
C  8.26300 3.42800 24.41000
C  8.74000 2.95700 23.00000
C  9.72900 1.79000 23.29900
C  9.75900 1.80600 24.79600
C  7.53400 2.63000 22.04900
C  11.04300 1.76400 22.51600
C  11.15800 0.65700 21.39900
N  10.19200 1.62400 27.77200
C  10.76300 0.75100 26.91800
C  11.46400 -0.27600 27.63200
C  11.22700 0.11700 28.94600
C  10.50600 1.27800 29.01900
C  12.16400 -1.44300 27.18300
C  11.54100 -0.23100 30.35500
O  12.09000 -1.23800 30.73900
C  10.97100 0.94900 31.26000
C  10.10700 0.26300 32.27400
O  9.11000 -0.45100 32.04800
O  10.58000 0.40000 33.55300
C  9.75900 -0.07500 34.72100
H  6.04300 5.72800 30.03900
H  6.89100 4.98400 23.82600
H  11.17300 0.13500 24.96500
H  8.37900 2.47900 32.66700
H  8.02300 5.33600 31.90400
H  5.95700 3.01200 32.03500
H  5.63800 4.64600 31.93900
H  6.50600 3.99600 33.41200
H  10.63500 4.37400 32.09600
H  10.60400 3.03700 33.26300
H  8.51000 4.59600 33.97200
H  9.84500 5.67000 33.92100
H  3.60100 7.08900 27.72300
H  5.04800 7.97900 28.46000
H  4.20400 6.60000 29.18000
H  3.46500 7.93200 25.47000
H  4.74400 8.85200 24.50800
H  4.92000 8.55100 26.23500
H  9.20100 3.85000 22.57900
H  9.27400 0.81400 23.12700
H  6.63300 2.83000 22.62800
H  7.64200 1.59700 21.71700
H  7.47500 3.32900 21.21600
H  11.86900 1.67500 23.22100
H  11.23300 2.74000 22.07000
H  10.78700 0.94500 20.41600
H  10.61400 -0.26300 21.61300
H  12.22400 0.46900 21.26400
H  12.80500 -1.10400 26.36900
H  11.56500 -2.31700 26.92900
H  12.84500 -1.69000 27.99700
H  11.74700 1.58700 31.68200
H  10.46600 -0.05200 35.55000
H  9.61500 -1.14700 34.58900
H  8.79200 0.41800 34.81900
Mg 30.23000 57.68600 39.06200
C  27.46400 55.65600 38.20500
C  32.28600 55.16300 38.11900
C  32.68900 59.77600 39.52700
C  27.91500 60.40100 39.43700
N  29.90100 55.57100 38.11500
C  28.67100 54.93300 37.97500
C  28.92900 53.43500 37.68300
C  30.48500 53.29600 37.73400
C  30.93100 54.70100 38.05200
C  31.00400 52.20800 38.74300
C  28.42500 53.00000 36.23700
C  29.04500 53.71500 34.96500
H  28.07900 54.45500 34.12200
N  32.23800 57.50500 38.80200
C  32.93100 56.41400 38.48500
C  34.23700 56.68500 38.51800
C  34.42100 57.98700 39.00800
C  33.04500 58.52100 39.08600
C  35.25000 55.63100 38.27300
C  35.73800 58.63800 39.48400
O  36.80700 58.06400 39.58000
C  35.79300 60.12400 39.84500
N  30.30100 59.81600 39.41900
C  31.47800 60.38800 39.74400
C  31.33000 61.86200 40.27300
C  29.82300 62.00600 40.11900
C  29.29400 60.71700 39.58000
C  32.00700 62.03800 41.67500
C  29.47000 63.26500 39.18400
C  28.32600 64.18700 39.76900
N  28.16900 58.04700 38.85600
C  27.38200 59.14100 39.12900
C  26.01300 58.74200 39.01800
C  26.04300 57.42400 38.62200
C  27.37800 57.02900 38.50100
C  24.87500 59.62400 39.33500
C  25.19300 56.21600 38.40500
O  24.01600 56.07900 38.49000
C  26.09500 55.06100 37.99600
C  25.83500 53.90400 38.76800
O  26.15000 53.65500 39.92400
O  24.93100 53.11700 38.04500
C  24.33900 51.92700 38.78200
H  32.90700 54.28000 37.95400
H  33.46000 60.50300 39.79200
H  27.23000 61.23200 39.62000
H  28.37300 52.90100 38.45300
H  30.86000 53.02200 36.74800
H  31.33500 52.69500 39.66100
H  31.85000 51.67300 38.31200
H  30.23300 51.45400 38.89800
H  27.34000 53.04900 36.15400
H  28.67200 51.94200 36.14000
H  29.46100 52.96100 34.29700
H  29.89700 54.36800 35.15600
H  35.40800 55.02200 39.16300
H  36.26600 55.91300 37.99600
H  34.97200 54.88900 37.52400
H  36.85000 60.30400 40.04100
H  35.39800 60.17700 40.85900
H  35.30300 60.79800 39.14200
H  31.86000 62.56300 39.62800
H  29.35500 62.13100 41.09600
H  31.29500 62.61900 42.26100
H  32.99200 62.50100 41.63100
H  32.03800 61.08200 42.19900
H  29.04500 62.94300 38.23400
H  30.39500 63.77800 38.91900
H  27.46300 63.98700 39.13400
H  28.67100 65.21300 39.63800
H  27.94900 63.92500 40.75700
H  24.50700 59.19900 40.26900
H  24.10700 59.51500 38.56900
H  25.13700 60.67400 39.46100
H  26.03900 54.80400 36.93800
H  24.70100 51.84400 39.80700
H  24.61300 51.00500 38.26900
H  23.25100 51.97300 38.82900

