158

Mg 44.58900 3.08000 47.76200
C  42.32700 5.70300 47.01600
C  41.90900 0.93300 47.56300
C  46.78500 0.63900 47.64600
C  47.13700 5.42000 47.10900
N  42.43100 3.28600 47.32500
C  41.73100 4.45200 47.10800
C  40.21500 4.25700 46.90900
C  40.12800 2.76500 47.58200
C  41.53700 2.29200 47.47500
C  39.40300 2.78200 48.91900
C  39.74200 4.22300 45.41600
C  38.66500 5.15500 45.00100
H  39.04500 6.05200 43.83700
N  44.42100 1.07800 47.62600
C  43.21800 0.36800 47.62300
C  43.51400 -1.05500 47.66800
C  44.91300 -1.22400 47.80400
C  45.42400 0.17500 47.75400
C  42.42700 -2.19100 47.47000
C  45.66800 -2.53000 47.97900
O  45.06900 -3.60100 48.10900
C  47.15800 -2.64800 47.99200
N  46.64800 3.04400 47.25800
C  47.33900 1.89100 47.46000
C  48.87200 2.12700 47.32600
C  48.96500 3.57900 46.97100
C  47.51000 4.06300 47.10000
C  49.73400 1.88900 48.59500
C  49.45900 3.80600 45.52200
C  50.84100 4.21800 45.48100
N  44.79800 5.21900 47.39500
C  45.86800 5.99300 47.11200
C  45.46800 7.44800 46.90800
C  44.06200 7.37000 46.90100
C  43.68800 5.97200 47.20200
C  46.33200 8.66200 46.62000
C  42.87700 8.13800 46.74300
O  42.62800 9.31400 46.53800
C  41.68500 7.08800 46.87400
C  40.82000 7.53400 47.96800
O  41.14100 7.74900 49.15300
O  39.49900 7.57000 47.55800
C  38.59300 7.99500 48.71800
H  40.98800 0.35100 47.63500
H  47.67100 0.00100 47.68700
H  48.06900 5.96200 46.93500
H  39.67400 4.97600 47.52400
H  39.44100 2.13400 47.01900
H  40.09800 2.48600 49.70600
H  38.58800 2.05900 48.94800
H  39.07700 3.76200 49.26600
H  39.35200 3.23800 45.16100
H  40.59200 4.50000 44.79400
H  38.31100 5.71300 45.86800
H  37.88400 4.49800 44.61900
H  42.22100 -2.58500 48.46500
H  42.81400 -3.01700 46.87200
H  41.52900 -1.75700 47.03000
H  47.49400 -1.83000 48.63000
H  47.58200 -2.54000 46.99400
H  47.43300 -3.65900 48.29400
H  49.26700 1.56200 46.48200
H  49.59500 4.14600 47.65600
H  49.38400 0.98600 49.09500
H  49.72200 2.81500 49.17000
H  50.73600 1.69100 48.21300
H  48.91900 4.61400 45.02700
H  49.45400 2.92200 44.88400
H  51.18900 4.73200 46.37600
H  51.05100 4.97000 44.72100
H  51.46400 3.34200 45.29800
H  45.87200 9.43500 47.23500
H  46.13000 8.98000 45.59700
H  47.35500 8.50000 46.96100
H  41.02800 7.11200 46.00400
H  37.58100 7.88100 48.32800
H  38.76900 8.98500 49.13900
H  38.67400 7.31400 49.56600
Mg 15.88000 52.07700 25.37500
C  17.90400 51.16200 28.18300
C  13.23800 52.47000 27.49100
C  14.33700 53.11700 22.72400
C  18.55300 50.93400 23.34500
N  15.65800 51.93400 27.51900
C  16.57400 51.67400 28.53900
C  16.10000 52.09600 29.92900
C  14.53700 52.11400 29.64900
C  14.44600 52.10200 28.12700
C  13.82400 50.77800 30.23900
C  16.71600 53.42700 30.22000
C  16.71500 53.83000 31.72000
H  15.79200 53.02000 32.70900
N  13.93000 52.75700 25.15000
C  12.97300 52.78600 26.11200
C  11.77100 53.32900 25.45800
C  12.05200 53.55100 24.08100
C  13.44300 53.17600 23.92200
C  10.39600 53.38300 26.20000
C  11.14200 54.06100 22.97000
O  11.49100 54.23500 21.82000
C  9.67500 54.33800 23.23900
N  16.46000 52.19500 23.34900
C  15.65100 52.67100 22.44200
C  16.20900 52.62700 21.00800
C  17.67500 52.16600 21.29300
C  17.59100 51.78100 22.74100
C  15.40500 51.57200 20.10600
C  18.76100 53.23700 21.12000
C  20.11400 52.77400 20.33600
N  17.75000 50.96300 25.57800
C  18.68700 50.52900 24.73800
C  19.78800 49.90300 25.40000
C  19.51800 50.20900 26.74000
C  18.33300 50.85500 26.82600
C  20.91900 49.18700 24.73400
C  20.13600 50.16600 28.02500
O  21.19800 49.72600 28.40900
C  19.02900 50.65100 29.10300
C  18.56200 49.41200 29.89000
O  18.01800 48.35400 29.48800
O  18.68000 49.70400 31.23100
C  18.06900 48.76700 32.15600
H  12.37700 52.73100 28.11000
H  13.79400 53.34300 21.80400
H  19.39600 50.73900 22.67900
H  16.57800 51.42300 30.64100
H  14.20600 53.03900 30.12200
H  13.27700 50.20300 29.49200
H  13.12000 51.09600 31.00800
H  14.53300 50.17600 30.80700
H  16.11200 54.24800 29.83200
H  17.73500 53.46700 29.83700
H  16.73900 54.91900 31.76000
H  17.71900 53.55500 32.04400
H  9.71400 52.62700 25.80900
H  9.85500 54.32300 26.09200
H  10.54500 53.20300 27.26400
H  9.29000 53.53600 23.87000
H  9.12400 54.32500 22.29900
H  9.45100 55.29400 23.71200
H  16.31100 53.51700 20.38700
H  17.91200 51.26100 20.73300
H  14.65800 52.18000 19.59700
H  14.90900 50.78300 20.67200
H  15.97100 51.09400 19.30600
H  19.06100 53.56800 22.11500
H  18.44500 54.16800 20.64900
H  20.01600 51.70700 20.13500
H  21.04900 52.96200 20.86300
H  20.23900 53.29600 19.38800
H  20.64900 49.12200 23.68000
H  21.00100 48.16100 25.09300
H  21.91600 49.61900 24.81700
H  19.30800 51.43800 29.80400
H  18.93300 48.21800 32.53000
H  17.29100 48.16100 31.69200
H  17.70400 49.25800 33.05800

