158

Mg 8.98700 3.97900 27.99400
C  10.34200 2.22200 30.67800
C  7.13700 5.80700 30.18200
C  7.67700 5.37700 25.33600
C  10.51400 1.46700 25.87900
N  8.75000 3.98500 30.20800
C  9.44600 3.22600 31.10600
C  9.18800 3.73100 32.57700
C  7.98700 4.78900 32.35800
C  8.02100 4.98700 30.82500
C  6.62900 4.23100 32.85500
C  10.50000 4.25800 33.39100
C  10.76600 3.71900 34.74400
H  11.10200 4.77500 35.82400
N  7.74800 5.43300 27.79900
C  7.04900 6.00200 28.81100
C  6.28100 7.11400 28.22100
C  6.58500 7.17000 26.79800
C  7.35300 5.89600 26.54200
C  5.51900 8.18100 28.98500
C  6.28700 8.21700 25.77700
O  6.71900 8.15900 24.63300
C  5.39500 9.46000 26.14900
N  8.97200 3.39300 25.90900
C  8.40800 4.21900 25.00200
C  8.68400 3.77500 23.55200
C  9.63000 2.54200 23.69400
C  9.72100 2.39900 25.24100
C  7.38700 3.54700 22.71000
C  10.99200 2.57100 22.99700
C  11.44200 1.29400 22.27100
N  10.15700 2.21000 28.15000
C  10.72900 1.31000 27.28100
C  11.37900 0.21500 27.96000
C  11.35900 0.55600 29.31800
C  10.64400 1.73500 29.36800
C  12.13000 -0.98000 27.32500
C  11.87300 0.18500 30.63500
O  12.62700 -0.74700 30.95300
C  11.17400 1.21700 31.58600
C  10.39000 0.38800 32.48700
O  9.27700 -0.07300 32.20500
O  11.04900 0.30400 33.68000
C  10.36900 -0.35300 34.76900
H  6.41800 6.32000 30.82400
H  7.33300 5.85400 24.41600
H  10.91800 0.68900 25.22900
H  8.76900 2.92800 33.18400
H  8.09000 5.72800 32.90300
H  6.48600 4.70600 33.82600
H  6.64600 3.15000 32.98800
H  5.76300 4.52900 32.26400
H  10.38000 5.33700 33.48900
H  11.41500 3.94800 32.88800
H  11.67700 3.13700 34.61200
H  9.96000 3.11900 35.16700
H  4.63800 8.38900 28.37800
H  6.04300 9.12900 29.11100
H  5.08200 7.93600 29.95400
H  4.37500 9.20500 26.43600
H  5.28500 9.98800 25.20200
H  5.83600 10.12500 26.89200
H  9.17900 4.65000 23.13100
H  9.00800 1.71600 23.34900
H  6.59100 4.13800 23.16400
H  7.11100 2.53100 22.42500
H  7.68300 4.04700 21.78800
H  11.77300 2.90200 23.68100
H  10.91800 3.30200 22.19200
H  12.12300 1.50600 21.44700
H  10.55700 0.76900 21.91100
H  11.85500 0.65900 23.05400
H  12.13200 -1.83100 28.00600
H  13.04800 -0.65500 26.83500
H  11.48600 -1.34600 26.52600
H  12.01800 1.70600 32.07300
H  11.01800 -0.85900 35.48400
H  9.62600 -1.08900 34.46200
H  9.90600 0.42800 35.37200
Mg -2.19400 35.66400 27.21500
C  -3.54900 33.45800 29.51400
C  -0.62700 37.30900 29.64200
C  -1.11100 37.77900 24.85000
C  -3.99400 33.84600 24.71000
N  -2.29800 35.55900 29.34000
C  -2.79700 34.50000 30.09200
C  -2.59500 34.65600 31.59300
C  -1.64300 35.95000 31.61200
C  -1.60700 36.38900 30.18100
C  -2.01700 37.10700 32.69800
C  -1.89500 33.39100 32.20700
C  -2.63600 32.76100 33.40800
H  -1.75100 32.75700 34.67100
N  -1.03400 37.30400 27.20100
C  -0.42700 37.79000 28.32200
C  0.50200 38.87000 27.96500
C  0.52500 38.84900 26.57500
C  -0.58500 38.01800 26.16700
C  1.18800 39.63400 29.03500
C  1.26100 39.67900 25.63400
O  1.16800 39.67000 24.44600
C  2.39100 40.58100 26.20600
N  -2.61600 35.81700 25.12400
C  -2.04800 36.83600 24.36300
C  -2.32500 36.68900 22.85600
C  -3.20700 35.42200 22.78300
C  -3.32600 34.98900 24.31300
C  -2.93300 37.92300 22.16100
C  -2.61300 34.26700 21.93300
C  -1.45400 33.47000 22.52200
N  -3.66600 34.14400 27.12300
C  -4.24300 33.47200 26.07100
C  -4.98400 32.30900 26.58900
C  -4.79000 32.26800 27.97200
C  -3.85700 33.37300 28.23300
C  -5.83000 31.51100 25.66600
C  -4.97900 31.52800 29.19800
O  -5.43000 30.39900 29.39300
C  -4.35800 32.41300 30.25900
C  -5.50200 33.00600 31.05000
O  -6.26600 33.88400 30.64900
O  -5.58000 32.31800 32.23400
C  -6.52300 32.83200 33.17400
H  -0.04700 37.69800 30.48200
H  -0.70100 38.40900 24.05800
H  -4.58300 33.33000 23.94900
H  -3.56600 34.78000 32.07200
H  -0.59200 35.70200 31.76400
H  -2.23400 36.71500 33.69100
H  -2.83000 37.68600 32.26000
H  -1.09400 37.67500 32.81200
H  -0.94300 33.76900 32.58200
H  -1.55300 32.57100 31.57600
H  -2.91400 31.71500 33.27400
H  -3.52700 33.35200 33.61900
H  1.10500 39.20400 30.03400
H  0.75100 40.63000 28.97100
H  2.25600 39.81200 28.90600
H  2.86000 41.07800 25.35700
H  3.17700 40.10300 26.78900
H  1.91700 41.25400 26.92100
H  -1.41600 36.32400 22.37800
H  -4.26200 35.52900 22.52900
H  -3.80600 37.73700 21.53500
H  -2.19100 38.47400 21.58400
H  -3.23900 38.63900 22.92300
H  -2.22300 34.62600 20.98100
H  -3.42700 33.59600 21.65900
H  -0.65800 33.26500 21.80700
H  -1.82100 32.53800 22.95200
H  -1.02600 33.99000 23.37900
H  -5.39600 31.38200 24.67400
H  -6.62900 32.19000 25.36700
H  -6.32100 30.64900 26.11600
H  -3.73600 31.79500 30.90600
H  -7.35500 33.41200 32.77500
H  -6.04600 33.41700 33.96000
H  -7.16600 32.04100 33.56100

