158

Mg 1.39400 -0.30500 44.31100
C  4.78000 0.15700 43.65600
C  0.80100 2.52800 42.55800
C  -1.80100 -1.20900 44.31800
C  2.17900 -3.45000 45.69300
N  2.71300 1.13400 43.18100
C  4.02200 1.17500 43.11300
C  4.49600 2.52200 42.41700
C  3.17300 3.38500 42.41400
C  2.16600 2.28600 42.71400
C  3.16800 4.54800 43.40400
C  4.98400 2.19000 40.90900
C  6.44100 2.62400 40.57000
H  6.47600 3.53200 39.30200
N  -0.28800 0.49800 43.44000
C  -0.37300 1.73500 42.82300
C  -1.77700 2.00500 42.57200
C  -2.47400 0.79800 42.87700
C  -1.48900 -0.10700 43.56100
C  -2.30900 3.29800 42.05000
C  -3.89000 0.48500 42.48800
O  -4.65500 1.34100 42.04500
C  -4.33000 -0.92200 42.42700
N  0.29600 -1.99800 45.21200
C  -1.04200 -2.13600 45.04100
C  -1.59600 -3.53000 45.53000
C  -0.22400 -4.22200 45.92000
C  0.82800 -3.14600 45.67500
C  -2.66600 -3.35600 46.64900
C  0.13100 -5.60400 45.15100
C  0.34600 -6.75200 46.16600
N  3.11600 -1.37400 44.76800
C  3.30600 -2.66900 45.22700
C  4.72400 -2.99200 45.26400
C  5.34200 -1.87300 44.71600
C  4.32500 -0.97500 44.33800
C  5.22900 -4.28500 45.84500
C  6.65000 -1.38500 44.38200
O  7.80500 -1.85400 44.49200
C  6.32000 0.05600 43.79900
C  6.93800 1.12100 44.63600
O  6.32100 1.83100 45.41500
O  8.32200 1.14600 44.43000
C  8.98300 2.24900 45.16600
H  0.69900 3.54100 42.16400
H  -2.83600 -1.52400 44.47000
H  2.39100 -4.47500 46.00400
H  5.35200 2.94800 42.94000
H  2.94700 3.81800 41.44000
H  2.93400 5.45600 42.84900
H  4.13100 4.70600 43.89000
H  2.54500 4.53200 44.29800
H  4.33800 2.68900 40.18700
H  4.98200 1.13300 40.64500
H  7.03300 1.71800 40.43700
H  7.01300 3.15200 41.33400
H  -1.56100 4.05800 42.27500
H  -3.20100 3.50200 42.64300
H  -2.48400 3.23500 40.97600
H  -5.25400 -0.93300 41.84900
H  -4.50400 -1.17300 43.47400
H  -3.52200 -1.51400 41.99800
H  -2.17900 -4.03700 44.76100
H  -0.11500 -4.37800 46.99300
H  -2.34800 -3.91800 47.52700
H  -3.67400 -3.72200 46.45200
H  -2.78300 -2.36400 47.08500
H  1.04200 -5.64000 44.55400
H  -0.64400 -5.85200 44.42600
H  -0.34500 -6.60600 46.99600
H  1.39100 -6.84400 46.46200
H  -0.09200 -7.67700 45.79100
H  6.31400 -4.29700 45.94100
H  4.78400 -5.06600 45.22800
H  4.85800 -4.26400 46.87000
H  6.80700 0.12800 42.82600
H  8.85200 2.13100 46.24100
H  8.67100 3.23400 44.81700
H  10.04600 2.05900 45.01600
Mg 1.41700 8.07500 26.31500
C  1.95200 10.20500 29.00700
C  1.72100 5.45700 28.55300
C  0.83800 6.02600 23.82000
C  1.56300 10.80600 24.09000
N  1.83300 7.89000 28.59100
C  1.78700 8.95000 29.50300
C  1.84900 8.45900 30.98300
C  2.02900 6.86100 30.76900
C  1.80400 6.72300 29.23500
C  3.29900 6.14900 31.38000
C  0.64500 8.95900 31.79900
C  1.15200 9.64500 33.09500
H  2.10100 8.87300 34.02300
N  1.39600 6.05600 26.15800
C  1.55400 5.14900 27.18300
C  1.42600 3.78200 26.66500
C  1.13600 3.96700 25.27000
C  1.10700 5.41800 25.01700
C  1.36400 2.54500 27.61600
C  0.70000 2.84400 24.29700
O  0.28200 3.06300 23.13900
C  0.72300 1.31100 24.67900
N  1.33100 8.38400 24.18600
C  0.95100 7.38200 23.41700
C  0.74200 7.84000 21.98300
C  0.79800 9.38400 22.14800
C  1.33000 9.54200 23.51000
C  1.72600 7.17600 20.97300
C  -0.61500 10.02800 21.91000
C  -1.28300 9.98400 20.53500
N  1.64200 10.08500 26.45700
C  1.73000 11.06600 25.46200
C  2.05100 12.30500 26.14900
C  2.08000 12.00900 27.52200
C  1.88000 10.61500 27.64500
C  2.05600 13.71600 25.51500
C  2.35000 12.59200 28.83800
O  2.59500 13.74900 29.17300
C  2.17600 11.43300 29.78800
C  3.36000 11.43100 30.66500
O  4.43800 10.92800 30.31200
O  3.15000 12.06400 31.82000
C  4.24700 12.05500 32.80100
H  1.78300 4.62700 29.26000
H  0.72600 5.36900 22.95500
H  1.59600 11.62300 23.36600
H  2.73100 8.95800 31.38300
H  1.23000 6.37200 31.32700
H  3.96700 6.92400 31.75600
H  3.82600 5.49500 30.68600
H  2.94700 5.46300 32.15000
H  0.00000 8.17300 32.19300
H  0.05200 9.74400 31.33100
H  0.25500 9.85900 33.67700
H  1.51400 10.65600 32.91100
H  1.76400 1.67200 27.10000
H  0.31800 2.31900 27.82500
H  1.85400 2.71400 28.57500
H  0.08700 1.12700 25.54500
H  1.79300 1.11900 24.75900
H  0.26100 0.88500 23.78900
H  -0.21600 7.43300 21.65900
H  1.46700 9.86700 21.43700
H  1.16700 6.58300 20.25000
H  2.36000 6.49600 21.54200
H  2.32500 7.99400 20.57400
H  -0.57100 11.07500 22.21000
H  -1.26700 9.52600 22.62500
H  -0.64400 9.44200 19.83900
H  -1.44400 10.95800 20.07200
H  -2.20100 9.40700 20.64500
H  2.12000 14.48900 26.28100
H  1.11300 13.66900 24.97100
H  2.92100 13.91800 24.88200
H  1.24400 11.56300 30.33800
H  5.11800 12.59600 32.43200
H  4.52500 11.05500 33.13300
H  3.88000 12.67300 33.62100

