158

Mg 25.54100 -8.77000 47.62000
C  27.62400 -6.27400 46.32400
C  23.10500 -7.87900 45.29200
C  23.67100 -11.42100 48.72600
C  28.29100 -9.79400 49.59200
N  25.43600 -7.27800 45.98000
C  26.37900 -6.34400 45.64400
C  25.86500 -5.31500 44.61900
C  24.38800 -5.78500 44.47900
C  24.27300 -7.06200 45.23900
C  23.31900 -4.75200 44.85300
C  26.76300 -5.28400 43.30400
C  27.25100 -3.92300 42.87900
H  26.82700 -3.38200 41.47800
N  23.65100 -9.57100 47.13200
C  22.80200 -9.00000 46.16200
C  21.59000 -9.75600 46.15200
C  21.74800 -10.78200 47.10800
C  23.04700 -10.66000 47.70900
C  20.42200 -9.60300 45.26300
C  20.74100 -11.98800 47.36700
O  19.58600 -11.96300 46.91600
C  21.24800 -13.15700 48.10700
N  25.97500 -10.39900 48.69400
C  24.96500 -11.23300 49.19600
C  25.52700 -12.10400 50.36200
C  26.98100 -11.75300 50.49700
C  27.11700 -10.57100 49.52300
C  24.71000 -11.95200 51.64700
C  28.07900 -12.84200 50.32400
C  28.69800 -12.98300 48.91800
N  27.53400 -8.26600 47.89500
C  28.51900 -8.69100 48.70800
C  29.71900 -7.90800 48.55600
C  29.34100 -6.89600 47.68900
C  28.06800 -7.18800 47.22000
C  31.05600 -7.89500 49.29300
C  29.74300 -5.61300 47.18100
O  30.70100 -4.95600 47.46000
C  28.65300 -5.22900 46.19700
C  28.21900 -3.87700 46.53100
O  27.43500 -3.51800 47.37900
O  28.72300 -3.04800 45.56800
C  28.37400 -1.63300 45.71100
H  22.26100 -7.61100 44.65300
H  23.21500 -12.18700 49.35700
H  29.07200 -10.20300 50.23700
H  25.92600 -4.35500 45.13100
H  24.15000 -6.09200 43.46100
H  23.69000 -3.87100 45.37700
H  22.50100 -5.13600 45.46300
H  22.93500 -4.31500 43.93100
H  26.06200 -5.63000 42.54500
H  27.57200 -6.01400 43.29600
H  28.33900 -3.98400 42.86100
H  27.02700 -3.10600 43.56500
H  20.44400 -8.63800 44.75800
H  19.49200 -9.72700 45.81700
H  20.47200 -10.34000 44.46200
H  22.17100 -13.47100 47.62100
H  20.57400 -14.00200 47.96500
H  21.31600 -12.86800 49.15500
H  25.39600 -13.13900 50.04500
H  27.22300 -11.42200 51.50700
H  24.44900 -12.98400 51.88500
H  23.79200 -11.39900 51.44900
H  25.21500 -11.59600 52.54500
H  27.61800 -13.79300 50.58900
H  28.90100 -12.55500 50.98000
H  28.18700 -12.33100 48.21000
H  28.55000 -14.04900 48.74200
H  29.77200 -12.80000 48.90100
H  31.89100 -7.90600 48.59200
H  31.10800 -8.84200 49.83100
H  31.06100 -7.03000 49.95500
H  29.04800 -5.12500 45.18600
H  28.27100 -1.27300 46.73500
H  27.49300 -1.38400 45.12000
H  29.16500 -1.00900 45.29500
Mg 17.54500 -2.33900 27.83000
C  16.68600 -0.23500 30.49900
C  19.58100 -4.11600 30.11500
C  18.84400 -3.96500 25.24100
C  15.78300 -0.14400 25.74900
N  18.07700 -2.16400 30.02800
C  17.44100 -1.32200 30.93200
C  17.89100 -1.56600 32.35400
C  18.96400 -2.70000 32.13900
C  18.88100 -3.06900 30.63000
C  20.43500 -2.33200 32.51300
C  16.82300 -1.96400 33.40900
C  16.96400 -1.21700 34.80900
H  18.40800 -0.94000 35.24000
N  18.83000 -3.93000 27.67300
C  19.56400 -4.54500 28.75800
C  20.27500 -5.66300 28.26000
C  19.97000 -5.71200 26.89100
C  19.23600 -4.50600 26.50600
C  21.17300 -6.54400 29.10900
C  20.46600 -6.65400 25.85100
O  20.28200 -6.50800 24.62700
C  21.34200 -7.87200 26.36200
N  17.16600 -2.26000 25.84600
C  17.92500 -2.92600 24.93400
C  17.61800 -2.60400 23.39500
C  16.51900 -1.45800 23.64900
C  16.43100 -1.27800 25.15100
C  18.91200 -2.08500 22.51300
C  15.12100 -1.60500 22.97600
C  14.85000 -0.88800 21.65600
N  16.51800 -0.49100 28.00200
C  15.76800 0.19100 27.08000
C  15.07400 1.33200 27.68500
C  15.45800 1.17300 29.10900
C  16.27900 0.08400 29.16100
C  14.19200 2.25900 27.02200
C  15.12900 1.66700 30.36700
O  14.33600 2.51100 30.70000
C  16.08900 0.84100 31.34000
C  17.10000 1.72000 32.02400
O  18.21500 1.99600 31.51000
O  16.59800 2.15700 33.22000
C  17.41200 3.17300 33.87800
H  20.06600 -4.75500 30.85600
H  19.18000 -4.39000 24.29300
H  15.32900 0.52700 25.01700
H  18.35300 -0.61800 32.62700
H  18.69400 -3.62700 32.64600
H  20.38100 -1.32000 32.91600
H  21.12700 -2.29700 31.67100
H  20.71000 -3.10400 33.23200
H  16.77200 -3.00900 33.71500
H  15.87300 -1.78900 32.90300
H  16.59800 -1.79100 35.66000
H  16.50700 -0.23600 34.67700
H  21.08200 -7.61100 28.90800
H  20.88200 -6.48500 30.15800
H  22.15700 -6.16800 28.83100
H  21.73400 -8.50600 25.56700
H  20.63700 -8.54800 26.84400
H  22.15100 -7.43000 26.94500
H  17.13400 -3.46900 22.94100
H  16.97400 -0.54800 23.25900
H  18.75300 -1.10300 22.06700
H  18.97000 -2.88800 21.77800
H  19.76400 -1.99900 23.18700
H  14.44200 -1.13700 23.68800
H  14.81500 -2.65000 22.92100
H  13.89600 -0.39000 21.82800
H  14.92900 -1.50000 20.75700
H  15.57100 -0.07500 21.57500
H  13.17700 2.15900 27.40700
H  14.22300 2.08000 25.94700
H  14.53700 3.28100 27.17500
H  15.47400 0.40400 32.12600
H  17.20700 4.08800 33.32300
H  18.45400 2.87400 34.00000
H  16.93000 3.33100 34.84200

