158

Mg 2.07100 -1.87200 43.51900
C  5.46200 -0.79600 43.21800
C  0.97100 1.03400 42.13200
C  -1.14500 -3.04900 43.65900
C  3.17500 -4.92400 44.82800
N  3.11700 -0.16300 42.78600
C  4.49400 0.12900 42.86600
C  4.75000 1.54300 42.38500
C  3.29500 2.12000 42.10500
C  2.34800 0.96100 42.45900
C  2.90300 3.47100 42.83100
C  5.75600 1.60500 41.13500
C  6.40500 3.01600 41.08100
H  6.19700 3.77400 39.76600
N  0.15600 -1.03100 43.10300
C  -0.05100 0.15500 42.45800
C  -1.49600 0.38400 42.40800
C  -2.10600 -0.78400 42.94300
C  -1.00100 -1.72600 43.25000
C  -2.15900 1.69200 41.94500
C  -3.67400 -1.01700 43.09100
O  -4.45400 -0.13200 42.71300
C  -4.29300 -2.20500 43.71200
N  1.13500 -3.80700 43.95800
C  -0.15300 -4.04500 43.97500
C  -0.57500 -5.44400 44.48300
C  0.79600 -5.95200 44.92400
C  1.79800 -4.82200 44.54500
C  -1.70000 -5.41400 45.61500
C  1.20600 -7.31300 44.27900
C  1.57300 -8.44500 45.26200
N  3.92000 -2.79600 43.90200
C  4.18600 -3.93700 44.57300
C  5.61300 -4.09600 44.79800
C  6.19400 -2.88700 44.20900
C  5.13200 -2.13300 43.67500
C  6.27800 -5.30300 45.40800
C  7.43700 -2.23400 43.82300
O  8.60900 -2.61100 43.84300
C  6.99600 -0.80800 43.29600
C  7.54200 0.25800 44.14200
O  7.47700 0.21500 45.35600
O  7.98600 1.36900 43.48800
C  8.39200 2.50900 44.28600
H  0.62700 1.90500 41.57000
H  -2.16600 -3.43600 43.69900
H  3.57900 -5.75100 45.41600
H  5.14700 2.09600 43.23600
H  3.17900 2.32800 41.04100
H  2.23500 4.11300 42.25800
H  3.79800 4.01000 43.14300
H  2.30700 3.23100 43.71100
H  5.22800 1.52700 40.18400
H  6.53100 0.83800 41.13300
H  7.46900 2.90200 41.28900
H  5.93500 3.65100 41.83300
H  -2.60400 1.50200 40.96800
H  -1.40600 2.48000 41.95400
H  -2.86800 1.88500 42.75100
H  -5.26900 -1.86000 44.05200
H  -3.82300 -2.66900 44.57900
H  -4.57000 -2.95300 42.96800
H  -1.04200 -5.88700 43.60400
H  0.85800 -6.01100 46.01100
H  -1.29900 -5.45900 46.62700
H  -2.18700 -6.38800 45.65200
H  -2.34200 -4.54100 45.49700
H  2.16200 -7.15200 43.78100
H  0.34700 -7.53600 43.64500
H  2.51000 -8.93100 44.99100
H  0.85300 -9.26300 45.26700
H  1.53600 -8.06700 46.28400
H  7.25300 -4.99500 45.78600
H  6.36000 -6.12500 44.69800
H  5.61900 -5.58600 46.22900
H  7.51000 -0.68900 42.34200
H  8.88000 3.29600 43.71100
H  9.06200 2.27400 45.11400
H  7.47500 3.00100 44.61300
Mg 1.47700 43.10100 25.78700
C  3.07800 42.96600 28.89100
C  -1.52400 42.72100 27.35900
C  0.09300 42.82100 22.78800
C  4.69000 43.13100 24.36400
N  0.83300 42.88700 27.82100
C  1.65800 42.99800 28.96500
C  0.82700 42.89800 30.30300
C  -0.57100 42.65900 29.73100
C  -0.42100 42.75600 28.24400
C  -1.20700 41.36800 30.26500
C  0.98700 44.26400 31.12500
C  0.90100 44.26400 32.64500
H  0.59900 43.00300 33.38000
N  -0.52300 42.89000 25.11900
C  -1.60800 42.72700 25.92200
C  -2.71100 42.53900 25.06700
C  -2.33000 42.71600 23.67600
C  -0.86400 42.80300 23.81000
C  -4.03200 42.34000 25.74200
C  -3.13600 42.76200 22.36600
O  -2.60500 42.80700 21.30100
C  -4.60100 42.40500 22.44400
N  2.29900 42.88300 23.94800
C  1.51300 42.89300 22.83300
C  2.29800 42.83600 21.51900
C  3.70100 43.30000 22.01200
C  3.54500 43.11400 23.59800
C  2.21900 41.40400 20.82600
C  4.36100 44.73900 21.66100
C  3.42400 45.95700 21.36900
N  3.51400 43.13000 26.40500
C  4.71000 43.08800 25.76600
C  5.82200 43.11500 26.67900
C  5.24600 42.99300 27.91800
C  3.81600 43.04000 27.74000
C  7.24900 43.17800 26.30400
C  5.55400 43.06600 29.32000
O  6.63500 43.15300 29.91500
C  4.15800 42.95000 30.05000
C  4.09500 41.71700 30.91200
O  3.49500 40.65700 30.67100
O  4.75700 41.87300 32.14500
C  4.48600 40.73500 33.06500
H  -2.51900 42.58500 27.78900
H  -0.36100 42.83600 21.79500
H  5.65800 43.25200 23.87500
H  1.25400 42.11200 30.92500
H  -1.33400 43.36500 30.05800
H  -2.29400 41.40500 30.32900
H  -0.85100 41.13400 31.26800
H  -0.84800 40.49000 29.72700
H  0.31100 45.00000 30.68900
H  1.92000 44.66600 30.72900
H  0.08100 44.95600 32.83600
H  1.77700 44.65800 33.15900
H  -4.74300 41.95600 25.01000
H  -4.42100 43.25800 26.18100
H  -3.98000 41.62500 26.56300
H  -5.10100 42.37800 21.47600
H  -5.04400 43.16300 23.09000
H  -4.63400 41.43500 22.94000
H  1.95100 43.67700 20.91800
H  4.52300 42.66800 21.67600
H  1.68200 40.76200 21.52400
H  3.16200 40.91300 20.58600
H  1.50900 41.53200 20.00900
H  4.84000 44.57700 20.69500
H  5.06800 44.95600 22.46200
H  3.54700 46.31800 20.34700
H  3.80200 46.70400 22.06800
H  2.37400 45.79700 21.61000
H  7.49400 44.22100 26.10600
H  7.38800 42.71200 25.32800
H  7.90700 42.69300 27.02500
H  3.92100 43.70300 30.80100
H  4.38000 39.74700 32.61800
H  3.65000 40.88100 33.75000
H  5.40300 40.67900 33.65200

