158

Mg 48.40900 46.43200 42.50700
C  45.22700 46.79000 41.06900
C  48.56700 43.23600 40.94300
C  51.88100 46.30000 43.03500
C  48.35700 49.78900 43.35800
N  47.05600 45.10000 41.30300
C  45.81700 45.51200 40.79000
C  45.29600 44.42700 39.84600
C  46.10400 43.16800 40.29400
C  47.31300 43.81100 40.87800
C  45.40600 42.22200 41.29600
C  45.34400 44.76700 38.34100
C  43.96400 44.70900 37.60900
H  44.01200 43.92300 36.25800
N  50.03200 44.90000 42.13000
C  49.79000 43.69100 41.51400
C  51.06200 42.95600 41.50100
C  52.06500 43.78200 42.11500
C  51.31700 45.07100 42.48700
C  51.16900 41.61300 41.02200
C  53.50800 43.43600 42.47800
O  53.95500 42.29300 42.22300
C  54.51300 44.41200 43.05400
N  49.92800 47.76500 43.16500
C  51.25500 47.47700 43.39600
C  52.06500 48.72600 43.88400
C  50.87000 49.81400 43.87100
C  49.60000 49.06600 43.50400
C  52.53100 48.45900 45.39500
C  51.16300 51.00800 42.88200
C  51.14100 52.47600 43.43400
N  47.07100 47.95200 42.45400
C  47.15100 49.24700 42.85200
C  45.91900 49.86200 42.62200
C  45.08400 48.96200 41.96000
C  45.85100 47.78200 41.81700
C  45.45600 51.25500 43.03500
C  43.75700 48.75100 41.30800
O  42.76300 49.44100 41.21600
C  43.88200 47.28400 40.67400
C  42.69500 46.44900 41.08400
O  41.84400 46.03200 40.36100
O  42.79000 46.20200 42.39900
C  41.95200 45.19200 43.03500
H  48.76400 42.25000 40.51600
H  52.95100 46.27100 43.24800
H  48.54100 50.83400 43.61300
H  44.27000 44.33800 40.20400
H  46.32100 42.58300 39.40100
H  44.46500 42.61800 41.67800
H  45.96700 42.08500 42.22100
H  45.23600 41.27600 40.78100
H  46.00200 44.09800 37.78700
H  45.65300 45.81300 38.34600
H  43.61900 45.70200 37.32200
H  43.20300 44.22900 38.22400
H  52.21800 41.34900 40.88800
H  50.81700 41.46600 40.00100
H  50.69800 40.87900 41.67500
H  54.14600 44.54400 44.07100
H  54.62600 45.38000 42.56500
H  55.43100 43.82500 43.08500
H  52.86400 48.96700 43.18300
H  50.72800 50.19400 44.88300
H  52.40200 49.37700 45.96900
H  53.58300 48.17600 45.41900
H  51.93300 47.68600 45.87700
H  50.50500 50.82600 42.03200
H  52.15800 50.83300 42.47300
H  50.70200 52.43600 44.43100
H  50.40800 53.09000 42.91100
H  52.11500 52.96400 43.47600
H  45.95100 51.38200 43.99800
H  44.37000 51.19400 43.10800
H  45.82400 52.09600 42.44800
H  43.81300 47.42800 39.59600
H  42.53100 44.29600 43.25700
H  41.07300 44.85900 42.48300
H  41.61400 45.51300 44.02000
Mg 41.78800 41.27200 26.53000
C  41.16500 43.82400 29.09800
C  42.47300 39.08800 29.13400
C  42.72700 39.23500 24.34200
C  41.28200 43.82100 24.11100
N  42.03200 41.47400 28.82300
C  41.65900 42.62000 29.61500
C  41.54800 42.11300 31.11600
C  41.94900 40.63600 31.12300
C  42.16000 40.37500 29.62700
C  43.29900 40.25900 31.85300
C  40.04500 42.27900 31.70500
C  39.91400 42.98800 33.00000
H  39.18200 42.37300 34.20400
N  42.54500 39.41600 26.66800
C  42.62700 38.60300 27.83400
C  42.90300 37.24400 27.40700
C  43.11500 37.27600 26.00500
C  42.78800 38.67500 25.60500
C  43.32300 36.22300 28.46100
C  43.58700 36.23700 25.05100
O  43.85400 36.44400 23.86000
C  43.61700 34.74000 25.60300
N  42.04100 41.56800 24.50800
C  42.33200 40.47200 23.80200
C  42.08900 40.66000 22.28200
C  41.50400 42.16600 22.17200
C  41.70100 42.56500 23.66800
C  43.27200 40.36900 21.30700
C  40.08700 42.24600 21.62600
C  39.02400 41.54300 22.44800
N  41.35500 43.35800 26.52400
C  41.20900 44.23200 25.43700
C  40.75900 45.51200 25.93400
C  40.76200 45.37400 27.36900
C  41.07900 44.05100 27.66400
C  40.27500 46.67900 25.06900
C  40.53800 46.16400 28.59100
O  40.39400 47.36400 28.70700
C  40.76500 45.16700 29.73700
C  41.82800 45.68700 30.62500
O  43.01400 45.92100 30.36100
O  41.26100 45.98800 31.84400
C  42.15400 46.73100 32.74100
H  42.45200 38.39700 29.97900
H  42.81200 38.50800 23.53200
H  40.87900 44.44900 23.31300
H  42.28500 42.80800 31.52000
H  41.13200 40.05800 31.55600
H  43.54000 41.06400 32.54700
H  44.09800 40.15000 31.12000
H  43.07600 39.35500 32.41900
H  39.43100 41.37900 31.69900
H  39.50800 42.85500 30.95100
H  39.44500 43.95500 32.81500
H  40.89200 43.27600 33.38700
H  44.36900 35.95500 28.31100
H  42.80300 35.28200 28.27900
H  43.20900 36.51100 29.50600
H  44.53000 34.59300 26.18000
H  43.63100 34.05700 24.75300
H  42.69500 34.46900 26.11700
H  41.19700 40.05500 22.12200
H  42.25400 42.81800 21.72500
H  43.48900 41.25500 20.71000
H  43.08700 39.51200 20.65900
H  44.16300 40.04100 21.84200
H  40.00200 41.72200 20.67400
H  39.75100 43.27300 21.48100
H  39.32900 41.15300 23.41900
H  38.71800 40.68600 21.84700
H  38.17100 42.21300 22.55200
H  40.54400 46.60800 24.01500
H  40.76600 47.53600 25.53100
H  39.20500 46.87500 25.14700
H  39.83300 45.03800 30.28600
H  42.94300 47.28500 32.23200
H  42.54300 46.00200 33.45200
H  41.64300 47.49000 33.33300

