158

Mg -0.46000 7.30200 26.30000
C  0.37600 9.64700 28.80800
C  -0.16700 4.88900 28.73900
C  -0.73000 5.16800 23.76400
C  -0.32000 9.96500 23.90400
N  -0.03800 7.28100 28.52400
C  0.34600 8.32500 29.29400
C  0.34800 7.94600 30.77500
C  0.44200 6.34400 30.70300
C  0.11900 6.13300 29.20300
C  1.84300 5.73800 31.13500
C  -0.88500 8.55700 31.49500
C  -0.56100 9.29700 32.85000
H  0.70900 9.01600 33.59800
N  -0.49500 5.39400 26.29300
C  -0.35900 4.51100 27.37100
C  -0.59000 3.18400 26.90000
C  -0.78600 3.23300 25.46000
C  -0.70800 4.65300 25.10400
C  -0.60700 1.91200 27.76400
C  -1.03400 2.05500 24.41800
O  -1.15700 2.21700 23.18100
C  -1.34900 0.62600 24.88500
N  -0.47500 7.61900 24.05700
C  -0.71400 6.50600 23.28500
C  -0.92700 6.88800 21.87900
C  -1.10000 8.47100 21.93800
C  -0.64300 8.74500 23.37100
C  0.24500 6.41600 20.96000
C  -2.52200 9.00000 21.55200
C  -3.28700 9.82500 22.63900
N  -0.03700 9.36400 26.28600
C  -0.03300 10.29500 25.26600
C  0.47100 11.60500 25.82000
C  0.55100 11.41100 27.16000
C  0.26700 10.01900 27.44500
C  0.72600 12.85200 25.09500
C  0.75600 12.04200 28.41400
O  0.94900 13.22000 28.70300
C  0.58100 10.94400 29.60900
C  1.92500 10.95800 30.26600
O  3.04200 10.63300 29.83600
O  1.77800 11.40400 31.57800
C  3.02500 11.73600 32.31100
H  -0.10100 4.10600 29.49700
H  -0.91800 4.41000 23.00200
H  -0.40200 10.80700 23.21400
H  1.33500 8.33200 31.03100
H  -0.32000 5.80000 31.26200
H  2.54300 5.81100 30.30300
H  1.79300 4.70500 31.48000
H  2.04700 6.36900 32.00000
H  -1.62700 7.79300 31.72700
H  -1.36600 9.27800 30.83400
H  -1.48100 9.32000 33.43400
H  -0.46800 10.34200 32.55400
H  -1.62900 1.56400 27.91700
H  -0.33500 2.04000 28.81100
H  0.04300 1.15200 27.33100
H  -2.14700 0.61200 25.62700
H  -0.46400 0.12800 25.28100
H  -1.66500 -0.02500 24.07000
H  -1.83300 6.40600 21.50900
H  -0.31000 8.86200 21.29700
H  1.02400 6.03900 21.62200
H  0.61200 7.22500 20.32900
H  -0.04800 5.54800 20.36800
H  -3.11500 8.13000 21.27000
H  -2.46800 9.67400 20.69700
H  -3.13100 9.30400 23.58400
H  -4.35700 9.67300 22.49600
H  -3.00400 10.87700 22.65200
H  1.17100 12.72000 24.10900
H  1.34400 13.53800 25.67400
H  -0.28300 13.25600 25.01000
H  -0.18400 11.25500 30.32000
H  2.83700 12.30300 33.22300
H  3.60400 12.38700 31.65600
H  3.68200 10.88600 32.49500
Mg 43.07400 42.10700 26.57100
C  42.42300 44.42200 29.17700
C  44.28200 39.82100 28.96300
C  43.87900 40.00000 24.10400
C  42.02200 44.52600 24.36200
N  43.34600 42.17100 28.75900
C  42.90100 43.18200 29.58700
C  42.78700 42.64000 31.01800
C  43.68500 41.31800 31.08200
C  43.84000 41.09900 29.51300
C  45.05400 41.44900 31.73300
C  41.35600 42.46000 31.42000
C  41.10500 42.99000 32.85600
H  41.91300 42.63200 34.11500
N  43.96600 40.16000 26.52300
C  44.41400 39.40900 27.62100
C  44.92300 38.13400 27.08800
C  44.67400 38.11000 25.66800
C  44.15600 39.44300 25.38500
C  45.61200 37.13900 28.01600
C  44.85000 36.96000 24.65500
O  44.52100 37.10500 23.52300
C  45.38800 35.72100 25.18600
N  43.12800 42.36000 24.54400
C  43.47300 41.32600 23.73500
C  43.33700 41.58600 22.26000
C  42.53300 42.94800 22.33800
C  42.58800 43.35000 23.78400
C  44.61200 41.69900 21.37200
C  41.09500 42.91300 21.70500
C  40.23400 41.84200 22.36100
N  42.43900 44.06600 26.67900
C  41.93700 44.88300 25.69100
C  41.42600 46.10800 26.28400
C  41.48900 45.95500 27.71900
C  42.17800 44.71600 27.86600
C  40.79100 47.25600 25.44400
C  41.21600 46.66600 28.91600
O  40.83500 47.81300 29.11800
C  41.84200 45.64500 29.95500
C  42.78900 46.34800 30.90900
O  44.00900 46.38400 30.89900
O  41.99900 46.99800 31.81000
C  42.81700 47.43800 32.98600
H  44.38900 39.00200 29.67800
H  44.29900 39.50100 23.22800
H  41.55500 45.20400 23.64500
H  43.28300 43.36400 31.66500
H  43.09400 40.46800 31.42400
H  45.81200 40.91000 31.16400
H  44.95100 40.94900 32.69600
H  45.28600 42.50300 31.88300
H  40.99800 41.43100 31.37300
H  40.71100 43.04700 30.76500
H  40.11500 42.60800 33.10400
H  41.08500 44.08000 32.82800
H  45.80100 37.69300 28.93500
H  46.55500 36.80800 27.58000
H  44.92500 36.29700 28.11200
H  44.70500 35.37700 25.96200
H  46.41300 35.58800 25.53300
H  45.30700 34.92600 24.44400
H  42.71600 40.76300 21.90500
H  43.10900 43.73900 21.85900
H  45.43400 41.10500 21.77100
H  44.90600 42.74100 21.23900
H  44.35700 41.35300 20.37000
H  40.98300 42.85400 20.62300
H  40.62000 43.86800 21.93000
H  39.83700 41.13500 21.63200
H  39.37700 42.34100 22.81400
H  40.74600 41.35900 23.19400
H  40.04600 46.86000 24.75400
H  41.52800 47.68400 24.76500
H  40.20700 47.92900 26.07200
H  41.08300 45.33900 30.67400
H  43.60900 48.13300 32.70500
H  43.39200 46.65200 33.47700
H  42.14000 47.98000 33.64500

