158

Mg 48.56100 35.02900 28.09900
C  46.49900 33.72500 30.71200
C  48.39700 38.05300 29.87600
C  49.85000 36.43500 25.40300
C  47.70400 32.16100 26.29100
N  47.49600 35.73900 30.01500
C  46.94300 34.96400 30.97800
C  46.92400 35.64100 32.35000
C  46.95100 37.11100 31.88100
C  47.71300 36.98000 30.55200
C  45.57200 37.84900 32.02600
C  48.21600 35.19700 33.18300
C  47.96500 34.87400 34.65600
H  47.50500 36.00000 35.60300
N  49.13800 37.00400 27.68500
C  49.00800 38.07600 28.59100
C  49.77600 39.10200 28.08500
C  50.15200 38.76900 26.73600
C  49.69600 37.38100 26.49200
C  50.23200 40.38700 28.90800
C  50.97600 39.45400 25.60900
O  51.16100 38.87800 24.54400
C  51.29300 40.95400 25.75000
N  48.75500 34.41600 26.12800
C  49.51600 35.06600 25.24300
C  49.74400 34.22600 23.95600
C  49.04500 32.88000 24.25400
C  48.41300 33.14800 25.62300
C  49.44300 34.94500 22.66700
C  49.91600 31.67300 24.25500
C  51.05400 31.76900 25.33900
N  47.27100 33.26500 28.40700
C  47.08100 32.18800 27.57100
C  46.31200 31.25600 28.26000
C  45.99900 31.79200 29.54100
C  46.62500 33.06300 29.51400
C  45.89500 29.95600 27.67800
C  45.33200 31.57000 30.74400
O  44.72100 30.58800 31.09900
C  45.63800 32.85900 31.57400
C  46.11700 32.31600 32.85600
O  47.21200 31.86900 33.10000
O  45.06100 32.30400 33.77400
C  45.21300 31.30700 34.86100
H  48.33800 39.01700 30.38400
H  50.26100 36.88600 24.49700
H  47.50900 31.26600 25.69600
H  45.99500 35.44000 32.88400
H  47.54700 37.65000 32.61700
H  45.43200 38.52100 31.18000
H  45.45200 38.32200 33.00100
H  44.68300 37.23400 31.88600
H  49.04700 35.89200 33.06700
H  48.51700 34.24300 32.75100
H  48.82600 34.29800 34.99500
H  47.13800 34.17000 34.75500
H  49.98100 40.43300 29.96700
H  49.98300 41.31900 28.40000
H  51.31900 40.40900 28.82800
H  51.84400 41.17100 26.66500
H  50.30000 41.39500 25.84000
H  51.95200 41.28400 24.94700
H  50.82200 34.16400 23.80900
H  48.31300 32.70800 23.46500
H  49.16500 35.96200 22.94700
H  48.55400 34.54800 22.17900
H  50.29300 34.94000 21.98500
H  50.39900 31.57700 23.28300
H  49.41400 30.75400 24.55500
H  50.85100 32.46000 26.15800
H  52.01500 31.94400 24.85500
H  51.14400 30.83500 25.89300
H  46.68800 29.49600 27.08800
H  44.97700 30.19700 27.14000
H  45.79300 29.31300 28.55100
H  44.70800 33.40300 31.73900
H  45.43400 30.35500 34.38000
H  44.24600 31.27800 35.36300
H  45.96900 31.40600 35.64000
Mg -11.08700 16.05100 42.30200
C  -8.00100 14.74500 41.57900
C  -10.13300 18.90700 40.20800
C  -14.31100 17.05100 41.82200
C  -12.12500 13.16000 43.65000
N  -9.31800 16.64900 40.87500
C  -8.08800 15.97500 40.88300
C  -6.99300 16.82500 40.13700
C  -7.67400 18.22000 40.03000
C  -9.14100 17.92700 40.44800
C  -6.88700 19.33400 40.78300
C  -6.54600 16.26400 38.73500
C  -5.08400 16.45000 38.20600
H  -5.00000 17.16300 36.78300
N  -12.02400 17.88700 41.41700
C  -11.45200 18.88600 40.64200
C  -12.46500 19.81700 40.24100
C  -13.68500 19.29700 40.82100
C  -13.40000 17.99300 41.38600
C  -12.32700 21.07200 39.46900
C  -15.02000 20.01900 40.88400
O  -15.13700 21.10400 40.29300
C  -16.26600 19.63300 41.73000
N  -12.99200 15.18900 42.72000
C  -14.18600 15.81400 42.54200
C  -15.37700 15.01700 43.01200
C  -14.57300 13.86800 43.80800
C  -13.13400 14.03000 43.35200
C  -16.36000 15.81900 43.91300
C  -15.18900 12.47600 43.52200
C  -15.27700 11.60100 44.72200
N  -10.24900 14.34500 42.74000
C  -10.80600 13.21700 43.35000
C  -9.67100 12.22700 43.61500
C  -8.55800 12.86500 43.00600
C  -8.96100 14.10800 42.43400
C  -9.69200 10.85600 44.21000
C  -7.19400 12.62200 42.63900
O  -6.41900 11.72800 42.91300
C  -6.73700 13.91600 41.73600
C  -5.69700 14.70700 42.42400
O  -5.78500 15.40800 43.40500
O  -4.57100 14.43400 41.63200
C  -3.29900 15.04200 42.16500
H  -9.96500 19.88100 39.74400
H  -15.34700 17.12100 41.48200
H  -12.43100 12.23900 44.15000
H  -6.15900 16.98600 40.82000
H  -7.83800 18.60400 39.02400
H  -6.05300 19.00700 41.40300
H  -7.60500 19.84700 41.42300
H  -6.53200 20.14100 40.14200
H  -7.12300 16.84500 38.01600
H  -6.68200 15.18300 38.74100
H  -4.60400 15.47300 38.16500
H  -4.54300 17.08300 38.91000
H  -12.02300 21.86200 40.15600
H  -13.24900 21.43400 39.01500
H  -11.62400 20.99900 38.63900
H  -16.78800 20.55700 41.97600
H  -15.72000 19.32800 42.62300
H  -16.96400 18.95800 41.23500
H  -15.96400 14.68100 42.15700
H  -14.65500 14.03800 44.88200
H  -16.06300 16.86200 44.02000
H  -16.51600 15.48600 44.94000
H  -17.29600 15.72000 43.36300
H  -14.47700 11.98900 42.85600
H  -16.11400 12.61500 42.96300
H  -14.60600 10.77400 44.49100
H  -16.27500 11.16400 44.69300
H  -15.02400 12.00400 45.70300
H  -10.41600 10.72400 45.01400
H  -8.74300 10.71500 44.72700
H  -9.85300 10.13800 43.40600
H  -6.45900 13.61000 40.72800
H  -2.45600 14.38000 41.96800
H  -3.34900 15.12700 43.25000
H  -3.20500 16.01500 41.68300

