158

Mg 0.54100 7.97700 25.08200
C  1.04500 10.01500 27.80400
C  0.74900 5.26400 27.10800
C  0.14700 6.00000 22.38900
C  0.69200 10.78400 22.93200
N  0.85500 7.71300 27.22900
C  0.99500 8.65600 28.17400
C  1.10500 8.10100 29.55600
C  1.23100 6.51600 29.29300
C  0.95900 6.46600 27.77400
C  2.58600 5.82900 29.69000
C  -0.11000 8.48500 30.40400
C  0.00100 8.63300 31.93600
H  1.20200 8.04900 32.61700
N  0.42600 5.86900 24.78400
C  0.45600 4.98100 25.79000
C  0.18200 3.66500 25.20800
C  0.19200 3.80900 23.79500
C  0.21200 5.23200 23.58400
C  0.12600 2.35900 26.08800
C  -0.02700 2.67200 22.66300
O  0.03600 2.84900 21.47800
C  -0.19600 1.21000 23.03600
N  0.43300 8.37300 23.00500
C  0.18600 7.33600 22.14000
C  -0.17000 7.90600 20.83000
C  -0.11500 9.45500 20.96200
C  0.32900 9.58000 22.36800
C  0.71300 7.21200 19.77300
C  -1.54000 10.13400 20.75900
C  -1.61500 11.61200 20.22700
N  0.88100 10.02600 25.25800
C  0.81900 11.03900 24.34500
C  1.06100 12.33700 25.06300
C  1.15900 11.95200 26.43200
C  0.98600 10.53500 26.48300
C  1.05700 13.70700 24.47100
C  1.36700 12.46600 27.80500
O  1.74800 13.56300 28.16800
C  1.21300 11.26300 28.66900
C  2.39900 11.19700 29.47600
O  3.47700 10.68200 29.18900
O  2.06300 11.57200 30.74700
C  3.11100 11.54900 31.80000
H  0.69100 4.37700 27.74200
H  -0.04200 5.50000 21.43700
H  0.72000 11.68700 22.31900
H  2.02500 8.54900 29.93100
H  0.43500 5.99500 29.82500
H  3.05700 5.59200 28.73600
H  2.48400 4.87300 30.20300
H  3.14600 6.45800 30.38200
H  -0.88500 7.73100 30.27000
H  -0.53600 9.46300 30.18000
H  -0.86200 8.24400 32.47700
H  0.15300 9.67000 32.23700
H  1.02100 1.74100 26.01200
H  -0.74600 1.87300 25.65100
H  0.08100 2.53900 27.16300
H  0.72500 0.87900 23.51500
H  -0.16500 0.65400 22.09900
H  -1.03900 1.02400 23.70100
H  -1.19700 7.58700 20.65300
H  0.50300 9.98100 20.23400
H  1.61000 6.80300 20.23800
H  0.96600 7.81000 18.89800
H  0.21600 6.37500 19.28300
H  -2.07400 10.12500 21.70900
H  -2.13800 9.49600 20.10800
H  -1.96800 11.54700 19.19800
H  -0.60300 12.01800 20.21200
H  -2.18300 12.21100 20.94000
H  1.08100 13.69400 23.38200
H  1.97700 14.13800 24.86600
H  0.18900 14.32600 24.69800
H  0.29000 11.38800 29.23500
H  3.92100 10.84700 31.60000
H  2.70400 11.08600 32.69900
H  3.33100 12.60000 31.98500
Mg 44.45800 4.02700 46.45800
C  42.46400 6.83800 46.50300
C  41.52400 2.01200 46.45100
C  46.36100 1.36100 45.98900
C  47.23500 6.13300 46.05400
N  42.27400 4.38000 46.23200
C  41.77100 5.66200 46.22300
C  40.19800 5.53400 46.21200
C  39.92200 4.00200 46.49700
C  41.28900 3.39400 46.31600
C  39.17900 3.68000 47.90400
C  39.45000 6.03800 44.86200
C  39.85400 5.43400 43.47800
H  39.84400 6.33100 42.26100
N  44.03600 1.92100 46.10100
C  42.75600 1.35000 46.21100
C  42.97100 -0.11000 46.21900
C  44.37700 -0.30100 45.89700
C  44.98900 1.03500 46.02400
C  41.95700 -1.15900 46.52700
C  45.05000 -1.60100 45.56000
O  44.29600 -2.60400 45.62300
C  46.51400 -1.78100 45.34500
N  46.46000 3.81300 45.83300
C  47.02400 2.58100 45.86500
C  48.55800 2.71100 45.86200
C  48.83300 4.29000 45.87000
C  47.43000 4.82100 45.87000
C  49.28800 1.91000 47.03200
C  49.64800 4.83800 44.62200
C  50.89300 3.99800 44.35800
N  44.83700 6.05900 46.35000
C  46.01800 6.79500 46.19900
C  45.68400 8.23200 46.39200
C  44.28700 8.26200 46.49400
C  43.82300 6.93600 46.44000
C  46.74900 9.34000 46.37500
C  43.12800 9.15000 46.59200
O  43.13200 10.36100 46.53100
C  41.87500 8.24700 46.61000
C  41.18500 8.48600 47.87800
O  41.41800 7.88900 48.93000
O  40.42700 9.57900 47.79800
C  39.72600 10.16200 48.97300
H  40.72600 1.29000 46.63700
H  47.07900 0.53900 45.97100
H  48.08200 6.82200 46.08600
H  39.77000 6.16300 46.99200
H  39.30900 3.58000 45.70100
H  39.00300 4.65800 48.35300
H  39.85700 2.95600 48.35600
H  38.22600 3.16200 47.79300
H  39.50900 7.11400 44.70000
H  38.41000 5.78900 45.06900
H  39.09100 4.68000 43.28600
H  40.84300 4.97600 43.46800
H  41.45500 -1.46700 45.61000
H  41.25000 -0.72500 47.23300
H  42.44000 -2.05800 46.91100
H  47.17900 -1.52700 46.17000
H  46.68500 -1.03500 44.56900
H  46.70900 -2.79500 44.99700
H  48.90800 2.25000 44.93800
H  49.29900 4.61500 46.80000
H  48.52200 1.59000 47.73900
H  49.90500 2.56900 47.64200
H  49.83700 1.05900 46.62900
H  49.86300 5.87800 44.86500
H  49.00700 4.89400 43.74200
H  51.04200 3.25500 45.14100
H  51.75200 4.66200 44.45000
H  51.00700 3.62900 43.33900
H  47.66600 9.04500 46.88500
H  46.31900 10.15900 46.95100
H  47.08500 9.58900 45.36800
H  41.20500 8.47600 45.78200
H  38.67600 10.10800 48.68600
H  40.02400 11.19300 49.16400
H  39.85300 9.59700 49.89600

