158

Mg 16.22900 -1.66700 27.78100
C  15.20700 0.54400 30.23000
C  18.18000 -3.34400 29.98500
C  17.73200 -3.13700 25.13000
C  14.43700 0.30900 25.38900
N  16.76700 -1.30300 29.81300
C  16.12400 -0.42700 30.70100
C  16.59600 -0.62800 32.13900
C  17.51700 -1.89600 32.10000
C  17.49400 -2.24000 30.55200
C  18.93300 -1.76200 32.57300
C  15.46700 -0.80800 33.25700
C  15.71000 -0.29400 34.65400
H  17.13700 0.28100 34.96000
N  17.66600 -2.98800 27.53100
C  18.27700 -3.68600 28.60000
C  19.21100 -4.64100 28.05500
C  19.07100 -4.62800 26.66200
C  18.14400 -3.54800 26.38000
C  20.04800 -5.49700 28.97300
C  19.77300 -5.43000 25.62400
O  19.56500 -5.32800 24.40600
C  20.84800 -6.42300 26.02300
N  16.13400 -1.42000 25.51500
C  16.85600 -2.16900 24.65100
C  16.51600 -1.88600 23.12100
C  15.36900 -0.78000 23.40000
C  15.21200 -0.71900 24.87000
C  17.66700 -1.27900 22.30400
C  13.96000 -1.00200 22.65100
C  13.52300 -0.07300 21.52200
N  14.95000 -0.03800 27.75100
C  14.23900 0.54400 26.77500
C  13.34400 1.49300 27.31900
C  13.63100 1.50000 28.64600
C  14.66200 0.63500 28.89900
C  12.39300 2.45400 26.55400
C  13.28600 2.21300 29.84700
O  12.47300 3.10600 30.06800
C  14.26200 1.55300 30.97000
C  14.97800 2.65200 31.61600
O  15.71300 3.44300 31.10000
O  14.48300 2.85700 32.90000
C  14.79100 4.14600 33.47900
H  18.53600 -3.98600 30.79400
H  18.16700 -3.62900 24.25800
H  13.77400 0.77000 24.65400
H  17.24100 0.22900 32.33400
H  17.16900 -2.75600 32.67400
H  19.50000 -1.07700 31.94400
H  19.43800 -2.71700 32.71900
H  18.68100 -1.40700 33.57200
H  15.22100 -1.86900 33.30200
H  14.57600 -0.27600 32.92500
H  15.49500 -1.02800 35.43100
H  14.98200 0.51700 34.68600
H  19.60500 -5.52400 29.96800
H  21.04900 -5.06900 29.02200
H  20.06000 -6.51700 28.58900
H  20.51100 -7.23900 26.66200
H  21.65300 -5.89200 26.53100
H  21.18600 -6.81700 25.06400
H  15.98800 -2.65800 22.56200
H  15.71700 0.19300 23.05300
H  18.56300 -1.42000 22.90900
H  17.63400 -0.21000 22.09200
H  17.82100 -1.79600 21.35800
H  13.20600 -1.02100 23.43800
H  14.00100 -2.00200 22.21800
H  14.31100 0.67800 21.45100
H  12.60500 0.45900 21.77100
H  13.34100 -0.65700 20.62000
H  11.58200 1.84500 26.15400
H  12.96100 2.94000 25.76200
H  11.98200 3.24500 27.18200
H  13.58700 1.08900 31.68800
H  14.31300 4.95500 32.92600
H  15.86800 4.27300 33.37600
H  14.43700 4.22800 34.50700
Mg 44.66900 3.95500 46.45900
C  43.06400 7.15800 46.24300
C  41.81900 2.51400 45.72900
C  46.44700 1.23700 46.09100
C  47.77700 5.87500 46.13000
N  42.68800 4.80800 45.98200
C  42.19000 6.06100 45.95700
C  40.67600 6.16100 45.68100
C  40.32200 4.60400 45.65000
C  41.69400 3.87100 45.88100
C  39.28500 4.20100 46.70200
C  40.28400 6.91500 44.37300
C  41.33200 6.92600 43.32100
H  40.76400 6.94100 41.80800
N  44.18800 2.13500 45.87500
C  42.89400 1.67200 45.68700
C  42.96900 0.33300 45.46300
C  44.24500 -0.11800 45.66200
C  45.02100 1.05300 45.96300
C  41.81900 -0.59800 45.09300
C  44.78600 -1.56100 45.50100
O  44.04600 -2.43500 45.12600
C  46.22900 -1.95500 45.69000
N  46.87300 3.64400 46.05400
C  47.27200 2.36200 46.21300
C  48.82400 2.30700 46.25200
C  49.27000 3.72900 46.03800
C  47.93000 4.49300 46.06200
C  49.33400 1.62800 47.50600
C  50.19800 4.05600 44.83700
C  49.50200 4.16000 43.42400
N  45.35000 6.01400 46.40300
C  46.62100 6.63100 46.22200
C  46.53700 8.05600 46.14500
C  45.17700 8.25700 46.29900
C  44.47300 7.03700 46.32000
C  47.73300 8.91200 46.05000
C  44.13800 9.26000 46.55200
O  44.26600 10.45700 46.78200
C  42.75400 8.57800 46.45600
C  41.90600 8.83700 47.61600
O  41.97000 8.29800 48.70700
O  40.90800 9.77200 47.27500
C  39.85900 10.03300 48.25600
H  40.91200 1.92200 45.59800
H  47.01200 0.30900 46.20400
H  48.76800 6.33600 46.12300
H  40.03700 6.58000 46.45800
H  39.87300 4.31500 44.70000
H  38.66500 5.07500 46.90200
H  39.64700 3.98600 47.70700
H  38.66000 3.37200 46.37000
H  39.71700 7.82900 44.55500
H  39.51500 6.35500 43.84100
H  41.94800 6.02700 43.34600
H  41.96300 7.80500 43.45100
H  41.74000 -1.51500 45.67600
H  41.83600 -0.82400 44.02700
H  40.88600 -0.06200 45.26800
H  46.56200 -2.98600 45.57000
H  46.40600 -1.69700 46.73500
H  46.81300 -1.40200 44.95400
H  49.01200 1.69800 45.36800
H  49.83500 4.09200 46.89600
H  49.30700 0.54200 47.41800
H  48.51500 1.69400 48.22200
H  50.29300 1.93400 47.92300
H  50.93200 3.25000 44.84400
H  50.79600 4.89800 45.18600
H  48.45600 3.85400 43.39300
H  49.91900 3.59700 42.58900
H  49.43800 5.20700 43.12700
H  48.21000 8.58400 45.12600
H  48.38800 8.82200 46.91700
H  47.44800 9.95500 45.91500
H  42.12800 8.92000 45.63100
H  39.55800 11.07600 48.35200
H  39.97200 9.59900 49.25000
H  38.98300 9.45700 47.95700

