158

Mg 42.93400 4.49600 47.89900
C  40.99300 7.42300 48.01100
C  40.08000 2.56700 47.73100
C  44.80800 1.86200 47.07600
C  45.79200 6.56500 47.63000
N  40.83300 5.03300 47.64900
C  40.25300 6.29500 47.81000
C  38.75000 6.22200 47.91700
C  38.57300 4.70700 48.16400
C  39.89700 4.02600 47.71500
C  38.36100 4.37800 49.63400
C  37.99300 6.72000 46.66100
C  38.73500 6.62400 45.26900
H  38.98900 7.67500 44.28300
N  42.47500 2.51600 47.49000
C  41.32000 1.89800 47.60600
C  41.42600 0.45100 47.43200
C  42.82200 0.19900 47.23500
C  43.44100 1.57900 47.25000
C  40.22900 -0.42000 47.46400
C  43.41700 -1.14800 47.10000
O  42.69600 -2.14100 47.16700
C  44.92700 -1.39400 46.85100
N  45.01600 4.29000 47.42100
C  45.49900 3.07100 47.04500
C  46.99600 3.11000 46.93200
C  47.37000 4.59500 47.23400
C  45.99500 5.21300 47.43100
C  47.70100 2.07900 47.85300
C  48.28500 5.25700 46.13700
C  49.60700 5.81400 46.60000
N  43.38500 6.54600 47.92100
C  44.62100 7.24900 47.86000
C  44.30800 8.69100 47.95600
C  42.94500 8.76000 47.97100
C  42.42900 7.49000 47.98200
C  45.41700 9.78200 47.99900
C  41.89500 9.74000 48.17300
O  41.92200 10.97300 48.32900
C  40.58500 8.86900 48.11100
C  39.78100 9.10500 49.28900
O  40.09900 8.71700 50.40600
O  38.75600 9.94400 48.98100
C  37.94900 10.32700 50.15100
H  39.19800 1.93400 47.85100
H  45.47100 1.02200 46.85700
H  46.69200 7.18200 47.58000
H  38.54400 6.94400 48.70600
H  37.75200 4.17300 47.68400
H  37.76200 5.14000 50.13300
H  39.31100 4.27300 50.15800
H  37.70600 3.50800 49.68700
H  37.85300 7.79700 46.75600
H  37.00200 6.27300 46.73200
H  38.18400 5.82000 44.78200
H  39.77400 6.30100 45.33200
H  39.48300 -0.15600 46.71400
H  39.65100 -0.32100 48.38300
H  40.38100 -1.48600 47.29700
H  45.59300 -1.05500 47.64400
H  45.21700 -0.83500 45.96100
H  44.93300 -2.46000 46.62000
H  47.25900 2.78400 45.92500
H  47.81100 4.72500 48.22200
H  47.03000 1.45900 48.44700
H  48.37600 2.70500 48.43700
H  48.29700 1.38200 47.26300
H  47.70200 6.09100 45.74600
H  48.41500 4.51600 45.34800
H  49.61700 6.81000 46.15700
H  50.49600 5.38900 46.13400
H  49.66800 5.88200 47.68700
H  46.42500 9.38200 47.88500
H  45.34000 10.35900 48.92000
H  45.33000 10.40500 47.10900
H  39.99200 9.08800 47.22400
H  36.89600 10.04900 50.12200
H  37.82100 11.40700 50.22200
H  38.30800 10.01800 51.13300
Mg 46.49600 25.73100 29.24800
C  47.35000 27.80400 31.73000
C  45.70600 23.21500 31.71200
C  46.24100 23.18700 26.95100
C  48.13500 27.59200 26.87500
N  46.58400 25.55200 31.43700
C  46.77300 26.60600 32.27400
C  46.51900 26.31500 33.77900
C  46.36800 24.75100 33.73800
C  46.17300 24.44600 32.23200
C  47.49700 23.85700 34.38200
C  45.43000 27.21800 34.36200
C  45.69000 27.94200 35.69100
H  46.33500 27.22500 36.95900
N  45.72800 23.69600 29.24100
C  45.48000 22.87400 30.35700
C  44.81000 21.68300 29.90400
C  45.13300 21.62300 28.47700
C  45.66100 22.92100 28.16100
C  44.20000 20.65000 30.85400
C  45.00700 20.42700 27.56700
O  45.24500 20.36600 26.39300
C  44.37000 19.19700 28.11000
N  47.09400 25.41500 27.13700
C  46.89700 24.33600 26.42300
C  47.44900 24.35300 25.04400
C  47.97300 25.87500 24.99000
C  47.75100 26.31100 26.42300
C  48.45300 23.17800 24.81800
C  47.32900 26.84900 23.88400
C  48.32500 27.37900 22.84900
N  47.44900 27.44500 29.21100
C  47.98300 28.16900 28.18400
C  48.68700 29.33100 28.76000
C  48.35700 29.27700 30.12900
C  47.63600 28.09100 30.36300
C  49.36100 30.48600 28.14300
C  48.47300 29.93800 31.40000
O  48.95000 31.04300 31.57500
C  47.91400 28.98500 32.44100
C  49.06500 28.62000 33.26300
O  49.91000 27.80500 32.89700
O  49.00200 29.28600 34.45700
C  50.10200 29.14000 35.42500
H  45.35200 22.67000 32.59000
H  46.20500 22.46200 26.13600
H  48.76300 28.22700 26.24600
H  47.39900 26.72500 34.27400
H  45.48000 24.68300 34.36500
H  48.47100 24.27500 34.12600
H  47.41100 22.87600 33.91300
H  47.37400 23.77400 35.46200
H  44.43800 26.76900 34.41500
H  45.31700 28.11000 33.74700
H  44.67700 28.21800 35.98400
H  46.30500 28.81900 35.48900
H  43.23100 20.58400 30.36000
H  44.00400 21.08100 31.83600
H  44.84700 19.78000 30.96500
H  45.11800 18.83200 28.81400
H  44.29800 18.44700 27.32300
H  43.37400 19.30600 28.54100
H  46.64100 24.26700 24.31800
H  49.05800 25.92800 24.90100
H  48.04000 22.52800 24.04700
H  48.66900 22.64600 25.74400
H  49.39500 23.62100 24.49400
H  46.91900 27.74100 24.35600
H  46.50200 26.33100 23.39700
H  47.99700 27.16100 21.83200
H  49.37700 27.10500 22.92700
H  48.39200 28.46100 22.95700
H  48.80200 31.40500 28.32300
H  49.52700 30.29200 27.08400
H  50.24900 30.67000 28.74700
H  47.13700 29.54000 32.96700
H  51.00900 28.71000 35.00000
H  49.84900 28.71000 36.39400
H  50.43600 30.16100 35.61400

