158

Mg 35.05400 49.81600 26.27600
C  35.43900 47.75500 28.98800
C  33.94800 52.26400 28.30200
C  34.05900 51.45400 23.53500
C  36.12800 47.13300 24.16100
N  34.68900 49.97200 28.41800
C  34.90600 48.97200 29.30700
C  34.76800 49.52600 30.74000
C  33.93300 50.83700 30.44500
C  34.14100 51.05000 28.97600
C  32.40500 50.92000 30.98800
C  36.20500 49.87200 31.29500
C  36.42400 49.44400 32.80500
H  36.33800 50.55600 33.88300
N  34.37000 51.73900 25.97200
C  34.00300 52.58900 26.91700
C  33.75500 53.94200 26.30800
C  33.65000 53.61100 24.90100
C  34.06800 52.19900 24.74400
C  33.59800 55.19400 27.08900
C  33.38600 54.58600 23.63300
O  33.42100 54.16900 22.47200
C  32.98800 56.08600 23.89500
N  35.01500 49.24200 24.14700
C  34.55100 50.13100 23.27700
C  34.62000 49.61300 21.82500
C  35.50100 48.26800 21.90100
C  35.61200 48.19700 23.47700
C  33.26700 49.35600 21.01400
C  36.98100 48.32700 21.36700
C  37.46600 47.00100 20.75000
N  35.61600 47.73500 26.44700
C  36.10000 46.84700 25.55100
C  36.47400 45.63500 26.26000
C  36.30300 45.97600 27.62000
C  35.71300 47.26000 27.68200
C  36.98200 44.38100 25.66700
C  36.35800 45.42600 28.94900
O  36.79900 44.38600 29.41400
C  35.86700 46.57500 29.86600
C  34.87900 46.12900 30.87600
O  33.81900 45.53900 30.60300
O  35.39700 46.26700 32.16100
C  34.70700 45.41500 33.17400
H  33.44100 53.08500 28.81300
H  33.57100 51.91800 22.67500
H  36.56300 46.44200 23.43600
H  34.11300 48.83700 31.27300
H  34.35900 51.71700 30.92600
H  31.65000 50.72500 30.22700
H  32.27100 51.99100 31.14400
H  32.19700 50.38100 31.91200
H  36.30700 50.94900 31.16200
H  36.93100 49.37600 30.65100
H  37.42700 49.02400 32.88400
H  35.72000 48.65200 33.05900
H  34.56200 55.69300 27.19200
H  33.38500 54.98400 28.13700
H  32.96600 55.93600 26.60200
H  32.00900 56.21600 24.35600
H  32.92200 56.62900 22.95200
H  33.78800 56.61200 24.41500
H  35.27700 50.17400 21.16100
H  34.86900 47.44600 21.56600
H  33.23700 48.37800 20.53500
H  33.33600 50.08900 20.21000
H  32.35700 49.48900 21.60000
H  37.72100 48.50000 22.14900
H  37.20700 49.12700 20.66200
H  37.67000 47.15000 19.69000
H  36.61900 46.31600 20.80700
H  38.36100 46.64800 21.26200
H  37.96700 44.62000 25.26500
H  36.38100 44.11900 24.79600
H  36.95000 43.53100 26.34900
H  36.77200 46.98800 30.31200
H  34.08800 44.65400 32.69900
H  34.03800 45.97400 33.82800
H  35.32200 44.85000 33.87400
Mg 10.20300 47.67000 25.38600
C  7.84600 47.81300 28.12200
C  12.65400 48.79500 27.53400
C  12.29500 47.76400 22.77100
C  7.45200 47.08400 23.23500
N  10.20400 48.25700 27.67600
C  9.14000 48.20900 28.57500
C  9.65100 48.65400 29.96800
C  11.08600 49.23700 29.66000
C  11.40100 48.73100 28.20100
C  11.00900 50.82400 29.70900
C  9.67800 47.51500 30.96900
C  9.42800 47.95100 32.45900
H  9.49100 46.80900 33.50000
N  12.26500 48.04600 25.19300
C  13.14500 48.49000 26.20400
C  14.40000 48.69000 25.66500
C  14.34300 48.25400 24.27000
C  12.92800 47.97800 24.04000
C  15.54700 49.25400 26.50900
C  15.40500 48.21800 23.23700
O  15.28100 47.89600 22.06500
C  16.85300 48.55800 23.62900
N  9.93900 47.42800 23.32100
C  10.98000 47.47100 22.45300
C  10.53000 47.06100 21.09100
C  9.01100 46.62000 21.25900
C  8.76100 47.12600 22.68200
C  10.66700 48.14800 19.97200
C  8.66900 45.06700 20.99400
C  8.96600 44.17900 22.20500
N  8.07200 47.51800 25.55000
C  7.13400 47.25000 24.61000
C  5.82600 47.22100 25.22000
C  6.07000 47.40700 26.60700
C  7.46000 47.55200 26.77700
C  4.46700 47.00100 24.60600
C  5.39800 47.52900 27.89300
O  4.19100 47.53000 28.18100
C  6.51100 47.89300 28.90100
C  6.27100 46.99900 30.13800
O  6.54600 45.81000 30.30000
O  5.51500 47.77500 30.97600
C  5.18100 47.12500 32.23000
H  13.38700 49.22700 28.21900
H  12.95000 47.75300 21.89700
H  6.70400 46.75900 22.50900
H  8.99800 49.45600 30.31200
H  11.79100 48.84200 30.39100
H  10.29400 51.24600 30.41500
H  10.71600 51.30700 28.77700
H  11.99600 51.17700 30.01000
H  10.61000 46.95400 30.89100
H  8.84800 46.91800 30.59300
H  8.42700 48.37500 32.54700
H  10.10900 48.75600 32.73500
H  15.97400 50.07800 25.93600
H  16.44600 48.63900 26.52900
H  15.31300 49.66900 27.49000
H  17.47100 48.18800 22.81100
H  17.04600 47.87700 24.45700
H  16.90400 49.60900 23.91400
H  11.14700 46.18900 20.87500
H  8.35100 47.12400 20.55300
H  10.01800 48.98900 20.21700
H  10.64000 47.74100 18.96200
H  11.65600 48.60400 20.01800
H  9.39500 44.78800 20.23000
H  7.64400 44.90700 20.66000
H  9.01700 44.59700 23.21000
H  9.91100 43.65200 22.07600
H  8.36500 43.27000 22.20800
H  4.45600 46.01000 24.15400
H  4.22000 47.88800 24.02200
H  3.80500 46.90800 25.46600
H  6.37700 48.91100 29.26700
H  4.72800 47.84400 32.91200
H  6.04100 46.74100 32.77900
H  4.48600 46.29500 32.10100

