158

Mg 5.32100 54.78900 40.41000
C  4.76200 51.28300 40.30800
C  8.60500 54.08500 39.56200
C  5.74000 57.98700 40.16600
C  1.89900 55.16100 40.99200
N  6.54300 52.92100 39.94100
C  6.05300 51.61100 39.85500
C  7.17900 50.63500 39.42200
C  8.44300 51.51600 39.53000
C  7.84600 52.95200 39.72400
C  9.44900 50.99600 40.56600
C  7.04300 49.91400 38.01200
C  6.15900 50.66500 36.98900
H  6.87900 51.31900 35.85700
N  7.03700 55.90500 39.96300
C  8.27700 55.45500 39.65300
C  9.12400 56.61200 39.49000
C  8.32800 57.79000 39.74400
C  6.92700 57.24100 39.88800
C  10.65900 56.51300 39.25600
C  8.86700 59.17900 39.63200
O  10.06100 59.42000 39.45700
C  7.96600 60.32200 39.82800
N  4.01700 56.39200 40.52200
C  4.43300 57.65300 40.49200
C  3.29100 58.66700 40.80500
C  2.04700 57.72100 40.89400
C  2.69300 56.35100 40.80100
C  3.56300 59.48900 42.07800
C  0.93100 57.74700 39.78700
C  -0.52200 57.78500 40.17100
N  3.58700 53.52700 40.59300
C  2.35700 53.79400 40.96000
C  1.60600 52.57600 41.13600
C  2.51300 51.59600 41.02900
C  3.70700 52.16700 40.64500
C  0.09000 52.46300 41.22200
C  2.77000 50.14400 41.09900
O  2.01700 49.24000 41.37500
C  4.26800 49.96500 40.61800
C  4.08500 49.23500 39.35700
O  3.56500 49.73000 38.35400
O  4.55000 47.92500 39.53700
C  4.29600 46.94000 38.45800
H  9.66000 53.90800 39.34700
H  5.79100 59.07700 40.17100
H  0.84100 55.33000 41.20200
H  7.19800 49.88800 40.21600
H  8.98900 51.51800 38.58700
H  10.46300 50.86300 40.18800
H  9.21100 50.09700 41.13400
H  9.53600 51.74200 41.35600
H  6.61100 48.91900 38.11300
H  7.99700 49.85200 37.48800
H  5.55000 51.45700 37.42500
H  5.46400 49.99200 36.48800
H  11.07300 57.06600 38.41200
H  10.92400 55.46400 39.12700
H  11.04600 56.82900 40.22500
H  8.45100 61.29700 39.77700
H  7.45100 60.24500 40.78600
H  7.32800 60.33400 38.94500
H  3.11900 59.27900 39.92000
H  1.62600 57.61900 41.89400
H  2.72500 59.40100 42.77000
H  3.54900 60.54600 41.81400
H  4.45900 59.25100 42.65100
H  1.06900 56.95200 39.05300
H  1.06900 58.62000 39.15000
H  -0.61400 58.11700 41.20500
H  -1.17100 56.91700 40.05500
H  -0.96700 58.58500 39.57900
H  -0.41300 53.37500 40.90100
H  -0.11100 52.34300 42.28700
H  -0.36900 51.63200 40.68700
H  4.91500 49.54100 41.38600
H  4.51400 47.36900 37.48000
H  3.30600 46.49900 38.34200
H  4.94300 46.09500 38.69300
Mg 16.57800 52.85600 26.53100
C  18.46400 51.12300 28.83100
C  14.28600 53.54400 28.92500
C  14.88000 54.46800 24.14700
C  18.93300 51.83000 24.06900
N  16.33400 52.34300 28.65400
C  17.31500 51.71000 29.36600
C  17.07200 51.87400 30.84000
C  15.55600 52.34900 30.90000
C  15.28400 52.70600 29.42200
C  14.61300 51.24600 31.44300
C  18.14900 52.85000 31.38000
C  18.49900 52.56400 32.86600
H  17.40300 51.97000 33.76800
N  14.88300 53.90900 26.51800
C  14.08600 54.04600 27.62600
C  13.03400 54.94100 27.25800
C  13.13500 55.24400 25.91500
C  14.36900 54.55700 25.46400
C  11.89000 55.43800 28.23900
C  12.25500 56.04900 24.98900
O  12.52000 56.17700 23.82900
C  10.91700 56.70700 25.46800
N  16.94600 53.23700 24.41400
C  16.06100 53.93000 23.69200
C  16.51600 54.02800 22.27800
C  17.86400 53.29300 22.20700
C  17.94900 52.73400 23.64400
C  15.45300 53.50300 21.20800
C  19.18600 54.13100 21.77700
C  19.03600 55.66800 21.46100
N  18.32900 51.73400 26.38700
C  19.17800 51.41100 25.32300
C  20.28500 50.60900 25.79800
C  19.96300 50.41400 27.22100
C  18.81800 51.14300 27.50300
C  21.32800 49.92600 24.98700
C  20.46600 49.76700 28.41000
O  21.43800 49.10400 28.58400
C  19.57600 50.39000 29.59300
C  19.11300 49.15500 30.31600
O  18.60300 48.20800 29.80300
O  19.41100 49.35200 31.64300
C  19.01500 48.23800 32.53600
H  13.49600 53.84600 29.61600
H  14.42300 54.99300 23.30600
H  19.61200 51.49100 23.28400
H  17.10200 50.84000 31.18400
H  15.40500 53.29400 31.42100
H  13.78800 51.76300 31.93400
H  15.13500 50.60300 32.15200
H  14.13000 50.61800 30.69400
H  17.56700 53.76800 31.46400
H  19.00700 52.95600 30.71600
H  18.75900 53.54400 33.26500
H  19.45800 52.04500 32.86100
H  12.01600 56.52000 28.27100
H  11.82200 55.05500 29.25700
H  10.87100 55.21200 27.92400
H  11.05100 57.32900 26.35400
H  10.18100 55.91200 25.58800
H  10.59900 57.33500 24.63600
H  16.62900 55.07300 21.98800
H  17.76300 52.38700 21.61000
H  15.63100 54.23000 20.41500
H  14.43500 53.60200 21.58500
H  15.72800 52.49200 20.90800
H  19.56400 53.63900 20.88000
H  19.85800 54.09000 22.63400
H  19.96800 55.97400 20.98500
H  18.98900 56.19300 22.41500
H  18.19400 55.89700 20.80700
H  21.20200 48.84400 25.01700
H  22.25600 50.13300 25.52000
H  21.47600 50.31900 23.98100
H  20.21300 50.97100 30.26100
H  17.93500 48.16100 32.41400
H  19.13700 48.58700 33.56200
H  19.58300 47.39000 32.15400

