158

Mg 16.67600 -1.20800 27.47600
C  15.76300 0.96900 30.06600
C  18.91400 -2.64900 29.58300
C  18.00700 -2.71700 24.85000
C  14.71500 0.72300 25.31100
N  17.40400 -0.79500 29.58400
C  16.72500 -0.02700 30.47800
C  17.20800 -0.35300 31.89300
C  18.31000 -1.35000 31.60700
C  18.15900 -1.69200 30.19500
C  19.79200 -0.91000 32.02300
C  16.01900 -0.88300 32.77400
C  15.83900 -0.31000 34.13700
H  17.06300 0.47400 34.72300
N  18.21700 -2.56700 27.24200
C  18.99000 -3.08200 28.25600
C  19.79400 -4.22000 27.71300
C  19.56300 -4.22900 26.31900
C  18.54600 -3.16200 26.05700
C  20.60800 -5.12900 28.64300
C  20.28800 -5.10000 25.26700
O  20.18400 -4.96300 24.06700
C  21.34400 -6.13500 25.61800
N  16.43600 -1.02600 25.32800
C  17.11400 -1.75900 24.47100
C  16.80000 -1.46100 23.02800
C  15.83500 -0.23700 23.17200
C  15.56400 -0.20800 24.68400
C  18.04500 -1.14000 22.11400
C  14.51400 -0.45500 22.40300
C  14.44200 0.04100 20.99700
N  15.40600 0.42800 27.61700
C  14.74100 1.15600 26.65600
C  13.99100 2.24700 27.24800
C  14.32400 2.14800 28.61300
C  15.28800 1.06800 28.71000
C  13.09600 3.17100 26.56400
C  14.08400 2.72200 29.97400
O  13.43100 3.67400 30.34400
C  15.01000 1.93400 30.90200
C  15.88200 2.83700 31.61500
O  17.09300 3.03500 31.47600
O  15.17200 3.48100 32.64000
C  15.94500 4.47000 33.43300
H  19.54200 -3.15600 30.31800
H  18.29800 -3.22100 23.92500
H  14.24600 1.40300 24.59700
H  17.61200 0.61000 32.20600
H  18.16400 -2.31700 32.08800
H  19.76500 -0.07000 32.71700
H  20.32900 -0.81300 31.07900
H  20.27100 -1.72500 32.56600
H  16.22100 -1.94700 32.89500
H  15.15200 -0.70300 32.13800
H  15.62600 -1.04400 34.91400
H  14.89300 0.23100 34.10000
H  20.18600 -6.13200 28.57300
H  20.75400 -4.71800 29.64200
H  21.59400 -5.26600 28.19800
H  21.30400 -6.91500 24.85700
H  21.18700 -6.66700 26.55600
H  22.33500 -5.68300 25.64500
H  16.21300 -2.32300 22.71100
H  16.37200 0.64000 22.81200
H  18.93000 -1.68600 22.44500
H  18.29300 -0.08300 22.02400
H  17.78300 -1.51700 21.12500
H  13.68100 0.04100 22.90200
H  14.36700 -1.53400 22.35400
H  13.60300 0.73300 20.93300
H  14.26900 -0.83400 20.37000
H  15.33100 0.59000 20.68700
H  13.41800 4.21300 26.55100
H  12.14800 3.08200 27.09400
H  13.10500 2.83300 25.52800
H  14.35000 1.40900 31.59300
H  16.51300 3.98700 34.22800
H  15.20200 5.03100 34.00000
H  16.51500 5.15100 32.80100
Mg -12.67300 37.53400 42.97400
C  -10.18600 35.24900 41.62700
C  -10.97400 39.94700 41.44400
C  -15.29300 39.48500 43.41900
C  -14.42500 34.72400 43.87500
N  -10.77700 37.51900 41.74200
C  -9.94200 36.56600 41.32300
C  -8.77700 37.06300 40.48300
C  -9.03800 38.57900 40.65400
C  -10.37300 38.74700 41.33300
C  -7.93900 39.33600 41.42800
C  -8.69600 36.54700 38.99800
C  -7.37000 35.81800 38.58500
H  -6.66400 36.33500 37.33900
N  -12.99400 39.55700 42.65100
C  -12.13400 40.43000 42.04200
C  -12.63100 41.77500 42.11300
C  -13.86200 41.62400 42.78300
C  -14.15200 40.20300 42.91000
C  -11.90000 42.88200 41.44200
C  -14.66000 42.82100 43.27900
O  -14.26700 43.95400 43.09300
C  -15.89400 42.61800 44.08300
N  -14.62600 37.26800 43.61400
C  -15.58300 38.17300 43.68500
C  -16.93600 37.61000 44.16400
C  -16.55400 36.06000 44.42200
C  -15.10700 35.99100 43.84000
C  -17.66700 38.30600 45.34100
C  -17.52900 35.08200 43.77000
C  -17.73300 35.08000 42.16600
N  -12.34000 35.44100 42.89600
C  -13.13800 34.44100 43.42200
C  -12.43700 33.16700 43.27400
C  -11.26300 33.47900 42.59300
C  -11.25100 34.85600 42.39900
C  -12.86800 31.82800 43.63700
C  -10.06900 32.82700 41.99600
O  -9.58800 31.69000 42.06200
C  -9.41600 33.99000 41.20800
C  -7.95800 34.04800 41.64000
O  -7.44500 34.42300 42.68500
O  -7.25900 33.45300 40.65600
C  -5.79300 33.32900 40.93800
H  -10.29300 40.66100 40.97500
H  -16.10200 40.19900 43.58900
H  -14.99800 33.85100 44.19400
H  -7.84100 36.83100 40.99300
H  -9.05300 38.99100 39.64500
H  -8.43800 39.72200 42.31700
H  -7.60800 40.12500 40.75300
H  -7.04700 38.83700 41.80600
H  -8.64900 37.37600 38.29300
H  -9.63700 36.02400 38.82300
H  -7.48800 34.76200 38.34100
H  -6.57500 35.89000 39.32800
H  -11.44800 42.50000 40.52600
H  -11.21300 43.30200 42.17700
H  -12.67500 43.63200 41.28300
H  -16.25400 43.51300 44.59100
H  -15.70900 41.86300 44.84700
H  -16.73600 42.29000 43.47400
H  -17.61200 37.71700 43.31600
H  -16.42500 35.83000 45.48000
H  -17.67600 37.60200 46.17300
H  -18.69500 38.53600 45.06000
H  -17.13000 39.17800 45.71400
H  -18.53800 35.25100 44.14700
H  -17.20100 34.09600 44.09700
H  -17.27700 36.00200 41.80500
H  -18.80600 35.22500 42.04200
H  -17.35500 34.18700 41.67000
H  -13.41900 31.93500 44.57100
H  -11.93000 31.32500 43.87300
H  -13.40500 31.29700 42.85000
H  -9.41500 33.78500 40.13800
H  -5.38200 33.54300 41.92500
H  -5.19000 33.80600 40.16500
H  -5.58900 32.25900 40.93600

