158

Mg 44.69300 5.92400 47.74200
C  42.49000 8.66500 47.25000
C  41.94300 3.81800 46.92100
C  46.72100 3.38800 47.53700
C  47.30400 8.22000 47.98900
N  42.49600 6.21700 47.17500
C  41.84600 7.48200 47.05000
C  40.33400 7.30800 46.68800
C  40.14400 5.77200 46.71700
C  41.60600 5.19700 46.93900
C  39.06300 5.11200 47.59300
C  39.96200 8.02400 45.35900
C  41.13500 7.90000 44.24100
H  40.69100 7.56900 42.81200
N  44.36900 3.76600 47.45900
C  43.18200 3.14900 47.22400
C  43.44600 1.69700 47.17600
C  44.85300 1.51900 47.39400
C  45.39300 2.92900 47.51800
C  42.43000 0.66100 46.86200
C  45.59200 0.14800 47.23700
O  44.93900 -0.79300 46.88200
C  47.13100 0.04000 47.36800
N  46.69400 5.81300 47.92900
C  47.29800 4.68300 47.79600
C  48.84200 4.80100 47.84000
C  49.03400 6.34400 47.86500
C  47.64600 6.85200 48.03700
C  49.55400 3.96200 48.99600
C  49.87200 6.88600 46.63500
C  49.06700 6.83300 45.31600
N  44.88000 7.90500 47.73000
C  45.98100 8.75600 47.87100
C  45.63900 10.17700 47.70000
C  44.22600 10.17200 47.55200
C  43.85800 8.77200 47.45400
C  46.49000 11.34100 47.63500
C  43.01200 11.04400 47.43400
O  42.88800 12.25400 47.46500
C  41.87300 10.08400 47.27700
C  40.78300 10.36200 48.38000
O  40.71300 9.72100 49.40200
O  39.81600 11.27300 47.97400
C  38.57400 11.33500 48.76300
H  41.11800 3.14500 46.67700
H  47.44500 2.60300 47.31000
H  48.05200 9.01600 48.00700
H  39.60900 7.79300 47.34200
H  40.01900 5.45900 45.68100
H  38.18800 5.76000 47.65500
H  39.35400 4.73800 48.57400
H  38.82700 4.28800 46.92000
H  39.64400 9.03200 45.62700
H  39.04400 7.63800 44.91600
H  41.70500 7.00500 44.49100
H  41.76500 8.78600 44.16300
H  42.76500 0.27600 45.89900
H  41.54800 1.20000 46.51400
H  42.14900 -0.14200 47.54300
H  47.34900 -0.99400 47.09900
H  47.37500 0.23600 48.41300
H  47.63900 0.69600 46.66200
H  49.11800 4.30200 46.91100
H  49.62400 6.68700 48.71500
H  49.99000 3.06600 48.55400
H  48.86100 3.80000 49.82100
H  50.38200 4.57200 49.35700
H  50.71100 6.21000 46.46300
H  50.29000 7.88100 46.79100
H  48.95400 7.83500 44.90200
H  48.13000 6.29800 45.47200
H  49.52200 6.18100 44.56900
H  47.33700 11.36200 48.32200
H  45.86200 12.23200 47.63500
H  46.92100 11.28100 46.63600
H  41.32000 10.27200 46.35700
H  38.16200 12.33800 48.64900
H  38.85300 11.07100 49.78300
H  37.76000 10.68300 48.44600
Mg 5.70500 52.41400 41.89900
C  5.00800 48.99300 41.82800
C  8.62600 51.84300 40.20400
C  6.02500 55.65700 41.53400
C  2.31300 52.93300 42.95200
N  6.64400 50.62100 40.92600
C  6.26700 49.35000 41.20600
C  7.30700 48.38500 40.54400
C  8.63500 49.33500 40.70000
C  7.93900 50.68300 40.54300
C  9.42500 49.21900 42.01400
C  7.06300 47.96100 38.98800
C  6.03000 48.75100 38.25000
H  5.67700 48.24700 36.89200
N  7.25100 53.61000 41.12800
C  8.36200 53.17200 40.50700
C  9.20900 54.28400 40.21000
C  8.45000 55.48500 40.58200
C  7.20400 54.94900 41.07400
C  10.50100 54.18200 39.41400
C  8.94600 56.92200 40.49500
O  10.10700 57.15900 40.13800
C  8.06000 58.11100 40.85900
N  4.24700 54.09200 41.99300
C  4.77500 55.35700 41.95900
C  3.81600 56.35900 42.57800
C  2.55800 55.49000 42.90500
C  2.99100 54.09400 42.50800
C  4.40000 57.11700 43.80700
C  1.28300 55.95500 42.16400
C  0.08300 56.32000 43.04300
N  3.94000 51.23600 42.43900
C  2.68000 51.57900 42.94700
C  2.07100 50.32300 43.42300
C  2.93400 49.24900 42.96100
C  4.07600 49.89800 42.32300
C  0.79400 50.16000 44.12800
C  3.08100 47.87200 42.81800
O  2.33400 46.98200 43.17500
C  4.42400 47.61200 42.09300
C  4.09600 46.73300 40.88600
O  3.37500 47.05400 39.94000
O  4.67500 45.47100 40.99700
C  4.62300 44.68100 39.80200
H  9.62900 51.60700 39.84200
H  6.25100 56.72300 41.45500
H  1.41800 53.21500 43.51000
H  7.57800 47.51400 41.14100
H  9.32300 49.13400 39.87900
H  8.99200 48.37700 42.55400
H  9.36800 50.21700 42.45000
H  10.50000 49.11400 41.87000
H  7.00500 46.87300 38.95200
H  7.97400 48.09600 38.40400
H  6.26800 49.81300 38.19200
H  5.10000 48.64300 38.80900
H  10.17200 53.83000 38.43600
H  11.13900 53.38600 39.79900
H  11.05800 55.10200 39.23500
H  8.47800 59.11000 40.73500
H  7.77500 57.98300 41.90400
H  7.10800 58.22200 40.34100
H  3.69500 57.12300 41.81000
H  2.34800 55.59700 43.96900
H  5.41400 56.87000 44.12200
H  3.72800 57.02100 44.65900
H  4.51200 58.17400 43.56500
H  0.99800 55.17100 41.46300
H  1.55100 56.88900 41.67100
H  0.43400 56.74800 43.98300
H  -0.55700 55.44300 43.13200
H  -0.60300 57.02000 42.56700
H  0.74300 49.13500 44.49700
H  -0.10200 50.30200 43.52400
H  1.01500 50.79900 44.98300
H  5.14400 47.15100 42.76900
H  5.68600 44.54300 39.60500
H  4.20500 45.06400 38.87100
H  4.18800 43.70500 40.01700

