158

Mg 17.76700 -1.59600 27.99600
C  16.69600 0.25100 30.66300
C  19.86300 -3.32000 30.17600
C  19.33800 -2.93500 25.32800
C  15.80500 0.52200 26.01100
N  18.16500 -1.53400 30.17400
C  17.62200 -0.71500 31.04800
C  18.11100 -0.94000 32.47800
C  19.37700 -1.85700 32.23600
C  19.10300 -2.28600 30.78200
C  20.68000 -1.11500 32.40800
C  17.01200 -1.56700 33.35700
C  17.03400 -1.21900 34.89700
H  18.20200 -0.45100 35.49000
N  19.25700 -2.98700 27.71600
C  19.89800 -3.62500 28.77800
C  20.63400 -4.73600 28.28800
C  20.59400 -4.62000 26.87800
C  19.74300 -3.49900 26.52600
C  21.24500 -5.68800 29.23000
C  21.26600 -5.62200 25.90700
O  21.23600 -5.38900 24.70400
C  22.02500 -6.90700 26.30900
N  17.66500 -1.11900 25.92100
C  18.39700 -1.97100 25.05700
C  18.07600 -1.45100 23.65500
C  16.76900 -0.54000 23.86500
C  16.67300 -0.38200 25.35600
C  19.36200 -0.82600 22.98600
C  15.46700 -0.93300 23.12600
C  14.59000 0.19400 22.44100
N  16.37000 -0.08300 28.21900
C  15.67000 0.68500 27.35700
C  14.88800 1.68400 28.05000
C  15.20800 1.50000 29.36600
C  16.17300 0.50700 29.36500
C  13.88600 2.58700 27.43600
C  14.94200 1.92800 30.64700
O  14.14600 2.77600 30.99000
C  15.91400 1.23600 31.60100
C  16.72800 2.25000 32.33800
O  17.58900 2.91800 31.78800
O  16.33400 2.28000 33.63200
C  16.98700 3.32500 34.43300
H  20.57900 -3.78900 30.85500
H  19.81800 -3.36400 24.44600
H  15.14500 1.02000 25.29700
H  18.34100 0.04200 32.89100
H  19.38100 -2.66700 32.96600
H  21.23700 -1.67200 33.16100
H  20.48400 -0.12900 32.82900
H  21.25500 -1.13400 31.48200
H  16.97300 -2.64800 33.22300
H  16.05800 -1.36100 32.87200
H  16.99900 -2.13400 35.48800
H  16.13100 -0.63900 35.09200
H  20.73700 -5.66100 30.19400
H  22.33200 -5.61300 29.26900
H  21.12900 -6.67700 28.78700
H  21.27900 -7.63400 26.63200
H  22.75900 -6.64200 27.07000
H  22.54700 -7.39600 25.48700
H  17.82400 -2.32300 23.05200
H  16.99800 0.48900 23.58800
H  20.06200 -0.69400 23.81100
H  19.05700 0.14500 22.59400
H  19.80300 -1.40600 22.17600
H  14.75100 -1.37000 23.82200
H  15.76200 -1.73500 22.45000
H  13.57600 0.07700 22.82300
H  14.53400 0.02500 21.36500
H  15.03400 1.18200 22.56300
H  13.49400 3.26000 28.19900
H  13.01600 2.09900 26.99800
H  14.41500 3.04300 26.59900
H  15.23300 0.74800 32.29800
H  16.78000 3.26000 35.50100
H  16.62400 4.31500 34.15600
H  18.07600 3.33100 34.47100
Mg 48.31000 35.23400 27.62900
C  45.93500 33.87900 29.92100
C  48.55100 37.96400 29.68900
C  49.74600 36.78500 25.16400
C  47.45500 32.61800 25.42400
N  47.18600 35.91000 29.45700
C  46.37800 35.12500 30.27300
C  46.23400 35.75300 31.67300
C  46.72500 37.22200 31.44900
C  47.62800 36.95900 30.15500
C  45.56900 38.11800 31.15100
C  46.97500 34.88400 32.75200
C  48.03500 35.50700 33.81500
H  47.55800 35.94000 35.17900
N  49.12900 37.08400 27.44300
C  49.16400 38.02700 28.44600
C  50.13900 39.05300 27.97000
C  50.50000 38.70500 26.69800
C  49.75700 37.55600 26.35500
C  50.46800 40.21800 28.80900
C  51.44300 39.44900 25.70900
O  51.77100 39.03900 24.63500
C  52.08300 40.80100 26.13400
N  48.25000 34.89500 25.53000
C  49.10300 35.67800 24.78500
C  49.15900 35.12800 23.31300
C  48.67500 33.66700 23.55000
C  48.09100 33.72200 24.90000
C  48.12800 35.86600 22.44900
C  49.64900 32.47900 23.35100
C  49.21100 31.38300 22.32500
N  47.09700 33.56700 27.71000
C  46.91500 32.53700 26.74800
C  46.00600 31.52000 27.34300
C  45.55900 32.05100 28.51400
C  46.24400 33.27300 28.72900
C  45.71200 30.21500 26.71600
C  44.70400 31.80600 29.59200
O  43.97000 30.85500 29.90300
C  44.87200 33.06900 30.45900
C  44.93800 32.59700 31.87600
O  45.77700 31.85500 32.39500
O  43.78400 33.04500 32.52700
C  43.49700 32.72500 33.95400
H  48.73600 38.67000 30.50100
H  50.40900 37.23400 24.42100
H  47.44300 31.73200 24.78500
H  45.19400 35.68600 31.99400
H  47.29000 37.70400 32.24800
H  44.68400 37.60500 31.52600
H  45.43900 38.16400 30.07000
H  45.74200 39.11400 31.55900
H  47.42200 34.01000 32.27900
H  46.13500 34.59500 33.38300
H  48.60100 36.30600 33.33600
H  48.70900 34.66700 33.98200
H  49.96500 41.01700 28.26500
H  51.54000 40.38700 28.91000
H  49.90800 40.17800 29.74400
H  51.31000 41.43100 26.57600
H  52.57800 41.31500 25.31100
H  52.74000 40.56000 26.97000
H  50.16800 35.20100 22.90900
H  47.79600 33.45600 22.94000
H  48.57900 35.98200 21.46400
H  47.87200 36.80600 22.93800
H  47.15700 35.37400 22.38100
H  49.81800 31.88500 24.25000
H  50.62000 32.87100 23.04800
H  48.23500 31.60200 21.89200
H  49.31500 30.42200 22.82700
H  49.94700 31.55600 21.53900
H  46.68600 29.73000 26.65100
H  45.24500 30.40000 25.74900
H  44.96600 29.67100 27.29600
H  43.87300 33.50400 30.48400
H  44.19000 31.90300 34.13500
H  42.47500 32.48400 34.24500
H  43.84200 33.60500 34.49700

