158

Mg 9.26800 47.23400 26.43700
C  7.23200 47.01300 29.26500
C  11.90800 47.99600 28.49600
C  11.09400 48.07500 23.70300
C  6.40900 47.32900 24.36500
N  9.50000 47.45700 28.57400
C  8.59300 47.23200 29.56400
C  9.15800 47.36700 31.03500
C  10.67600 47.73700 30.73400
C  10.72600 47.86400 29.14000
C  11.24100 48.95800 31.45600
C  9.10700 46.07600 31.91800
C  10.18100 45.89000 33.04700
H  9.67600 45.37700 34.38800
N  11.33200 47.64900 26.05300
C  12.22500 47.91600 27.08300
C  13.53400 48.15700 26.50600
C  13.33300 48.24800 25.10000
C  11.91400 47.86400 24.87800
C  14.84800 48.32400 27.26200
C  14.32200 48.60400 23.90100
O  13.91000 48.67500 22.78700
C  15.70500 48.78300 24.19700
N  8.83900 47.42500 24.31600
C  9.76600 47.98100 23.49700
C  9.22200 48.31400 22.12100
C  7.72000 47.86900 22.27800
C  7.63200 47.53600 23.76000
C  9.27300 49.90900 21.82400
C  7.28200 46.71200 21.35500
C  5.86000 46.83200 20.82500
N  7.26300 47.07100 26.70100
C  6.16900 47.13100 25.77300
C  4.97600 46.95900 26.46900
C  5.31800 46.89500 27.84000
C  6.74800 46.94700 27.92500
C  3.56800 46.89300 25.90000
C  4.83400 46.71600 29.15300
O  3.73100 46.38000 29.60700
C  6.04000 46.88800 30.15800
C  5.97400 45.73000 30.99000
O  6.45200 44.60400 30.70700
O  5.41900 46.05900 32.22200
C  5.31500 44.92600 33.18000
H  12.69200 48.29600 29.19500
H  11.76700 48.32700 22.88100
H  5.47600 47.36500 23.79900
H  8.59400 48.16000 31.52600
H  11.36200 46.89300 30.80300
H  11.25600 49.86400 30.84900
H  12.19100 48.59300 31.84600
H  10.78900 49.22700 32.41100
H  9.07500 45.21700 31.24800
H  8.12300 46.15000 32.38200
H  10.68200 46.84100 33.22700
H  10.92700 45.28700 32.52900
H  15.45200 49.14600 26.88000
H  15.45000 47.41900 27.34900
H  14.59000 48.66200 28.26600
H  16.33800 48.87200 23.31400
H  16.09900 48.04400 24.89300
H  15.72100 49.78000 24.63800
H  9.72100 47.67300 21.39400
H  7.11300 48.75200 22.07600
H  10.25700 50.28500 22.10100
H  8.43400 50.47800 22.22500
H  9.21100 50.01800 20.74100
H  7.32200 45.82700 21.99100
H  7.98300 46.64800 20.52300
H  5.37100 47.75500 21.13800
H  5.32300 45.98200 21.24600
H  5.82500 46.70700 19.74300
H  3.09500 45.98100 26.26400
H  3.56900 46.78100 24.81500
H  3.06000 47.77600 26.28900
H  5.85800 47.72500 30.83200
H  4.24000 44.90500 33.35800
H  5.77600 45.37300 34.06200
H  5.80200 43.96900 32.99300
Mg -10.64500 17.03500 42.36100
C  -7.26000 16.03300 42.15600
C  -9.51100 20.19100 41.53000
C  -13.76900 17.80000 41.80600
C  -11.44000 13.58700 42.53300
N  -8.52400 17.98300 41.69600
C  -7.37100 17.35000 41.80000
C  -6.19300 18.34600 41.50400
C  -6.96700 19.71500 41.61900
C  -8.44000 19.30900 41.69500
C  -6.46600 20.57700 42.70900
C  -5.43400 18.17500 40.12900
C  -6.35000 17.64400 39.01100
H  -5.70600 17.76500 37.65900
N  -11.56500 18.83500 41.94200
C  -10.97200 19.97300 41.59100
C  -11.92300 20.96500 41.34300
C  -13.19500 20.31700 41.42200
C  -12.92200 18.87600 41.74200
C  -11.59100 22.40100 40.94100
C  -14.51900 21.04600 41.26500
O  -14.58700 22.21400 41.01500
C  -15.85400 20.29200 41.45800
N  -12.36400 15.83100 42.25100
C  -13.57200 16.46300 42.06700
C  -14.65500 15.49800 42.16700
C  -13.97200 14.11600 42.30300
C  -12.49500 14.49400 42.34000
C  -15.73200 15.82100 43.24000
C  -14.22100 13.16200 41.10900
C  -14.36600 11.68400 41.53000
N  -9.61100 15.21300 42.41600
C  -10.01700 13.90200 42.55400
C  -8.88900 12.97000 42.56900
C  -7.82700 13.84900 42.54300
C  -8.26600 15.16900 42.38400
C  -8.93900 11.49600 42.61000
C  -6.39200 13.77200 42.46300
O  -5.63300 12.80100 42.48800
C  -5.94200 15.22600 42.27100
C  -5.12100 15.69900 43.43800
O  -3.91800 15.89200 43.32000
O  -5.84500 15.92700 44.59900
C  -5.14800 16.59400 45.81900
H  -9.14300 21.18100 41.25100
H  -14.74800 18.18200 41.50700
H  -11.74500 12.54600 42.65500
H  -5.47900 18.26700 42.32300
H  -6.69400 20.29700 40.73900
H  -6.00900 19.95600 43.48000
H  -7.40800 20.95800 43.10200
H  -5.85800 21.42200 42.38700
H  -4.60600 17.49100 40.31200
H  -5.06200 19.12900 39.75600
H  -7.24600 18.26300 39.07300
H  -6.45800 16.58100 39.22800
H  -11.44600 22.47600 39.86300
H  -10.66600 22.69200 41.43900
H  -12.39700 23.06400 41.25300
H  -16.07300 19.62500 40.62400
H  -16.62700 21.05000 41.32800
H  -15.92700 19.83700 42.44600
H  -15.29000 15.48900 41.28100
H  -14.19700 13.63400 43.25400
H  -16.76800 15.76500 42.90700
H  -15.57300 16.88100 43.44200
H  -15.62500 15.19200 44.12400
H  -13.40700 13.14700 40.38300
H  -15.00100 13.56900 40.46500
H  -14.84100 11.49100 42.49200
H  -13.43400 11.12400 41.47000
H  -15.10500 11.19000 40.89900
H  -8.19400 11.09900 41.92000
H  -9.85200 10.96500 42.34300
H  -8.60600 11.15100 43.58900
H  -5.31300 15.34100 41.38800
H  -5.17900 17.68000 45.91200
H  -4.06900 16.48000 45.72200
H  -5.55700 16.19200 46.74600

