158

Mg 44.58300 4.71400 46.94700
C  42.64400 7.49900 46.25400
C  42.05100 2.73700 46.10100
C  46.70800 2.12800 47.32700
C  47.41800 6.86000 47.20700
N  42.66400 5.11300 46.09800
C  42.10000 6.31900 45.85900
C  40.69800 6.11400 45.17000
C  40.36300 4.61700 45.48800
C  41.78200 4.08600 45.89900
C  39.25800 4.47500 46.58300
C  40.81500 6.46800 43.65200
C  39.92300 7.55600 43.13600
H  40.47600 8.40900 42.10200
N  44.42000 2.66300 46.74000
C  43.22600 2.05700 46.52700
C  43.42300 0.60500 46.58400
C  44.81300 0.43600 46.91700
C  45.39800 1.76200 47.01500
C  42.42000 -0.36500 46.20000
C  45.41800 -1.00500 47.13700
O  44.68500 -1.98700 47.03300
C  46.78800 -1.41600 47.37500
N  46.78700 4.54300 47.30300
C  47.35900 3.32300 47.50900
C  48.91200 3.43500 47.64000
C  49.09200 4.99500 47.69800
C  47.66600 5.47900 47.38400
C  49.44200 2.72300 48.93100
C  50.25100 5.54600 46.90100
C  51.30100 6.29800 47.74700
N  44.97300 6.76800 46.86200
C  46.12500 7.49300 47.05600
C  45.80200 8.88400 47.05300
C  44.39100 8.96400 46.79600
C  44.00000 7.66100 46.60400
C  46.81200 9.94300 47.20200
C  43.33200 9.83300 46.76600
O  43.28200 11.04100 46.86400
C  42.06500 8.91600 46.41600
C  41.07300 9.02000 47.58200
O  41.31300 8.53200 48.71200
O  39.91700 9.74600 47.14800
C  38.98400 10.11700 48.27100
H  41.17500 2.11400 45.90900
H  47.33900 1.24000 47.40300
H  48.26500 7.53900 47.32200
H  39.95700 6.71600 45.69600
H  39.94200 4.20500 44.57100
H  39.46500 3.53700 47.09900
H  38.25400 4.39100 46.16600
H  39.17000 5.27800 47.31400
H  40.71400 5.54500 43.08100
H  41.87900 6.63500 43.48600
H  39.65700 8.29000 43.89700
H  38.97600 7.13900 42.79500
H  42.70100 -0.70600 45.20400
H  41.39400 -0.01000 46.29000
H  42.40400 -1.20200 46.89800
H  46.98700 -2.30700 46.78000
H  46.96200 -1.55600 48.44200
H  47.63200 -0.78700 47.09200
H  49.59200 3.10700 46.85400
H  49.26100 5.33400 48.72000
H  50.29500 3.27700 49.32300
H  49.87100 1.75300 48.67900
H  48.66200 2.52900 49.66800
H  49.86500 6.16600 46.09200
H  50.73000 4.72800 46.36300
H  52.21800 5.71000 47.70300
H  50.97500 6.55300 48.75500
H  51.44000 7.29400 47.32500
H  47.53300 9.75800 46.40600
H  47.23600 9.91500 48.20600
H  46.37200 10.89400 46.90100
H  41.52900 9.32500 45.55900
H  39.10600 9.59700 49.22100
H  38.02600 9.72300 47.93200
H  38.86500 11.18400 48.45700
Mg 30.18500 57.88300 41.34400
C  27.36800 56.13100 40.13800
C  32.14800 55.80200 39.53700
C  32.82700 60.02500 41.99000
C  28.00200 60.39100 42.37300
N  29.71100 56.11700 39.98200
C  28.51200 55.52500 39.67500
C  28.76000 54.46100 38.61800
C  30.28000 54.14500 38.82600
C  30.80800 55.47900 39.49600
C  30.50200 52.98000 39.88300
C  28.41200 54.84900 37.12500
C  27.46400 53.82000 36.46500
H  26.69800 54.37500 35.20900
N  32.30400 57.82200 40.96500
C  32.90500 56.92900 40.18400
C  34.30500 57.19400 40.14100
C  34.52700 58.39100 40.84400
C  33.18500 58.80900 41.34700
C  35.22600 56.41400 39.37100
C  35.82500 59.13000 40.89200
O  36.83700 58.61800 40.41700
C  36.01500 60.46000 41.70100
N  30.39000 59.88200 42.07400
C  31.58800 60.49900 42.34200
C  31.39600 61.84100 43.03200
C  29.81500 61.88900 43.30800
C  29.34900 60.65500 42.53600
C  32.20400 62.10900 44.39400
C  29.08100 63.21300 42.93200
C  27.96600 63.53700 43.97500
N  28.09200 58.16400 41.46100
C  27.38300 59.31500 41.76100
C  25.97200 59.07200 41.54500
C  25.95000 57.82400 40.93100
C  27.27600 57.35900 40.83700
C  24.75800 60.01500 42.06200
C  25.05400 56.81100 40.37500
O  23.83800 56.83200 40.29200
C  25.93100 55.80300 39.75900
C  25.52600 54.47700 40.23400
O  25.44400 54.14700 41.42200
O  24.99600 53.76600 39.15800
C  24.51400 52.43200 39.50800
H  32.75700 55.22000 38.84200
H  33.59800 60.71800 42.33300
H  27.27100 61.15100 42.65800
H  28.18100 53.56100 38.82500
H  30.78800 53.99000 37.87400
H  29.64900 52.30400 39.83100
H  30.58000 53.33900 40.90900
H  31.40800 52.43600 39.61600
H  29.34000 54.70100 36.57300
H  28.04900 55.87400 37.04200
H  26.78600 53.59300 37.28700
H  28.07800 52.93100 36.31800
H  35.24300 56.86200 38.37700
H  34.89700 55.37600 39.31900
H  36.20800 56.37300 39.84200
H  35.60200 60.34700 42.70300
H  35.49300 61.22700 41.12800
H  37.04200 60.81900 41.77800
H  31.63500 62.50500 42.20100
H  29.63100 61.61100 44.34600
H  33.01300 61.37900 44.37100
H  31.71700 62.05500 45.36800
H  32.64200 63.10500 44.34300
H  28.54000 62.97700 42.01500
H  29.73800 64.04700 42.68700
H  28.18400 64.56100 44.28100
H  28.01200 62.97000 44.90500
H  27.02500 63.44200 43.43300
H  24.04400 59.37500 42.58100
H  24.36600 60.66400 41.27900
H  25.13800 60.74100 42.78000
H  25.76600 55.77800 38.68200
H  23.45800 52.42600 39.77900
H  25.09500 51.87800 40.24500
H  24.66600 51.86400 38.59100

