158

Mg 1.74600 -2.84000 44.17700
C  5.06500 -1.83200 43.42400
C  0.67700 -0.42100 42.11300
C  -1.27600 -4.15700 44.58200
C  3.17600 -5.69500 45.76900
N  2.85300 -1.40700 42.77900
C  4.15500 -1.13800 42.63800
C  4.42200 0.00600 41.65400
C  3.02400 0.71400 41.72500
C  2.09500 -0.40800 42.23500
C  2.99900 1.98300 42.64800
C  4.76300 -0.52800 40.23000
C  6.04500 0.02300 39.56900
H  5.71500 0.83700 38.28800
N  -0.12600 -2.37700 43.51800
C  -0.37100 -1.29900 42.64000
C  -1.78800 -1.09000 42.45500
C  -2.36000 -2.20800 43.13400
C  -1.22800 -2.96200 43.84400
C  -2.42900 0.06900 41.68400
C  -3.84900 -2.54800 42.99500
O  -4.57600 -1.75400 42.39000
C  -4.41100 -3.73200 43.72700
N  1.03800 -4.62000 45.12900
C  -0.31600 -4.92800 45.18300
C  -0.55000 -6.29200 45.86400
C  0.87400 -6.77200 46.18300
C  1.79200 -5.68000 45.62800
C  -1.50200 -6.16800 47.06700
C  1.27000 -8.16000 45.55500
C  0.90600 -9.34800 46.45600
N  3.62500 -3.56400 44.71200
C  4.07100 -4.74700 45.35500
C  5.56600 -4.79200 45.36000
C  5.94300 -3.62700 44.67400
C  4.75600 -2.92000 44.31200
C  6.47200 -5.82100 45.94000
C  7.11900 -2.92400 44.22000
O  8.30200 -3.08500 44.45500
C  6.57400 -1.76700 43.28600
C  7.11400 -0.44500 43.77900
O  7.64500 0.41100 43.14500
O  6.90500 -0.44900 45.15300
C  7.46400 0.78500 45.80500
H  0.29000 0.40000 41.50600
H  -2.26200 -4.59700 44.73900
H  3.74800 -6.52900 46.18000
H  5.30300 0.54400 42.00400
H  2.74400 0.99000 40.70800
H  4.00700 2.04000 43.05900
H  2.25300 1.78600 43.41800
H  2.77800 2.82500 41.99300
H  3.97400 -0.28500 39.51700
H  4.74900 -1.60800 40.37200
H  6.59500 -0.83500 39.18300
H  6.75100 0.45700 40.27700
H  -2.21400 -0.07700 40.62500
H  -1.85200 0.94900 41.96700
H  -3.47900 0.28300 41.87900
H  -4.20100 -3.58100 44.78600
H  -3.88000 -4.65700 43.50100
H  -5.49800 -3.78000 43.66000
H  -0.98600 -7.01700 45.17600
H  0.98400 -6.87900 47.26200
H  -2.11300 -5.27500 46.93500
H  -0.92900 -6.14400 47.99500
H  -2.07900 -7.08900 46.98700
H  2.34500 -8.28400 45.43000
H  0.78700 -8.22800 44.58000
H  1.82700 -9.91100 46.60200
H  0.18400 -9.97500 45.93200
H  0.46100 -8.94000 47.36400
H  5.95100 -6.52100 46.59300
H  7.31000 -5.36400 46.46500
H  6.85000 -6.39900 45.09600
H  6.90100 -1.89600 42.25400
H  7.85800 0.44800 46.76400
H  6.74200 1.54800 46.09400
H  8.20400 1.31400 45.20500
Mg 16.93300 51.92700 26.49600
C  19.04800 50.49700 28.96800
C  14.73200 52.80300 28.76300
C  15.02900 52.85300 23.96100
C  19.35400 50.67900 24.09200
N  16.89000 51.61200 28.63300
C  17.87000 51.05700 29.47000
C  17.41700 51.18800 30.90100
C  15.93700 51.71600 30.77400
C  15.82000 52.04300 29.28400
C  14.98600 50.56400 31.16600
C  18.37600 52.14300 31.69400
C  18.53400 51.80100 33.24100
H  17.70000 52.48600 34.28000
N  15.05000 52.64500 26.43200
C  14.28000 53.02100 27.45600
C  13.15000 53.81000 26.94200
C  13.09600 53.53600 25.51000
C  14.48600 52.97700 25.25500
C  12.24400 54.45600 27.99100
C  12.07400 53.77100 24.35900
O  12.17500 53.31000 23.21800
C  10.80300 54.43900 24.62200
N  17.22800 51.85100 24.30100
C  16.18500 52.24000 23.52300
C  16.53300 52.03700 22.09100
C  18.13600 51.75200 22.12000
C  18.29200 51.47300 23.58100
C  15.65600 51.05700 21.30400
C  19.15300 52.91700 21.79200
C  20.36600 52.55400 20.89400
N  18.85700 50.85300 26.48700
C  19.69700 50.40700 25.48600
C  20.85500 49.81500 25.96300
C  20.70800 49.83200 27.31700
C  19.42000 50.49400 27.66000
C  21.92200 49.23300 25.10600
C  21.27900 49.44000 28.60000
O  22.37900 48.97700 28.86800
C  20.26700 49.96600 29.75000
C  20.12400 48.92300 30.77100
O  19.21900 48.04400 30.77400
O  21.03700 49.03900 31.78000
C  20.78400 48.30100 33.05100
H  14.07400 53.07000 29.59300
H  14.46300 53.23600 23.10900
H  20.10100 50.24000 23.42700
H  17.58200 50.17500 31.27000
H  15.71800 52.52500 31.47100
H  15.23200 49.64100 30.64100
H  13.95400 50.74900 30.86700
H  15.08700 50.37800 32.23500
H  17.93800 53.14000 31.74300
H  19.39200 52.13300 31.29900
H  19.54800 51.92200 33.62400
H  18.36900 50.72600 33.31900
H  12.97900 54.90300 28.66000
H  11.67300 53.73600 28.57700
H  11.64000 55.21400 27.49200
H  10.79400 55.50100 24.86600
H  10.32400 53.99700 25.49500
H  10.06100 54.45400 23.82300
H  16.47200 52.96400 21.52100
H  18.28600 50.85800 21.51500
H  14.58100 51.22200 21.37800
H  15.97000 50.07400 21.65400
H  15.97400 51.17200 20.26800
H  19.55400 53.30700 22.72800
H  18.52100 53.69100 21.35700
H  20.21800 53.32600 20.13800
H  20.29500 51.52600 20.53700
H  21.29800 52.72400 21.43300
H  22.42000 49.97600 24.48300
H  21.52300 48.48700 24.41700
H  22.55700 48.75500 25.85100
H  20.64700 50.78800 30.35700
H  21.69600 48.15700 33.63000
H  20.35700 47.31100 32.88600
H  20.14300 48.78900 33.78500

