158

Mg 16.46100 -1.56100 27.82900
C  15.28500 0.37600 30.43700
C  18.40900 -3.30900 30.00600
C  17.64300 -3.13100 25.18000
C  14.75800 0.76400 25.60400
N  16.95400 -1.42900 29.94500
C  16.25800 -0.61900 30.84400
C  16.82000 -0.69700 32.24500
C  17.95500 -1.76600 32.07300
C  17.80600 -2.19200 30.60200
C  19.36000 -1.34100 32.46000
C  15.77800 -1.19100 33.24200
C  15.87000 -0.60400 34.65100
H  17.25800 -0.18300 35.18800
N  17.78000 -3.09600 27.62100
C  18.45300 -3.79400 28.65200
C  19.26100 -4.91200 28.07800
C  19.03900 -4.79900 26.58700
C  18.11800 -3.63400 26.41500
C  20.08100 -5.80500 28.96200
C  19.60400 -5.68900 25.44300
O  19.51600 -5.52000 24.23500
C  20.45500 -7.00400 25.85400
N  16.25000 -1.20400 25.57900
C  16.81200 -2.09100 24.77000
C  16.59300 -1.64400 23.29700
C  15.51100 -0.51000 23.44400
C  15.48000 -0.26100 24.93400
C  17.84400 -1.25600 22.42800
C  14.02800 -0.85200 22.96800
C  13.82200 -0.79500 21.46800
N  15.15000 0.08900 27.91100
C  14.52900 0.92600 26.93300
C  13.70300 1.91900 27.58400
C  14.00000 1.73400 28.97100
C  14.79700 0.54500 29.09200
C  12.98100 3.02800 26.94200
C  13.85900 2.40300 30.22000
O  13.37100 3.49500 30.53700
C  14.67700 1.49200 31.23800
C  15.67900 2.30000 32.05000
O  16.88100 2.59100 31.80500
O  14.94700 2.72300 33.15000
C  15.59500 3.74600 33.88600
H  18.90900 -3.87900 30.79200
H  18.13600 -3.65100 24.35600
H  14.12900 1.39100 24.96700
H  17.31400 0.22600 32.54700
H  17.72800 -2.64500 32.67600
H  19.39600 -0.32700 32.85700
H  20.01000 -1.41700 31.58800
H  19.76700 -2.05400 33.17700
H  15.68800 -2.27500 33.30900
H  14.78200 -0.83200 32.98400
H  15.53200 -1.40500 35.30900
H  15.19900 0.24000 34.81300
H  20.17200 -5.38800 29.96500
H  21.04400 -5.91400 28.46200
H  19.67400 -6.81500 28.91800
H  19.81500 -7.68400 26.41600
H  21.34800 -6.69900 26.40100
H  20.80300 -7.46100 24.92800
H  16.05500 -2.38100 22.70200
H  15.87900 0.42500 23.02200
H  17.92800 -0.21100 22.12900
H  17.86600 -1.85900 21.51900
H  18.75300 -1.53900 22.95900
H  13.29300 -0.17400 23.40200
H  13.80500 -1.82800 23.39800
H  14.16800 0.15200 21.05300
H  12.73700 -0.84300 21.37600
H  14.22500 -1.65600 20.93400
H  13.53800 3.36700 26.06900
H  12.88100 3.86600 27.63100
H  12.00900 2.69500 26.57700
H  13.89800 1.12000 31.90300
H  14.97800 3.96400 34.75800
H  15.75800 4.63700 33.28100
H  16.63000 3.51800 34.14100
Mg 47.60100 25.33800 29.06100
C  48.57600 27.52100 31.62900
C  46.60200 23.15100 31.48000
C  47.18900 23.18000 26.63100
C  48.93300 27.65800 26.72400
N  47.76100 25.34700 31.33500
C  48.11800 26.35000 32.16100
C  47.63300 26.14200 33.60900
C  47.24400 24.62000 33.51400
C  47.13900 24.39100 32.06500
C  48.24800 23.62200 34.11100
C  46.48600 27.10700 34.11800
C  46.84600 27.75900 35.45300
H  45.69700 27.78800 36.53400
N  46.83000 23.46900 29.06500
C  46.43100 22.65800 30.17900
C  45.84900 21.47200 29.63700
C  46.00000 21.47600 28.19800
C  46.72100 22.69500 27.89700
C  45.23200 20.41700 30.61000
C  45.63100 20.46300 27.20900
O  45.78600 20.59200 26.00800
C  44.93000 19.18200 27.60000
N  48.33400 25.37200 27.04100
C  47.87200 24.35800 26.22400
C  48.18100 24.65300 24.71600
C  48.52900 26.18800 24.70600
C  48.56700 26.43600 26.25200
C  49.23000 23.75200 23.99000
C  47.47900 27.13000 24.05900
C  48.09000 28.16700 23.10300
N  48.65500 27.15900 29.12600
C  49.04500 28.01700 28.11600
C  49.59100 29.28400 28.64500
C  49.39500 29.11400 30.03500
C  48.82100 27.78300 30.22600
C  50.16900 30.40900 27.86800
C  49.55200 29.78400 31.26200
O  49.92500 30.90900 31.44500
C  49.17600 28.71900 32.32300
C  50.32800 28.43500 33.17400
O  51.25400 27.69700 32.85200
O  50.24400 29.09200 34.41000
C  51.27400 28.86200 35.38600
H  46.02600 22.53600 32.17500
H  46.79100 22.71000 25.72900
H  49.26700 28.40300 25.99900
H  48.59200 26.22000 34.12200
H  46.33700 24.45300 34.09600
H  49.13900 24.11500 34.49800
H  48.69100 23.07100 33.28100
H  47.71600 22.95600 34.79000
H  45.59400 26.52300 34.34500
H  46.24100 27.87600 33.38600
H  47.03500 28.79500 35.17300
H  47.75600 27.36700 35.90600
H  44.31500 20.04200 30.15500
H  45.13500 20.72200 31.65200
H  45.86500 19.53500 30.70100
H  44.64700 18.60400 26.72100
H  44.00200 19.32000 28.15500
H  45.65900 18.62200 28.18600
H  47.16700 24.49300 24.34900
H  49.54500 26.16700 24.31200
H  50.04700 24.23500 23.45400
H  48.70300 23.14000 23.25800
H  49.67000 23.00300 24.64800
H  46.82400 27.52000 24.83900
H  46.84400 26.47300 23.46500
H  49.14800 27.99900 22.90200
H  47.96100 29.16800 23.51500
H  47.53400 28.16100 22.16600
H  49.73200 30.42500 26.86900
H  51.24500 30.33600 27.70900
H  49.86200 31.37900 28.25800
H  48.40400 29.22300 32.90400
H  50.78900 28.26800 36.16000
H  51.63400 29.79000 35.83100
H  52.17400 28.34300 35.05700

