158

Mg 43.45000 4.89800 47.01300
C  41.20200 7.56900 47.12900
C  40.75700 2.80200 47.01400
C  45.66700 2.31600 46.64500
C  46.10300 7.13300 46.27400
N  41.23300 5.21000 47.08200
C  40.54000 6.32000 47.10400
C  39.02600 6.07100 47.19300
C  38.92700 4.55800 47.43300
C  40.40300 4.14200 47.11300
C  38.69100 4.23200 48.92500
C  38.23500 6.56500 45.92200
C  39.05600 6.61300 44.64500
H  38.30200 7.01100 43.36400
N  43.18500 2.81300 46.91700
C  42.01600 2.14600 46.87100
C  42.33600 0.73100 46.84100
C  43.78100 0.52800 46.98100
C  44.29500 1.94800 46.91600
C  41.24200 -0.30100 46.92400
C  44.51000 -0.76400 47.18500
O  43.85000 -1.76900 47.07800
C  46.08200 -0.85100 47.44400
N  45.52500 4.76300 46.43900
C  46.21900 3.60500 46.50400
C  47.73300 3.79700 46.20000
C  47.77200 5.38800 45.80800
C  46.37400 5.81900 46.19200
C  48.79300 3.46600 47.30500
C  48.16700 5.63700 44.27800
C  49.68000 5.91500 44.02500
N  43.67000 6.95000 46.62500
C  44.80900 7.70900 46.51200
C  44.37100 9.16300 46.59000
C  42.95400 9.13500 46.84200
C  42.65100 7.75300 46.87100
C  45.35100 10.28800 46.46900
C  41.81400 9.97600 47.15900
O  41.65300 11.22000 47.16900
C  40.63000 8.98300 47.21700
C  39.95200 9.23200 48.55000
O  40.37700 8.75100 49.58400
O  38.73900 9.76900 48.35000
C  37.69400 9.49000 49.40100
H  39.96000 2.08400 47.21900
H  46.44400 1.54900 46.66300
H  46.94600 7.81100 46.12700
H  38.55500 6.43500 48.10700
H  38.28400 4.09000 46.68700
H  38.09100 4.93400 49.50300
H  39.69100 4.08400 49.33400
H  38.25600 3.23300 48.89400
H  37.94800 7.55100 46.28800
H  37.33000 5.96000 45.85600
H  39.58800 5.67500 44.48800
H  39.88300 7.31300 44.76200
H  40.26600 0.11700 46.67700
H  41.17600 -0.57200 47.97700
H  41.45300 -1.23600 46.40500
H  46.31100 -0.17200 48.26500
H  46.72600 -0.73300 46.57300
H  46.33200 -1.84000 47.83000
H  47.85500 3.13100 45.34500
H  48.50600 5.90800 46.42400
H  49.47500 4.28300 47.54100
H  49.44600 2.64500 47.00800
H  48.24500 3.05500 48.15200
H  47.48300 6.37100 43.85000
H  47.92600 4.68400 43.80700
H  49.60500 6.68400 43.25500
H  50.21900 5.08900 43.56100
H  50.11700 6.39600 44.90000
H  45.58200 10.64100 47.47400
H  44.99100 11.19300 45.98000
H  46.24300 10.03600 45.89500
H  39.90500 9.08100 46.40900
H  36.96800 10.30100 49.34800
H  38.06200 9.29500 50.40800
H  37.20700 8.55100 49.13800
Mg 27.25100 50.13500 27.19100
C  25.13700 51.04900 29.79600
C  29.55800 49.19300 29.61200
C  29.47900 49.83600 24.73500
C  24.98200 51.59900 24.89900
N  27.31000 49.97500 29.34500
C  26.26100 50.42200 30.18200
C  26.59100 50.13100 31.64000
C  28.10900 49.74400 31.60900
C  28.35600 49.62800 30.11100
C  29.06000 50.77600 32.25300
C  25.60300 49.03600 32.26400
C  25.00100 49.27400 33.63700
H  25.32900 48.29700 34.81400
N  29.25600 49.62100 27.15600
C  29.98500 49.15100 28.23100
C  31.31600 48.72200 27.72300
C  31.30500 48.88500 26.35100
C  30.01400 49.51400 26.02100
C  32.33800 48.05500 28.68300
C  32.43400 48.59300 25.35000
O  32.35900 48.95300 24.20000
C  33.66300 47.96200 25.85100
N  27.26000 50.67300 25.12300
C  28.28600 50.37000 24.32100
C  28.02700 50.76000 22.84200
C  26.44400 51.08200 22.86800
C  26.21900 51.12700 24.40500
C  28.81500 51.97900 22.34200
C  25.58000 49.96500 22.12600
C  24.27300 50.49800 21.43200
N  25.41600 50.90700 27.30800
C  24.64800 51.57500 26.28600
C  23.46500 52.14500 26.93900
C  23.61700 51.99600 28.33400
C  24.79500 51.22600 28.50300
C  22.36800 52.83200 26.12400
C  23.04300 52.39800 29.56400
O  22.00600 53.00300 29.86700
C  23.98800 51.64500 30.60700
C  24.51800 52.72500 31.45400
O  25.51800 53.32600 31.24200
O  23.69100 52.81500 32.56400
C  23.99300 53.95100 33.42800
H  30.18900 48.83500 30.42800
H  30.24300 49.76000 23.95800
H  24.26400 51.93700 24.14900
H  26.42200 51.04000 32.21600
H  28.21000 48.83300 32.19900
H  28.52400 51.58100 32.75600
H  29.61000 51.24100 31.43500
H  29.62600 50.21900 33.00000
H  26.13700 48.08800 32.33000
H  24.88500 48.83800 31.46800
H  23.92700 49.18400 33.47500
H  25.14300 50.30200 33.97300
H  32.47000 46.99100 28.48600
H  32.13700 48.10100 29.75300
H  33.24800 48.64400 28.57000
H  34.37100 47.70700 25.06200
H  33.49900 46.98100 26.29900
H  34.13200 48.59100 26.60800
H  28.24300 49.85600 22.27200
H  26.24400 52.07500 22.46500
H  28.93500 52.59900 23.23000
H  28.39000 52.52700 21.50100
H  29.78700 51.62800 21.99500
H  25.15000 49.29700 22.87300
H  26.20700 49.41000 21.42900
H  24.09800 51.49800 21.82900
H  23.45300 49.80700 21.62700
H  24.39800 50.61000 20.35500
H  21.49000 52.88200 26.76800
H  22.12700 52.26500 25.22500
H  22.71200 53.83700 25.88000
H  23.55000 51.01900 31.38400
H  24.58800 53.60600 34.27400
H  23.06300 54.29000 33.88200
H  24.35100 54.84900 32.92300

