158

Mg 25.99800 -0.38000 28.99100
C  27.82900 -0.75100 31.96500
C  23.26700 0.20400 30.82200
C  24.35800 -0.25300 26.11500
C  28.95100 -1.60400 27.22600
N  25.61800 -0.31400 31.17400
C  26.49800 -0.49500 32.25900
C  25.82400 -0.14900 33.65700
C  24.38200 0.12300 33.17600
C  24.39000 -0.02700 31.62100
C  23.42700 -0.89600 33.82100
C  26.43700 1.08300 34.39600
C  25.93600 1.34000 35.82500
H  26.52600 2.52800 36.68500
N  24.03100 -0.10900 28.54700
C  23.03200 0.11400 29.39700
C  21.82500 0.47400 28.69100
C  22.17700 0.38300 27.30200
C  23.60900 0.07100 27.22500
C  20.45300 0.71400 29.34300
C  21.30700 0.54800 26.14500
O  21.71500 0.59300 24.99600
C  19.74600 0.78400 26.22600
N  26.52600 -1.01900 26.99800
C  25.62300 -0.87200 25.94700
C  26.35100 -0.89300 24.67100
C  27.69700 -1.53900 24.97300
C  27.75300 -1.38600 26.49500
C  25.61600 -1.57000 23.48900
C  28.96000 -1.00200 24.27100
C  29.11900 0.53700 24.19800
N  28.03200 -0.93200 29.45800
C  29.13400 -1.36700 28.64800
C  30.28700 -1.44300 29.45800
C  29.85800 -1.19000 30.78800
C  28.48600 -0.96700 30.76600
C  31.65000 -1.71700 28.89700
C  30.30800 -1.12700 32.15200
O  31.43700 -1.34100 32.61600
C  28.99100 -0.69100 32.92400
C  28.74600 -1.50700 34.10200
O  28.33000 -2.67600 34.16400
O  29.05000 -0.77600 35.18500
C  28.97700 -1.46200 36.49200
H  22.41400 0.45700 31.45500
H  23.90200 0.05400 25.17200
H  29.91200 -1.81700 26.75300
H  25.94000 -1.05700 34.24700
H  24.11100 1.14000 33.45900
H  24.09900 -1.66100 34.21000
H  22.83500 -1.37600 33.04100
H  22.70700 -0.51200 34.54400
H  26.13700 1.97500 33.84600
H  27.52500 1.08700 34.46000
H  26.31900 0.47300 36.36200
H  24.85000 1.41200 35.89200
H  19.71800 1.34900 28.84700
H  20.66800 1.32700 30.21900
H  20.04700 -0.23800 29.68400
H  19.33500 0.95600 25.23100
H  19.47300 1.64100 26.84200
H  19.28300 -0.13400 26.58600
H  26.46800 0.13800 24.33500
H  27.60100 -2.62000 24.87300
H  24.56900 -1.76700 23.71700
H  26.07500 -2.53100 23.25600
H  25.68300 -1.04700 22.53500
H  28.87100 -1.28500 23.22200
H  29.79700 -1.56600 24.68200
H  28.49700 1.16300 24.83800
H  28.99300 0.76200 23.13900
H  30.15000 0.57900 24.54900
H  31.63900 -1.24000 27.91700
H  31.77200 -2.77800 28.68000
H  32.41000 -1.22500 29.50400
H  29.10900 0.35100 33.22100
H  28.51400 -0.67200 37.08400
H  29.95000 -1.62700 36.95400
H  28.30800 -2.32200 36.52000
Mg -5.20700 24.99200 26.47900
C  -3.76900 26.40100 29.37600
C  -6.36700 22.41100 28.55600
C  -6.19800 23.34200 23.69200
C  -3.61900 27.29600 24.58200
N  -5.07400 24.45400 28.74500
C  -4.46200 25.21700 29.68500
C  -4.84100 24.71600 31.08800
C  -5.37200 23.31600 30.76500
C  -5.69500 23.39300 29.26200
C  -4.24300 22.32500 31.02300
C  -5.90800 25.69500 31.63600
C  -5.67200 26.28500 33.00200
H  -5.52600 25.26000 34.11400
N  -6.29900 23.30300 26.17700
C  -6.66700 22.35100 27.13500
C  -7.26700 21.19900 26.53200
C  -7.42700 21.48400 25.16800
C  -6.63300 22.80400 24.92600
C  -7.72800 20.14200 27.40500
C  -8.15300 20.78500 24.01700
O  -8.18300 21.25600 22.89200
C  -9.01700 19.57900 24.32800
N  -4.97300 25.24000 24.40100
C  -5.52900 24.50500 23.38900
C  -5.14000 24.95400 21.98800
C  -4.53600 26.41800 22.36300
C  -4.44600 26.40400 23.90800
C  -4.01800 24.05400 21.36000
C  -5.32800 27.75300 21.97300
C  -6.28900 27.76400 20.81100
N  -3.81300 26.41500 26.85000
C  -3.24800 27.31800 25.93400
C  -2.33700 28.22700 26.65400
C  -2.65500 27.96000 28.03400
C  -3.51100 26.84600 28.06000
C  -1.45300 29.32400 26.10800
C  -2.40100 28.36800 29.37200
O  -1.64400 29.27400 29.74200
C  -3.11300 27.34400 30.31800
C  -2.03600 26.80500 31.14100
O  -1.12300 26.01700 30.87500
O  -2.33300 27.21400 32.40000
C  -1.47500 26.81100 33.48800
H  -6.73100 21.59600 29.18500
H  -6.34900 22.62700 22.88100
H  -3.15000 28.03400 23.92700
H  -3.99300 24.84800 31.75900
H  -6.13400 23.02400 31.48800
H  -3.98000 21.91400 30.04800
H  -4.61300 21.51400 31.65100
H  -3.28700 22.68700 31.40000
H  -6.83200 25.11900 31.64600
H  -6.03400 26.51900 30.93400
H  -6.55300 26.91500 33.12600
H  -4.72100 26.81600 33.04400
H  -8.46500 20.58300 28.07700
H  -6.89300 19.85400 28.04300
H  -8.21100 19.32700 26.86600
H  -9.56100 19.93000 25.20600
H  -8.36100 18.73300 24.53200
H  -9.61200 19.10700 23.54600
H  -5.96300 24.99900 21.27400
H  -3.55600 26.42700 21.88700
H  -3.19500 24.65900 20.97900
H  -4.54600 23.51100 20.57600
H  -3.66300 23.28700 22.04800
H  -4.50800 28.45200 21.81100
H  -5.92200 28.09800 22.81900
H  -6.02900 27.10200 19.98500
H  -6.30200 28.75000 20.34500
H  -7.27700 27.52000 21.20200
H  -1.83700 29.61400 25.13100
H  -0.39300 29.10000 25.98700
H  -1.39100 30.23900 26.69700
H  -3.82400 27.84400 30.97500
H  -0.82300 27.67900 33.58800
H  -0.88100 25.93900 33.21700
H  -2.02500 26.63900 34.41400

