158

Mg 39.97500 10.09500 30.02100
C  41.98600 11.02200 32.78000
C  37.82200 8.63200 32.22900
C  38.61400 8.67000 27.42900
C  42.72200 11.19000 27.90500
N  39.91300 9.85000 32.29200
C  40.80100 10.46900 33.20900
C  40.19200 10.37400 34.63600
C  38.96700 9.36300 34.48200
C  38.92900 9.25500 32.92700
C  39.14800 7.94900 35.10700
C  39.76100 11.76900 34.99200
C  40.55400 12.36800 36.13600
H  39.84000 13.17700 37.18800
N  38.30100 8.94900 29.87300
C  37.52100 8.49700 30.89500
C  36.40200 7.79600 30.33800
C  36.59200 7.84000 28.85400
C  37.88100 8.42900 28.67200
C  35.48200 6.98600 31.19200
C  35.70200 7.33900 27.88600
O  35.90600 7.43100 26.63900
C  34.38000 6.75400 28.29200
N  40.58700 9.93000 27.96800
C  39.80200 9.31300 27.08900
C  40.29700 9.39700 25.61000
C  41.63000 10.24800 25.80900
C  41.64600 10.52500 27.33400
C  40.48100 8.07400 24.86600
C  41.63100 11.63000 25.06400
C  40.97600 11.72900 23.75400
N  41.99100 10.77100 30.24200
C  42.90900 11.23400 29.30000
C  43.97800 11.80900 29.89000
C  43.63200 11.90300 31.28400
C  42.46200 11.12400 31.44500
C  45.28200 12.31000 29.31700
C  44.12500 12.22800 32.61500
O  45.11900 12.79200 32.93100
C  43.02000 11.82800 33.56500
C  43.73700 10.88200 34.43900
O  44.34600 9.89600 34.02300
O  43.56100 11.18500 35.77200
C  44.22800 10.36900 36.76900
H  37.08800 8.12200 32.85700
H  38.07600 8.29700 26.55400
H  43.51100 11.69600 27.34400
H  40.98300 9.86700 35.18900
H  37.98200 9.72000 34.78400
H  38.41300 7.82400 35.90200
H  40.10500 7.79900 35.60700
H  39.18000 7.09800 34.42800
H  38.76100 11.60900 35.39600
H  39.86500 12.47100 34.16500
H  41.24900 13.08200 35.69300
H  41.21500 11.65300 36.62500
H  34.80300 7.73100 31.60700
H  35.95100 6.50600 32.05100
H  34.97100 6.14600 30.72300
H  34.06700 7.45600 29.06500
H  34.51500 5.77800 28.75800
H  33.63300 6.71500 27.49900
H  39.54400 9.98000 25.08000
H  42.47600 9.64700 25.47700
H  41.35700 8.14800 24.22300
H  39.54100 7.89900 24.34200
H  40.77800 7.29700 25.57000
H  42.65800 11.88300 24.80100
H  41.32500 12.43800 25.72800
H  40.79900 10.73600 23.34000
H  41.62400 12.19000 23.00800
H  40.00200 12.21800 23.74500
H  45.90200 11.52200 28.89000
H  45.80600 12.72600 30.17700
H  44.90900 13.05000 28.60800
H  42.64500 12.67300 34.14300
H  43.83900 9.36000 36.63000
H  44.09100 10.75400 37.78000
H  45.30000 10.37600 36.57100
Mg 6.78800 53.26900 40.76300
C  6.25400 49.75200 40.39800
C  10.08500 52.70800 40.11400
C  7.17900 56.54400 40.61800
C  3.35400 53.61600 41.65300
N  7.94700 51.46500 40.08400
C  7.59600 50.11900 40.19700
C  8.78500 49.22400 39.98900
C  10.01800 50.12200 40.34200
C  9.31400 51.51200 40.19200
C  10.71900 50.00500 41.69400
C  8.94700 48.55000 38.59800
C  8.69000 49.33500 37.27200
H  7.98200 48.49700 36.16300
N  8.40400 54.43700 40.33500
C  9.72100 54.05100 40.16100
C  10.52500 55.27100 40.05400
C  9.61500 56.37100 40.02500
C  8.31500 55.80200 40.31500
C  12.01400 55.18900 39.80700
C  10.03400 57.79400 39.80900
O  11.21000 58.10400 39.70800
C  9.12100 58.91700 39.47800
N  5.40600 54.82400 41.13300
C  5.86500 56.10500 40.96400
C  4.69800 57.13100 41.18000
C  3.44600 56.20700 41.44300
C  4.14600 54.77100 41.43500
C  5.04900 58.21300 42.27400
C  2.31300 56.35300 40.34500
C  0.89300 56.41200 40.79300
N  5.06800 52.03500 40.82300
C  3.76300 52.29100 41.27900
C  2.99500 51.06300 41.24400
C  3.96600 50.07500 40.90200
C  5.21400 50.70400 40.69100
C  1.53400 50.88900 41.70700
C  4.09800 48.64700 40.63000
O  3.15400 47.80500 40.59700
C  5.56800 48.37500 40.34500
C  5.61500 47.50800 39.14800
O  5.41000 47.86000 37.96900
O  6.05700 46.19400 39.46600
C  6.00800 45.30500 38.40500
H  11.14200 52.43500 40.12100
H  7.34000 57.61900 40.50900
H  2.30600 53.80400 41.89600
H  8.81700 48.47600 40.78200
H  10.77000 50.04900 39.55700
H  10.43900 49.01500 42.05500
H  10.52400 50.77300 42.44300
H  11.79000 49.98600 41.49300
H  8.23400 47.72800 38.63800
H  9.83500 47.92500 38.49900
H  9.69800 49.38700 36.86000
H  8.26800 50.34000 37.23900
H  12.41400 55.44900 38.82700
H  12.31300 54.20100 40.15700
H  12.33200 55.85300 40.61100
H  8.68500 59.14200 40.45100
H  8.28500 58.58100 38.86500
H  9.55600 59.77100 38.95900
H  4.73800 57.84000 40.35400
H  3.00300 56.31500 42.43300
H  4.96900 59.20800 41.83700
H  5.94100 58.12000 42.89400
H  4.26600 58.22200 43.03300
H  2.32100 55.56900 39.58800
H  2.41700 57.33700 39.88700
H  0.37300 57.26700 40.36200
H  0.87200 56.50600 41.87800
H  0.59800 55.39600 40.53100
H  0.89800 50.42200 40.95500
H  1.08300 51.87700 41.62000
H  1.28200 50.41500 42.65500
H  5.85100 47.71100 41.16200
H  5.91300 44.32900 38.88000
H  6.91900 45.29200 37.80600
H  5.13800 45.34800 37.75100

