158

Mg 42.08300 7.06800 30.54800
C  43.88700 9.23500 32.60300
C  39.87900 6.40900 33.10200
C  40.25600 5.34400 28.41900
C  44.32600 7.89200 27.94500
N  41.88400 7.88500 32.58900
C  42.71200 8.73900 33.22600
C  42.30200 8.82100 34.72700
C  41.05600 7.93400 34.81800
C  40.94600 7.25200 33.42500
C  40.97100 6.90000 35.92000
C  42.09500 10.25400 35.27100
C  41.05900 10.53300 36.42700
H  41.67100 11.34900 37.59100
N  40.41200 5.89000 30.73900
C  39.55100 5.84300 31.82700
C  38.43400 4.92300 31.51900
C  38.56600 4.55900 30.19000
C  39.76200 5.29400 29.69100
C  37.38400 4.49000 32.57000
C  37.76800 3.61400 29.35800
O  38.05400 3.36300 28.15600
C  36.72900 2.77700 29.90200
N  42.34500 6.65700 28.54900
C  41.40200 5.91000 27.86100
C  41.68000 5.78700 26.41200
C  42.77500 6.93900 26.28300
C  43.31500 7.04400 27.64500
C  42.14400 4.31800 25.96000
C  42.11200 8.29600 25.87300
C  42.12400 8.68100 24.36700
N  43.90400 8.19300 30.27500
C  44.64900 8.44900 29.13600
C  45.72900 9.35900 29.46800
C  45.44400 9.70500 30.85100
C  44.36200 8.97200 31.25600
C  46.82100 9.95000 28.59600
C  45.92000 10.47200 31.96200
O  46.80100 11.34400 32.05300
C  45.04000 10.06700 33.18300
C  45.78700 9.41000 34.27800
O  46.21200 8.28800 34.17100
O  45.78200 10.22700 35.36700
C  45.79900 9.41500 36.60000
H  39.15700 6.23000 33.90100
H  39.58400 4.87100 27.69900
H  45.04500 8.27400 27.21600
H  43.13700 8.31500 35.21100
H  40.14200 8.52200 34.90300
H  41.77200 7.09600 36.63300
H  40.96300 5.84800 35.63500
H  40.03600 7.15800 36.41800
H  41.83300 10.82200 34.37800
H  43.07500 10.64800 35.54100
H  40.59800 9.63700 36.84200
H  40.22200 10.95500 35.87100
H  36.59300 5.21100 32.36300
H  37.74400 4.68200 33.58100
H  37.06400 3.45800 32.42000
H  37.18700 1.92200 30.40000
H  36.07600 2.39900 29.11500
H  36.00800 3.28800 30.54100
H  40.78200 6.01300 25.83700
H  43.56600 6.70500 25.57100
H  42.58700 3.82200 26.82400
H  42.97500 4.38300 25.25900
H  41.27000 3.76800 25.61200
H  42.58700 9.11900 26.40700
H  41.04600 8.22000 26.08700
H  42.99200 8.27100 23.85100
H  42.22300 9.76300 24.27500
H  41.31000 8.29800 23.75200
H  47.72800 9.99400 29.19900
H  46.66200 10.96800 28.24000
H  46.96600 9.32400 27.71600
H  44.80200 11.07300 33.52900
H  45.37000 8.41400 36.60700
H  45.15600 10.08500 37.17100
H  46.77100 9.39100 37.09200
Mg 53.91600 23.98500 44.82900
C  50.93200 25.79100 44.00800
C  52.28100 21.16800 43.96700
C  56.81500 22.31000 45.24300
C  55.58100 27.00400 45.44000
N  51.92600 23.60800 43.97100
C  50.85200 24.42800 43.72700
C  49.69300 23.66300 43.24400
C  49.97300 22.15500 43.72200
C  51.49200 22.34700 43.91300
C  49.15600 21.69700 45.00100
C  49.55500 23.91800 41.69100
C  48.20900 23.94600 41.04200
H  48.03800 23.23600 39.68600
N  54.44800 22.08000 44.54300
C  53.64800 21.01300 44.27400
C  54.32100 19.79700 44.35900
C  55.58900 20.11600 44.82500
C  55.66300 21.56700 44.82300
C  53.68400 18.46800 43.94900
C  56.65600 19.05900 45.24500
O  56.37800 17.85500 45.19100
C  57.93900 19.42000 45.86400
N  55.99200 24.57700 45.08800
C  57.00600 23.69500 45.30700
C  58.24000 24.46400 45.69100
C  57.80900 25.96200 45.85600
C  56.34300 25.83800 45.38800
C  59.03300 23.76000 46.91700
C  58.78500 27.03700 45.14700
C  59.24900 28.22400 46.04300
N  53.41600 25.97900 44.69300
C  54.20700 27.08400 45.14600
C  53.24200 28.24100 45.17500
C  51.98900 27.75800 44.80100
C  52.13600 26.35600 44.46400
C  53.71700 29.62800 45.62500
C  50.56800 28.13100 44.66200
O  50.05200 29.22600 44.82900
C  49.87900 26.93300 43.96900
C  49.43900 27.36500 42.69800
O  50.11300 27.58600 41.70000
O  48.03500 27.34600 42.63400
C  47.51000 27.90500 41.39500
H  51.70000 20.27300 43.73800
H  57.72000 21.72400 45.41000
H  55.99000 27.92400 45.86400
H  48.79900 23.95800 43.79300
H  49.69400 21.47100 42.92000
H  49.74400 21.90400 45.89500
H  48.78800 20.67400 44.92200
H  48.31900 22.35500 45.23600
H  50.23300 23.21100 41.21400
H  49.89600 24.93100 41.47900
H  47.80800 24.95000 40.90100
H  47.55600 23.42200 41.74000
H  54.50000 17.79300 43.69300
H  52.98200 18.59000 43.12400
H  53.19200 18.12800 44.86100
H  58.66100 19.92900 45.22700
H  58.36900 18.49100 46.23900
H  57.59500 20.05900 46.67700
H  58.85100 24.39300 44.79100
H  57.73700 26.12000 46.93200
H  58.51800 22.93000 47.40200
H  59.32800 24.50000 47.66000
H  59.91200 23.39200 46.38700
H  58.43600 27.45700 44.20300
H  59.68300 26.50800 44.82800
H  58.89100 29.16200 45.61900
H  60.33400 28.28900 46.12300
H  58.83700 28.16900 47.05000
H  54.79500 29.68900 45.77200
H  53.18900 29.84400 46.55400
H  53.30500 30.38300 44.95600
H  48.96200 26.72000 44.51900
H  48.11200 27.68700 40.51300
H  47.42800 28.98400 41.52700
H  46.55100 27.40100 41.27900

