158

Mg 1.60300 8.27800 25.17400
C  2.15600 10.04200 28.24500
C  1.84200 5.28100 27.05100
C  1.46000 6.47000 22.47800
C  1.71400 11.19700 23.38100
N  2.02500 7.68900 27.48400
C  2.05700 8.64600 28.49800
C  1.99500 7.90100 29.86000
C  1.94100 6.43500 29.42900
C  1.92600 6.39900 27.87400
C  2.96400 5.58300 30.10600
C  0.95000 8.45600 30.90000
C  1.36500 8.71200 32.38200
H  2.59300 7.97500 33.08100
N  1.58300 6.16800 24.86500
C  1.67900 5.11300 25.71200
C  1.37300 3.89500 25.04500
C  1.23900 4.20100 23.66900
C  1.45400 5.68200 23.63300
C  1.39400 2.53500 25.76900
C  1.13800 3.24900 22.49500
O  1.00000 3.62900 21.33400
C  1.18700 1.71700 22.73700
N  1.83100 8.81400 23.24700
C  1.56900 7.86600 22.30900
C  1.62700 8.49700 20.94300
C  1.24800 9.99500 21.24600
C  1.60600 9.99300 22.71900
C  2.96700 8.34100 20.10600
C  -0.30500 10.30100 21.12600
C  -0.68200 11.40000 20.04400
N  1.91000 10.21300 25.65800
C  1.84700 11.30800 24.82100
C  2.03700 12.48100 25.60500
C  2.17100 12.08300 26.94800
C  2.06200 10.64100 26.93200
C  2.01600 13.81700 24.97600
C  2.26600 12.52400 28.34100
O  2.20200 13.64400 28.84400
C  2.25800 11.24400 29.18600
C  3.44300 11.19100 30.12000
O  4.49900 10.69400 29.88200
O  3.07800 11.81400 31.31400
C  4.05600 11.71900 32.42100
H  1.82500 4.33600 27.59700
H  1.30400 5.98700 21.51100
H  1.53900 12.15200 22.88100
H  2.95800 8.06100 30.34500
H  1.00700 5.94600 29.70700
H  2.59600 5.21300 31.06300
H  3.91100 6.08300 30.30700
H  3.15400 4.68600 29.51800
H  0.10500 7.77300 30.81900
H  0.69800 9.44500 30.51800
H  0.50600 8.36900 32.95900
H  1.54400 9.76900 32.57900
H  0.57900 1.86600 25.49300
H  1.32800 2.60100 26.85500
H  2.34100 2.02700 25.58800
H  0.38400 1.46400 23.42900
H  2.19900 1.49800 23.07900
H  1.02200 1.24900 21.76700
H  0.85300 8.06000 20.31300
H  1.84500 10.72400 20.69800
H  2.94300 7.46100 19.46400
H  3.79000 8.30800 20.82000
H  3.12300 9.28100 19.57700
H  -0.66300 10.64300 22.09700
H  -0.89400 9.40900 20.91300
H  0.22400 11.78900 19.57900
H  -1.33100 12.11200 20.55500
H  -1.34800 10.93400 19.31800
H  2.69700 13.91200 24.13000
H  2.44600 14.53800 25.67100
H  0.97700 13.94200 24.67300
H  1.33200 11.37100 29.74700
H  5.04100 12.05600 32.09900
H  4.17400 10.66700 32.68200
H  3.79600 12.30300 33.30300
Mg 48.02100 34.62100 27.26800
C  45.87700 33.07200 29.76600
C  48.67100 37.16900 29.52700
C  49.22100 36.32800 24.84900
C  47.10400 31.99400 25.23600
N  47.25700 35.02000 29.26900
C  46.49400 34.24300 30.18700
C  46.77500 34.79600 31.59800
C  47.03900 36.33200 31.35500
C  47.75800 36.15300 29.97400
C  45.85000 37.24300 31.29900
C  47.99400 34.03400 32.39100
C  47.60400 33.54800 33.84000
H  48.07900 34.38600 35.01100
N  48.90200 36.45300 27.16000
C  49.17600 37.29600 28.24700
C  49.81000 38.54300 27.75800
C  50.02700 38.26700 26.34300
C  49.33600 36.99300 26.07800
C  50.24000 39.67400 28.62200
C  50.69300 39.22600 25.45000
O  50.80100 38.98600 24.29200
C  51.03000 40.61700 25.92800
N  48.10300 34.25700 25.29400
C  48.77000 35.12700 24.51000
C  48.78900 34.58600 23.00900
C  48.29400 33.07300 23.21300
C  47.74500 33.11000 24.67700
C  47.94300 35.44100 21.98200
C  49.40800 32.01100 23.10900
C  50.71600 32.00600 23.95900
N  46.82500 32.90400 27.43800
C  46.59400 31.87600 26.57000
C  45.76300 30.85600 27.07700
C  45.47600 31.25400 28.34500
C  46.09400 32.52200 28.49200
C  45.63000 29.55200 26.40900
C  44.82200 30.90800 29.58200
O  44.20300 29.95800 29.95700
C  44.98600 32.12400 30.53100
C  45.49000 31.60500 31.76600
O  46.60700 31.12900 31.86700
O  44.48400 31.56200 32.71200
C  44.84000 30.83700 33.97900
H  48.88700 37.89700 30.31200
H  49.73900 36.81000 24.01700
H  46.86200 31.31500 24.41600
H  45.82500 34.81500 32.13200
H  47.68600 36.80200 32.09600
H  44.98500 36.58300 31.23900
H  45.81800 37.87500 30.41100
H  45.74700 37.84600 32.20200
H  48.87200 34.67500 32.47500
H  48.37300 33.16400 31.85500
H  47.85000 32.50800 34.05400
H  46.53300 33.63400 34.02000
H  51.31800 39.81300 28.69400
H  50.01200 39.41500 29.65600
H  49.68000 40.55000 28.29600
H  50.20200 41.19200 26.34200
H  51.28400 41.28500 25.10600
H  51.86200 40.61800 26.63300
H  49.82800 34.51700 22.68800
H  47.55000 32.81200 22.46100
H  48.55600 36.23300 21.55100
H  47.06900 35.91700 22.42800
H  47.53000 34.77400 21.22500
H  49.81500 32.23200 22.12200
H  49.07100 30.97500 23.08700
H  50.75800 31.01100 24.40100
H  50.69700 32.78300 24.72300
H  51.57500 32.05300 23.28900
H  46.08300 28.83000 27.08900
H  46.28500 29.55000 25.53800
H  44.63000 29.25100 26.09800
H  44.01600 32.60500 30.65000
H  45.19400 31.63400 34.63400
H  45.54400 30.01700 33.83700
H  43.97300 30.37200 34.44700

