158

Mg 9.55700 3.47000 27.11100
C  10.72900 1.79800 29.92500
C  8.29100 5.92600 29.12800
C  8.02800 4.89200 24.42200
C  10.62200 0.80600 25.13200
N  9.47500 3.75200 29.25300
C  10.05100 3.01300 30.24100
C  9.70200 3.54400 31.66900
C  8.79000 4.78200 31.31600
C  8.94800 4.89500 29.78600
C  7.35900 4.62800 31.79800
C  10.96100 3.84200 32.48100
C  10.88500 4.67500 33.74000
H  11.86400 4.44000 34.82600
N  8.29100 5.20100 26.81700
C  7.90600 6.05500 27.73600
C  7.21400 7.10900 27.17000
C  7.21700 6.89900 25.79400
C  7.84900 5.63200 25.61500
C  6.69200 8.19700 28.00000
C  6.77800 7.80400 24.72100
O  6.78900 7.44500 23.59400
C  6.21700 9.13500 25.00600
N  9.10500 2.70700 25.12300
C  8.58400 3.56100 24.18200
C  8.66500 3.00300 22.72900
C  9.49400 1.68900 22.91800
C  9.77900 1.72000 24.51000
C  7.29500 2.77300 22.04600
C  10.78200 1.49800 22.12600
C  10.86900 0.11900 21.46100
N  10.50700 1.68600 27.38500
C  10.93800 0.74000 26.48400
C  11.63900 -0.24000 27.22200
C  11.63600 0.08200 28.62200
C  10.87800 1.29800 28.63100
C  12.30600 -1.45800 26.60400
C  12.00300 -0.33800 29.92300
O  12.58800 -1.33400 30.34400
C  11.43900 0.81800 30.87300
C  10.48600 0.25600 31.94400
O  9.34200 -0.13600 31.85200
O  11.25900 0.06700 33.10700
C  10.50600 -0.47200 34.28500
H  7.86100 6.66100 29.81200
H  7.81300 5.35700 23.45700
H  10.96600 -0.05200 24.55000
H  9.24500 2.74400 32.25300
H  9.06400 5.71800 31.80300
H  6.63100 4.69200 30.98900
H  7.11100 5.43500 32.48800
H  7.15600 3.66100 32.25800
H  11.72400 4.28500 31.84200
H  11.24800 2.82500 32.74800
H  9.89800 4.85100 34.16900
H  11.16800 5.65100 33.34400
H  7.33700 9.03100 27.72200
H  6.74600 8.05600 29.07900
H  5.68300 8.48300 27.70400
H  6.91400 9.79300 25.52500
H  5.31100 8.91100 25.56900
H  5.90900 9.57700 24.05800
H  9.27700 3.75400 22.23100
H  8.95100 0.78500 22.63900
H  7.14500 3.48300 21.23300
H  6.46100 2.95900 22.72200
H  7.27800 1.74200 21.69200
H  11.59300 1.70500 22.82400
H  10.65900 2.26700 21.36300
H  10.48900 -0.60800 22.17900
H  11.91000 -0.18400 21.35200
H  10.37200 0.03600 20.49400
H  12.96000 -1.20000 25.77100
H  11.63700 -2.22500 26.21500
H  12.91700 -1.96600 27.35000
H  12.26200 1.24600 31.44500
H  10.09700 0.40400 34.78800
H  11.26000 -0.88700 34.95400
H  9.77200 -1.26700 34.15500
Mg 26.16800 -0.76700 29.43100
C  28.14500 -1.14700 32.43400
C  23.53600 -0.37200 31.44700
C  24.44800 -0.24400 26.57900
C  29.02100 -1.66500 27.50800
N  25.89800 -0.92000 31.71800
C  26.86400 -0.82100 32.72800
C  26.22000 -0.64900 34.16300
C  24.64300 -0.72900 33.82600
C  24.68000 -0.66300 32.25400
C  23.91100 -1.96600 34.36000
C  26.80100 0.57600 34.95100
C  27.37200 0.38200 36.30100
H  26.48900 -0.30400 37.35000
N  24.27900 -0.30900 29.05600
C  23.26300 -0.25900 29.99900
C  22.02900 -0.06200 29.35200
C  22.25000 0.06400 27.99700
C  23.71100 -0.12600 27.82200
C  20.64300 0.00500 30.07400
C  21.27800 0.09200 26.79600
O  21.59600 0.23000 25.61100
C  19.78600 0.10600 26.98900
N  26.63800 -1.07800 27.27000
C  25.80100 -0.65300 26.31200
C  26.44400 -0.60500 24.90500
C  27.87200 -1.17200 25.20200
C  27.85300 -1.42700 26.73800
C  25.63600 -1.30200 23.82300
C  28.98800 -0.14200 24.71900
C  30.31600 -0.89600 24.49900
N  28.16400 -1.24400 29.83300
C  29.20000 -1.64600 28.93000
C  30.43000 -1.69000 29.73300
C  30.05600 -1.57200 31.05900
C  28.66400 -1.35500 31.09100
C  31.81200 -1.99200 29.18900
C  30.55200 -1.58800 32.43600
O  31.71300 -1.85300 32.83000
C  29.39700 -1.32200 33.32400
C  29.28100 -2.50900 34.18800
O  28.54900 -3.45400 33.87400
O  30.04100 -2.39300 35.33700
C  29.76400 -3.43800 36.36100
H  22.59100 -0.27200 31.98400
H  23.96500 0.05100 25.64500
H  29.94300 -1.80900 26.94200
H  26.56300 -1.53900 34.69000
H  24.18600 0.21800 34.11200
H  23.46000 -2.59300 33.59100
H  23.16700 -1.55600 35.04200
H  24.61200 -2.57000 34.93700
H  25.90700 1.19900 34.97500
H  27.48900 1.11800 34.30100
H  27.42900 1.34400 36.80900
H  28.29300 -0.20000 36.33100
H  20.22200 0.99300 29.88700
H  20.74300 -0.18400 31.14300
H  20.02400 -0.78200 29.64200
H  19.63900 1.04100 27.52900
H  19.41100 -0.77200 27.51400
H  19.29100 0.20500 26.02400
H  26.57000 0.41800 24.55000
H  28.04800 -2.10100 24.66100
H  26.13100 -2.22000 23.50500
H  25.50200 -0.61000 22.99100
H  24.63500 -1.54000 24.18200
H  29.19800 0.60500 25.48400
H  28.62900 0.35700 23.81900
H  30.91500 -0.67500 25.38200
H  30.70800 -0.71900 23.49800
H  30.28100 -1.98400 24.43900
H  31.98800 -1.40600 28.28600
H  31.87100 -3.01700 28.82500
H  32.52100 -1.82300 29.99900
H  29.57400 -0.43600 33.93400
H  29.60300 -4.45100 35.99000
H  28.94500 -3.21600 37.04500
H  30.58200 -3.36800 37.07800

