158

Mg 8.62400 3.70800 26.97600
C  9.85600 2.35200 29.86600
C  6.88700 6.09900 28.70500
C  7.00900 4.61000 24.06200
C  9.85900 0.81300 25.20800
N  8.57100 4.25300 29.02200
C  9.13700 3.56200 30.06900
C  8.88600 4.22000 31.39700
C  7.76700 5.26600 31.01200
C  7.73800 5.25100 29.48100
C  6.38000 4.83800 31.47000
C  10.27900 4.77700 31.96500
C  10.82800 4.19500 33.29900
H  11.08500 5.10000 34.35700
N  7.31000 5.17600 26.45500
C  6.72600 6.09100 27.30700
C  5.95500 7.06200 26.54500
C  6.03200 6.71900 25.18500
C  6.81800 5.47700 25.14500
C  5.40100 8.22800 27.25800
C  5.35000 7.52000 24.01300
O  5.47100 7.12800 22.82800
C  4.54900 8.72000 24.24600
N  8.64300 2.90700 24.89600
C  7.94100 3.49500 23.90400
C  7.95100 2.76100 22.56000
C  8.95600 1.60600 22.88900
C  9.16500 1.73500 24.39800
C  6.52800 2.26300 22.10000
C  10.28300 1.78500 22.15900
C  10.33900 1.20300 20.77200
N  9.72100 1.98300 27.38600
C  10.10400 0.86500 26.60700
C  10.77200 -0.17200 27.37300
C  10.68300 0.47400 28.67300
C  10.04900 1.72400 28.62400
C  11.29600 -1.60400 26.92100
C  11.06600 0.27000 30.12900
O  11.54800 -0.67800 30.68200
C  10.55700 1.49400 30.93800
C  9.58300 0.92900 31.97000
O  8.37800 0.76300 31.79300
O  10.20100 0.83400 33.22100
C  9.39400 0.50400 34.42000
H  6.33700 6.86200 29.26000
H  6.50600 4.91100 23.14000
H  10.22700 0.00100 24.57600
H  8.55900 3.42300 32.06500
H  8.04200 6.26400 31.35200
H  6.13900 5.27800 32.43700
H  6.42400 3.76100 31.63500
H  5.58600 5.07000 30.76000
H  10.07700 5.84300 32.07100
H  11.03100 4.74400 31.17600
H  11.74100 3.67600 33.00600
H  10.21200 3.33800 33.57300
H  5.81200 9.13200 26.80900
H  5.41600 8.30200 28.34600
H  4.37300 8.19200 26.90000
H  3.96800 8.99500 23.36600
H  5.13900 9.49200 24.74000
H  3.76900 8.55200 24.98900
H  8.31100 3.46600 21.81000
H  8.65000 0.58200 22.67500
H  6.48600 1.25900 21.67700
H  6.10300 3.02900 21.45200
H  5.78500 2.19000 22.89500
H  11.10500 1.36300 22.73700
H  10.45800 2.85800 22.08500
H  11.00500 0.34300 20.70800
H  10.67100 1.97800 20.08100
H  9.35400 0.82900 20.49400
H  12.37400 -1.70000 27.04300
H  11.09800 -1.87000 25.88300
H  10.86200 -2.32600 27.61300
H  11.44200 1.99000 31.33800
H  9.37200 -0.56200 34.19300
H  8.42900 1.01100 34.42100
H  10.00600 0.79400 35.27400
Mg 16.42700 51.85700 25.42300
C  18.24300 50.82900 28.34500
C  13.68100 52.37900 27.46800
C  14.64500 52.20700 22.71100
C  19.18900 50.72000 23.58800
N  16.05300 51.64900 27.66700
C  16.98800 51.32400 28.65100
C  16.34500 51.54900 30.00200
C  14.83600 51.84000 29.66100
C  14.82300 51.90900 28.17000
C  13.78100 50.76600 30.15300
C  16.99800 52.69200 30.77500
C  17.58000 52.48800 32.18500
H  16.88400 51.39800 33.04200
N  14.37800 52.29300 25.10000
C  13.43500 52.51000 26.09300
C  12.16800 52.76800 25.35100
C  12.39400 52.82300 23.93700
C  13.83900 52.36900 23.86400
C  10.91200 53.08900 26.18200
C  11.48000 53.21100 22.84800
O  11.73700 53.19300 21.61700
C  10.16000 53.68800 23.20500
N  16.91500 51.55400 23.50300
C  15.92200 51.68900 22.56400
C  16.45400 51.23800 21.18100
C  18.00400 51.12000 21.35500
C  18.05300 51.13100 22.88900
C  15.73800 49.91200 20.69900
C  18.80800 52.23500 20.59600
C  19.83000 51.86600 19.54000
N  18.32900 51.06300 25.84500
C  19.30700 50.66400 24.96000
C  20.43800 50.15800 25.69300
C  20.09200 50.24500 27.04700
C  18.79200 50.75200 27.04400
C  21.74800 49.78100 25.12300
C  20.50200 49.99800 28.39200
O  21.57000 49.51300 28.81100
C  19.29500 50.40400 29.33600
C  18.90000 49.27300 30.09800
O  17.98000 48.53000 29.75600
O  19.65300 49.22100 31.27000
C  19.48200 48.02100 32.13500
H  12.78400 52.48100 28.08300
H  13.99600 52.47600 21.87500
H  20.00300 50.44900 22.91200
H  16.39600 50.61400 30.56100
H  14.51800 52.77700 30.11800
H  13.34900 51.08900 31.10000
H  14.39000 49.90300 30.42100
H  12.90700 50.59000 29.52600
H  16.25100 53.48100 30.86600
H  17.89100 53.11600 30.31600
H  17.50900 53.39700 32.78300
H  18.63900 52.24400 32.25800
H  10.86800 54.02300 26.74300
H  10.88500 52.22200 26.84200
H  9.98800 52.94800 25.62100
H  10.16500 54.50300 23.92900
H  9.60100 52.82100 23.55600
H  9.70200 54.03400 22.27900
H  16.21000 52.10400 20.56600
H  18.25700 50.09500 21.08400
H  15.42900 49.32500 21.56400
H  16.38900 49.21500 20.17000
H  14.90800 50.29400 20.10400
H  19.39900 52.71900 21.37300
H  18.28200 53.06500 20.12500
H  19.82200 50.79400 19.34200
H  20.83400 52.22900 19.76000
H  19.58000 52.37700 18.61100
H  22.04000 48.75500 25.34600
H  22.61300 50.32800 25.50200
H  21.71300 49.92400 24.04300
H  19.70500 51.16300 30.00200
H  18.93000 47.29300 31.54000
H  18.87700 48.28300 33.00300
H  20.41700 47.62300 32.52800

