158

Mg -10.43600 39.73400 41.60900
C  -9.55600 36.54700 40.63700
C  -7.33900 40.89100 40.38100
C  -11.45500 42.88200 41.95600
C  -13.62900 38.63500 42.35000
N  -8.64800 38.81700 40.60700
C  -8.52300 37.43300 40.30800
C  -7.14100 37.10000 39.69200
C  -6.52200 38.48000 39.68000
C  -7.55900 39.44900 40.25800
C  -5.05200 38.64400 40.12900
C  -7.11500 36.36000 38.35100
C  -5.96500 35.48000 37.94600
H  -4.95600 36.01800 36.88500
N  -9.44400 41.63300 41.31300
C  -8.22000 41.91200 40.82900
C  -8.02900 43.32800 40.87300
C  -9.17300 43.93100 41.29400
C  -10.10500 42.77800 41.57400
C  -6.68000 43.91700 40.43800
C  -9.49400 45.37000 41.44100
O  -8.62800 46.21700 41.30300
C  -10.78100 46.06700 41.76600
N  -12.36700 40.59900 41.77000
C  -12.46800 41.94500 42.02400
C  -13.94100 42.37700 42.30200
C  -14.64600 40.98800 42.49900
C  -13.52200 39.99700 42.18500
C  -14.21800 43.43200 43.35800
C  -15.95900 40.66200 41.64000
C  -17.23800 40.54300 42.44100
N  -11.32900 37.96000 41.72300
C  -12.62400 37.65400 42.08400
C  -12.81100 36.16600 42.02500
C  -11.62300 35.74800 41.43100
C  -10.78100 36.83300 41.31700
C  -14.06300 35.35400 42.26500
C  -10.92000 34.54000 40.93800
O  -11.28000 33.41900 40.95200
C  -9.53800 35.06600 40.41500
C  -8.42600 34.28300 41.08900
O  -7.98600 34.42500 42.24500
O  -7.99800 33.33000 40.26000
C  -7.16300 32.21100 40.65800
H  -6.32500 41.08300 40.02400
H  -11.72200 43.86800 42.34300
H  -14.56000 38.22400 42.74600
H  -6.63300 36.48900 40.43800
H  -6.36300 38.82100 38.65700
H  -4.58600 39.31500 39.40700
H  -4.54200 37.68400 40.21100
H  -5.03000 39.06200 41.13600
H  -7.11500 37.17400 37.62500
H  -8.08000 35.88300 38.18000
H  -6.28500 34.50900 37.56900
H  -5.42600 35.16700 38.84100
H  -5.88100 43.22500 40.70400
H  -6.27400 44.82900 40.87600
H  -6.61900 44.08600 39.36300
H  -11.52500 45.66200 41.08000
H  -10.76100 47.14700 41.62000
H  -11.05500 45.89900 42.80700
H  -14.37500 42.80000 41.39600
H  -14.82900 40.91000 43.57000
H  -14.65400 42.96700 44.24200
H  -14.89700 44.20900 43.00700
H  -13.38400 43.93700 43.84500
H  -15.73200 39.71000 41.16000
H  -15.94800 41.45100 40.88700
H  -18.02300 41.09300 41.92300
H  -17.06600 40.92800 43.44600
H  -17.55000 39.50100 42.51100
H  -14.68200 35.43100 41.37100
H  -14.55000 35.72800 43.16600
H  -13.87900 34.29200 42.42600
H  -9.64700 34.75800 39.37500
H  -7.65100 31.27400 40.38800
H  -6.86300 32.27900 41.70300
H  -6.25500 32.28800 40.05900
Mg -1.37300 34.64100 26.79800
C  -3.14500 33.06700 29.19900
C  -0.42600 37.06300 29.10700
C  -0.45600 36.70700 24.27600
C  -2.66900 32.28700 24.49700
N  -1.80000 35.05600 28.87500
C  -2.45300 34.14800 29.69500
C  -2.30000 34.54300 31.20600
C  -1.66000 35.92500 31.13500
C  -1.28300 36.00600 29.63900
C  -2.62400 37.14900 31.60000
C  -1.44200 33.50200 32.01000
C  -2.21700 32.73200 33.10800
H  -1.34400 32.62900 34.47200
N  -0.49500 36.55500 26.75300
C  -0.05000 37.34900 27.76700
C  0.64100 38.42400 27.26500
C  0.61300 38.45300 25.84200
C  -0.14000 37.16900 25.54000
C  1.38100 39.37600 28.25200
C  1.05700 39.45600 24.84300
O  0.99700 39.40900 23.62100
C  1.70400 40.65700 25.41100
N  -1.51900 34.52700 24.71000
C  -0.98500 35.44600 23.82600
C  -1.05600 34.96600 22.32600
C  -1.57600 33.42900 22.48100
C  -2.03200 33.41100 23.97200
C  -1.99900 35.98700 21.52100
C  -0.56600 32.29500 22.05500
C  0.50100 31.95600 23.02100
N  -2.54800 32.97700 26.82400
C  -3.02100 32.11600 25.80300
C  -3.83500 31.06600 26.34200
C  -3.90700 31.34100 27.72800
C  -3.18400 32.59800 27.92500
C  -4.60500 30.07000 25.54800
C  -4.41300 31.02400 28.97500
O  -5.04300 29.98000 29.27300
C  -3.99600 32.07200 29.94200
C  -5.17100 32.66300 30.68800
O  -5.91900 33.51200 30.26200
O  -5.30300 32.11600 31.91500
C  -6.53100 32.39800 32.65400
H  -0.07500 37.75400 29.87600
H  -0.06500 37.21000 23.38900
H  -3.18200 31.64100 23.78200
H  -3.29800 34.62000 31.63800
H  -0.79900 36.04400 31.79300
H  -3.67800 36.97700 31.81800
H  -2.58300 37.93300 30.84300
H  -2.19700 37.64900 32.46900
H  -0.52500 33.85900 32.47900
H  -1.01700 32.71800 31.38300
H  -2.43600 31.69200 32.86500
H  -3.13400 33.28900 33.29600
H  2.32000 39.66200 27.77700
H  1.58000 39.14800 29.30000
H  0.77300 40.27900 28.28300
H  1.64900 41.34800 24.57000
H  2.72600 40.33400 25.61300
H  1.15400 40.96700 26.30000
H  -0.09800 35.08300 21.82000
H  -2.43500 33.27900 21.82700
H  -2.90900 35.39400 21.43600
H  -1.57400 36.09300 20.52300
H  -2.21800 36.90600 22.06700
H  -0.11200 32.70300 21.15200
H  -1.13700 31.39000 21.84500
H  0.38000 32.50700 23.95400
H  1.43600 32.29000 22.57200
H  0.55000 30.88200 23.19700
H  -4.13000 29.76100 24.61700
H  -5.52800 30.55700 25.23500
H  -4.88100 29.24400 26.20300
H  -3.34300 31.70800 30.73500
H  -6.28400 32.94100 33.56600
H  -6.97700 31.53900 33.15500
H  -7.31300 32.78000 31.99700

