158

Mg 45.37000 3.96000 47.44300
C  43.43900 6.69500 46.81000
C  42.63100 1.85000 47.16800
C  47.51700 1.34200 47.46300
C  48.17900 6.10200 47.40800
N  43.30100 4.18800 46.94800
C  42.77100 5.46000 46.73800
C  41.19900 5.26900 46.42000
C  40.89800 3.87700 47.07800
C  42.34300 3.24400 47.14600
C  40.34800 3.92100 48.55500
C  40.91500 5.28400 44.92000
C  39.81500 6.31500 44.46700
H  40.23700 7.18100 43.31000
N  45.09000 1.87200 47.33500
C  43.91100 1.20400 47.21600
C  44.22500 -0.25000 47.14400
C  45.62900 -0.45400 47.49200
C  46.15500 0.94700 47.48900
C  43.16100 -1.27000 46.96400
C  46.31500 -1.73100 47.69600
O  45.72800 -2.79600 47.62100
C  47.79900 -1.78000 48.01000
N  47.53900 3.75100 47.26300
C  48.12800 2.56700 47.42300
C  49.71500 2.65700 47.68800
C  49.89000 4.21700 47.67500
C  48.47500 4.70400 47.38200
C  50.30800 1.88800 48.92500
C  50.87900 4.72000 46.62200
C  51.76800 5.95700 46.94400
N  45.75200 5.98100 47.26500
C  46.98100 6.70500 47.38100
C  46.65500 8.11300 47.22200
C  45.28700 8.15900 46.98900
C  44.77600 6.88000 47.03200
C  47.69800 9.13500 47.11700
C  44.08900 8.96600 46.67300
O  43.95300 10.17500 46.53100
C  42.87500 8.04500 46.63200
C  41.91000 8.50700 47.76400
O  41.88200 8.21200 48.92200
O  41.04700 9.37600 47.16500
C  39.90500 10.00200 47.87200
H  41.85300 1.08600 47.11700
H  48.29000 0.64200 47.78500
H  48.98700 6.83700 47.41800
H  40.63100 5.99400 47.00200
H  40.27300 3.15300 46.55500
H  39.90200 4.87900 48.81900
H  41.13300 3.64000 49.25800
H  39.55500 3.18300 48.68000
H  40.65100 4.29900 44.53500
H  41.78500 5.59900 44.34500
H  39.55800 6.96700 45.30200
H  38.92600 5.74300 44.19900
H  42.84200 -1.32500 45.92300
H  42.35200 -1.11600 47.67700
H  43.57300 -2.27400 47.06400
H  48.15300 -2.79400 48.19200
H  48.04300 -1.20200 48.90100
H  48.31400 -1.41500 47.12100
H  50.13500 2.22100 46.78100
H  50.21400 4.55700 48.65800
H  49.48200 1.59500 49.57300
H  51.02500 2.56400 49.39000
H  50.92900 1.05100 48.60600
H  50.31000 4.94100 45.71900
H  51.64000 3.95300 46.47800
H  52.83400 5.79900 46.78100
H  51.65200 6.34900 47.95400
H  51.39100 6.74300 46.29000
H  48.45600 9.20000 47.89800
H  47.28300 10.11700 46.89000
H  48.36700 8.88300 46.29400
H  42.31000 8.05500 45.70000
H  39.87500 11.08600 47.98200
H  39.58700 9.48300 48.77700
H  39.05700 9.86600 47.20000
Mg 55.28900 23.21500 45.10000
C  53.11600 25.90400 44.16400
C  53.12800 21.08400 43.68500
C  57.77100 21.10500 44.92900
C  57.62800 25.92800 46.03100
N  53.42400 23.59400 43.91400
C  52.69300 24.68700 43.68500
C  51.32900 24.37300 42.99000
C  51.23000 22.82600 43.26300
C  52.69400 22.42800 43.65800
C  50.08700 22.41400 44.26600
C  51.25900 24.65900 41.49600
C  49.85800 25.17600 41.03200
H  49.32200 24.47300 39.86900
N  55.44700 21.22900 44.46000
C  54.40200 20.54300 43.95400
C  54.84000 19.21400 43.65200
C  56.23900 19.11000 44.17100
C  56.55000 20.51300 44.54200
C  54.07700 18.05800 43.16500
C  57.10200 17.86900 44.02700
O  56.69400 16.83000 43.44200
C  58.35400 17.86800 44.72100
N  57.37300 23.52400 45.25200
C  58.17300 22.37100 45.26100
C  59.64000 22.73300 45.37700
C  59.58200 24.16700 45.98200
C  58.09900 24.61900 45.66600
C  60.61000 21.75900 46.24600
C  60.72400 25.12100 45.62100
C  61.40600 25.71000 46.92600
N  55.34500 25.44800 45.31300
C  56.31300 26.35800 45.70700
C  55.69600 27.64600 45.75200
C  54.43900 27.56200 45.21600
C  54.31000 26.21800 44.85800
C  56.36400 28.86200 46.22300
C  53.28300 28.29900 44.75000
O  53.00900 29.46700 44.77700
C  52.34000 27.19500 44.10400
C  52.02600 27.74500 42.78300
O  52.76800 27.87500 41.81900
O  50.81300 28.33300 42.87600
C  50.46300 29.15100 41.73700
H  52.45400 20.35400 43.23200
H  58.63400 20.44200 45.01000
H  58.43700 26.63700 46.21700
H  50.52700 24.86700 43.53900
H  51.01800 22.21100 42.38800
H  49.68200 21.42200 44.06500
H  49.30000 23.16900 44.23700
H  50.49600 22.35300 45.27500
H  51.56100 23.83700 40.84700
H  52.01900 25.40200 41.25400
H  50.12500 26.18500 40.71800
H  49.12600 25.19200 41.84000
H  54.37800 17.64000 42.20500
H  53.07300 18.36300 42.86700
H  53.99100 17.23400 43.87300
H  59.17500 18.19600 44.08400
H  58.56900 16.83000 44.97800
H  58.34800 18.34100 45.70300
H  59.88100 22.75200 44.31500
H  59.51300 24.07300 47.06600
H  61.07000 22.36100 47.02900
H  61.35000 21.22300 45.65200
H  59.88400 21.16700 46.80300
H  60.36300 25.92700 44.98200
H  61.58700 24.72700 45.08400
H  61.85400 24.94600 47.56100
H  60.64700 26.27000 47.47200
H  62.19700 26.41900 46.68400
H  56.08100 29.00900 47.26500
H  56.08700 29.70500 45.59000
H  57.45300 28.84600 46.16100
H  51.49300 27.15600 44.78900
H  50.29800 28.53100 40.85700
H  51.16400 29.98000 41.63900
H  49.53200 29.67200 41.96400

