158

Mg 16.59500 51.91900 26.23300
C  18.16200 50.23200 28.92300
C  14.21900 52.96900 28.20800
C  15.39900 53.34500 23.53200
C  19.16100 50.28300 24.21500
N  16.17600 51.44000 28.31600
C  16.92700 50.90200 29.26300
C  16.38700 51.18900 30.68100
C  14.95000 51.64900 30.35400
C  15.12300 52.14100 28.89000
C  13.91000 50.51300 30.50900
C  17.21600 52.32000 31.37300
C  17.62500 52.01500 32.81100
H  16.56900 52.43500 33.86800
N  14.94400 52.89100 25.96400
C  14.05100 53.30500 26.84800
C  13.17300 54.28100 26.33000
C  13.51300 54.44300 24.97100
C  14.64800 53.53300 24.76200
C  12.22300 55.02600 27.33300
C  13.05900 55.42700 23.91400
O  13.36600 55.50000 22.71700
C  11.99700 56.40700 24.37400
N  17.25000 51.89600 24.23200
C  16.47500 52.56300 23.28400
C  17.15300 52.50500 21.92900
C  18.42000 51.65000 22.14300
C  18.34500 51.29300 23.61400
C  16.20600 52.09900 20.77400
C  19.81400 52.20200 21.58400
C  20.69800 53.18300 22.54600
N  18.34100 50.50600 26.47300
C  19.17900 49.93400 25.60300
C  20.20100 49.17400 26.26500
C  19.82700 49.23100 27.61400
C  18.72700 50.03400 27.63100
C  21.14200 48.30500 25.60000
C  20.15600 48.75900 28.91200
O  21.01300 47.96900 29.26600
C  19.18700 49.54900 29.82700
C  18.52700 48.74600 30.80200
O  17.58500 48.06500 30.60400
O  19.15800 48.79000 31.97600
C  18.53800 48.06800 33.08700
H  13.38900 53.42600 28.75100
H  15.12400 53.91900 22.64500
H  19.83100 49.73800 23.54700
H  16.39700 50.29700 31.30600
H  14.64100 52.53200 30.91300
H  14.17900 49.84900 31.33000
H  13.78700 50.04100 29.53400
H  13.01000 51.06100 30.79000
H  16.60200 53.21900 31.41300
H  18.12900 52.65000 30.87700
H  18.58900 52.50200 32.96100
H  17.80800 50.94600 32.92400
H  11.58700 55.82000 26.94400
H  12.76100 55.38500 28.21000
H  11.63900 54.26200 27.84700
H  12.47700 57.05400 25.10800
H  11.07100 55.92500 24.68600
H  11.70700 56.99000 23.50000
H  17.57200 53.50900 21.86700
H  18.12200 50.68500 21.73400
H  16.82800 52.09900 19.87900
H  15.46000 52.87800 20.61400
H  15.70900 51.13100 20.83800
H  19.53500 52.68500 20.64800
H  20.49100 51.40600 21.27400
H  20.99200 54.13200 22.09700
H  21.58500 52.60000 22.79500
H  20.09600 53.33900 23.44100
H  20.60100 47.73500 24.84500
H  21.72300 47.79600 26.37000
H  21.94200 48.88900 25.14400
H  19.66000 50.32300 30.43200
H  17.48100 48.29400 33.23000
H  19.12700 48.32000 33.96900
H  18.62100 46.98300 33.02500
Mg 9.56200 48.01900 24.86500
C  7.55800 47.93500 27.68300
C  12.18800 49.18600 26.74600
C  11.47500 47.76600 22.08000
C  6.77700 47.13800 23.02700
N  9.84000 48.42700 26.95600
C  8.88000 48.32900 27.90700
C  9.39900 48.85000 29.19500
C  10.74100 49.58400 28.78600
C  11.00200 48.98800 27.38600
C  10.57300 51.12500 28.88300
C  9.71500 47.77600 30.27900
C  9.06500 47.94700 31.64000
H  9.05700 46.88600 32.65300
N  11.54200 48.33000 24.49400
C  12.51500 48.77200 25.41100
C  13.82900 48.73200 24.82600
C  13.59000 48.33800 23.41000
C  12.19900 48.13200 23.26400
C  15.08000 48.99900 25.62200
C  14.56200 48.42500 22.32500
O  14.28900 48.05000 21.17200
C  15.90300 48.95200 22.58700
N  9.17700 47.68400 22.86600
C  10.11500 47.51400 21.88100
C  9.50700 47.18700 20.51100
C  8.00400 47.15100 20.83800
C  7.95800 47.34700 22.31200
C  9.93600 48.15100 19.40500
C  7.38800 45.81800 20.32300
C  7.84900 44.54700 20.95200
N  7.49300 47.68400 25.17200
C  6.46000 47.33600 24.36100
C  5.24600 47.11100 25.10200
C  5.61700 47.32400 26.41000
C  6.98300 47.66000 26.40000
C  3.91500 46.64000 24.50100
C  5.20600 47.35300 27.80600
O  4.12000 47.07200 28.21400
C  6.45400 47.70000 28.68700
C  6.70800 46.57800 29.60300
O  7.48900 45.66800 29.37100
O  5.95000 46.75800 30.75600
C  6.02100 45.72800 31.83100
H  12.98200 49.72300 27.26700
H  11.96300 47.64400 21.11000
H  5.85800 46.83100 22.52300
H  8.63300 49.58600 29.43900
H  11.62100 49.40200 29.40300
H  10.82200 51.72600 28.00800
H  11.27000 51.37100 29.68400
H  9.56800 51.37100 29.22500
H  10.77800 47.85200 30.51100
H  9.61100 46.75800 29.90400
H  8.05500 48.34800 31.55800
H  9.65300 48.70100 32.16400
H  14.92600 48.85900 26.69200
H  15.47700 50.01000 25.53800
H  15.92200 48.31800 25.49800
H  16.46300 49.00500 21.65300
H  16.48500 48.20900 23.13200
H  15.82900 49.92800 23.06800
H  9.82100 46.21400 20.13000
H  7.55600 48.02900 20.37400
H  10.57400 48.95600 19.77000
H  9.09500 48.58800 18.86600
H  10.43900 47.62300 18.59500
H  7.65700 45.80900 19.26700
H  6.30100 45.89700 20.34400
H  8.85700 44.71500 21.33300
H  7.87900 43.78500 20.17400
H  7.15400 44.23700 21.73200
H  3.49400 47.17400 23.64900
H  3.20000 46.67500 25.32300
H  4.05000 45.63500 24.10200
H  6.39500 48.54600 29.37200
H  6.72400 44.90700 31.68700
H  5.05900 45.22400 31.92200
H  6.19100 46.40200 32.67100

