158

Mg 7.10400 54.04300 41.11500
C  5.85000 50.67800 40.72900
C  9.97200 52.99900 39.81700
C  7.95200 57.32100 40.97800
C  3.82000 54.88700 42.08600
N  7.77300 52.06100 40.16500
C  7.13900 50.81200 40.16600
C  8.19800 49.75200 39.72800
C  9.58800 50.49000 39.82600
C  9.08600 51.94400 39.93300
C  10.40900 50.01800 41.06300
C  7.94600 49.20100 38.37600
C  7.45900 50.09800 37.22000
H  8.20200 50.18200 35.80700
N  8.82300 55.03700 40.54100
C  9.86800 54.39400 39.94600
C  10.86000 55.48800 39.62700
C  10.26500 56.72900 40.00700
C  8.93600 56.39300 40.52800
C  12.18400 55.13700 39.00100
C  10.84000 58.10600 39.80800
O  11.97900 58.23900 39.40000
C  10.18400 59.36200 40.02300
N  6.06000 55.84600 41.62300
C  6.68900 57.07900 41.51800
C  5.74300 58.16300 41.99900
C  4.42600 57.44700 42.45500
C  4.77200 55.95300 42.05200
C  6.40000 59.12100 42.99300
C  3.16500 58.06500 41.68800
C  2.08200 58.43000 42.69300
N  5.20200 53.02500 41.43500
C  4.01900 53.49000 41.88400
C  3.00500 52.47900 42.13600
C  3.81900 51.34600 41.79400
C  5.10900 51.69900 41.32500
C  1.51200 52.55400 42.45600
C  3.77300 49.93900 41.68400
O  2.91800 49.18400 41.94700
C  5.02200 49.45400 41.00600
C  4.70100 48.61600 39.79700
O  4.13400 49.00700 38.80700
O  5.04700 47.34000 40.04200
C  4.76000 46.30300 39.05300
H  10.95800 52.64700 39.50900
H  8.15800 58.39300 41.01400
H  2.87900 55.15000 42.57400
H  8.23800 48.95700 40.47300
H  10.24500 50.37600 38.96300
H  10.59600 50.89200 41.68700
H  11.40500 49.70600 40.74800
H  9.95700 49.23400 41.67000
H  7.28500 48.33700 38.45200
H  8.91000 48.81700 38.04200
H  7.29600 51.10800 37.59500
H  6.51100 49.65700 36.91300
H  12.18900 54.65100 38.02600
H  12.56500 54.39300 39.70000
H  12.86400 55.98400 39.08900
H  10.87100 60.14800 39.70700
H  10.07100 59.57800 41.08500
H  9.21700 59.37500 39.52200
H  5.48000 58.75800 41.12500
H  4.40000 57.47100 43.54400
H  7.45200 58.84100 43.05400
H  5.96500 59.24100 43.98500
H  6.38000 60.07700 42.47000
H  2.81600 57.39200 40.90500
H  3.44100 59.01600 41.23300
H  2.23700 57.99600 43.68000
H  1.11200 57.99200 42.45800
H  1.98900 59.51600 42.66500
H  0.99100 51.60000 42.53700
H  0.99900 53.18800 41.73300
H  1.39900 53.07900 43.40400
H  5.50500 48.83400 41.76200
H  5.05700 46.72500 38.09300
H  3.68900 46.09900 39.04400
H  5.30500 45.43400 39.42000
Mg -12.02200 38.61200 41.49100
C  -10.14900 36.07300 40.25000
C  -9.94700 40.91900 39.96400
C  -14.26000 41.01700 42.20200
C  -14.16400 36.22100 42.85300
N  -10.32600 38.55100 40.27600
C  -9.66800 37.36600 39.90700
C  -8.34600 37.71900 39.09200
C  -8.16300 39.22400 39.46000
C  -9.55100 39.65100 39.95700
C  -7.04300 39.47400 40.61400
C  -8.41800 37.31800 37.60400
C  -7.23800 36.48800 36.89800
H  -6.58200 37.13600 35.67600
N  -12.14000 40.70600 41.11200
C  -11.10600 41.49400 40.51000
C  -11.50100 42.87300 40.55200
C  -12.82700 42.93300 41.15700
C  -13.12000 41.55000 41.63000
C  -10.62000 43.93500 40.17100
C  -13.61700 44.19000 41.41500
O  -13.13900 45.26900 41.06700
C  -14.92900 44.30500 42.25200
N  -14.01700 38.57600 42.28900
C  -14.67200 39.71000 42.46500
C  -16.16800 39.31700 42.78400
C  -16.07700 37.84100 43.17000
C  -14.64700 37.49600 42.81100
C  -16.93000 40.19600 43.74800
C  -17.16000 36.93200 42.50500
C  -17.78900 35.70300 43.38100
N  -12.07400 36.51100 41.61000
C  -13.02200 35.69700 42.21200
C  -12.57700 34.37300 42.03400
C  -11.45700 34.46500 41.23200
C  -11.27400 35.77600 40.98400
C  -13.20700 33.14500 42.62100
C  -10.39400 33.68800 40.58500
O  -10.23400 32.48400 40.44600
C  -9.46100 34.74200 39.83400
C  -7.93200 34.72600 40.23300
O  -7.00600 34.38200 39.49100
O  -7.78600 35.02700 41.57100
C  -6.49000 34.72600 42.10100
H  -9.18800 41.49800 39.43500
H  -14.99600 41.66600 42.68300
H  -14.79800 35.52700 43.41000
H  -7.55400 37.21600 39.64800
H  -7.86900 39.80800 38.58700
H  -7.18500 40.46500 41.04500
H  -6.07400 39.58300 40.12600
H  -7.07800 38.54700 41.18700
H  -8.41000 38.23300 37.01200
H  -9.30500 36.74800 37.33000
H  -7.54400 35.45100 36.76100
H  -6.44900 36.53000 37.64900
H  -9.59100 43.57900 40.13000
H  -10.66800 44.77600 40.86400
H  -10.75000 44.27800 39.14500
H  -15.43700 45.23100 41.98400
H  -14.77500 44.27700 43.33000
H  -15.55800 43.48700 41.90000
H  -16.62700 39.44200 41.80300
H  -16.08100 37.85000 44.26000
H  -17.77000 40.73300 43.30800
H  -16.31100 40.89300 44.31300
H  -17.36900 39.49100 44.45500
H  -16.76300 36.51200 41.58100
H  -17.96400 37.61600 42.23700
H  -17.27500 35.85400 44.33000
H  -17.65500 34.71800 42.93300
H  -18.83200 35.94000 43.59400
H  -13.48200 33.24500 43.67100
H  -12.55200 32.30700 42.38100
H  -14.20600 33.01100 42.20700
H  -9.62100 34.61800 38.76300
H  -6.30800 33.65300 42.15900
H  -6.52900 35.10600 43.12100
H  -5.59900 35.16800 41.65600

