158

Mg 29.39200 57.48100 41.29500
C  26.74500 55.49700 40.29700
C  31.38100 55.51400 39.32500
C  31.74900 59.77100 41.42200
C  26.99700 59.80800 42.29200
N  29.12200 55.57600 40.11800
C  27.95700 54.94800 39.88800
C  28.16900 53.60800 39.05600
C  29.73200 53.52800 39.08600
C  30.10300 54.97600 39.47900
C  30.38200 52.37900 40.04200
C  27.49600 53.72300 37.64500
C  27.33200 55.06400 36.94400
H  27.59800 55.10100 35.46000
N  31.39600 57.47700 40.74300
C  32.03400 56.58400 39.99400
C  33.40000 56.96400 39.81800
C  33.51400 58.20100 40.39600
C  32.21900 58.57600 40.92800
C  34.43000 56.12300 39.12600
C  34.83200 58.94500 40.50100
O  35.87800 58.56700 39.94000
C  34.91200 60.26700 41.21900
N  29.37300 59.57000 41.70000
C  30.49100 60.32100 41.70300
C  30.28500 61.79100 42.07300
C  28.70500 61.69900 42.45700
C  28.29800 60.22400 42.16600
C  31.33600 62.46000 43.12100
C  27.86000 62.73400 41.62800
C  26.66600 63.44100 42.39600
N  27.25700 57.59700 41.51500
C  26.39800 58.62200 41.82100
C  25.04400 58.28200 41.70700
C  25.10000 57.00200 41.07900
C  26.50000 56.69600 40.95200
C  23.79400 59.04100 41.94800
C  24.33500 55.91900 40.58200
O  23.12300 55.68200 40.53200
C  25.35800 54.80200 40.14700
C  25.24400 53.37200 40.70500
O  25.48500 52.97800 41.80600
O  24.73900 52.57300 39.67700
C  24.47900 51.14300 40.05600
H  32.12700 54.94700 38.76400
H  32.51700 60.53800 41.54700
H  26.32700 60.63000 42.55200
H  27.81800 52.69900 39.54400
H  30.04800 53.33300 38.06100
H  29.63800 51.65900 40.38400
H  30.85600 52.74400 40.95300
H  31.15900 51.97900 39.39200
H  26.52000 53.23700 37.65700
H  28.02500 53.05900 36.96200
H  28.01000 55.77500 37.41700
H  26.26300 55.20400 37.10200
H  35.46300 56.21500 39.46100
H  34.38300 56.28900 38.05000
H  34.15100 55.08300 39.29800
H  34.24200 60.83300 40.57100
H  35.93800 60.61200 41.34300
H  34.35500 60.23800 42.15500
H  30.33400 62.36800 41.15100
H  28.66400 61.85600 43.53500
H  32.28600 61.94200 43.25200
H  30.87300 62.84200 44.03000
H  31.78300 63.30700 42.60100
H  27.35300 62.22400 40.80900
H  28.56800 63.45500 41.22000
H  25.80900 63.75100 41.79800
H  26.97000 64.34300 42.92800
H  26.21100 62.77200 43.12600
H  24.03300 60.02000 42.36300
H  23.28400 58.58000 42.79400
H  23.19100 59.24300 41.06300
H  25.13900 54.62700 39.09400
H  25.39300 50.59300 40.28300
H  24.11300 50.60300 39.18300
H  23.80800 51.08400 40.91300
Mg 0.62500 42.87800 25.82900
C  2.53200 42.93100 28.89200
C  -2.05400 41.78200 27.49400
C  -0.81800 42.43500 22.90100
C  3.77500 43.64500 24.18000
N  0.35000 42.19100 27.99300
C  1.18300 42.50400 29.04000
C  0.37900 42.44000 30.36700
C  -0.97900 41.74600 29.90500
C  -0.93200 41.96000 28.34400
C  -1.08700 40.22300 30.33000
C  0.18100 43.90900 30.96800
C  0.62600 44.21800 32.45100
H  0.75400 43.03100 33.43800
N  -1.25800 42.34400 25.25600
C  -2.22000 41.87300 26.07900
C  -3.37300 41.54200 25.22300
C  -3.02600 41.80000 23.90900
C  -1.60300 42.11500 23.98000
C  -4.64400 41.01300 25.81300
C  -3.87000 41.64900 22.61000
O  -3.39700 41.82100 21.46600
C  -5.35700 41.17900 22.68400
N  1.34100 43.04700 23.97300
C  0.49700 42.83700 22.84800
C  1.19400 42.97300 21.48500
C  2.62700 43.47400 21.96900
C  2.60500 43.37200 23.46600
C  1.25900 41.61000 20.59600
C  2.90100 45.02600 21.56600
C  1.76300 46.06700 21.76800
N  2.73100 43.24400 26.41200
C  3.84800 43.62300 25.59000
C  5.02700 43.83500 26.47100
C  4.47200 43.57600 27.79200
C  3.10800 43.20600 27.66200
C  6.40300 44.12700 26.03600
C  4.94100 43.41000 29.14700
O  6.09500 43.43200 29.63300
C  3.63900 43.12200 29.90500
C  3.94100 41.84300 30.64500
O  3.89700 40.70500 30.16900
O  4.42600 42.07300 31.92000
C  4.76900 40.90000 32.72400
H  -3.00300 41.57800 27.99500
H  -1.21100 42.38300 21.88300
H  4.68900 43.80300 23.60400
H  0.93500 41.78900 31.04100
H  -1.71800 42.36600 30.41200
H  -1.27900 39.55700 29.48900
H  -1.96700 40.06800 30.95500
H  -0.22200 39.84500 30.87600
H  -0.83200 44.30400 31.04500
H  0.76300 44.59900 30.35700
H  -0.08900 44.91100 32.89400
H  1.58500 44.73600 32.41100
H  -5.44800 41.53100 25.29100
H  -4.74100 41.32900 26.85200
H  -4.65300 39.92500 25.74800
H  -6.01500 41.86500 23.21700
H  -5.33200 40.20900 23.18200
H  -5.88200 40.99500 21.74700
H  0.60800 43.68400 20.90300
H  3.43100 42.87300 21.54400
H  0.72800 40.89500 21.22400
H  2.24900 41.20100 20.39600
H  0.66000 41.65900 19.68700
H  3.16100 44.98800 20.50800
H  3.84600 45.30100 22.03500
H  1.92300 46.54500 22.73500
H  0.80200 45.59100 21.96200
H  1.65600 46.82700 20.99500
H  6.51000 43.66600 25.05500
H  7.07200 43.70900 26.78900
H  6.49700 45.20200 25.88400
H  3.45500 43.95000 30.58900
H  5.83300 40.66100 32.74400
H  4.18600 40.03100 32.41900
H  4.51000 41.18000 33.74500

