158

Mg 7.88200 2.73900 27.57100
C  9.44700 1.37500 30.33400
C  5.97800 4.53400 29.90400
C  5.86100 3.60100 25.13700
C  9.41400 0.36800 25.53200
N  7.81500 3.01500 29.82700
C  8.63100 2.41200 30.72500
C  8.38800 2.90000 32.14700
C  7.14300 3.79800 32.00100
C  6.91800 3.75700 30.48100
C  5.89800 3.36900 32.83000
C  9.62900 3.54600 32.88900
C  9.32600 4.62500 33.92200
H  10.17200 4.63800 35.14900
N  6.21500 3.98100 27.54200
C  5.58400 4.61400 28.52800
C  4.50800 5.37800 28.04200
C  4.46700 5.26300 26.58500
C  5.53400 4.23000 26.35200
C  3.54400 6.16800 28.99400
C  3.66300 5.90900 25.54200
O  3.76800 5.62100 24.34400
C  2.59300 6.94200 25.88200
N  7.75800 2.14000 25.58400
C  6.85300 2.73700 24.73200
C  7.12000 2.22000 23.28300
C  8.34800 1.26700 23.42400
C  8.48100 1.22400 24.95300
C  5.76400 1.63200 22.73300
C  9.65300 1.41900 22.55900
C  10.08200 0.14500 21.89900
N  9.17100 1.19800 27.78300
C  9.65000 0.29300 26.91100
C  10.50500 -0.68100 27.53300
C  10.39100 -0.26900 28.94900
C  9.57000 0.86700 29.03400
C  11.38400 -1.78400 26.91400
C  10.87800 -0.63200 30.29500
O  11.66600 -1.47000 30.70200
C  10.32300 0.50100 31.26200
C  9.60200 -0.11900 32.40100
O  8.57800 -0.82900 32.35500
O  10.24900 0.18300 33.56100
C  9.63400 -0.34000 34.78400
H  5.48600 5.15200 30.65800
H  5.20800 3.76100 24.27700
H  9.83800 -0.27000 24.75400
H  8.28300 2.05500 32.82900
H  7.35200 4.83700 32.25700
H  5.23300 2.86100 32.13100
H  5.43600 4.27300 33.22900
H  6.29500 2.65300 33.54900
H  10.30100 3.91900 32.11700
H  10.21600 2.89200 33.53500
H  8.31300 4.44600 34.28400
H  9.35800 5.64800 33.54700
H  3.48800 7.18400 28.60100
H  4.07200 6.31800 29.93500
H  2.55500 5.72400 29.11200
H  2.14000 6.85500 24.89500
H  2.87000 7.99500 25.94100
H  1.88500 6.58100 26.62800
H  7.52000 3.06700 22.72600
H  7.96000 0.25900 23.27500
H  5.01900 1.52100 23.52100
H  5.86200 0.62600 22.32500
H  5.32400 2.23100 21.93500
H  10.47300 1.71300 23.21400
H  9.47400 2.23300 21.85600
H  10.82000 -0.21100 22.61700
H  10.48100 0.34100 20.90400
H  9.27800 -0.55900 21.68300
H  11.27000 -1.71800 25.83200
H  11.02900 -2.74300 27.29200
H  12.43900 -1.56400 27.07500
H  11.17900 1.12100 31.52900
H  9.69500 -1.42800 34.80400
H  8.63700 -0.04300 35.11000
H  10.29300 -0.18400 35.63800
Mg 6.30500 53.93600 40.53200
C  5.55700 50.57700 39.93000
C  9.64500 53.07100 39.62500
C  7.31400 57.09900 40.60700
C  3.12400 54.70200 41.24700
N  7.38900 52.07800 39.70000
C  6.83100 50.85400 39.51500
C  7.89900 49.82900 39.10700
C  9.23300 50.56400 39.43700
C  8.73100 52.05300 39.59300
C  9.86000 50.21400 40.80700
C  7.75700 49.29500 37.66400
C  7.48500 50.28400 36.57100
H  6.43500 49.88700 35.45900
N  8.25000 54.95300 40.13400
C  9.45100 54.42200 39.72500
C  10.47400 55.52200 39.66400
C  9.79800 56.70100 40.00700
C  8.36500 56.28300 40.36800
C  11.95000 55.43800 39.20700
C  10.39100 58.13200 39.96000
O  11.50100 58.28000 39.50800
C  9.75500 59.28500 40.47500
N  5.25700 55.67900 40.77400
C  5.86500 56.89400 40.73800
C  4.98100 58.11800 40.96700
C  3.64500 57.28800 41.29900
C  3.97100 55.82600 41.05500
C  5.40800 59.05300 42.16000
C  2.40500 57.72100 40.47900
C  2.15300 57.23400 39.02400
N  4.63000 52.93400 40.61000
C  3.37000 53.30800 40.97300
C  2.51100 52.14900 41.16400
C  3.37300 51.06800 40.77500
C  4.61900 51.59600 40.42300
C  1.17800 52.07700 41.80600
C  3.42800 49.62100 40.64700
O  2.55300 48.82100 40.89300
C  4.83000 49.26000 40.10800
C  4.65600 48.54900 38.84600
O  4.13100 49.02900 37.86000
O  4.96500 47.19000 38.88900
C  4.25700 46.23400 38.04900
H  10.67000 52.78500 39.37900
H  7.57600 58.15900 40.57800
H  2.10500 54.96700 41.53600
H  7.72400 48.90700 39.66200
H  9.94800 50.46600 38.62100
H  9.28200 49.32300 41.05400
H  9.72300 51.01500 41.53300
H  10.87100 49.80800 40.80800
H  7.16200 48.38200 37.63500
H  8.72100 48.86500 37.39400
H  8.42700 50.38100 36.03200
H  7.19600 51.28400 36.89500
H  12.61300 55.88500 39.94800
H  11.95300 55.77800 38.17100
H  12.30000 54.40600 39.21600
H  10.54700 59.98400 40.74500
H  9.25400 59.15200 41.43300
H  9.06400 59.69000 39.73500
H  4.80400 58.69100 40.05600
H  3.38100 57.21400 42.35400
H  4.58600 59.19800 42.86200
H  5.62700 59.99100 41.65100
H  6.23700 58.59500 42.70000
H  2.35600 58.81000 40.50300
H  1.48700 57.46100 41.00500
H  2.43300 57.89000 38.20000
H  1.09500 56.99700 39.13500
H  2.69000 56.30300 38.84100
H  0.64500 53.02600 41.86700
H  1.18100 51.64500 42.80600
H  0.63200 51.46400 41.08900
H  5.30400 48.54800 40.78400
H  4.25300 45.24300 38.50400
H  4.72600 46.22000 37.06600
H  3.21200 46.51600 37.92000

