158

Mg 53.10200 25.42200 44.48300
C  50.57700 27.78200 43.85800
C  50.80500 22.92000 43.46500
C  55.66300 23.33500 43.67400
C  55.31800 27.88500 44.99800
N  50.94500 25.39300 43.46500
C  50.10400 26.48800 43.54700
C  48.72400 26.06000 43.09000
C  48.70400 24.52900 43.49700
C  50.24700 24.20900 43.49700
C  47.90500 24.29900 44.89300
C  48.29900 26.30200 41.58800
C  49.38300 26.71700 40.53900
H  49.58400 25.89500 39.28400
N  53.20100 23.39400 43.81800
C  52.12300 22.58500 43.51700
C  52.65300 21.28400 43.23600
C  54.06400 21.27100 43.39300
C  54.35000 22.67900 43.63700
C  51.76100 20.10800 42.71600
C  55.08300 20.08600 43.31600
O  54.57800 18.96900 43.23600
C  56.57400 20.20800 43.33500
N  55.21200 25.57200 44.22600
C  56.02100 24.54500 44.15000
C  57.55500 24.97700 44.28300
C  57.44100 26.47500 44.64900
C  55.89500 26.72400 44.55500
C  58.33600 24.13400 45.34600
C  58.19600 27.38100 43.55300
C  58.93200 28.53400 44.17500
N  53.02900 27.44600 44.51800
C  53.98800 28.31900 44.99300
C  53.29900 29.50800 45.45300
C  52.01600 29.41600 44.94100
C  51.88900 28.13900 44.38300
C  53.93100 30.72200 46.01800
C  50.69500 30.11400 44.74200
O  50.47800 31.28100 45.06000
C  49.78700 29.05700 43.97700
C  49.48700 29.53700 42.62300
O  50.30000 29.73400 41.73400
O  48.16700 29.83200 42.55200
C  47.61900 30.51300 41.39100
H  49.99200 22.19400 43.40900
H  56.55000 22.70500 43.58000
H  56.04500 28.65200 45.27200
H  48.09200 26.65000 43.75500
H  48.25600 23.85600 42.76600
H  48.56900 23.91100 45.66700
H  47.18800 23.51300 44.65500
H  47.36300 25.20300 45.16900
H  47.52300 27.06300 41.67200
H  47.86400 25.37800 41.20600
H  50.34000 26.65600 41.05600
H  49.12900 27.74500 40.28300
H  52.16900 19.36200 42.03500
H  50.95200 20.58400 42.16100
H  51.21800 19.52200 43.45700
H  56.98400 19.23600 43.06000
H  57.04000 20.47400 44.28400
H  56.88800 20.93200 42.58300
H  57.98100 24.75100 43.30600
H  57.83400 26.72900 45.63400
H  57.60000 23.67800 46.00800
H  59.01400 24.76900 45.91700
H  58.81000 23.29100 44.84400
H  57.41300 27.79500 42.91700
H  58.88400 26.80300 42.93600
H  59.30700 28.29700 45.17100
H  58.13500 29.25300 44.36400
H  59.76700 28.93600 43.60100
H  53.18900 31.33400 46.52900
H  54.40900 31.27500 45.20900
H  54.57100 30.38200 46.83200
H  48.87100 28.99600 44.56400
H  48.02200 30.07500 40.47900
H  47.88800 31.56900 41.41300
H  46.54300 30.34900 41.45000
Mg 44.11000 42.33100 26.60700
C  42.84900 44.25900 29.21700
C  45.66200 40.43600 28.98300
C  45.38900 40.46700 24.24900
C  43.14600 44.79100 24.39400
N  44.09000 42.29700 28.91600
C  43.57400 43.22200 29.74300
C  43.84200 42.92100 31.23300
C  44.91400 41.87200 31.10000
C  44.88700 41.41300 29.63200
C  46.24300 42.42900 31.59800
C  42.58200 42.43400 32.02900
C  42.11500 43.48400 33.11100
H  41.52300 43.02200 34.44300
N  45.15400 40.60500 26.59800
C  45.74900 39.97800 27.63700
C  46.38000 38.75800 27.17000
C  46.16000 38.61900 25.79400
C  45.51100 39.89600 25.50600
C  47.00700 37.87900 28.14900
C  46.48200 37.40400 24.95400
O  46.26900 37.39800 23.75900
C  47.03300 36.06100 25.57600
N  44.38000 42.67800 24.63400
C  44.83200 41.71300 23.84900
C  44.61200 42.08500 22.34600
C  43.67300 43.35200 22.43300
C  43.72800 43.67500 23.88500
C  45.93300 42.36900 21.58100
C  42.24600 43.14000 21.86600
C  41.13200 42.58200 22.82100
N  43.25200 44.15300 26.70400
C  42.90000 45.08100 25.74300
C  42.19700 46.21800 26.32900
C  42.07500 45.84000 27.65300
C  42.75500 44.63400 27.84700
C  41.59300 47.43400 25.68900
C  41.63600 46.30200 28.92700
O  41.10000 47.39300 29.21800
C  42.08800 45.30200 30.00800
C  43.08800 46.00200 30.86100
O  44.19700 46.22700 30.50700
O  42.53700 46.49200 32.00700
C  43.37800 47.28300 32.84700
H  46.25300 39.93100 29.75000
H  45.62800 39.78800 23.42700
H  42.78800 45.56400 23.71000
H  44.26400 43.81800 31.68500
H  44.72000 41.02300 31.75600
H  46.29500 43.51000 31.46700
H  47.14000 42.06900 31.09400
H  46.32000 42.13600 32.64500
H  42.83500 41.48800 32.50700
H  41.76600 42.29000 31.32000
H  41.20300 43.96100 32.75200
H  42.80800 44.30900 33.27600
H  47.54800 38.52800 28.83700
H  47.70100 37.08000 27.88600
H  46.31300 37.26600 28.72400
H  46.43400 35.76500 26.43700
H  48.11600 36.13000 25.68100
H  46.83000 35.20700 24.93000
H  44.08100 41.20600 21.98100
H  44.05900 44.15200 21.80100
H  46.06600 43.37100 21.17300
H  46.13900 41.58300 20.85400
H  46.77300 42.17100 22.24600
H  42.30500 42.37100 21.09500
H  41.96600 44.04800 21.33100
H  40.86100 41.55800 22.56500
H  40.30300 43.28900 22.80200
H  41.37900 42.73000 23.87300
H  41.12300 47.04600 24.78500
H  42.22500 48.21800 25.27200
H  40.78600 47.88700 26.26400
H  41.19900 45.06200 30.59100
H  43.45300 46.67200 33.74600
H  42.85700 48.17400 33.19700
H  44.37000 47.57500 32.50100

