158

Mg 1.49800 7.84100 25.82800
C  2.17200 9.96800 28.51300
C  2.03100 5.21700 27.96200
C  1.04600 5.71700 23.24600
C  1.20000 10.57500 23.66400
N  1.92700 7.63700 27.98200
C  2.11100 8.64200 28.92100
C  2.25900 8.07000 30.38800
C  2.40400 6.54500 30.17000
C  2.15100 6.43600 28.61400
C  3.79800 5.86400 30.55100
C  0.99900 8.47200 31.23400
C  1.16900 9.28000 32.53200
H  2.34100 8.80800 33.41300
N  1.46100 5.70700 25.62000
C  1.79300 4.83100 26.59700
C  1.76100 3.45900 26.09300
C  1.30500 3.52000 24.75600
C  1.21600 5.01300 24.48000
C  2.12000 2.28400 27.02600
C  0.97700 2.47300 23.69400
O  0.51700 2.70400 22.61200
C  1.18100 0.94500 24.13600
N  1.42200 8.16300 23.70900
C  1.03700 7.10600 22.91900
C  0.65400 7.47600 21.46500
C  0.70100 9.05100 21.58600
C  1.05600 9.31800 23.09400
C  1.52200 6.79900 20.33300
C  -0.59500 9.76200 21.19600
C  -0.58400 10.58800 19.90800
N  1.67600 9.85300 25.98200
C  1.50700 10.86900 25.04700
C  1.65400 12.14300 25.73900
C  2.03200 11.84200 27.10200
C  1.97800 10.43800 27.19900
C  1.40900 13.54800 25.18600
C  2.39000 12.47200 28.31300
O  2.67900 13.64400 28.52300
C  2.31700 11.24700 29.34700
C  3.56600 11.27800 30.14000
O  4.65200 10.88300 29.77400
O  3.32400 11.95500 31.29100
C  4.50900 12.31100 32.06000
H  2.20200 4.45000 28.72000
H  0.89200 4.98900 22.44700
H  1.02600 11.39700 22.96700
H  3.18900 8.46100 30.79800
H  1.66500 5.95000 30.70500
H  4.25400 5.97200 31.53500
H  4.57500 6.18000 29.85500
H  3.66600 4.78200 30.51900
H  0.47700 7.56900 31.55400
H  0.36400 9.01500 30.53400
H  0.25100 9.22300 33.11700
H  1.29700 10.35200 32.38400
H  1.36800 1.50000 26.93400
H  2.33200 2.39900 28.08900
H  3.04500 1.81000 26.69700
H  0.94300 0.24400 23.33700
H  0.56400 0.74000 25.01100
H  2.17100 0.74200 24.54500
H  -0.38900 7.19300 21.32600
H  1.48200 9.45100 20.93900
H  2.53300 6.56600 20.66600
H  1.55700 7.53900 19.53300
H  1.04500 5.92300 19.89100
H  -0.82800 10.53700 21.92700
H  -1.42400 9.05600 21.23700
H  -0.02500 10.09700 19.11200
H  -0.19200 11.58200 20.12100
H  -1.64800 10.60400 19.67300
H  2.39700 13.97100 25.00200
H  0.97000 14.06500 26.03900
H  0.78000 13.45900 24.30000
H  1.45500 11.47300 29.97400
H  5.02600 11.40400 32.37100
H  4.21800 12.77500 33.00200
H  5.05100 13.04000 31.45700
Mg 16.32100 50.34100 25.58100
C  18.26400 49.68400 28.58100
C  13.68100 50.82900 27.72300
C  14.63100 50.94200 22.91600
C  19.07000 49.16900 23.78900
N  16.09900 50.56200 27.86100
C  16.95200 50.25400 28.89400
C  16.39800 50.57200 30.27800
C  14.88800 50.59500 29.98600
C  14.83700 50.67300 28.37900
C  14.24300 49.28200 30.53700
C  17.01400 51.85100 30.79900
C  16.89900 52.08500 32.36200
H  15.90800 51.15300 33.12400
N  14.40900 50.85400 25.32600
C  13.42500 50.90500 26.31900
C  12.17700 50.96900 25.65800
C  12.36400 51.28600 24.26300
C  13.88900 51.03100 24.10000
C  10.92400 51.00100 26.49000
C  11.41600 51.64300 23.15600
O  11.76700 51.78200 21.97200
C  10.02200 52.00200 23.49100
N  16.84900 50.33600 23.68700
C  15.94600 50.67300 22.72000
C  16.58700 50.53400 21.26200
C  18.05100 50.00500 21.59500
C  18.06100 49.84500 23.09200
C  15.76800 49.65700 20.20600
C  19.21700 50.84700 20.97400
C  20.23800 50.19100 20.05200
N  18.35100 49.59300 26.06000
C  19.26600 49.10900 25.13600
C  20.38900 48.54300 25.92800
C  20.03100 48.71000 27.31900
C  18.79300 49.43500 27.26200
C  21.57200 47.89400 25.32500
C  20.42800 48.49600 28.64900
O  21.42800 48.01800 29.11700
C  19.32400 49.14400 29.49500
C  18.78100 48.14200 30.47200
O  18.10800 47.15300 30.16600
O  19.04200 48.52100 31.77100
C  18.36100 47.66600 32.78000
H  12.77400 50.90000 28.32600
H  14.08000 51.06400 21.98100
H  19.84200 48.90000 23.06500
H  16.72100 49.81500 30.99300
H  14.35700 51.37300 30.53500
H  14.92400 48.54800 30.96900
H  13.85900 48.67500 29.71700
H  13.42000 49.43500 31.23400
H  16.48200 52.61700 30.23400
H  18.06700 51.76000 30.53300
H  16.64000 53.13000 32.53500
H  17.87000 51.95100 32.84000
H  10.77000 52.04200 26.77500
H  10.97200 50.49700 27.45500
H  10.14200 50.59600 25.84800
H  9.61300 52.62000 22.69200
H  10.06600 52.71400 24.31400
H  9.35600 51.19300 23.79000
H  16.59200 51.56900 20.91900
H  18.06500 48.99800 21.17900
H  14.96000 49.16900 20.75300
H  16.42500 48.90600 19.76700
H  15.52700 50.33000 19.38300
H  19.73700 51.32900 21.80100
H  18.76200 51.64900 20.39300
H  19.69000 49.27400 19.83700
H  21.11600 49.84300 20.59500
H  20.42100 50.76400 19.14300
H  22.44800 48.51600 25.51000
H  21.37600 47.95800 24.25500
H  21.63400 46.90800 25.78700
H  19.72900 49.94000 30.12000
H  17.35700 47.32100 32.53000
H  18.32700 48.31000 33.65900
H  18.99400 46.79300 32.94100

