158

Mg 41.48500 40.57300 26.54400
C  40.75700 42.95700 29.07400
C  42.46200 38.35200 28.90900
C  42.19400 38.44800 24.08000
C  40.60500 43.08600 24.26600
N  41.57300 40.65500 28.80100
C  41.15000 41.65500 29.62800
C  41.23900 41.11500 31.09100
C  42.00000 39.75600 30.97400
C  41.91600 39.52700 29.43500
C  43.50700 39.93700 31.35700
C  39.76100 40.99900 31.64900
C  39.44100 41.90700 32.80100
H  38.95500 41.26200 34.08300
N  42.29300 38.69900 26.45600
C  42.59500 37.94000 27.58300
C  43.15100 36.68000 27.15500
C  43.12400 36.70700 25.73700
C  42.57800 37.97700 25.37500
C  43.44500 35.54000 27.99200
C  43.50000 35.51900 24.78200
O  43.33600 35.60000 23.60800
C  43.93700 34.15400 25.21200
N  41.52700 40.81100 24.40100
C  41.70500 39.70600 23.65100
C  41.47600 39.94800 22.15700
C  40.78600 41.34100 22.22900
C  40.94100 41.84100 23.73100
C  42.76100 39.98000 21.34600
C  39.23600 41.29000 21.86100
C  38.26800 40.44800 22.76100
N  41.01300 42.56100 26.60700
C  40.71800 43.50400 25.58900
C  40.33200 44.75200 26.04000
C  40.31300 44.59800 27.38100
C  40.73800 43.24100 27.65700
C  39.99600 45.98700 25.30200
C  40.03700 45.22900 28.66800
O  39.60700 46.33400 28.97300
C  40.32100 44.14900 29.79300
C  41.33600 44.67700 30.83900
O  42.55500 44.70600 30.76300
O  40.61300 45.35300 31.82700
C  41.37200 45.89900 32.95500
H  42.76800 37.61100 29.65000
H  42.23600 37.70200 23.28300
H  40.28600 43.84100 23.54500
H  41.78600 41.91700 31.58700
H  41.47700 39.06000 31.63000
H  43.59900 39.81600 32.43700
H  43.77400 40.98000 31.19000
H  44.10800 39.22400 30.79300
H  39.49600 39.97600 31.91500
H  38.99500 41.35300 30.95800
H  38.61600 42.52500 32.44500
H  40.25500 42.62400 32.90300
H  43.12400 35.72500 29.01700
H  44.50200 35.27200 27.97700
H  42.81000 34.70900 27.68500
H  44.70600 34.33300 25.96400
H  44.28600 33.46800 24.44100
H  43.02200 33.67100 25.55700
H  40.77700 39.34300 21.57900
H  41.30300 42.09000 21.62900
H  43.25900 40.94900 21.35300
H  42.61100 39.58700 20.34000
H  43.51500 39.34200 21.80600
H  39.35500 40.75300 20.92000
H  38.95000 42.33800 21.77100
H  37.67600 39.77600 22.14100
H  37.64800 41.16000 23.30600
H  38.76500 39.80900 23.49100
H  40.73500 46.77200 25.46200
H  39.10500 46.41300 25.76300
H  39.77800 45.76700 24.25700
H  39.43300 43.75900 30.29100
H  41.18600 45.24700 33.80800
H  40.94400 46.85200 33.26900
H  42.42300 46.10800 32.75800
Mg 36.38900 48.76000 25.03100
C  35.81100 46.90400 28.08700
C  35.33000 51.60000 26.72900
C  36.05900 50.17300 22.13500
C  36.81900 45.58900 23.44800
N  35.61200 49.16700 27.17400
C  35.55300 48.28700 28.24900
C  35.42300 49.10100 29.58100
C  34.98100 50.52600 29.01600
C  35.38100 50.42500 27.54500
C  33.45200 50.73100 29.22300
C  36.67600 49.11500 30.44300
C  36.33600 48.93400 31.93800
H  34.97400 49.14000 32.56700
N  35.89900 50.73900 24.51400
C  35.51200 51.76700 25.32100
C  35.33700 52.98500 24.55300
C  35.60900 52.60200 23.20900
C  35.88200 51.13300 23.22200
C  34.92900 54.34700 25.09400
C  35.50200 53.50600 21.90200
O  35.86100 53.06400 20.80600
C  35.08700 54.92000 21.90800
N  36.31300 47.97300 23.08600
C  36.31700 48.81800 22.05100
C  36.53400 48.08500 20.72900
C  37.13600 46.69200 21.27600
C  36.72300 46.73800 22.71300
C  35.34400 48.01300 19.80300
C  38.64300 46.39300 21.12400
C  39.17200 46.38900 19.69700
N  36.25400 46.56800 25.58500
C  36.59200 45.46400 24.83300
C  36.78600 44.31700 25.70700
C  36.44200 44.84000 26.96400
C  36.09000 46.21800 26.82200
C  37.39900 43.03500 25.26700
C  36.23600 44.44300 28.41200
O  36.31600 43.34500 28.92700
C  35.95300 45.82600 29.18200
C  34.70100 45.70000 30.00000
O  33.64100 46.25300 29.80600
O  35.03900 44.99300 31.12400
C  33.95800 44.99300 32.07500
H  35.08100 52.50800 27.28100
H  35.97600 50.69600 21.18000
H  37.01200 44.64000 22.94300
H  34.67800 48.44900 30.03700
H  35.43500 51.35800 29.55400
H  33.07300 50.98900 28.23400
H  33.28000 51.61500 29.83700
H  32.88900 49.90200 29.65400
H  37.28200 50.01800 30.36400
H  37.39600 48.36900 30.10600
H  37.12300 49.47100 32.46700
H  36.55000 47.86700 32.00600
H  35.35400 54.51600 26.08300
H  33.84700 54.46400 25.02600
H  35.37900 55.05700 24.40100
H  34.08900 54.99900 22.33800
H  34.87900 55.21000 20.87800
H  35.72500 55.56800 22.51000
H  37.34600 48.60400 20.22100
H  36.47000 45.95700 20.82500
H  35.53600 48.62900 18.92400
H  34.49500 48.56500 20.20400
H  35.00300 47.01000 19.54500
H  38.85500 45.40200 21.52600
H  39.26000 47.04100 21.74700
H  38.33400 46.37100 19.00000
H  39.73900 45.48800 19.46400
H  39.84800 47.20100 19.43000
H  38.16700 42.82800 26.01300
H  37.89400 42.98300 24.29700
H  36.65500 42.27100 25.49200
H  36.79300 46.12600 29.80800
H  32.93200 45.14300 31.73900
H  34.11300 45.52800 33.01200
H  33.84600 43.95200 32.37500

