158

Mg 41.00200 9.52100 30.24100
C  43.07000 10.64100 32.58300
C  38.89500 8.12500 32.63300
C  38.95400 8.37500 27.74300
C  43.30300 10.60500 27.74400
N  40.98700 9.32400 32.28600
C  41.92900 10.02200 33.09300
C  41.58400 9.92300 34.57900
C  40.35700 8.85100 34.57700
C  40.11200 8.69400 33.07800
C  40.62300 7.53800 35.35700
C  41.25900 11.29300 35.31300
C  41.96500 11.48600 36.64700
H  41.32300 12.21000 37.90300
N  39.17100 8.45000 30.17700
C  38.49000 7.97800 31.30000
C  37.16600 7.41000 30.79800
C  37.18300 7.41700 29.36500
C  38.48300 8.09200 29.01500
C  36.18500 6.69900 31.69700
C  36.19700 6.83300 28.36500
O  36.37700 6.67200 27.17200
C  34.92700 6.18200 28.87400
N  41.11200 9.58900 28.03400
C  40.15700 8.93900 27.27000
C  40.41700 9.16700 25.69200
C  41.83500 9.86300 25.75500
C  42.12400 10.04000 27.25300
C  40.26100 7.84100 24.87900
C  41.90000 11.18200 24.87300
C  41.19100 12.40800 25.54100
N  42.96700 10.33900 30.10700
C  43.68600 10.85900 29.09100
C  44.84500 11.52800 29.59900
C  44.69200 11.51600 31.01600
C  43.51600 10.73300 31.23900
C  45.96700 12.10700 28.83300
C  45.12200 11.98000 32.31300
O  46.09400 12.66100 32.68800
C  44.14200 11.38700 33.38000
C  44.92500 10.65400 34.38600
O  45.32100 9.47900 34.33300
O  45.08600 11.42400 35.48200
C  45.66700 10.90400 36.74000
H  38.08500 7.91700 33.33600
H  38.40300 8.02200 26.86900
H  44.00900 10.79000 26.93200
H  42.50500 9.63900 35.08800
H  39.43900 9.27900 34.98000
H  40.61100 6.72200 34.63400
H  39.97100 7.39800 36.21900
H  41.65000 7.49700 35.72000
H  40.20800 11.32700 35.60000
H  41.42400 12.12100 34.62300
H  42.81900 12.08600 36.33400
H  42.46100 10.58000 36.99500
H  36.49800 6.68100 32.74100
H  36.06300 5.65900 31.39600
H  35.20300 7.16800 31.74600
H  34.24500 5.85200 28.09000
H  34.45300 7.00400 29.41000
H  35.04700 5.29100 29.49100
H  39.78000 9.99900 25.39600
H  42.52700 9.07400 25.46000
H  39.99700 6.94700 25.44400
H  41.07000 7.45600 24.25900
H  39.38500 8.06400 24.26900
H  41.36200 11.08900 23.93000
H  42.92400 11.41500 24.58000
H  40.69700 12.95200 24.73700
H  42.03500 12.97600 25.93200
H  40.44100 11.95300 26.18900
H  45.73100 12.94000 28.17000
H  46.27200 11.33100 28.13100
H  46.73700 12.27500 29.58700
H  43.75000 12.29300 33.84300
H  46.32500 10.05400 36.56000
H  44.89300 10.66400 37.46900
H  46.28100 11.74100 37.07200
Mg -1.77900 34.27800 26.46600
C  -3.92800 32.77000 28.94300
C  -0.86200 36.48200 28.88300
C  -0.42100 36.08700 24.12800
C  -3.58800 32.49800 24.05000
N  -2.43100 34.62200 28.60700
C  -3.15300 33.81300 29.41900
C  -2.94300 34.20400 30.90600
C  -2.16700 35.56000 30.80800
C  -1.79100 35.58800 29.38100
C  -2.89600 36.83700 31.24500
C  -2.23600 33.09600 31.85600
C  -2.84500 32.66400 33.23100
H  -1.99500 32.39900 34.42600
N  -0.67400 36.07300 26.46800
C  -0.39100 36.77400 27.55800
C  0.62200 37.82400 27.16700
C  0.81200 37.65200 25.74600
C  -0.10800 36.59000 25.37900
C  1.18200 38.85500 28.06200
C  1.62200 38.46100 24.82700
O  1.57000 38.36600 23.56500
C  2.60200 39.46900 25.26900
N  -2.16000 34.44600 24.41200
C  -1.26300 35.15300 23.62600
C  -1.30700 34.77400 22.11600
C  -2.44400 33.72600 22.04500
C  -2.81900 33.58400 23.58100
C  -1.37700 35.94500 21.10400
C  -2.06300 32.40800 21.35700
C  -3.19900 31.74300 20.49200
N  -3.28500 32.76400 26.44600
C  -3.91200 32.11800 25.38500
C  -4.83800 31.17300 25.89600
C  -4.86000 31.39500 27.31600
C  -3.92900 32.39000 27.57700
C  -5.52700 30.15900 25.00700
C  -5.41900 30.85700 28.56200
O  -6.18000 29.92700 28.72000
C  -4.77200 31.75300 29.68900
C  -5.96500 32.21000 30.49000
O  -6.70000 33.14300 30.17900
O  -5.97300 31.56000 31.72000
C  -6.94600 32.15400 32.70500
H  -0.36800 37.08800 29.64500
H  0.18500 36.46300 23.30100
H  -4.02700 31.79900 23.33500
H  -3.87400 34.52800 31.37200
H  -1.30500 35.48600 31.47100
H  -3.94500 36.70900 31.51000
H  -2.86100 37.61900 30.48700
H  -2.49600 37.28900 32.15200
H  -1.24000 33.44900 32.12200
H  -2.14500 32.13600 31.35000
H  -3.50800 31.80100 33.17000
H  -3.62700 33.39000 33.45600
H  2.27000 38.78400 28.07900
H  0.75300 38.67500 29.04700
H  0.98100 39.90200 27.83700
H  3.11300 40.04400 24.49700
H  3.30700 38.73400 25.65900
H  2.09300 40.17300 25.92700
H  -0.37000 34.28100 21.85900
H  -3.27100 34.20100 21.51700
H  -1.37700 36.91700 21.59700
H  -2.28400 35.97200 20.50100
H  -0.48800 36.02700 20.47800
H  -1.88200 31.62900 22.09700
H  -1.21600 32.53000 20.68200
H  -3.83500 32.43600 19.94100
H  -3.84000 31.18400 21.17300
H  -2.65800 31.09200 19.80500
H  -6.53800 30.53400 24.84700
H  -5.52600 29.23400 25.58400
H  -5.12100 30.01900 24.00500
H  -4.17800 31.24200 30.44700
H  -6.62700 33.16700 32.95000
H  -6.88700 31.71600 33.70200
H  -7.96500 32.10200 32.32300

