158

Mg -10.17700 39.31100 40.24400
C  -9.38100 35.99400 39.13400
C  -7.01900 40.26200 39.29700
C  -11.38000 42.49100 40.14200
C  -13.52600 38.28100 40.92500
N  -8.46100 38.21000 39.09800
C  -8.32000 36.90900 38.94700
C  -6.91700 36.58700 38.53000
C  -6.08700 37.90500 38.90200
C  -7.27600 38.83800 39.15600
C  -5.22900 37.83600 40.14800
C  -6.86400 36.23100 36.99700
C  -7.49300 37.11100 35.94200
H  -8.68200 36.55700 35.16100
N  -9.30100 41.15600 39.90100
C  -7.97600 41.35000 39.51600
C  -7.79100 42.80100 39.29100
C  -8.98500 43.48100 39.55700
C  -9.96400 42.39500 39.96800
C  -6.43800 43.31600 38.73200
C  -9.16800 44.98100 39.19500
O  -8.22300 45.61700 38.74200
C  -10.48500 45.67400 39.31300
N  -12.11600 40.17900 40.53500
C  -12.34500 41.51600 40.42000
C  -13.86300 41.84900 40.68100
C  -14.49400 40.42500 40.81300
C  -13.32400 39.60600 40.79000
C  -14.03700 42.80700 41.90900
C  -15.67600 40.14300 39.72800
C  -17.07200 40.54100 40.15800
N  -11.23200 37.59000 40.15900
C  -12.58800 37.26500 40.49200
C  -12.81500 35.86700 40.31400
C  -11.62100 35.35400 39.81900
C  -10.64200 36.42200 39.68600
C  -14.03000 35.08000 40.89800
C  -10.87700 34.11800 39.33800
O  -11.28900 32.96200 39.13100
C  -9.48200 34.55000 38.95200
C  -8.44800 33.66400 39.62800
O  -8.34200 33.61600 40.87000
O  -7.50100 33.25100 38.73400
C  -6.33200 32.57100 39.23900
H  -6.00000 40.55300 39.03400
H  -11.82500 43.48800 40.11000
H  -14.47100 37.87300 41.29200
H  -6.47300 35.72700 39.03200
H  -5.47400 38.22400 38.06000
H  -4.29700 38.35000 39.91300
H  -5.08200 36.77700 40.36200
H  -5.70200 38.28100 41.02300
H  -7.27100 35.22400 36.90600
H  -5.78800 36.13600 36.85500
H  -6.69900 37.17700 35.19900
H  -7.56000 38.10100 36.39400
H  -6.42600 43.28200 37.64300
H  -5.73500 42.57400 39.11100
H  -6.24600 44.32200 39.10400
H  -10.83700 45.69000 40.34500
H  -11.28700 45.14500 38.79900
H  -10.50900 46.65300 38.83500
H  -14.21900 42.27500 39.74300
H  -14.93000 40.31400 41.80600
H  -13.03600 43.01700 42.28700
H  -14.61000 42.30400 42.68800
H  -14.46700 43.78500 41.69600
H  -15.61700 39.15100 39.28100
H  -15.48900 40.83900 38.90900
H  -17.67100 39.63300 40.10100
H  -17.46100 41.34500 39.53300
H  -17.21200 40.80700 41.20600
H  -14.93100 35.18000 40.29300
H  -14.29100 35.31900 41.92900
H  -13.65500 34.05800 40.94300
H  -9.22200 34.32900 37.91700
H  -6.58600 32.05600 40.16600
H  -5.48800 33.22700 39.44800
H  -6.10100 31.81500 38.48900
Mg -2.63700 34.40100 26.54600
C  -4.52000 32.90800 29.14500
C  -1.66800 36.85500 28.94600
C  -1.03600 36.09100 24.17000
C  -4.25200 32.36700 24.27100
N  -3.18600 34.82300 28.70900
C  -3.80500 33.99700 29.60000
C  -3.78300 34.49900 31.08200
C  -3.06100 35.93200 30.90900
C  -2.52700 35.81100 29.44800
C  -3.95800 37.16600 31.21600
C  -3.05700 33.58300 32.11800
C  -3.62100 33.44200 33.53700
H  -2.71400 33.84400 34.71100
N  -1.39600 36.19300 26.52600
C  -1.10100 37.04100 27.64700
C  -0.19600 38.08500 27.24000
C  0.05400 37.83600 25.84400
C  -0.81100 36.64200 25.43600
C  0.27700 39.16700 28.11500
C  0.91900 38.57300 24.87000
O  1.11000 38.17400 23.74400
C  1.69100 39.82600 25.31000
N  -2.77700 34.35900 24.49600
C  -1.91100 35.08500 23.71700
C  -1.95600 34.60500 22.23000
C  -2.79500 33.31500 22.36200
C  -3.36700 33.34600 23.76500
C  -2.41500 35.69900 21.25000
C  -2.13700 31.98200 21.98300
C  -3.02800 30.93500 21.28200
N  -4.05300 32.92800 26.67000
C  -4.62700 32.18400 25.63800
C  -5.50100 31.16900 26.20500
C  -5.42300 31.44000 27.53000
C  -4.60900 32.53900 27.80700
C  -6.39000 30.19800 25.44900
C  -5.85100 30.88600 28.81500
O  -6.46700 29.85200 29.10200
C  -5.37400 31.90400 29.89500
C  -6.50200 32.50100 30.54900
O  -7.27200 33.28000 30.01000
O  -6.60800 32.16100 31.86900
C  -7.63700 32.82700 32.66800
H  -1.34800 37.61700 29.66000
H  -0.40200 36.47800 23.37000
H  -4.75300 31.71400 23.55400
H  -4.79700 34.68300 31.43700
H  -2.19500 36.14200 31.53600
H  -4.08600 37.27300 32.29300
H  -4.92200 36.94800 30.75700
H  -3.56600 38.09900 30.81100
H  -1.99500 33.82300 32.08000
H  -3.10200 32.58000 31.69400
H  -3.73000 32.36400 33.65300
H  -4.53100 34.03200 33.64800
H  1.36000 39.25500 28.19700
H  -0.10200 39.12300 29.13600
H  -0.10400 40.11400 27.73300
H  0.99500 40.36700 25.95100
H  2.06100 40.34900 24.42800
H  2.59900 39.52700 25.83300
H  -0.90300 34.43000 22.01000
H  -3.64300 33.50700 21.70400
H  -2.44400 36.57600 21.89600
H  -3.29100 35.47900 20.64000
H  -1.70000 35.95900 20.46900
H  -1.58900 31.42400 22.74200
H  -1.38700 32.27500 21.24900
H  -3.20900 30.09600 21.95400
H  -2.41500 30.58100 20.45300
H  -3.99400 31.34500 20.98900
H  -6.80100 30.47500 24.47800
H  -7.31900 30.00000 25.98500
H  -5.82400 29.29900 25.20700
H  -4.77800 31.36400 30.63100
H  -7.14700 33.65000 33.18900
H  -8.06600 32.15400 33.41000
H  -8.39100 33.17300 31.96200

