158

Mg -2.25900 17.36900 25.86400
C  -2.80200 15.17900 28.65000
C  -2.61100 20.00800 28.12800
C  -2.04700 19.41900 23.32700
C  -2.81400 14.61100 23.70600
N  -2.83500 17.53600 28.21300
C  -2.83300 16.50800 29.13500
C  -2.94500 17.03900 30.55200
C  -3.08000 18.61400 30.31100
C  -2.80200 18.76500 28.81800
C  -4.47100 19.11200 30.74000
C  -1.72600 16.54800 31.41300
C  -1.02500 17.37500 32.47000
H  -0.64500 16.58100 33.74800
N  -2.23500 19.40700 25.72800
C  -2.34500 20.33200 26.79200
C  -2.22400 21.70200 26.19400
C  -1.98300 21.60800 24.78400
C  -2.09800 20.05600 24.53800
C  -2.30700 22.94800 27.00800
C  -1.80600 22.62800 23.72700
O  -1.90100 22.39700 22.55500
C  -1.77200 24.03600 24.02200
N  -2.40500 17.08700 23.80400
C  -2.17100 18.11000 22.94000
C  -2.11500 17.65000 21.50300
C  -2.58200 16.14500 21.64700
C  -2.54500 15.87200 23.15000
C  -3.04200 18.47100 20.55700
C  -1.75300 15.10700 20.81000
C  -1.40100 15.45600 19.43700
N  -2.51600 15.26800 26.09800
C  -2.77400 14.32200 25.08600
C  -2.91100 12.98200 25.80900
C  -2.90700 13.30900 27.13400
C  -2.76900 14.70300 27.30800
C  -2.95800 11.67300 25.26100
C  -2.96100 12.75500 28.45500
O  -3.11600 11.57500 28.80100
C  -2.83900 13.92900 29.45500
C  -1.54300 13.71500 30.11700
O  -0.48400 14.15900 29.74100
O  -1.63100 12.97200 31.26300
C  -0.56100 12.73800 32.19700
H  -2.71300 20.88500 28.77000
H  -1.78100 20.13700 22.54900
H  -2.97100 13.70700 23.11400
H  -3.84800 16.56400 30.93700
H  -2.43000 19.28600 30.87100
H  -5.03500 18.33200 31.25000
H  -4.94800 19.29000 29.77600
H  -4.45700 20.00500 31.36500
H  -0.92000 16.42300 30.69000
H  -1.99600 15.58600 31.84700
H  -1.60200 18.26100 32.73400
H  -0.05300 17.79600 32.21000
H  -2.65300 22.72000 28.01700
H  -3.05300 23.64400 26.62400
H  -1.27700 23.30400 26.99200
H  -1.74100 24.72200 23.17600
H  -0.84800 24.14100 24.59000
H  -2.61300 24.29300 24.66600
H  -1.10100 17.63100 21.10300
H  -3.63700 15.98200 21.42300
H  -3.49500 19.38000 20.95400
H  -3.75100 17.81700 20.04800
H  -2.37700 18.84200 19.77700
H  -2.34100 14.19900 20.67700
H  -0.81300 14.86800 21.30800
H  -2.24400 15.95500 18.96000
H  -1.05300 14.64200 18.80100
H  -0.68100 16.27400 19.47500
H  -2.17500 11.08100 25.73300
H  -2.54800 11.65000 24.25100
H  -3.90500 11.13400 25.28700
H  -3.55900 13.89700 30.27300
H  -0.76000 13.16600 33.17900
H  0.39500 13.03200 31.76400
H  -0.58700 11.68000 32.45700
Mg 26.70900 50.19700 26.36800
C  24.61300 51.17500 29.02400
C  29.24500 49.71400 28.66200
C  28.67700 49.51500 23.84200
C  24.26600 51.57300 24.11300
N  26.91500 50.53600 28.58500
C  25.92800 50.81800 29.48600
C  26.39900 50.70800 30.96500
C  27.94500 50.43300 30.81500
C  28.07900 50.14500 29.28700
C  28.86300 51.53800 31.30100
C  25.72900 49.63100 31.91200
C  24.88600 50.15400 33.04000
H  24.54000 49.30000 34.26200
N  28.69300 49.73900 26.29100
C  29.53800 49.54200 27.29200
C  30.81600 49.01700 26.78600
C  30.71600 49.09300 25.36100
C  29.35200 49.47000 25.10000
C  31.91000 48.50700 27.63700
C  31.74400 48.85400 24.34500
O  31.48900 49.01400 23.22000
C  33.21700 48.58100 24.70300
N  26.53400 50.50400 24.29800
C  27.43100 49.91900 23.44600
C  26.89900 50.01700 22.04100
C  25.48800 50.65500 22.13800
C  25.40700 50.96500 23.59900
C  28.04100 50.85000 21.22200
C  24.33700 49.84800 21.52500
C  23.31600 50.62100 20.66600
N  24.85000 51.16800 26.43500
C  23.99200 51.65800 25.47300
C  22.82400 52.16600 26.10400
C  22.98600 52.02300 27.46500
C  24.26500 51.41100 27.68000
C  21.60200 52.72900 25.37200
C  22.44300 52.23600 28.81500
O  21.36800 52.74600 29.16000
C  23.49500 51.69600 29.83600
C  23.92700 52.83000 30.77500
O  24.79300 53.69900 30.47100
O  23.09200 52.84600 31.80700
C  23.34200 53.77200 32.90900
H  30.02900 49.51700 29.39600
H  29.28200 49.28300 22.96400
H  23.52700 51.98100 23.42000
H  26.33000 51.67900 31.45700
H  28.22900 49.45800 31.21100
H  28.30200 52.41100 31.63300
H  29.32400 51.91300 30.38700
H  29.52500 51.10300 32.05000
H  26.46200 48.98800 32.39900
H  25.15800 48.99300 31.23800
H  23.93900 50.32700 32.53000
H  25.10500 51.19400 33.28200
H  31.88100 47.41900 27.68400
H  31.76000 48.77000 28.68500
H  32.93600 48.78200 27.39300
H  33.30300 47.81400 25.47300
H  33.84200 49.39700 25.06400
H  33.59400 48.31100 23.71700
H  26.85700 49.01000 21.62600
H  25.64700 51.66300 21.75400
H  28.53100 50.13700 20.56000
H  28.75500 51.28500 21.92200
H  27.76700 51.77900 20.72300
H  23.94000 49.15400 22.26600
H  24.72400 49.16000 20.77300
H  22.41100 50.49200 21.26000
H  23.16300 50.29000 19.63900
H  23.53700 51.68800 20.64100
H  21.02400 51.91800 24.92900
H  21.88300 53.42300 24.58000
H  20.93800 53.12300 26.14100
H  22.90500 50.95000 30.36800
H  23.73200 54.72700 32.55800
H  24.09200 53.28300 33.53000
H  22.46800 53.98700 33.52300

