158

Mg -1.71600 17.89700 27.38600
C  -2.53600 15.81000 29.99700
C  -2.61100 20.61900 29.37600
C  -1.19400 19.94100 24.77200
C  -1.32000 15.16000 25.28600
N  -2.37700 18.16900 29.50400
C  -2.74100 17.20400 30.35400
C  -3.10500 17.79100 31.72000
C  -3.44200 19.29700 31.29100
C  -2.80500 19.38700 29.98000
C  -4.90200 19.72500 31.25400
C  -1.95300 17.69700 32.71500
C  -2.19800 17.14000 34.12200
H  -1.01500 16.98400 35.05100
N  -1.62700 19.93300 27.20800
C  -1.97600 20.93300 28.14600
C  -1.78200 22.25000 27.56400
C  -1.40100 22.09700 26.19400
C  -1.36300 20.62400 26.02500
C  -2.19900 23.47900 28.33100
C  -1.23300 23.16600 25.03500
O  -0.81800 22.79600 23.94600
C  -1.29600 24.55300 25.45300
N  -1.40700 17.61300 25.25900
C  -1.16700 18.58000 24.39900
C  -0.97400 18.09900 23.01400
C  -0.80700 16.57700 23.22500
C  -1.21000 16.38600 24.69900
C  -2.08700 18.47800 21.97600
C  0.66600 16.00400 22.89800
C  1.85400 16.67600 23.65900
N  -1.94400 15.90100 27.53300
C  -1.72500 14.89300 26.64900
C  -1.80100 13.62900 27.34400
C  -2.09300 13.89600 28.66700
C  -2.16900 15.37100 28.72400
C  -1.85100 12.28800 26.73900
C  -2.37500 13.30000 29.92900
O  -2.34900 12.13900 30.31000
C  -2.67300 14.53400 30.82800
C  -1.65100 14.34600 31.90100
O  -0.49600 14.70000 31.78800
O  -2.16900 13.69700 32.95500
C  -1.22600 13.04600 33.88400
H  -2.88200 21.41200 30.07700
H  -0.88900 20.58000 23.94000
H  -1.11900 14.27800 24.67300
H  -3.97000 17.30300 32.16900
H  -3.00400 19.99000 32.01000
H  -5.51500 18.86200 31.51100
H  -5.17500 20.11400 30.27200
H  -5.11900 20.42400 32.06200
H  -1.66000 18.71100 32.98700
H  -1.13700 17.14100 32.25400
H  -2.50900 16.12100 33.89200
H  -2.97300 17.74400 34.59300
H  -1.35500 24.16700 28.38000
H  -2.50700 23.29600 29.36000
H  -3.06300 23.88400 27.80300
H  -2.30300 24.85100 25.74600
H  -0.98000 25.19000 24.62700
H  -0.51600 24.69800 26.20000
H  -0.02100 18.55200 22.74300
H  -1.44500 16.01500 22.54300
H  -2.80800 19.14600 22.44800
H  -2.57800 17.73000 21.35400
H  -1.52200 19.10600 21.28700
H  0.90500 16.32000 21.88300
H  0.69700 14.91500 22.88500
H  1.54100 17.20000 24.56200
H  2.56100 17.29100 23.10300
H  2.45000 15.81700 23.96900
H  -2.73800 11.76500 27.09500
H  -0.92500 11.76800 26.98500
H  -2.02500 12.45900 25.67700
H  -3.65100 14.49900 31.30900
H  -1.27900 11.97400 33.69200
H  -1.56200 13.17200 34.91300
H  -0.17700 13.31300 33.75600
Mg 1.35400 43.02800 25.76400
C  3.50700 42.93100 28.53800
C  -1.36300 42.60300 27.87600
C  -0.82700 42.39000 23.11000
C  3.99900 42.93700 23.72800
N  1.10000 42.76700 27.94600
C  2.19000 42.78000 28.89600
C  1.69400 42.73600 30.30400
C  0.13900 42.29100 30.06000
C  -0.09900 42.58300 28.55100
C  -0.32900 40.92500 30.51200
C  1.88300 44.12900 30.96400
C  2.00100 44.17300 32.46600
H  1.70500 42.85800 33.22300
N  -0.87300 42.75300 25.51400
C  -1.76600 42.63500 26.56100
C  -3.04700 42.42400 26.03300
C  -2.94400 42.29500 24.59800
C  -1.53400 42.48200 24.32800
C  -4.23800 42.24700 26.93200
C  -4.01800 42.15700 23.56100
O  -3.73800 42.19400 22.36100
C  -5.43300 41.91700 23.97400
N  1.55400 42.57000 23.81600
C  0.58000 42.50000 22.87000
C  1.15400 42.44100 21.46700
C  2.45000 43.06900 21.67500
C  2.69900 42.76500 23.21300
C  1.13100 40.94400 20.88700
C  2.63000 44.56900 21.36000
C  3.84900 44.95800 20.46500
N  3.41800 42.95300 26.01100
C  4.36700 43.04200 25.08700
C  5.66200 43.19300 25.74100
C  5.36700 43.10700 27.09300
C  3.99800 42.99500 27.23300
C  6.98600 43.24600 25.12200
C  5.88000 43.19100 28.43900
O  7.03800 43.34500 28.73100
C  4.76100 43.01800 29.47000
C  4.92800 41.82000 30.27300
O  4.62100 40.67200 29.94500
O  5.31400 42.17000 31.48600
C  5.45600 41.06900 32.47900
H  -2.06700 42.36300 28.67600
H  -1.43900 42.31000 22.21000
H  4.82200 42.96400 23.01000
H  2.30500 42.05800 30.90000
H  -0.51200 42.97300 30.60900
H  -0.80900 40.33000 29.73500
H  -0.96400 41.16900 31.36500
H  0.53500 40.36300 30.86600
H  1.03700 44.65800 30.52400
H  2.71500 44.64800 30.48800
H  1.34100 44.88700 32.95800
H  3.03700 44.42700 32.68900
H  -4.67600 43.23900 27.04300
H  -3.86500 41.82600 27.86600
H  -4.96900 41.55900 26.50700
H  -5.61700 40.92900 24.39700
H  -6.08500 42.02000 23.10600
H  -5.89900 42.68500 24.59100
H  0.58700 43.08000 20.78900
H  3.30200 42.54800 21.23900
H  0.81800 40.26700 21.68100
H  2.09000 40.74000 20.41100
H  0.40200 40.91000 20.07700
H  2.85100 45.05600 22.31000
H  1.71800 45.01600 20.96500
H  3.48100 45.53200 19.61600
H  4.40600 44.07300 20.15600
H  4.62000 45.46700 21.04400
H  7.65900 42.41800 25.34800
H  7.49800 44.10200 25.56000
H  7.06000 43.44800 24.05400
H  4.81300 43.90500 30.10200
H  6.46500 40.70600 32.28300
H  4.70100 40.28500 32.42100
H  5.49300 41.56700 33.44700

