158

Mg 55.45700 23.93000 45.02100
C  53.05200 26.42600 44.41400
C  53.39300 21.57800 43.68600
C  58.07800 21.86400 44.81700
C  57.59100 26.46000 46.18100
N  53.56200 24.09900 43.96200
C  52.69200 25.12300 43.92900
C  51.33400 24.69000 43.39000
C  51.36400 23.18700 43.69800
C  52.87400 22.87900 43.74900
C  50.70900 22.80800 45.09200
C  51.00900 25.01600 41.96100
C  49.61100 24.63400 41.48900
H  49.38600 24.52600 39.95400
N  55.71900 21.92200 44.26900
C  54.69900 21.20300 43.78700
C  55.22100 19.87300 43.52100
C  56.66300 19.91300 43.72500
C  56.91000 21.26400 44.30800
C  54.35100 18.82700 43.01600
C  57.65900 18.81600 43.45000
O  57.37200 17.68600 43.08700
C  59.14900 19.04000 43.60700
N  57.55600 24.22400 45.31700
C  58.34900 23.10500 45.36100
C  59.81600 23.44100 45.90700
C  59.66100 24.90800 46.26600
C  58.18400 25.22900 45.88700
C  60.33600 22.46200 47.08100
C  60.66000 25.96300 45.72100
C  61.75100 26.48900 46.66100
N  55.34800 26.02400 45.34200
C  56.30100 26.92400 45.84700
C  55.76500 28.28300 45.89400
C  54.44900 28.06100 45.35500
C  54.25900 26.72000 44.98100
C  56.31200 29.53900 46.32400
C  53.14800 28.78700 45.11300
O  52.87100 29.97100 45.24000
C  52.22000 27.72400 44.47800
C  51.68000 28.22500 43.15900
O  52.30500 28.48600 42.18000
O  50.34400 28.38000 43.28900
C  49.52700 28.57300 42.05600
H  52.72500 20.79300 43.32600
H  58.96100 21.22500 44.75200
H  58.26300 27.21300 46.59800
H  50.49200 25.12000 43.93300
H  50.82800 22.60400 42.94900
H  50.04900 23.58700 45.47400
H  51.44900 22.46300 45.81400
H  49.90900 22.09300 44.89900
H  51.68800 24.40300 41.36700
H  51.29000 26.03800 41.71000
H  48.99800 25.38600 41.98600
H  49.18200 23.74200 41.94600
H  55.00100 17.95300 42.96800
H  53.98800 19.02700 42.00800
H  53.49300 18.54500 43.62600
H  59.40700 19.97200 43.10300
H  59.73200 18.15100 43.36600
H  59.24300 19.20700 44.68000
H  60.35800 23.33300 44.96700
H  59.58600 25.14300 47.32800
H  60.76400 22.97100 47.94600
H  61.19000 21.95200 46.63500
H  59.55300 21.74100 47.31300
H  60.12800 26.78400 45.24000
H  61.26500 25.46600 44.96400
H  62.66600 26.42200 46.07200
H  61.70800 25.86200 47.55100
H  61.58500 27.56200 46.76000
H  56.67300 30.19600 45.53300
H  57.19800 29.28500 46.90400
H  55.57700 30.05400 46.94400
H  51.36700 27.60900 45.14700
H  48.90400 29.43800 42.28500
H  48.97200 27.63500 42.02800
H  50.13900 28.82500 41.19000
Mg 30.41200 58.28800 38.56600
C  27.66500 56.22700 37.29800
C  32.48100 55.38300 38.16200
C  33.04100 60.22800 38.76700
C  28.31400 60.98100 37.95600
N  30.06500 56.07100 37.77000
C  28.82600 55.50800 37.37400
C  29.09700 54.00700 37.12600
C  30.55300 53.71000 37.69100
C  31.05200 55.14900 37.91400
C  30.69400 52.82200 38.98600
C  28.93500 53.41200 35.66900
C  29.28100 54.41000 34.56600
H  28.32300 54.55600 33.30800
N  32.50300 57.82100 38.48900
C  33.14100 56.64100 38.27800
C  34.59700 56.81800 38.47600
C  34.79900 58.26100 38.55100
C  33.43400 58.85200 38.65900
C  35.63000 55.68100 38.36800
C  36.08500 58.91300 38.47600
O  37.14500 58.24300 38.42300
C  36.25000 60.41600 38.52400
N  30.61200 60.30800 38.45200
C  31.84300 60.95100 38.65100
C  31.75400 62.44800 38.30100
C  30.25800 62.65800 38.08700
C  29.69700 61.26100 38.01600
C  32.28800 63.32900 39.47400
C  29.95100 63.66600 36.87900
C  28.95600 64.83000 37.15600
N  28.32300 58.60100 38.04500
C  27.60800 59.69300 37.92600
C  26.19500 59.38000 37.57100
C  26.21400 58.00400 37.40200
C  27.54200 57.58800 37.58300
C  25.15300 60.36500 37.42000
C  25.35800 56.88800 37.09400
O  24.13400 56.80300 36.83000
C  26.27700 55.66000 37.01400
C  25.80200 54.62800 37.89900
O  25.91200 54.62900 39.11300
O  25.12500 53.67700 37.17000
C  24.49600 52.56500 37.89300
H  33.04900 54.45100 38.17700
H  33.82900 60.94500 39.00600
H  27.70800 61.85900 37.72300
H  28.47800 53.48100 37.85400
H  31.13000 53.31800 36.85300
H  31.50300 52.10300 38.85600
H  29.85000 52.16800 39.20600
H  30.94800 53.31400 39.92400
H  27.88300 53.13400 35.59800
H  29.55600 52.52600 35.53800
H  30.22100 54.07000 34.13200
H  29.46200 55.43600 34.88400
H  35.93300 55.69900 37.32100
H  35.16700 54.70700 38.53100
H  36.46100 55.86500 39.04800
H  35.89700 60.75500 39.49800
H  35.64300 60.75200 37.68200
H  37.26200 60.78800 38.36700
H  32.21800 62.67800 37.34300
H  29.83600 63.08000 38.99900
H  33.12300 63.96300 39.17700
H  32.65900 62.74000 40.31300
H  31.52500 63.98800 39.88900
H  29.67200 63.04800 36.02500
H  30.87100 64.16400 36.57100
H  27.97700 64.56400 36.75500
H  29.14000 65.76000 36.61800
H  28.84500 65.02300 38.22300
H  25.03900 60.59400 36.36000
H  25.41400 61.32400 37.86800
H  24.18500 60.10300 37.84600
H  26.30800 55.14900 36.05200
H  24.03100 51.97900 37.10000
H  23.63400 52.88300 38.48000
H  25.21500 51.94800 38.43200

