158

Mg -2.20900 16.93400 26.88600
C  -2.91300 14.68100 29.57600
C  -2.59800 19.50600 29.20600
C  -1.97600 19.07500 24.35500
C  -2.46600 14.21400 24.72100
N  -2.91800 17.08900 29.13300
C  -3.00100 16.00000 30.09400
C  -3.07300 16.41300 31.59400
C  -3.00000 17.98900 31.36400
C  -2.85000 18.19400 29.79900
C  -4.14100 18.84700 32.00300
C  -1.79800 15.93300 32.39000
C  -1.31900 16.72500 33.63200
H  -1.16000 15.89800 34.94400
N  -2.30200 18.94200 26.73800
C  -2.39100 19.81700 27.80100
C  -2.21800 21.17100 27.35300
C  -2.13600 21.10000 25.92900
C  -2.16000 19.68700 25.63900
C  -2.15200 22.29500 28.33300
C  -2.04800 22.19500 24.88400
O  -2.12800 22.05200 23.64700
C  -1.86400 23.61000 25.36200
N  -2.20000 16.61900 24.82300
C  -2.03800 17.70100 23.99500
C  -1.98600 17.23400 22.55900
C  -2.06800 15.66000 22.67400
C  -2.26200 15.46000 24.16600
C  -3.07300 17.64800 21.54300
C  -0.90400 14.86200 22.03600
C  -1.22600 13.90100 20.90100
N  -2.49900 14.85100 27.05400
C  -2.59800 13.92900 26.05200
C  -2.91300 12.64600 26.58900
C  -3.00200 12.87600 27.98400
C  -2.75400 14.23600 28.19900
C  -2.89600 11.35300 25.85700
C  -3.29400 12.26700 29.26300
O  -3.64500 11.09800 29.51600
C  -3.06000 13.37900 30.32600
C  -1.90100 12.92300 31.13300
O  -0.73500 13.29300 31.10700
O  -2.46600 11.99300 32.00300
C  -1.60800 11.43800 33.02700
H  -2.62000 20.34300 29.90700
H  -1.75100 19.63900 23.44800
H  -2.71700 13.35600 24.09400
H  -4.00400 16.12600 32.08300
H  -2.04400 18.30900 31.77800
H  -4.83000 18.16600 32.50300
H  -4.45100 19.42100 31.13000
H  -3.64900 19.49700 32.72700
H  -0.94200 15.73700 31.74400
H  -1.98300 14.90200 32.69000
H  -1.95700 17.59000 33.81500
H  -0.31300 17.12300 33.49900
H  -1.53700 23.08500 27.90100
H  -1.57000 22.04100 29.21900
H  -3.11600 22.71900 28.61500
H  -1.78200 24.10800 24.39600
H  -1.00500 23.72200 26.02300
H  -2.73700 24.01900 25.87200
H  -1.04100 17.53400 22.10500
H  -2.99500 15.30800 22.22200
H  -3.12700 18.72000 21.35000
H  -4.01000 17.29900 21.97600
H  -3.00200 17.18600 20.55800
H  -0.42000 14.24700 22.79500
H  -0.22800 15.65300 21.70900
H  -0.99600 12.89700 21.25900
H  -0.53300 14.14300 20.09600
H  -2.20400 14.06400 20.44800
H  -2.73900 10.64600 26.67200
H  -1.99300 11.23000 25.25800
H  -3.73500 11.30000 25.16200
H  -3.99900 13.38100 30.88000
H  -1.67700 10.35300 32.95300
H  -2.14900 11.57600 33.96300
H  -0.56600 11.75800 32.99600
Mg 34.71200 3.56800 29.74500
C  32.33400 4.16500 32.36800
C  37.08500 3.57000 32.28500
C  36.79700 3.17600 27.37300
C  32.10500 3.92900 27.51300
N  34.67200 3.81500 32.09800
C  33.59100 4.02600 32.86800
C  33.99200 3.90100 34.37400
C  35.56500 4.22900 34.33000
C  35.84600 3.88400 32.76200
C  36.01200 5.72500 34.64200
C  33.60600 2.55300 35.07700
C  33.06500 2.76800 36.48600
H  33.69800 3.90900 37.36000
N  36.72600 3.43400 29.84300
C  37.50200 3.35600 30.94400
C  38.90100 3.08300 30.50300
C  38.84900 3.02600 29.04900
C  37.47000 3.24600 28.65100
C  40.07700 2.78100 31.43900
C  39.91900 2.68700 28.08300
O  39.70200 2.64300 26.92400
C  41.29800 2.38600 28.70500
N  34.47800 3.65400 27.73300
C  35.50800 3.48400 26.94900
C  35.18400 3.56700 25.40100
C  33.66000 3.61400 25.49500
C  33.35100 3.76200 27.02000
C  35.77000 4.67500 24.58400
C  32.97900 2.28000 24.87100
C  32.63900 1.15100 25.76600
N  32.69400 3.93000 29.92100
C  31.75300 4.02800 28.86700
C  30.43200 4.25100 29.43800
C  30.66400 4.32400 30.85100
C  32.04900 4.15100 31.04900
C  29.16200 4.20500 28.65900
C  29.97800 4.44600 32.07700
O  28.85000 4.78500 32.34500
C  31.11500 4.30200 33.13900
C  31.13700 5.58400 33.93800
O  31.42900 6.73500 33.54800
O  30.67400 5.34100 35.16300
C  30.45700 6.58600 35.98600
H  37.80300 3.55800 33.10800
H  37.50100 3.00800 26.55500
H  31.42900 4.08100 26.66900
H  33.61700 4.68100 35.03800
H  36.04300 3.53200 35.01800
H  36.78600 6.06900 33.95600
H  36.30000 5.83100 35.68800
H  35.16800 6.39200 34.46300
H  34.45100 1.86500 35.06200
H  32.77300 2.19500 34.47200
H  33.25300 1.90000 37.11700
H  32.03000 3.10900 36.51400
H  39.72300 2.84400 32.46800
H  40.91900 3.44800 31.25100
H  40.42200 1.75700 31.29800
H  41.58000 3.27900 29.26400
H  42.05100 2.27000 27.92500
H  41.26600 1.45100 29.26300
H  35.64000 2.69500 24.93200
H  33.32800 4.50900 24.96900
H  35.03400 5.25500 24.02700
H  36.44800 4.22500 23.85900
H  36.30300 5.39700 25.20200
H  33.77500 1.85700 24.25900
H  32.13400 2.64700 24.28900
H  31.58100 1.11900 26.02700
H  33.15200 1.19300 26.72700
H  32.95800 0.16400 25.43100
H  28.62700 5.15400 28.65100
H  28.58400 3.42000 29.14700
H  29.35500 3.83700 27.65200
H  30.90700 3.40700 33.72600
H  29.74800 7.32400 35.61200
H  31.36100 7.11400 36.28700
H  30.14100 5.99000 36.84300

