158

Mg 45.51200 4.23600 47.66400
C  43.52000 6.97100 47.05800
C  42.90100 2.14400 47.01900
C  47.78500 1.69000 47.23800
C  48.25600 6.41900 47.74100
N  43.44700 4.55200 47.17200
C  42.83600 5.76900 46.92400
C  41.33200 5.62600 46.59900
C  41.05600 4.06400 46.88700
C  42.51900 3.51900 47.06200
C  40.09700 3.67800 48.00100
C  40.84400 6.38700 45.23400
C  40.71100 5.51300 43.97900
H  40.48100 6.24100 42.64800
N  45.35300 2.16700 47.26900
C  44.17000 1.50700 47.05500
C  44.47000 0.11100 46.93400
C  45.85400 -0.08300 46.97000
C  46.40400 1.27700 47.17800
C  43.37000 -0.96000 46.80700
C  46.57300 -1.35200 46.83000
O  45.84300 -2.37100 46.68400
C  48.04300 -1.53800 46.91200
N  47.69100 4.11800 47.80200
C  48.34000 2.98300 47.47100
C  49.89300 3.17500 47.65600
C  50.00800 4.64100 47.91500
C  48.58800 5.10300 47.88800
C  50.56300 2.20500 48.60700
C  51.02900 5.39900 46.94800
C  51.85800 6.56500 47.67700
N  45.87800 6.29800 47.64400
C  47.01700 7.07700 47.66400
C  46.70900 8.45800 47.54800
C  45.35200 8.50400 47.44200
C  44.88400 7.13700 47.47400
C  47.67900 9.55400 47.56900
C  44.16400 9.37800 47.32800
O  44.07100 10.60600 47.39000
C  42.96400 8.36100 47.10400
C  42.08800 8.55800 48.29500
O  42.28200 7.99400 49.41700
O  41.05700 9.50100 48.07700
C  40.20800 9.63600 49.26800
H  42.04900 1.46400 47.09400
H  48.40600 0.84000 46.95000
H  49.11600 7.08400 47.84800
H  40.80700 6.14800 47.39800
H  40.73500 3.67300 45.92100
H  40.13700 4.36100 48.84900
H  40.40500 2.73900 48.46200
H  39.09400 3.59200 47.58300
H  41.66000 7.03700 44.91900
H  39.83300 6.77000 45.37300
H  39.82600 4.88900 44.10000
H  41.50400 4.78300 43.81700
H  43.40100 -1.66300 47.64000
H  43.56900 -1.60900 45.95500
H  42.36100 -0.54900 46.76400
H  48.44300 -1.07400 47.81400
H  48.39500 -1.05900 45.99900
H  48.52100 -2.51800 46.92800
H  50.37900 3.06000 46.68700
H  50.33400 4.61000 48.95400
H  49.79600 1.70500 49.19900
H  51.28800 2.75400 49.20700
H  51.10000 1.40300 48.10100
H  50.49000 5.89100 46.13800
H  51.74300 4.81600 46.36500
H  52.52100 6.06900 48.38600
H  51.28200 7.26700 48.28000
H  52.33200 7.13100 46.87600
H  47.19500 10.50000 47.32700
H  48.57500 9.36400 46.97800
H  47.94600 9.67000 48.62000
H  42.50200 8.68800 46.17300
H  40.82300 9.69200 50.16600
H  39.40300 8.92100 49.43700
H  39.67700 10.58800 49.24200
Mg 16.41700 51.97800 26.14800
C  18.36000 51.06600 28.99000
C  13.90200 52.74000 28.34600
C  14.67700 52.90000 23.52600
C  19.01800 50.79700 24.15700
N  16.18300 51.75200 28.44500
C  17.14800 51.65400 29.37800
C  16.76100 51.99200 30.76100
C  15.22300 52.26600 30.47600
C  15.07500 52.28300 28.99400
C  14.28400 51.32200 31.23400
C  17.57700 53.10900 31.41800
C  18.14500 52.84400 32.83600
H  17.39500 52.09900 33.81900
N  14.61300 52.66900 25.94900
C  13.71700 52.98500 26.96800
C  12.52000 53.63200 26.37100
C  12.77400 53.81800 25.01800
C  14.06800 53.05700 24.76600
C  11.36100 54.15600 27.20900
C  11.99500 54.53300 23.95700
O  12.37100 54.61200 22.80400
C  10.72900 55.19000 24.31700
N  16.75900 51.91500 24.08600
C  15.90000 52.34200 23.18500
C  16.40900 52.20500 21.73800
C  17.89500 51.86800 22.06000
C  17.94800 51.47000 23.53500
C  15.68900 51.14600 20.80500
C  18.91700 53.02500 21.77600
C  19.93900 52.76700 20.62700
N  18.24700 51.01400 26.39600
C  19.17200 50.58300 25.45400
C  20.24500 49.88900 26.18100
C  19.96000 50.11600 27.54000
C  18.73900 50.77200 27.64300
C  21.48300 49.24100 25.55100
C  20.44100 49.91600 28.85100
O  21.43900 49.29300 29.23800
C  19.45200 50.50900 29.85300
C  19.01800 49.39300 30.70300
O  18.36000 48.46000 30.36100
O  19.53400 49.54900 31.95200
C  19.11000 48.46200 32.86100
H  13.16600 52.99700 29.11000
H  14.25000 53.37000 22.63800
H  19.85200 50.48600 23.52400
H  16.85000 51.15500 31.45300
H  14.92800 53.23900 30.86800
H  13.89200 50.53000 30.59700
H  13.45500 51.91600 31.61900
H  14.76000 50.77800 32.05000
H  16.98600 54.02200 31.49600
H  18.47300 53.33000 30.83900
H  18.44600 53.81700 33.22500
H  19.10400 52.33500 32.73500
H  11.52900 54.00300 28.27500
H  10.54700 53.47100 26.97300
H  11.02200 55.18600 27.09900
H  10.31700 55.45700 23.34400
H  10.89300 56.06800 24.94200
H  9.99400 54.49300 24.71900
H  16.26600 53.18300 21.27900
H  18.23100 50.99300 21.50300
H  16.41000 50.41300 20.44400
H  15.00700 51.54700 20.05600
H  15.13900 50.51300 21.50200
H  19.54800 53.27800 22.62700
H  18.43200 53.99500 21.67100
H  19.49800 52.47900 19.67300
H  20.54100 51.92000 20.95500
H  20.52800 53.66000 20.41600
H  21.73900 48.36900 26.15300
H  22.25400 50.01000 25.50800
H  21.29800 48.93700 24.52100
H  19.96500 51.26900 30.44300
H  19.45500 47.46400 32.58900
H  18.02500 48.38100 32.79600
H  19.44900 48.75900 33.85300

