158

Mg 56.42000 24.89700 44.74900
C  53.70000 26.92700 43.57100
C  54.81000 22.23800 43.42500
C  59.16000 23.25700 45.05100
C  58.12500 27.97900 45.47900
N  54.56800 24.64000 43.53300
C  53.58200 25.58000 43.17800
C  52.28000 24.87400 42.93600
C  52.57500 23.43400 43.29500
C  54.10100 23.43500 43.42000
C  51.88700 22.79100 44.57200
C  51.92500 25.00100 41.46000
C  50.58400 24.47500 41.03600
H  50.68000 23.24900 40.10800
N  56.90400 22.98400 44.28600
C  56.14400 21.99300 43.69400
C  56.87200 20.70500 43.69300
C  58.08600 20.92000 44.41400
C  58.15300 22.43700 44.61100
C  56.36000 19.44600 43.03000
C  59.23500 19.98800 44.62100
O  59.08800 18.76300 44.34000
C  60.47700 20.39600 45.20700
N  58.41300 25.57600 45.12000
C  59.34300 24.64100 45.17500
C  60.72000 25.29900 45.50700
C  60.40200 26.85300 45.57900
C  58.88900 26.82900 45.34500
C  61.32400 24.84700 46.81900
C  61.20000 27.71100 44.51100
C  62.42400 28.56100 45.01700
N  55.98100 26.96200 44.69000
C  56.75200 28.05900 45.18100
C  55.87000 29.21300 45.16800
C  54.67800 28.83200 44.54800
C  54.81200 27.47500 44.25600
C  56.27300 30.55400 45.60200
C  53.37900 29.25900 44.07100
O  52.93000 30.38300 44.08700
C  52.62800 28.09300 43.45500
C  52.19500 28.54800 42.09700
O  52.86600 29.16900 41.29900
O  50.90900 28.18500 41.86100
C  50.18500 28.70100 40.64500
H  54.13300 21.45400 43.08000
H  60.16800 22.83600 45.06000
H  58.79200 28.79400 45.76900
H  51.43900 25.31100 43.47400
H  52.31300 22.78500 42.46000
H  51.16700 23.56200 44.84700
H  52.60500 22.62200 45.37500
H  51.47300 21.84200 44.23100
H  52.70500 24.53800 40.85600
H  51.96200 26.03700 41.12300
H  50.01300 25.21200 40.47200
H  49.91400 24.14900 41.83200
H  57.19100 18.78700 42.78100
H  55.86500 19.85900 42.15000
H  55.58700 19.05300 43.69000
H  61.15700 20.82200 44.46800
H  61.01500 19.53300 45.59800
H  60.34100 21.02800 46.08400
H  61.31300 24.98500 44.64800
H  60.52000 27.29700 46.56700
H  62.09200 24.11500 46.57000
H  60.55300 24.41300 47.45500
H  61.94800 25.64700 47.21900
H  60.54500 28.49100 44.12300
H  61.51300 27.06000 43.69500
H  62.36700 29.55600 44.57700
H  63.35000 28.03000 44.79300
H  62.34400 28.57800 46.10400
H  56.11300 30.58400 46.68000
H  55.53300 31.18100 45.10600
H  57.25400 30.89700 45.27200
H  51.68500 27.97500 43.98900
H  50.82400 28.63900 39.76400
H  49.83800 29.73000 40.74000
H  49.34800 28.01200 40.53300
Mg -12.96000 16.04100 41.88500
C  -9.93900 14.41200 41.19500
C  -11.73100 18.88000 40.11300
C  -15.97300 17.33500 41.78500
C  -14.13500 12.89600 43.02900
N  -11.09900 16.56200 40.77400
C  -9.95800 15.76200 40.76200
C  -8.71700 16.51300 40.21900
C  -9.32400 17.94100 39.98400
C  -10.82300 17.81900 40.28800
C  -8.68000 19.04800 40.84900
C  -8.25000 15.85700 38.84800
C  -6.70000 15.87500 38.72300
H  -6.21400 16.51800 37.40900
N  -13.77300 17.91600 41.14500
C  -13.08600 18.92400 40.47300
C  -14.03000 20.00300 40.20800
C  -15.23600 19.64600 40.78300
C  -15.06800 18.25900 41.30100
C  -13.51200 21.27600 39.50800
C  -16.47400 20.42700 40.77300
O  -16.44600 21.51200 40.12500
C  -17.79900 19.90800 41.29200
N  -14.76900 15.17900 42.20300
C  -15.88600 15.95000 42.17500
C  -17.14900 15.16800 42.50200
C  -16.61100 13.81200 43.00400
C  -15.04400 13.94300 42.76900
C  -18.16300 15.86100 43.49300
C  -17.26100 12.57400 42.33300
C  -18.35400 11.89200 43.19700
N  -12.25300 14.00900 42.21200
C  -12.82100 12.90300 42.68400
C  -11.85100 11.78200 42.67700
C  -10.70400 12.30700 42.14700
C  -11.02200 13.63100 41.81200
C  -12.11000 10.36600 43.08700
C  -9.36900 12.10600 41.73400
O  -8.63200 11.08900 41.80900
C  -8.79200 13.44100 41.20200
C  -7.59400 13.99500 41.88600
O  -7.46900 14.50600 43.00800
O  -6.47900 13.59900 41.11200
C  -5.18600 13.84000 41.81900
H  -11.31400 19.75400 39.60900
H  -17.04300 17.54600 41.73900
H  -14.62500 12.03300 43.48200
H  -7.95900 16.37200 40.99100
H  -9.34800 18.21000 38.92800
H  -9.19500 19.16500 41.80200
H  -8.64600 19.94100 40.22500
H  -7.75800 18.59300 41.21200
H  -8.64700 16.30200 37.93500
H  -8.53400 14.80400 38.84200
H  -6.32500 14.85200 38.75300
H  -6.24400 16.46300 39.52000
H  -13.42400 21.08800 38.43800
H  -12.48600 21.48200 39.81200
H  -13.99800 22.23900 39.66800
H  -18.29500 19.20200 40.62700
H  -18.44800 20.78400 41.29400
H  -17.76900 19.58400 42.33200
H  -17.68400 15.02600 41.56300
H  -16.64300 13.72600 44.09000
H  -17.49000 16.62900 43.87600
H  -18.44400 15.29500 44.38100
H  -18.97700 16.33300 42.94200
H  -16.52300 11.92600 41.86000
H  -17.89600 12.91500 41.51600
H  -18.41500 10.80400 43.17100
H  -19.36200 11.91100 42.78300
H  -18.33800 12.31900 44.20000
H  -11.14600 9.88200 43.24000
H  -12.59100 9.98100 42.18800
H  -12.87100 10.21800 43.85400
H  -8.48300 13.08100 40.22000
H  -4.91000 14.88600 41.68300
H  -4.48800 13.08300 41.46000
H  -5.17800 13.72900 42.90300

