158

Mg 49.33700 45.35800 42.38200
C  46.04400 46.31200 41.36700
C  48.87800 42.40200 40.79700
C  52.66400 44.93600 42.41600
C  49.83700 48.67000 43.38500
N  47.58400 44.45900 41.25900
C  46.38500 45.05500 40.93700
C  45.53800 44.04600 40.18800
C  46.38900 42.64300 40.30500
C  47.73300 43.20300 40.81600
C  45.60600 41.57800 41.28400
C  45.13500 44.46000 38.68700
C  43.94400 43.73400 38.06100
H  44.23600 42.65500 37.04400
N  50.59000 43.72700 41.93700
C  50.21100 42.64000 41.23600
C  51.34200 41.76100 41.19400
C  52.41300 42.34200 41.87500
C  51.93400 43.75500 42.08200
C  51.32400 40.39300 40.44300
C  53.83700 41.91100 42.14200
O  54.15800 40.81400 41.75600
C  54.91500 42.64700 42.86000
N  50.96800 46.66800 42.70700
C  52.22700 46.22700 42.67400
C  53.28900 47.32000 42.91900
C  52.43500 48.41200 43.63000
C  50.98700 47.96600 43.26300
C  54.51300 46.93200 43.86300
C  52.81900 49.86600 43.23100
C  53.87600 50.52400 44.15000
N  48.18200 47.08100 42.52100
C  48.54800 48.35700 42.95300
C  47.39800 49.17500 42.90200
C  46.38100 48.44200 42.30200
C  46.89100 47.16300 42.03100
C  47.42200 50.62800 43.33900
C  44.93900 48.40800 41.87200
O  44.00500 49.23700 41.89800
C  44.79800 47.10400 41.09700
C  43.55400 46.46800 41.33500
O  42.66800 46.30400 40.55300
O  43.56600 45.90800 42.60700
C  42.45500 44.93900 42.85700
H  48.71700 41.46700 40.25600
H  53.73500 44.72700 42.38000
H  50.00500 49.67700 43.77300
H  44.63200 43.85000 40.76200
H  46.44600 42.26700 39.28300
H  46.29000 41.36100 42.10400
H  45.41100 40.65900 40.73100
H  44.66900 41.91300 41.73100
H  46.06100 44.19500 38.17700
H  45.12300 45.54500 38.59200
H  43.30200 44.50100 37.62600
H  43.34300 43.38100 38.89900
H  52.23700 39.79700 40.42500
H  50.92100 40.52400 39.43900
H  50.69600 39.98500 41.23500
H  55.36000 43.36100 42.16600
H  55.61800 41.96100 43.33000
H  54.52600 43.06000 43.79100
H  53.69500 47.64300 41.96000
H  52.50900 48.28000 44.71000
H  54.46800 45.92300 44.27500
H  54.73100 47.55700 44.72900
H  55.39800 46.80200 43.24000
H  52.01700 50.60100 43.16600
H  53.34000 49.85900 42.27400
H  54.16400 49.88600 44.98500
H  53.52000 51.45100 44.60100
H  54.75700 50.76500 43.55500
H  47.70200 51.45000 42.68100
H  48.01000 50.73500 44.25000
H  46.45900 51.03700 43.64400
H  44.76900 47.41000 40.05200
H  42.58400 43.98000 42.35600
H  41.46200 45.20000 42.48900
H  42.41900 44.81600 43.94000
Mg 9.34600 47.72800 26.25400
C  7.21400 48.13800 29.03600
C  11.85100 49.08400 28.49300
C  11.55700 47.73900 23.70600
C  6.79500 47.07500 24.24500
N  9.50400 48.46800 28.53300
C  8.50500 48.25100 29.45100
C  8.88400 48.54100 30.90100
C  10.43000 48.93100 30.71800
C  10.63800 48.90500 29.15700
C  10.81200 50.29600 31.38400
C  8.67200 47.36300 31.89100
C  9.62200 46.83500 32.96000
H  8.94800 46.31500 34.23500
N  11.43400 48.24500 26.11800
C  12.24100 48.80800 27.13900
C  13.55800 48.88600 26.57200
C  13.45000 48.39200 25.22200
C  12.12000 48.12400 24.99900
C  14.84000 49.40700 27.21900
C  14.62200 48.33600 24.21300
O  14.50800 47.94800 23.09600
C  16.05100 48.67400 24.61900
N  9.20400 47.42300 24.24300
C  10.19700 47.43400 23.39200
C  9.78000 47.03900 21.94400
C  8.27600 46.97200 22.12200
C  8.05300 47.12000 23.67500
C  10.29700 47.95900 20.79200
C  7.67200 45.63400 21.48800
C  7.34600 45.64600 20.00400
N  7.39100 47.60800 26.53300
C  6.40600 47.27500 25.60000
C  5.08300 47.36900 26.20200
C  5.34000 47.71000 27.55200
C  6.73700 47.84700 27.67900
C  3.69100 47.04300 25.51300
C  4.74200 48.07200 28.78000
O  3.57500 48.12900 29.08500
C  5.91900 48.29600 29.77000
C  5.60900 47.23200 30.83900
O  5.98500 46.06000 30.83200
O  5.04500 47.78600 31.99500
C  4.53900 46.63500 32.77800
H  12.69800 49.41000 29.10000
H  12.22300 47.74900 22.84100
H  5.98600 46.88000 23.53800
H  8.34600 49.44600 31.18400
H  11.05500 48.20900 31.24300
H  11.71100 50.18600 31.99100
H  10.02900 50.63500 32.06200
H  10.93100 51.15600 30.72400
H  8.53700 46.49700 31.24400
H  7.71800 47.64400 32.33700
H  10.39900 47.50900 33.32000
H  10.01500 45.91500 32.52800
H  14.47300 49.66900 28.21100
H  15.17800 50.30900 26.70900
H  15.54500 48.62600 27.50300
H  16.14400 48.00600 25.47500
H  16.04400 49.75800 24.72500
H  16.82900 48.34200 23.93100
H  10.20000 46.05800 21.72600
H  7.89800 47.88600 21.66500
H  11.03400 48.68700 21.13000
H  9.57100 48.52300 20.20700
H  10.72100 47.26800 20.06400
H  6.77600 45.24100 21.96900
H  8.38800 44.83300 21.67300
H  7.57000 46.56400 19.46100
H  6.31400 45.31300 19.89200
H  7.99100 44.97400 19.43700
H  3.87600 46.69000 24.49900
H  3.20400 48.01800 25.47000
H  3.26200 46.28200 26.16500
H  5.79000 49.30900 30.15100
H  3.98100 45.97900 32.11000
H  3.88700 46.97200 33.58400
H  5.29000 45.97300 33.21000

