158

Mg 47.50200 34.50900 26.56200
C  45.72100 33.47100 29.37900
C  48.33900 37.34300 28.25200
C  48.89300 35.60800 23.74400
C  46.30400 31.70000 24.87200
N  47.08100 35.20500 28.59100
C  46.47600 34.61700 29.62800
C  46.73200 35.34700 30.91600
C  47.22200 36.76900 30.45800
C  47.57700 36.43300 28.98800
C  46.05700 37.79600 30.51700
C  47.84000 34.62600 31.77200
C  47.52700 34.39300 33.25600
H  46.57000 35.42200 33.86200
N  48.44300 36.14700 26.05600
C  48.75500 37.21500 26.91500
C  49.51800 38.15900 26.21100
C  49.72200 37.68800 24.90800
C  48.99000 36.42700 24.84300
C  50.03900 39.40900 26.90000
C  50.53000 38.30300 23.75300
O  50.67400 37.64600 22.74800
C  51.20600 39.65000 23.88000
N  47.43900 33.85200 24.59500
C  48.24000 34.43300 23.68200
C  48.18100 33.65400 22.32500
C  47.64000 32.24500 22.85800
C  46.96500 32.64100 24.15800
C  47.32000 34.44400 21.21700
C  48.73300 31.18000 23.14300
C  48.28800 29.73100 22.84600
N  46.27700 32.83000 26.96200
C  45.91800 31.75300 26.19900
C  45.09100 30.89300 26.99600
C  44.96800 31.54200 28.20700
C  45.70900 32.71700 28.15500
C  44.52400 29.57400 26.60400
C  44.41400 31.38200 29.51900
O  43.76100 30.43600 29.98100
C  44.75700 32.66500 30.27100
C  45.20300 32.32900 31.63900
O  46.21900 31.74300 31.93600
O  44.18900 32.60900 32.54900
C  44.14400 31.77200 33.72100
H  48.54800 38.23800 28.84200
H  49.29900 35.80000 22.74900
H  45.92500 30.88400 24.25300
H  45.82100 35.40600 31.51100
H  48.05600 37.18200 31.02600
H  45.47200 37.90200 29.60400
H  46.37600 38.78100 30.85800
H  45.37200 37.44700 31.29100
H  48.80800 35.11800 31.67200
H  47.96300 33.60700 31.40500
H  48.52200 34.40400 33.70000
H  47.20200 33.35200 33.28700
H  51.12400 39.36200 27.00400
H  49.61900 39.45500 27.90500
H  49.76400 40.33600 26.39600
H  52.00600 39.56500 24.61500
H  50.49800 40.42400 24.17700
H  51.65400 39.82800 22.90300
H  49.20800 33.59400 21.96400
H  46.82900 31.78500 22.29300
H  48.12600 34.81500 20.58500
H  46.66600 35.24200 21.56900
H  46.65900 33.75900 20.68600
H  48.94400 31.26200 24.20900
H  49.64500 31.46800 22.61900
H  48.51900 29.03700 23.65400
H  48.70700 29.43000 21.88700
H  47.22600 29.75300 22.59900
H  44.34200 29.47700 25.53300
H  43.54600 29.39300 27.05000
H  45.22800 28.82200 26.95900
H  43.80000 33.18200 30.19500
H  43.36700 31.02600 33.55600
H  43.86900 32.37300 34.58700
H  45.09900 31.33900 34.02000
Mg 36.56000 49.23600 25.78500
C  36.42000 47.14500 28.61900
C  35.50100 51.81400 27.73700
C  35.99300 50.99200 23.04700
C  36.91300 46.26100 23.88000
N  35.89100 49.41300 27.90900
C  36.01800 48.45700 28.87200
C  35.86600 49.09800 30.33200
C  35.34700 50.52800 29.96500
C  35.67100 50.65500 28.45600
C  33.83900 50.79600 30.22400
C  37.23300 49.04400 31.09900
C  37.11000 48.72300 32.63900
H  35.67200 48.64100 33.26900
N  35.96100 51.18900 25.45800
C  35.52000 52.04000 26.38400
C  35.00800 53.22000 25.78800
C  35.13500 53.02100 24.38700
C  35.73300 51.72200 24.22000
C  34.39500 54.37000 26.59800
C  34.71500 53.93400 23.27200
O  35.03300 53.64100 22.12900
C  33.92900 55.23900 23.64500
N  36.53200 48.73900 23.80400
C  36.41400 49.67200 22.85000
C  36.58700 49.04400 21.49200
C  36.89200 47.57600 21.76500
C  36.84400 47.54400 23.22800
C  35.36000 49.15600 20.52900
C  38.13600 46.96900 21.11200
C  39.45100 46.84500 21.86500
N  36.83400 47.11400 26.10300
C  36.92400 45.99600 25.24200
C  37.11100 44.79500 26.02300
C  36.96800 45.24900 27.33700
C  36.72300 46.63100 27.34900
C  37.12100 43.42500 25.56800
C  36.80800 44.74400 28.71800
O  36.85400 43.64400 29.20100
C  36.42200 45.98700 29.61800
C  35.11200 45.63300 30.16400
O  34.02600 45.80800 29.66500
O  35.35300 45.07300 31.40300
C  34.21400 44.65400 32.23700
H  35.29700 52.59100 28.47700
H  35.78900 51.51700 22.11200
H  36.92000 45.42200 23.18100
H  35.02200 48.57900 30.78600
H  35.99200 51.29700 30.38900
H  33.49100 49.93400 30.79400
H  33.34400 50.87400 29.25600
H  33.85800 51.69400 30.84200
H  37.71700 50.01700 31.02600
H  37.97300 48.38800 30.64000
H  37.69400 49.37200 33.29100
H  37.60100 47.76700 32.82100
H  34.42600 54.12200 27.65900
H  33.33700 54.49800 26.36900
H  35.00300 55.21600 26.27900
H  33.05500 55.03000 24.26300
H  33.71900 55.74000 22.70000
H  34.66900 55.94700 24.01900
H  37.44900 49.53300 21.03900
H  36.03500 46.92200 21.60500
H  35.67300 49.82100 19.72400
H  34.52300 49.58600 21.07800
H  35.19300 48.15500 20.13200
H  38.26600 47.52300 20.18200
H  37.84400 45.93400 20.93400
H  39.97600 47.68800 21.41700
H  39.98700 45.93200 21.60500
H  39.34900 46.94100 22.94600
H  36.83900 43.27800 24.52500
H  36.49300 42.83400 26.23500
H  38.16800 43.12600 25.62500
H  37.18700 46.02100 30.39400
H  34.58500 44.64400 33.26100
H  33.83400 43.67600 31.94300
H  33.43000 45.39800 32.09100

