158

Mg 48.16200 34.84500 26.71700
C  46.52100 33.28500 29.37400
C  48.71000 37.52100 28.84800
C  49.71400 36.20300 24.17200
C  47.54100 31.94700 24.70900
N  47.87700 35.21300 28.93900
C  47.21700 34.44600 29.80400
C  47.38300 35.07800 31.16400
C  47.62200 36.58500 30.88500
C  48.12200 36.42000 29.49100
C  46.44100 37.52500 31.10400
C  48.62800 34.40600 31.86000
C  48.69000 34.47800 33.42000
H  47.65300 35.30200 34.18000
N  48.90600 36.64900 26.47200
C  49.04500 37.62600 27.45800
C  49.80200 38.75700 26.94700
C  50.25100 38.35800 25.59000
C  49.54300 37.07100 25.31300
C  50.25400 40.02200 27.85000
C  51.25100 39.07300 24.60400
O  51.62000 38.53800 23.56500
C  51.76200 40.39300 25.01000
N  48.47100 34.26500 24.57000
C  49.35100 34.93800 23.86900
C  49.81300 34.10900 22.65900
C  49.09800 32.72400 22.86100
C  48.30200 32.97800 24.09600
C  49.32100 34.78300 21.37000
C  50.09600 31.51000 23.09300
C  50.44900 30.70500 21.77000
N  47.12700 33.08500 26.92500
C  47.04200 31.98700 26.00900
C  46.28700 30.90300 26.74600
C  46.05100 31.47000 27.97800
C  46.64100 32.74200 28.08200
C  45.84500 29.64800 26.16200
C  45.34000 31.17600 29.23400
O  44.66100 30.19200 29.52500
C  45.50400 32.43400 30.11300
C  45.63400 32.13200 31.56800
O  46.64800 31.84300 32.16500
O  44.42800 32.35500 32.11900
C  44.38500 32.31800 33.63200
H  48.83200 38.36900 29.52500
H  50.33800 36.63100 23.38500
H  47.34000 31.04500 24.12600
H  46.52400 34.84900 31.79500
H  48.40300 36.93700 31.55900
H  46.60500 38.22600 31.92200
H  45.54100 36.93900 31.29200
H  46.26400 38.17800 30.24900
H  49.48800 34.94400 31.46200
H  48.71400 33.37100 31.52800
H  49.62500 34.94200 33.73600
H  48.67200 33.51400 33.92800
H  49.86100 40.98700 27.52800
H  51.34200 39.99900 27.91700
H  49.92800 39.92100 28.88500
H  52.36800 40.82400 24.21300
H  52.46000 40.39300 25.84700
H  50.91500 41.07500 25.08500
H  50.90200 34.09100 22.61900
H  48.42200 32.61000 22.01400
H  48.67900 35.66300 21.41500
H  48.92300 34.06200 20.65600
H  50.24800 35.04400 20.86100
H  49.74400 30.76500 23.80600
H  51.05000 31.87400 23.47400
H  49.83700 31.01300 20.92200
H  50.22900 29.65700 21.97200
H  51.51100 30.78300 21.53600
H  45.39400 29.85300 25.19100
H  45.13600 29.26800 26.89700
H  46.70300 28.99200 26.01700
H  44.51400 32.82800 29.88100
H  43.71600 33.10600 33.97900
H  45.35500 32.48600 34.10000
H  44.06700 31.32800 33.96000
Mg 17.06700 51.94500 26.57500
C  19.37000 50.38500 28.86400
C  15.15900 52.56000 29.31900
C  14.96900 53.31700 24.46500
C  19.20900 50.86400 23.93200
N  17.31600 51.57600 28.85200
C  18.33500 51.01600 29.58200
C  18.17500 51.21800 31.15600
C  16.63100 51.63800 31.19400
C  16.30900 51.97300 29.69700
C  15.69100 50.50500 31.67500
C  19.11400 52.33100 31.76900
C  19.44400 52.15300 33.19300
H  18.36500 51.71000 34.17700
N  15.34600 52.80600 26.87500
C  14.63600 52.91400 28.02400
C  13.42600 53.74700 27.83600
C  13.31600 53.90400 26.39100
C  14.53600 53.32800 25.83500
C  12.51400 54.08300 28.93200
C  12.26100 54.64700 25.51800
O  12.29900 54.70700 24.31400
C  11.11500 55.33100 26.16900
N  17.07500 52.03200 24.45200
C  16.09400 52.67500 23.85800
C  16.33200 52.68700 22.29800
C  17.65700 51.95600 22.17500
C  18.06200 51.61100 23.61200
C  15.13400 51.95900 21.51700
C  18.73400 52.80800 21.39500
C  19.23100 54.17800 21.89900
N  18.86500 50.85800 26.35100
C  19.58800 50.54500 25.20600
C  20.67300 49.70200 25.50200
C  20.63300 49.56400 26.94300
C  19.52000 50.35000 27.42100
C  21.52800 48.97700 24.47100
C  21.23000 48.91200 28.09800
O  22.08800 48.06200 28.16700
C  20.63300 49.69300 29.28700
C  20.39900 48.73000 30.37200
O  19.62900 47.83500 30.34900
O  21.15700 49.00100 31.50600
C  20.81400 48.22800 32.63700
H  14.53500 52.76800 30.19100
H  14.50500 53.95000 23.70500
H  19.81100 50.35400 23.17700
H  18.34400 50.25800 31.64400
H  16.40700 52.46700 31.86500
H  14.72400 50.74500 32.11700
H  16.29900 49.75600 32.18400
H  15.30300 49.89900 30.85600
H  18.60000 53.29100 31.71800
H  20.00300 52.37500 31.14000
H  19.90300 53.11600 33.41500
H  20.28900 51.46600 33.14400
H  12.46200 55.11700 29.27200
H  12.69600 53.48100 29.82300
H  11.49200 53.86900 28.62000
H  10.66100 54.64600 26.88500
H  10.36400 55.75100 25.50000
H  11.54100 56.15600 26.74000
H  16.42400 53.69700 21.90000
H  17.50900 51.04400 21.59600
H  15.51300 51.17700 20.86000
H  14.57900 52.65600 20.88900
H  14.32600 51.54400 22.11900
H  18.34100 53.05100 20.40800
H  19.63400 52.19400 21.34400
H  20.29000 54.04300 22.11900
H  18.58900 54.60700 22.66900
H  19.07200 54.83200 21.04200
H  21.31100 48.94900 23.40300
H  21.39600 47.90000 24.57800
H  22.56100 49.29200 24.61300
H  21.33400 50.45100 29.63900
H  20.64500 47.23600 32.21900
H  19.84600 48.41700 33.10100
H  21.58900 48.22100 33.40500

