158

Mg -0.40800 7.56900 26.58700
C  0.39700 9.52500 29.36100
C  -0.48900 4.70600 28.56600
C  -0.80400 5.80300 23.75100
C  0.26000 10.45500 24.54900
N  0.02000 7.21300 28.78300
C  0.13800 8.18500 29.75200
C  0.20600 7.49800 31.17100
C  0.04100 5.93600 30.84200
C  -0.30200 5.93500 29.31600
C  1.23100 5.00400 31.33200
C  -0.75500 8.13400 32.17700
C  -0.15300 8.59100 33.59400
H  -0.98000 8.11800 34.81800
N  -0.73900 5.60000 26.27700
C  -0.73400 4.54900 27.21300
C  -0.95200 3.32200 26.53300
C  -1.25200 3.59000 25.15500
C  -0.97800 5.06700 24.98700
C  -1.03100 1.95900 27.26800
C  -1.56800 2.67600 23.94800
O  -1.72200 3.04800 22.76800
C  -1.72800 1.23800 24.27700
N  -0.09800 7.98000 24.46600
C  -0.55000 7.10300 23.52500
C  -0.47900 7.72100 22.11100
C  -0.33300 9.22500 22.40500
C  0.02300 9.22500 23.90900
C  0.59700 7.06300 21.15800
C  -1.53800 10.02900 22.04200
C  -1.41000 11.47300 21.51700
N  0.33900 9.67500 26.81400
C  0.53100 10.62700 25.89100
C  0.81800 11.84600 26.62900
C  0.95100 11.39700 27.99400
C  0.51800 10.09500 28.03800
C  0.99300 13.21000 26.16300
C  1.23600 11.86600 29.33400
O  1.67600 12.91000 29.84600
C  0.78900 10.67400 30.25100
C  1.98500 10.36200 31.10300
O  3.00400 9.81500 30.71200
O  1.80400 10.83000 32.36500
C  2.96000 10.56800 33.26500
H  -0.68300 3.78600 29.12100
H  -1.04300 5.11900 22.93500
H  0.17700 11.34800 23.92600
H  1.21600 7.58600 31.57400
H  -0.86100 5.57400 31.33500
H  0.93300 4.31200 32.12000
H  2.04900 5.60000 31.73700
H  1.79700 4.43800 30.59300
H  -1.52200 7.39700 32.41600
H  -1.41200 8.92500 31.81400
H  -0.17800 9.68000 33.61900
H  0.86500 8.22200 33.71600
H  -0.72300 1.08800 26.69000
H  -1.86500 1.72000 27.92800
H  -0.19600 1.93000 27.96800
H  -2.51800 1.15800 25.02300
H  -0.79500 0.79800 24.62900
H  -2.01100 0.68900 23.37900
H  -1.43700 7.64200 21.59700
H  0.50500 9.64900 21.85200
H  0.88300 6.05700 21.46400
H  1.50100 7.67400 21.14600
H  0.23400 7.01600 20.13100
H  -2.15500 10.04100 22.94100
H  -2.06700 9.49900 21.25000
H  -1.93700 11.66700 20.58300
H  -0.34200 11.68500 21.48300
H  -1.84200 12.08300 22.31100
H  1.23600 13.94500 26.93000
H  0.12200 13.64000 25.66800
H  1.76300 13.23700 25.39300
H  -0.02600 11.00100 30.89700
H  3.94000 10.73200 32.81600
H  2.78100 9.55500 33.62700
H  2.98900 11.14300 34.19100
Mg 24.51300 0.98200 29.78500
C  26.40500 0.87100 32.72300
C  21.75700 0.88800 31.77200
C  22.69400 0.77400 26.91300
C  27.50400 0.66500 27.88300
N  24.13900 1.09000 32.07400
C  25.03800 0.99800 33.02700
C  24.42000 1.14900 34.35500
C  22.89000 0.86900 34.05900
C  22.90800 1.00100 32.54500
C  22.27400 -0.50200 34.45400
C  24.81400 2.50600 35.16200
C  25.37200 2.40900 36.52700
H  25.00700 3.45100 37.63700
N  22.51000 0.91100 29.42900
C  21.56800 0.81700 30.37600
C  20.28100 0.77200 29.72600
C  20.52000 0.64100 28.29800
C  21.97200 0.76700 28.17300
C  18.98400 0.71100 30.49500
C  19.55500 0.37100 27.23000
O  19.83200 0.31000 26.03900
C  18.06800 0.29700 27.51100
N  25.03900 0.58600 27.76200
C  24.05900 0.74500 26.74500
C  24.68700 0.91100 25.35700
C  26.22300 0.87700 25.54600
C  26.28800 0.76100 27.15400
C  24.11500 -0.18200 24.40300
C  26.86100 2.12900 24.87900
C  26.74000 3.48800 25.63700
N  26.48600 0.70600 30.11700
C  27.55100 0.57100 29.27700
C  28.79000 0.50400 30.09400
C  28.35900 0.63200 31.38200
C  26.95400 0.73700 31.38400
C  30.19100 0.30600 29.57500
C  28.81600 0.78200 32.82300
O  29.93900 0.73300 33.22400
C  27.53200 0.81000 33.75200
C  27.57800 -0.32800 34.66400
O  26.95500 -1.37300 34.54700
O  28.36700 0.07100 35.77900
C  28.32600 -0.84000 36.93400
H  20.90600 1.03000 32.44200
H  22.09000 0.78000 26.00300
H  28.48400 0.70800 27.40200
H  24.72800 0.36200 35.04300
H  22.30700 1.70200 34.45200
H  23.00600 -1.24600 34.76700
H  21.77800 -0.95600 33.59600
H  21.56800 -0.42800 35.28200
H  23.85000 3.01300 35.20000
H  25.40100 3.19700 34.55700
H  26.44600 2.30400 36.37600
H  25.20800 1.43000 36.97800
H  18.99200 0.97900 31.55200
H  18.50800 -0.27000 30.48300
H  18.25000 1.34000 29.99200
H  17.79600 -0.50700 28.19400
H  17.66800 0.00500 26.54000
H  17.76100 1.27800 27.87300
H  24.40800 1.90300 25.00300
H  26.51600 -0.03100 25.01900
H  23.84600 0.45900 23.56300
H  23.23200 -0.64000 24.84900
H  24.81600 -0.97400 24.14200
H  26.20700 2.24900 24.01500
H  27.86000 1.81800 24.57300
H  27.59300 4.05700 25.26800
H  26.87600 3.28900 26.70000
H  25.81500 4.00700 25.38700
H  30.33500 0.46500 28.50600
H  30.45600 -0.72400 29.81000
H  30.80000 1.07400 30.05400
H  27.53800 1.75400 34.29700
H  28.25300 -1.83800 36.50400
H  27.46200 -0.57600 37.54500
H  29.19100 -0.84400 37.59800

