158

Mg 24.65100 -5.83300 45.29400
C  27.08200 -3.76700 44.00700
C  22.33900 -4.69000 43.33800
C  22.72500 -8.56500 46.15000
C  27.21400 -7.23400 47.29500
N  24.77200 -4.49900 43.67200
C  25.82600 -3.62600 43.40900
C  25.37000 -2.46400 42.56700
C  23.77700 -2.64100 42.50300
C  23.60000 -4.01400 43.24500
C  23.00000 -1.37600 43.07800
C  26.04900 -2.62300 41.17800
C  26.18900 -1.46300 40.28000
H  25.65300 -1.66300 38.82500
N  22.73200 -6.46800 44.94300
C  21.94000 -5.82400 44.06100
C  20.64900 -6.47400 43.96200
C  20.74600 -7.62800 44.73300
C  22.13800 -7.62200 45.32400
C  19.59000 -6.08800 43.04300
C  19.65700 -8.68000 44.99100
O  18.57600 -8.57600 44.43600
C  19.79100 -9.87400 45.90700
N  24.92700 -7.60800 46.47100
C  24.01500 -8.64200 46.66800
C  24.54900 -9.79000 47.53300
C  25.91400 -9.24400 48.06100
C  26.03600 -7.94400 47.24700
C  23.56100 -10.40600 48.59800
C  27.16900 -10.15800 48.03100
C  28.15700 -10.04400 49.22100
N  26.70800 -5.49400 45.69400
C  27.54300 -6.10400 46.54700
C  28.90400 -5.58900 46.44900
C  28.70500 -4.61600 45.48600
C  27.36900 -4.62100 45.00800
C  30.19400 -5.77000 47.25400
C  29.33200 -3.48200 44.71500
O  30.49000 -3.02200 44.74700
C  28.28000 -2.92600 43.76000
C  28.22300 -1.45100 44.08400
O  28.18000 -0.96800 45.19500
O  28.35300 -0.73200 42.92300
C  28.35500 0.70600 43.11700
H  21.70500 -3.99600 42.78200
H  22.21200 -9.50700 46.35900
H  28.01600 -7.51100 47.98300
H  25.63300 -1.55800 43.11300
H  23.41000 -2.73700 41.48200
H  23.56600 -0.44600 43.03100
H  22.80500 -1.48500 44.14500
H  22.01300 -1.32700 42.61900
H  25.71600 -3.46900 40.57600
H  27.08600 -2.82700 41.44500
H  27.21800 -1.10400 40.30000
H  25.58100 -0.66600 40.70800
H  19.77500 -5.14400 42.53000
H  18.56100 -6.06500 43.40000
H  19.56500 -6.79400 42.21300
H  20.56200 -10.51000 45.47200
H  18.83100 -10.38000 46.00400
H  20.01500 -9.56100 46.92800
H  24.73500 -10.61900 46.85000
H  25.65600 -9.01600 49.09500
H  23.94900 -10.28800 49.61000
H  23.51500 -11.47200 48.37800
H  22.60100 -9.88800 48.58500
H  27.72500 -9.85700 47.14300
H  26.80900 -11.18400 47.94600
H  29.07000 -9.74400 48.70700
H  28.22800 -10.90200 49.89000
H  27.80700 -9.36700 50.00100
H  30.06600 -6.62700 47.91500
H  30.40600 -4.79600 47.69700
H  30.94300 -5.90000 46.47300
H  28.68800 -3.01400 42.75300
H  28.00500 1.06800 44.08400
H  27.70800 1.09800 42.33200
H  29.38000 1.01400 42.91000
Mg 9.97900 47.62400 25.97000
C  8.23900 47.90500 28.96900
C  12.65500 49.17600 27.56200
C  11.71000 47.58000 23.09500
C  7.06800 46.63600 24.40600
N  10.25400 48.59900 28.00400
C  9.48600 48.45500 29.07400
C  10.12500 48.98400 30.41800
C  11.37600 49.74700 29.82200
C  11.45700 49.12700 28.38400
C  11.11600 51.27900 29.79100
C  10.57700 47.84100 31.40600
C  9.96500 47.87200 32.82200
H  10.19100 46.62000 33.76000
N  11.90900 48.18100 25.44700
C  12.86100 48.76800 26.25700
C  14.12800 48.83600 25.56700
C  13.94900 48.37700 24.23100
C  12.44700 48.01200 24.21700
C  15.28400 49.50900 26.25500
C  14.90900 48.13500 23.14100
O  14.69900 47.58800 22.04400
C  16.27500 48.61100 23.36100
N  9.42300 47.39400 24.05000
C  10.37200 47.28500 22.95300
C  9.69400 46.85200 21.69000
C  8.40700 46.33500 22.22100
C  8.23200 46.87300 23.63800
C  9.53700 47.82700 20.43400
C  8.21900 44.81400 21.96200
C  9.18600 44.08400 22.90600
N  8.00100 47.50700 26.44900
C  6.93700 46.99300 25.78800
C  5.73800 46.98800 26.61700
C  6.28400 47.26400 27.87800
C  7.64500 47.58700 27.77000
C  4.37700 46.62700 26.22400
C  5.90800 47.29700 29.28200
O  4.82000 47.11800 29.77000
C  7.17700 47.67300 30.06500
C  7.45400 46.41500 30.83800
O  8.03800 45.41500 30.41600
O  6.93400 46.43200 32.17500
C  7.11500 45.17800 32.95200
H  13.47200 49.49900 28.21000
H  12.34800 47.69000 22.21500
H  6.29400 46.07400 23.87800
H  9.45600 49.68000 30.92300
H  12.19600 49.54500 30.51100
H  11.89200 51.79800 30.35400
H  10.19000 51.50100 30.32200
H  11.13600 51.55100 28.73600
H  11.65700 47.82800 31.55100
H  10.22100 46.89400 31.00200
H  8.90100 48.07600 32.70100
H  10.31900 48.81900 33.22800
H  15.90900 49.92300 25.46300
H  15.77600 48.96900 27.06400
H  15.10500 50.43600 26.79900
H  16.69500 48.15400 24.25600
H  16.25900 49.69800 23.29000
H  17.02200 48.33500 22.61700
H  10.31400 46.00600 21.39500
H  7.58000 46.71500 21.62200
H  9.95300 48.78300 20.75000
H  8.49400 47.88700 20.12300
H  10.11600 47.41400 19.60800
H  8.36200 44.59400 20.90400
H  7.19300 44.58100 22.24600
H  8.62400 43.73100 23.77000
H  10.03700 44.62500 23.31800
H  9.46500 43.19000 22.34800
H  3.97800 47.44900 25.63000
H  3.75700 46.40600 27.09300
H  4.34500 45.79900 25.51700
H  7.00200 48.45200 30.80700
H  7.51400 45.36300 33.95000
H  7.78400 44.47900 32.45100
H  6.18300 44.63400 33.10300

