158

Mg 0.13300 7.49500 26.50800
C  0.86400 9.51800 29.21300
C  -0.28400 4.80900 28.71600
C  -0.15500 5.48700 23.86300
C  0.57000 10.21500 24.36800
N  0.25700 7.17600 28.80400
C  0.57400 8.16100 29.69400
C  0.68600 7.55000 31.13100
C  0.23700 6.16100 30.92600
C  0.05200 6.00200 29.43100
C  1.08900 5.03300 31.68200
C  -0.36500 8.18500 32.12600
C  -0.04600 8.20000 33.62900
H  -0.58000 6.95900 34.39700
N  -0.22400 5.41400 26.30200
C  -0.48900 4.52500 27.32800
C  -0.66700 3.20600 26.81400
C  -0.60200 3.36600 25.39500
C  -0.38600 4.83400 25.11400
C  -0.81300 1.98600 27.71600
C  -0.66900 2.44700 24.23700
O  -0.59300 2.74000 23.08000
C  -0.88600 1.01800 24.62500
N  0.08300 7.77800 24.40300
C  0.10400 6.76200 23.57900
C  0.67500 7.25300 22.18800
C  0.41900 8.74500 22.35500
C  0.33100 8.96900 23.80600
C  2.17500 6.91500 21.98100
C  -0.73700 9.33100 21.46400
C  -2.11700 9.68700 22.14100
N  0.67800 9.37700 26.66700
C  0.84900 10.41900 25.72300
C  1.35500 11.62500 26.43600
C  1.38400 11.28100 27.72800
C  0.92700 9.97400 27.86300
C  1.74900 13.02800 25.96500
C  1.75600 11.83100 29.03400
O  2.26600 12.91200 29.34200
C  1.33800 10.70400 30.11500
C  2.41200 10.29000 31.02300
O  3.32200 9.49100 30.78900
O  2.30500 10.96800 32.19100
C  3.44800 10.82300 33.06100
H  -0.44900 4.10500 29.53300
H  -0.13600 4.86900 22.96300
H  0.74700 11.00600 23.63600
H  1.68200 7.63100 31.56600
H  -0.76800 5.98200 31.30700
H  1.58100 4.41900 30.92900
H  0.33200 4.48300 32.24200
H  1.93100 5.35600 32.29500
H  -1.28800 7.60600 32.07700
H  -0.58600 9.20600 31.81500
H  -0.56600 9.06800 34.03500
H  1.04100 8.12600 33.63100
H  0.15400 1.48400 27.74200
H  -1.61200 1.33700 27.35800
H  -1.06600 2.23900 28.74600
H  -1.84900 0.95600 25.13200
H  -0.13800 0.49400 25.22000
H  -1.00900 0.42500 23.71900
H  0.00300 6.82300 21.44500
H  1.35700 9.23800 22.09900
H  2.36400 6.02500 22.58100
H  2.98200 7.62100 22.17700
H  2.27500 6.39300 21.02900
H  -0.85700 8.69600 20.58600
H  -0.52700 10.36200 21.17900
H  -2.78300 8.97300 21.65600
H  -2.35300 10.68900 21.78300
H  -2.20600 9.63300 23.22600
H  0.90300 13.69700 26.12200
H  2.10500 13.01300 24.93500
H  2.52400 13.33100 26.66900
H  0.45800 10.90300 30.72700
H  3.41500 11.65100 33.76800
H  4.44700 10.66800 32.65500
H  3.13300 10.03500 33.74600
Mg 40.29000 9.69000 29.47400
C  42.27400 10.63800 32.12800
C  37.96100 8.61400 31.57400
C  38.51500 8.53000 26.79700
C  43.11700 10.37700 27.28400
N  40.25200 9.46800 31.65600
C  41.06900 10.01100 32.57300
C  40.54600 9.90700 34.02900
C  39.23900 9.05300 33.74100
C  39.11800 9.06400 32.18900
C  39.19400 7.63700 34.42600
C  40.25000 11.33200 34.69800
C  39.52700 11.44300 35.99000
H  40.25600 11.96600 37.27200
N  38.44300 8.80600 29.23500
C  37.57200 8.49400 30.22000
C  36.36100 8.01100 29.65900
C  36.46400 7.96700 28.24200
C  37.82600 8.46000 28.01800
C  35.25900 7.71100 30.67500
C  35.44800 7.47100 27.11400
O  35.63000 7.50200 25.88300
C  34.10700 7.04300 27.64400
N  40.70900 9.59700 27.32000
C  39.86200 8.96300 26.47900
C  40.51000 8.74000 25.03100
C  41.93200 9.36600 25.25900
C  41.93300 9.88600 26.66200
C  40.37700 7.33100 24.44200
C  42.46900 10.42600 24.27000
C  42.10300 11.95800 24.52500
N  42.27100 10.37400 29.60100
C  43.23000 10.70100 28.68700
C  44.40400 11.35900 29.32400
C  43.93300 11.47900 30.63700
C  42.70600 10.82800 30.78400
C  45.66000 11.90500 28.74200
C  44.36400 11.89500 31.93000
O  45.42900 12.45000 32.27600
C  43.27100 11.42000 32.95900
C  43.89200 10.52000 33.93700
O  44.33200 9.37000 33.73500
O  43.90700 11.18700 35.10300
C  44.38800 10.50900 36.30000
H  37.18300 8.35300 32.29500
H  37.89200 8.29300 25.93100
H  44.05000 10.40000 26.71800
H  41.34400 9.38900 34.56200
H  38.38900 9.65600 34.06200
H  39.30700 6.91600 33.61500
H  38.21500 7.55900 34.89900
H  40.04500 7.52500 35.09900
H  39.80000 11.92100 33.90000
H  41.17400 11.90400 34.77200
H  39.29000 10.40600 36.22700
H  38.66900 12.10600 35.88600
H  35.29900 8.50800 31.41800
H  35.50900 6.76200 31.14900
H  34.24500 7.69000 30.27600
H  34.25300 6.35300 28.47500
H  33.46800 6.61300 26.87300
H  33.67400 7.96200 28.03700
H  39.99500 9.42100 24.35300
H  42.55500 8.47300 25.32200
H  41.23800 6.96200 23.88400
H  39.47600 7.23000 23.83700
H  40.20000 6.72600 25.33100
H  42.11200 10.06300 23.30700
H  43.55000 10.33200 24.16900
H  41.27500 12.03400 25.23000
H  41.68800 12.37100 23.60500
H  42.95500 12.59800 24.75100
H  45.84800 11.31000 27.84800
H  46.46700 11.77900 29.46400
H  45.62700 12.97600 28.54100
H  42.80900 12.27500 33.45300
H  43.49300 10.40700 36.91400
H  45.14900 11.11100 36.79600
H  44.76400 9.49100 36.20100

