158

Mg 48.42400 34.26800 26.89400
C  46.73600 32.87400 29.66600
C  48.45100 37.22200 28.74800
C  49.65900 35.65900 24.34200
C  47.62600 31.38500 25.10700
N  47.63200 35.06000 28.95300
C  47.12100 34.20000 29.92900
C  46.95100 34.97000 31.24800
C  47.12000 36.48500 30.79200
C  47.85600 36.23900 29.49700
C  45.75500 37.23100 30.74000
C  48.05000 34.56900 32.26900
C  47.54900 34.38800 33.75000
H  46.53100 35.34400 34.33400
N  49.08700 36.10700 26.63600
C  49.10800 37.16300 27.50700
C  49.96400 38.14300 26.88500
C  50.20900 37.82100 25.54500
C  49.66500 36.47200 25.47300
C  50.33800 39.48300 27.58100
C  50.92300 38.55900 24.39200
O  50.76900 38.32500 23.19100
C  51.64100 39.86600 24.82900
N  48.38400 33.73100 24.92800
C  49.11200 34.44400 24.07400
C  49.40400 33.73900 22.81700
C  48.87600 32.26500 23.03100
C  48.23200 32.43900 24.39500
C  48.93200 34.44800 21.53000
C  49.92900 31.06400 23.10800
C  50.62900 30.63400 21.74700
N  47.45100 32.43100 27.25300
C  47.12100 31.35900 26.40000
C  46.44300 30.33400 27.16000
C  46.25500 30.92400 28.43200
C  46.92300 32.17400 28.41400
C  45.95600 29.02000 26.71900
C  45.81700 30.60000 29.78000
O  45.40900 29.55800 30.31900
C  45.97800 31.90100 30.55900
C  46.45700 31.50700 31.94600
O  47.49700 31.10800 32.30100
O  45.27100 31.48700 32.71600
C  45.35900 31.04700 34.10200
H  48.46900 38.20400 29.22700
H  50.32100 35.97800 23.53500
H  47.53600 30.44300 24.56300
H  46.01600 34.64400 31.70400
H  47.75900 36.93400 31.55300
H  45.40400 37.44300 29.73000
H  45.73900 38.13000 31.35700
H  45.04200 36.59000 31.25800
H  48.73600 35.40200 32.42800
H  48.62200 33.68400 31.98800
H  48.40800 34.38700 34.42200
H  47.22000 33.34900 33.73200
H  49.76000 40.27900 27.11200
H  51.38000 39.60900 27.28900
H  50.09700 39.36000 28.63700
H  50.92400 40.65900 25.04200
H  52.18500 40.16900 23.93400
H  52.41500 39.70200 25.57900
H  50.48200 33.59400 22.74500
H  48.08300 31.90200 22.37700
H  47.95000 33.99700 21.38500
H  49.64600 34.38900 20.70900
H  48.71600 35.50300 21.69600
H  49.41900 30.13900 23.37800
H  50.67000 31.36100 23.84900
H  50.77200 29.56400 21.59300
H  51.60500 31.11500 21.80600
H  50.09900 31.00400 20.86900
H  46.28000 28.68500 25.73300
H  44.87000 29.03300 26.81700
H  46.38000 28.39800 27.50700
H  44.97200 32.31700 30.61300
H  46.25600 30.46000 34.30100
H  44.51700 30.38400 34.30100
H  45.24000 31.80600 34.87500
Mg 29.43400 57.71800 40.93700
C  26.83300 55.76100 39.53800
C  31.65100 55.80400 39.24700
C  31.86500 60.20500 41.38600
C  27.03000 60.05900 42.03600
N  29.22300 56.07500 39.57100
C  28.14700 55.37700 39.18200
C  28.49800 54.16700 38.26100
C  30.02400 54.06200 38.55600
C  30.33800 55.34600 39.12500
C  30.46700 52.89300 39.46200
C  28.10400 54.51200 36.78000
C  27.22400 53.48900 35.97000
H  26.33200 54.22200 34.86200
N  31.51000 57.87000 40.49700
C  32.22100 56.95500 39.80400
C  33.64600 57.34600 39.78300
C  33.70700 58.68300 40.44100
C  32.33000 58.94400 40.81200
C  34.68800 56.51300 38.94700
C  34.99600 59.51300 40.61800
O  36.06600 58.96200 40.35200
C  35.16800 60.90300 41.29200
N  29.50500 59.81800 41.70200
C  30.60200 60.60700 41.73000
C  30.29800 62.04400 42.19400
C  28.76200 61.86800 42.67400
C  28.37100 60.54000 42.05300
C  31.33500 62.61300 43.23600
C  27.88000 63.11900 42.26600
C  27.68500 63.94800 43.51400
N  27.36400 57.79300 41.02400
C  26.53200 58.83000 41.42700
C  25.18500 58.36800 41.27300
C  25.21900 57.19900 40.50600
C  26.59600 56.87800 40.32000
C  23.91000 59.06700 41.65400
C  24.44800 56.12300 39.86900
O  23.23800 55.90600 39.91300
C  25.43600 55.22600 39.19500
C  25.12800 53.82200 39.62800
O  25.11800 53.43000 40.80200
O  24.87300 52.98900 38.56800
C  24.57800 51.55300 38.74400
H  32.42600 55.17600 38.80200
H  32.72000 60.87100 41.52000
H  26.27600 60.74300 42.43100
H  28.00000 53.26000 38.60300
H  30.46600 53.94400 37.56700
H  31.09000 53.24800 40.28300
H  31.16400 52.26700 38.90500
H  29.70600 52.25900 39.91700
H  28.98500 54.56600 36.14100
H  27.53900 55.44300 36.73900
H  26.57600 52.94200 36.65400
H  27.90700 52.79000 35.48800
H  34.93900 56.94000 37.97600
H  34.26200 55.53800 38.71200
H  35.51800 56.33200 39.63000
H  34.56000 61.62800 40.75100
H  36.22200 61.15700 41.17500
H  34.91900 60.91800 42.35300
H  30.48900 62.71500 41.35700
H  28.77000 61.70800 43.75200
H  30.72300 63.13100 43.97400
H  31.97800 63.34900 42.75400
H  31.86100 61.82000 43.76900
H  26.86000 62.88100 41.96200
H  28.31100 63.73600 41.47700
H  28.57500 63.99400 44.14200
H  26.80200 63.74400 44.12000
H  27.46200 64.98100 43.24700
H  23.72500 58.98100 42.72500
H  22.98900 58.66700 41.22900
H  23.91500 60.10300 41.31700
H  25.24800 55.08500 38.13100
H  23.78900 51.35800 39.47000
H  25.44900 50.92900 38.94300
H  24.27600 51.11800 37.79100

