158

Mg 8.40600 3.82400 26.77900
C  9.95800 2.27200 29.51000
C  6.41000 5.46900 28.77500
C  6.92300 4.87400 23.91600
C  10.43500 1.62200 24.70300
N  8.10800 3.56400 28.83600
C  8.86500 3.06200 29.86200
C  8.49500 3.50800 31.23700
C  7.23000 4.42100 30.94100
C  7.23800 4.50100 29.38700
C  5.94000 4.05200 31.61300
C  9.64600 4.20100 31.99900
C  9.09500 5.12900 33.15000
H  9.75400 5.11500 34.54100
N  6.93000 5.08400 26.41000
C  6.20900 5.62800 27.36800
C  5.27500 6.55500 26.72500
C  5.55400 6.56200 25.34300
C  6.48800 5.49300 25.16000
C  4.31100 7.46000 27.61100
C  4.96300 7.36400 24.17500
O  5.24600 7.28200 23.01800
C  3.94400 8.36100 24.54600
N  8.63600 3.27100 24.59900
C  7.88200 3.88100 23.59800
C  8.16200 3.39300 22.21600
C  9.36100 2.42300 22.50900
C  9.52700 2.39300 24.01800
C  7.04000 2.76700 21.40400
C  10.77500 2.76600 21.80600
C  11.15700 1.92500 20.68000
N  9.90600 2.28700 26.95600
C  10.69700 1.61700 26.05900
C  11.54200 0.67500 26.77700
C  11.33200 0.93900 28.12800
C  10.36100 1.99400 28.19400
C  12.43500 -0.51100 26.25300
C  11.75400 0.48100 29.47700
O  12.54400 -0.37600 29.83200
C  10.87500 1.41600 30.39600
C  10.17700 0.63900 31.43900
O  9.31200 -0.14400 31.27700
O  10.73700 0.90900 32.65300
C  10.08200 0.41900 33.85300
H  5.93300 6.21300 29.41600
H  6.44300 5.16900 22.98000
H  10.92500 0.97600 23.97200
H  8.23400 2.56100 31.70900
H  7.38200 5.44300 31.28800
H  5.95000 2.96200 31.64400
H  5.00600 4.42900 31.19700
H  5.93400 4.40400 32.64400
H  10.12300 4.75200 31.18800
H  10.29800 3.45000 32.44600
H  8.09100 4.86500 33.48500
H  9.16400 6.17000 32.83500
H  4.46800 8.50200 27.33000
H  4.39600 7.36200 28.69300
H  3.26800 7.20600 27.42000
H  3.19400 7.90000 25.18900
H  3.39700 8.70400 23.66800
H  4.45200 9.22300 24.97900
H  8.57600 4.20100 21.61300
H  9.01700 1.42500 22.23700
H  6.90700 3.44500 20.56100
H  6.10800 2.76500 21.97000
H  7.17500 1.73800 21.07100
H  11.62200 2.71100 22.49000
H  10.85500 3.73700 21.31600
H  11.59500 2.53300 19.88900
H  10.28000 1.48600 20.20400
H  11.76000 1.04500 20.90300
H  12.72100 -0.34100 25.21600
H  12.00400 -1.49500 26.44300
H  13.32500 -0.52100 26.88300
H  11.58300 2.10700 30.85500
H  9.09100 0.83500 34.03100
H  10.68000 0.82400 34.67000
H  10.22800 -0.63800 34.07700
Mg 36.05200 48.27300 25.08300
C  36.26600 46.49400 28.03500
C  34.93500 50.95900 26.81600
C  35.71300 49.86200 22.08000
C  37.47400 45.64000 23.39100
N  35.57900 48.60900 27.12600
C  35.79700 47.75700 28.14200
C  35.45500 48.47800 29.51800
C  34.94000 49.87700 29.06200
C  35.18000 49.84600 27.55300
C  33.37200 50.11800 29.39000
C  36.68700 48.62900 30.41100
C  36.60800 48.20500 31.91500
H  35.28200 48.05000 32.45100
N  35.33100 50.15900 24.51200
C  34.94200 51.16500 25.36300
C  34.76600 52.31200 24.61700
C  34.80400 52.03900 23.18700
C  35.25000 50.63200 23.22800
C  34.66500 53.60900 25.29000
C  34.63300 53.02900 21.98600
O  34.86900 52.75000 20.78800
C  33.97500 54.44300 22.37000
N  36.31500 47.70500 22.92200
C  36.18300 48.54100 21.95100
C  37.01000 48.13800 20.66300
C  37.58300 46.75900 21.09000
C  37.21400 46.76500 22.59000
C  36.04900 48.16300 19.35500
C  39.07400 46.60800 20.97700
C  39.62800 45.28000 20.32000
N  36.73700 46.45700 25.50400
C  37.17700 45.41500 24.70000
C  37.51000 44.24500 25.50400
C  37.12200 44.61500 26.83300
C  36.64300 45.95000 26.78200
C  38.12100 42.99600 25.00900
C  36.96500 44.09600 28.19600
O  37.23900 43.01500 28.61900
C  36.38400 45.33800 29.04700
C  35.18100 44.98900 29.83400
O  34.03100 44.97000 29.42700
O  35.62700 44.67400 31.07900
C  34.76700 43.81300 31.89500
H  34.53800 51.83000 27.34200
H  35.59500 50.29100 21.08200
H  37.88900 44.75800 22.89800
H  34.66000 47.94200 30.03600
H  35.45000 50.72000 29.52800
H  33.21900 51.04100 29.95000
H  32.90000 49.34200 29.99300
H  32.82300 50.21900 28.45400
H  37.13000 49.62100 30.49800
H  37.47900 47.96500 30.06200
H  37.19500 48.75300 32.65200
H  37.06800 47.22000 31.83700
H  35.23300 53.51000 26.21500
H  33.61300 53.88100 25.37600
H  35.24800 54.38400 24.79200
H  33.13600 54.31500 23.05300
H  33.59800 54.85100 21.43200
H  34.70000 55.16300 22.75000
H  37.82600 48.86000 20.67800
H  37.10200 45.97200 20.50900
H  35.02200 48.14200 19.71800
H  36.10400 47.24300 18.77400
H  36.42800 49.07400 18.89100
H  39.50200 46.82100 21.95700
H  39.42600 47.41200 20.33200
H  39.04500 44.43600 20.69000
H  40.64000 45.04400 20.65000
H  39.65200 45.25500 19.23100
H  37.31300 42.32200 24.72300
H  38.66400 42.46600 25.79200
H  38.72700 43.20900 24.12800
H  37.10900 45.58600 29.82200
H  35.34400 43.53700 32.77800
H  34.33500 42.97200 31.35300
H  33.96400 44.48800 32.19000

