158

Mg 42.87300 3.91500 47.18700
C  40.55700 6.35100 47.40200
C  40.48100 1.58900 47.41800
C  45.28200 1.44700 46.84000
C  45.34900 6.24300 46.15900
N  40.79100 3.98500 47.26400
C  40.01700 5.07400 47.47300
C  38.55500 4.65800 47.49100
C  38.65900 3.18500 47.83600
C  40.07800 2.88200 47.52300
C  38.40600 2.83200 49.37200
C  37.74800 5.02100 46.17300
C  38.23700 4.62800 44.85100
H  38.39800 5.76200 43.77400
N  42.85800 1.81100 46.98000
C  41.75700 1.06600 47.11500
C  42.10400 -0.35900 47.10800
C  43.47000 -0.47900 46.85000
C  43.96700 0.97800 46.83700
C  41.04400 -1.47300 47.17300
C  44.29400 -1.83200 46.71000
O  43.81900 -2.92400 46.82700
C  45.71900 -1.72700 46.40300
N  44.98400 3.83700 46.43400
C  45.80000 2.73100 46.68100
C  47.27300 3.07800 46.65800
C  47.25800 4.53900 46.02400
C  45.76200 4.93500 46.18800
C  48.03600 2.98900 48.11200
C  47.82000 4.62800 44.54800
C  49.14400 5.30500 44.32700
N  43.02500 5.89800 46.95500
C  44.07300 6.79900 46.53000
C  43.60900 8.18300 46.59900
C  42.29700 8.04800 47.04600
C  41.96400 6.66000 47.14400
C  44.48500 9.43000 46.35900
C  41.07700 8.83000 47.34500
O  40.84700 10.04500 47.33800
C  39.91800 7.73300 47.56300
C  39.20000 7.91800 48.79000
O  39.53600 7.37600 49.83200
O  38.14600 8.73000 48.63700
C  37.11800 8.94300 49.69000
H  39.68500 0.84800 47.51800
H  46.07200 0.69900 46.93400
H  46.20100 6.81500 45.78600
H  38.04000 5.21100 48.27600
H  37.99500 2.58600 47.21300
H  38.12100 3.77100 49.84700
H  39.34500 2.55400 49.85200
H  37.67600 2.02600 49.44000
H  37.73300 6.11100 46.20500
H  36.76000 4.59800 46.35800
H  37.43700 4.04200 44.40000
H  39.13400 4.01100 44.91200
H  40.30300 -1.64200 46.39200
H  40.49100 -1.31400 48.09900
H  41.48900 -2.45900 47.30900
H  46.28000 -1.55800 47.32200
H  45.85200 -1.03100 45.57500
H  46.11800 -2.63700 45.95700
H  47.72900 2.34300 45.99500
H  47.86600 5.19900 46.64200
H  47.41900 2.35600 48.75000
H  48.26900 3.92900 48.61200
H  49.03100 2.54600 48.05000
H  47.06300 5.05900 43.89400
H  47.97200 3.61300 44.18200
H  49.77300 4.68700 43.68600
H  49.66000 5.44900 45.27600
H  49.01500 6.22900 43.76300
H  45.53800 9.15700 46.42000
H  44.23500 10.28200 46.99100
H  44.33200 9.74000 45.32500
H  39.19200 7.92600 46.77300
H  37.53900 8.93000 50.69500
H  36.42400 8.10300 49.66900
H  36.56100 9.86700 49.53400
Mg 6.95500 57.12700 42.11300
C  6.12000 53.65300 42.30600
C  10.09500 56.11400 41.12700
C  7.60400 60.24900 41.64900
C  3.65400 57.77400 43.30300
N  7.99900 55.09400 41.72000
C  7.38700 53.85900 41.78600
C  8.42800 52.77000 41.41200
C  9.69500 53.47600 41.56900
C  9.30700 54.96700 41.49800
C  10.38500 53.23000 43.00300
C  8.40400 52.18500 39.97300
C  8.14900 53.15700 38.81800
H  7.07000 52.88000 37.67200
N  8.63500 58.10200 41.38600
C  9.83000 57.48000 40.97100
C  10.68100 58.50400 40.45100
C  10.03000 59.76600 40.57000
C  8.69600 59.41900 41.22800
C  12.02900 58.24300 39.77800
C  10.45600 61.11400 40.14200
O  11.60800 61.36700 39.81100
C  9.57300 62.26700 40.21900
N  5.75700 58.77200 42.29300
C  6.33100 59.96900 42.17700
C  5.43400 61.08100 42.68800
C  4.18900 60.29300 43.32600
C  4.57500 58.79300 43.01900
C  6.04800 62.01300 43.83900
C  2.81900 60.57400 42.59100
C  1.70200 60.77100 43.66200
N  5.18100 56.04000 42.57300
C  3.95200 56.38900 43.06800
C  3.12800 55.24800 43.50900
C  3.92400 54.12400 43.14000
C  5.14100 54.62200 42.64300
C  1.84800 55.25200 44.21100
C  3.87200 52.78800 43.07400
O  3.00300 51.97900 43.32300
C  5.35000 52.31800 42.46800
C  5.05700 51.64400 41.15600
O  5.24000 52.14400 40.08500
O  4.73900 50.34200 41.33300
C  4.88700 49.40100 40.19600
H  11.07600 55.77000 40.79300
H  7.70200 61.33600 41.62500
H  2.75000 58.00000 43.87100
H  8.29400 51.95100 42.11800
H  10.45600 53.35900 40.79800
H  11.35400 52.73700 42.93400
H  9.76200 52.61700 43.65500
H  10.47400 54.20800 43.47800
H  7.69100 51.36100 39.93600
H  9.37400 51.78800 39.67500
H  9.07700 53.29800 38.26300
H  7.85700 54.10900 39.26000
H  12.17800 58.70100 38.80000
H  12.15500 57.17100 39.62100
H  12.80500 58.44300 40.51700
H  9.34400 62.64600 41.21500
H  8.62000 62.04900 39.73600
H  10.06100 63.07600 39.67500
H  5.16300 61.58200 41.75800
H  4.18800 60.31900 44.41600
H  5.56500 61.96500 44.81500
H  5.91900 63.02200 43.44800
H  7.10900 61.77300 43.90500
H  2.53800 59.88500 41.79500
H  2.86700 61.50000 42.01800
H  1.97200 60.54300 44.69300
H  0.88900 60.10800 43.36700
H  1.41000 61.82100 43.63700
H  1.58400 56.21300 44.65100
H  1.68600 54.45700 44.93800
H  1.08000 55.08900 43.45400
H  5.82600 51.69700 43.22700
H  4.14700 49.59600 39.42000
H  4.73200 48.35800 40.47200
H  5.89800 49.51100 39.80300

