158

Mg 56.00900 23.00300 44.92000
C  53.70900 25.45200 43.98400
C  53.73100 20.59400 43.93600
C  58.35300 20.60900 45.32800
C  58.24200 25.39900 45.55600
N  53.94800 23.08100 43.99800
C  53.18000 24.20800 43.75200
C  51.80800 23.82600 43.06400
C  51.80700 22.31100 43.53000
C  53.22400 21.92300 43.80800
C  50.85400 22.07600 44.74300
C  51.70800 24.12800 41.55200
C  50.38100 24.58000 41.01900
H  49.77900 23.81600 39.87600
N  56.06800 20.88700 44.56100
C  55.00400 20.09500 44.26900
C  55.26200 18.64500 44.42700
C  56.60400 18.64300 44.81200
C  57.13800 20.03200 44.79300
C  54.25400 17.51000 44.14600
C  57.39800 17.33600 45.33600
O  56.74100 16.30000 45.54000
C  58.89800 17.26800 45.74800
N  58.08000 22.99400 45.07100
C  58.80000 21.90100 45.47800
C  60.06800 22.34000 46.17800
C  60.12100 23.83100 45.76500
C  58.72500 24.11100 45.52900
C  59.93300 22.01000 47.68700
C  60.96100 24.24700 44.53800
C  61.99000 25.32000 44.74700
N  55.97400 24.99700 44.93700
C  56.97000 25.86500 45.30300
C  56.48600 27.19000 45.40600
C  55.19200 27.10600 44.81900
C  54.94700 25.72700 44.51400
C  57.19900 28.38500 45.78400
C  54.03100 27.87900 44.43300
O  53.80500 29.09200 44.55800
C  53.08200 26.78900 43.79700
C  52.83400 27.14000 42.39300
O  53.64900 27.06700 41.44200
O  51.57500 27.73700 42.30500
C  51.32300 28.54000 41.06700
H  53.03500 19.75900 43.83800
H  59.14900 19.91500 45.60400
H  58.87300 26.06800 46.14500
H  51.01000 24.37300 43.56700
H  51.53700 21.66400 42.69600
H  51.32900 21.67300 45.63800
H  50.16000 21.34400 44.33100
H  50.32800 22.95600 45.11300
H  51.78400 23.15900 41.05900
H  52.49700 24.70000 41.06400
H  50.52800 25.60500 40.67800
H  49.61500 24.53000 41.79300
H  53.51800 17.73200 44.91900
H  54.59600 16.48600 44.29200
H  53.79700 17.69200 43.17300
H  59.49000 17.78600 44.99400
H  59.26100 16.25900 45.94500
H  59.03100 17.69000 46.74400
H  60.85800 21.76600 45.69300
H  60.40400 24.34100 46.68600
H  58.96900 21.52200 47.82800
H  59.96700 22.96800 48.20500
H  60.64300 21.26100 48.03500
H  60.32800 24.70900 43.78100
H  61.56500 23.42000 44.16500
H  61.95800 26.20900 44.11800
H  62.99400 24.90500 44.83900
H  61.71300 25.71700 45.72300
H  58.25900 28.14100 45.71800
H  57.01700 28.81200 46.77000
H  56.96200 29.15200 45.04600
H  52.11600 26.66000 44.28600
H  50.36700 28.11400 40.76000
H  52.05400 28.50200 40.26000
H  51.21900 29.59700 41.31300
Mg -10.91900 16.66400 40.50700
C  -7.44200 16.53000 40.52500
C  -10.66700 20.07600 39.91700
C  -14.34300 16.89000 39.92000
C  -10.99700 13.26800 40.09500
N  -9.30900 18.08900 40.38200
C  -7.96700 17.84900 40.39800
C  -7.12900 19.08500 40.16400
C  -8.16300 20.22200 40.54000
C  -9.46900 19.42600 40.22300
C  -8.10000 20.75800 42.08300
C  -6.63300 19.08900 38.70100
C  -5.08700 19.00800 38.43900
H  -4.68200 18.23000 37.21800
N  -12.33500 18.35300 40.03500
C  -12.06500 19.65600 39.86600
C  -13.22400 20.50300 39.68600
C  -14.31900 19.58700 39.91400
C  -13.71900 18.19300 39.95200
C  -13.09200 22.02100 39.35900
C  -15.76600 19.97600 39.88900
O  -15.93700 21.20100 39.84900
C  -16.96300 19.07300 40.01300
N  -12.43900 15.30300 40.12900
C  -13.72800 15.59000 39.91400
C  -14.59600 14.38500 39.76800
C  -13.49900 13.22400 39.67300
C  -12.23700 13.97100 40.01700
C  -15.71400 14.26800 40.84900
C  -13.44000 12.62400 38.23100
C  -12.70300 11.19000 38.10900
N  -9.56000 15.16700 40.56100
C  -9.74000 13.79500 40.33800
C  -8.40100 13.11900 40.23400
C  -7.52400 14.18200 40.28500
C  -8.23200 15.34200 40.48700
C  -8.13300 11.69600 40.00300
C  -6.09600 14.46700 40.24500
O  -5.11300 13.70300 40.04500
C  -6.03100 15.96700 40.55800
C  -5.22600 16.08600 41.81400
O  -5.34800 15.39500 42.83500
O  -4.36700 17.21000 41.66300
C  -3.58300 17.56900 42.88000
H  -10.52100 21.14300 39.73500
H  -15.43500 16.89200 39.93600
H  -11.05200 12.20000 39.87500
H  -6.24800 19.26600 40.78000
H  -8.02900 21.08300 39.88600
H  -8.93700 20.35500 42.65300
H  -7.98300 21.83800 42.16700
H  -7.15000 20.50400 42.55300
H  -6.99700 20.01600 38.25800
H  -7.01200 18.24900 38.11900
H  -4.61300 18.57200 39.31800
H  -4.61900 19.97900 38.27800
H  -13.12700 22.03600 38.27000
H  -12.13000 22.46700 39.61400
H  -13.80700 22.70200 39.82200
H  -17.82300 19.71900 40.18800
H  -16.87200 18.36600 40.83700
H  -16.94600 18.62100 39.02100
H  -15.11900 14.40800 38.81200
H  -13.57400 12.50200 40.48600
H  -15.93000 13.20000 40.79800
H  -16.62600 14.72900 40.46800
H  -15.28800 14.45600 41.83400
H  -12.84100 13.33500 37.66100
H  -14.41600 12.46500 37.77300
H  -12.94600 10.76700 39.08300
H  -11.65700 11.22500 37.80400
H  -13.20300 10.44600 37.48900
H  -8.25100 11.10100 40.90900
H  -7.09200 11.55300 39.71400
H  -8.72000 11.15500 39.26000
H  -5.37900 16.27700 39.74100
H  -2.72100 18.03300 42.39900
H  -3.22800 16.68400 43.40800
H  -3.92400 18.31300 43.59900

