158

Mg 25.83800 -8.15200 47.36100
C  27.86400 -5.51400 46.23400
C  23.59800 -7.54900 44.89300
C  24.05200 -10.86900 48.52000
C  28.58200 -9.20300 49.33800
N  25.92400 -6.88100 45.56700
C  26.72700 -5.76700 45.40000
C  26.19500 -4.84200 44.28200
C  24.70900 -5.37100 44.07400
C  24.69200 -6.69400 44.85400
C  23.59700 -4.35200 44.43900
C  27.13800 -4.93200 43.03800
C  27.90300 -3.60900 42.60200
H  27.66000 -3.28100 41.13000
N  24.04400 -8.93100 46.89900
C  23.29900 -8.55200 45.83000
C  22.19500 -9.37300 45.74100
C  22.25500 -10.35400 46.81000
C  23.49200 -10.09100 47.47300
C  21.19100 -9.38200 44.64600
C  21.16600 -11.44400 47.05300
O  20.15700 -11.70400 46.39900
C  21.21300 -12.28900 48.21700
N  26.26400 -9.87400 48.64700
C  25.37600 -10.79800 49.05500
C  25.94200 -11.67400 50.25600
C  27.45500 -11.25800 50.27200
C  27.47800 -10.06500 49.35400
C  25.29900 -11.31700 51.67800
C  28.43300 -12.38600 49.83700
C  29.75300 -12.57300 50.73600
N  27.82800 -7.58100 47.73000
C  28.76100 -7.97800 48.63700
C  29.93600 -7.09100 48.57900
C  29.61500 -6.10800 47.70500
C  28.32200 -6.42700 47.17900
C  31.25100 -7.32900 49.29500
C  30.06200 -4.80100 47.26200
O  31.03300 -4.15700 47.63300
C  28.85700 -4.33400 46.27600
C  28.20600 -3.05700 46.54100
O  28.35200 -2.02700 45.98000
O  27.37100 -3.23000 47.64300
C  26.76100 -1.97700 48.11300
H  22.86600 -7.35600 44.10600
H  23.44300 -11.65900 48.96400
H  29.41500 -9.58600 49.93200
H  26.22600 -3.78500 44.54700
H  24.54400 -5.63200 43.02900
H  23.06600 -4.12300 43.51500
H  24.08700 -3.50500 44.92000
H  22.94600 -4.68100 45.24900
H  26.60500 -5.47600 42.25800
H  28.00200 -5.50800 43.36800
H  28.95100 -3.63300 42.90100
H  27.53300 -2.77000 43.19100
H  20.31500 -8.78500 44.90300
H  20.94700 -10.39900 44.34200
H  21.71400 -9.04800 43.75000
H  21.97500 -13.06700 48.17100
H  20.31400 -12.90000 48.29800
H  21.22200 -11.73700 49.15600
H  25.73800 -12.71600 50.01100
H  27.79000 -10.93900 51.26000
H  24.50600 -12.04100 51.86600
H  24.95200 -10.28400 51.71100
H  25.98200 -11.56700 52.49000
H  28.87800 -12.13200 48.87600
H  27.91700 -13.34700 49.85600
H  29.55000 -13.28400 51.53700
H  30.08600 -11.56300 50.97300
H  30.54000 -12.96600 50.09300
H  31.67200 -8.21200 48.81500
H  31.06900 -7.51500 50.35400
H  31.94700 -6.50400 49.14500
H  29.35900 -4.11600 45.33300
H  26.20000 -1.45500 47.33700
H  27.53400 -1.23600 48.31600
H  26.14600 -2.26100 48.96600
Mg -5.63200 25.43600 26.31000
C  -4.19600 26.65700 29.18500
C  -7.54900 23.40800 28.04800
C  -6.49000 24.05500 23.36600
C  -3.35900 27.54100 24.41300
N  -5.75000 25.07200 28.38600
C  -5.17800 25.69200 29.43700
C  -5.78300 25.27300 30.79000
C  -6.62600 24.01700 30.36200
C  -6.64700 24.15000 28.88100
C  -6.05100 22.67100 30.85600
C  -6.57700 26.45300 31.38700
C  -6.41200 26.73400 32.86600
H  -5.91400 25.50000 33.73600
N  -6.83700 23.92400 25.78300
C  -7.64700 23.23100 26.65700
C  -8.62100 22.37000 25.91800
C  -8.23000 22.49100 24.55300
C  -7.14500 23.52900 24.49700
C  -9.86800 21.77500 26.61200
C  -8.83400 21.76800 23.31900
O  -8.41100 21.99900 22.17200
C  -9.99700 20.73700 23.48800
N  -4.74800 25.54800 24.19700
C  -5.47700 24.98000 23.17600
C  -5.00700 25.46600 21.80500
C  -4.22300 26.74900 22.16400
C  -4.09100 26.61300 23.64900
C  -4.10000 24.43200 20.99400
C  -5.06100 28.08200 21.79800
C  -4.10400 29.18600 21.30800
N  -4.15600 26.86600 26.65800
C  -3.31200 27.59200 25.85600
C  -2.50300 28.48900 26.61600
C  -2.74700 28.12700 27.95300
C  -3.78500 27.13700 27.85600
C  -1.44100 29.50000 26.00800
C  -2.40600 28.28100 29.34500
O  -1.59900 29.01600 29.90800
C  -3.38900 27.37800 30.15000
C  -2.53900 26.50100 31.03800
O  -1.98200 25.46000 30.67700
O  -2.51600 27.03200 32.30900
C  -1.83000 26.11500 33.29900
H  -8.27000 22.88800 28.68300
H  -7.04200 23.71900 22.48500
H  -2.73200 28.19700 23.80700
H  -4.91700 25.10300 31.42800
H  -7.61700 24.11800 30.80300
H  -5.71100 22.78800 31.88500
H  -5.37200 22.25500 30.11100
H  -6.75100 21.83600 30.88100
H  -7.64100 26.41200 31.15600
H  -6.15600 27.31500 30.87100
H  -7.43200 26.95500 33.18100
H  -5.77100 27.58000 33.11200
H  -9.44200 20.94400 27.17400
H  -10.69300 21.48600 25.96100
H  -10.34500 22.51500 27.25400
H  -9.89600 20.01000 24.29400
H  -10.13000 20.23400 22.53000
H  -10.91200 21.32400 23.55900
H  -5.94600 25.53000 21.25500
H  -3.20300 26.75700 21.78000
H  -4.67000 24.11800 20.12000
H  -3.90300 23.64800 21.72500
H  -3.13100 24.82900 20.69100
H  -5.58500 28.51500 22.65000
H  -5.83400 27.95000 21.04100
H  -4.46400 29.53700 20.34100
H  -3.08200 28.84500 21.14100
H  -4.03400 30.00200 22.02700
H  -1.68900 30.49800 26.36700
H  -1.34200 29.44500 24.92400
H  -0.50600 29.28800 26.52700
H  -4.02000 27.93200 30.84500
H  -0.79700 25.93400 33.00300
H  -2.29800 25.13100 33.25900
H  -1.96700 26.57800 34.27700

