158

Mg 36.66700 49.84300 26.09000
C  36.58900 47.92400 28.89100
C  35.94300 52.61000 27.89000
C  36.59900 51.70500 23.08700
C  37.17800 47.03900 24.08400
N  36.33600 50.22300 28.16400
C  36.37200 49.29800 29.19700
C  36.17300 49.98900 30.61600
C  35.81400 51.42000 30.19200
C  36.16700 51.45700 28.67900
C  34.38700 52.02400 30.49400
C  37.47700 49.79800 31.45500
C  37.38400 49.57400 32.94300
H  36.01300 49.68900 33.79800
N  36.32200 51.87300 25.59700
C  36.01600 52.87400 26.47900
C  35.89400 54.14100 25.78700
C  36.14000 53.84400 24.43200
C  36.31600 52.40100 24.32000
C  35.52800 55.43500 26.49900
C  36.10800 54.82300 23.24300
O  36.41200 54.61200 22.08500
C  35.78400 56.24300 23.52200
N  36.94700 49.43700 23.83800
C  36.86100 50.34200 22.88000
C  37.27100 49.78500 21.50200
C  37.63200 48.33100 21.84900
C  37.31900 48.26900 23.38700
C  36.10500 49.97500 20.41900
C  38.97200 47.81100 21.36700
C  40.23000 48.20200 22.12000
N  36.80200 47.86700 26.40300
C  37.08500 46.79900 25.50000
C  37.11100 45.59000 26.24000
C  37.00900 45.94100 27.57700
C  36.75200 47.33600 27.59200
C  37.31500 44.18400 25.61000
C  37.01900 45.49400 28.94100
O  37.18300 44.40700 29.42100
C  36.73200 46.80600 29.83900
C  35.49800 46.63700 30.69700
O  34.36200 46.86900 30.33500
O  35.81800 46.18900 31.90500
C  34.68600 45.95600 32.80000
H  35.60200 53.48500 28.44600
H  36.56800 52.29100 22.16600
H  37.34900 46.15900 23.46200
H  35.35200 49.51500 31.15400
H  36.47100 52.16200 30.64600
H  33.68300 51.25800 30.81900
H  33.94600 52.34200 29.54900
H  34.45000 52.73300 31.31900
H  38.07100 50.71000 31.39500
H  38.11600 48.99400 31.09100
H  38.15400 50.16900 33.43500
H  37.63400 48.56300 33.26200
H  34.61000 55.83600 26.07000
H  36.36100 56.12000 26.34000
H  35.43300 55.28500 27.57500
H  36.00100 56.86800 22.65600
H  36.37300 56.61100 24.36200
H  34.71300 56.30700 23.71400
H  38.15500 50.28900 21.11100
H  36.84400 47.65700 21.51200
H  35.08800 49.92700 20.80900
H  36.21900 49.32500 19.55200
H  36.30700 51.00800 20.13500
H  39.05800 47.91200 20.28500
H  38.88100 46.72500 21.34600
H  40.00100 48.89400 22.93000
H  40.82700 48.82200 21.45000
H  40.72300 47.27400 22.41000
H  37.93100 43.68500 26.35800
H  37.83000 44.09700 24.65400
H  36.31100 43.77700 25.48800
H  37.53100 47.03500 30.54400
H  34.37300 44.91700 32.69500
H  33.83100 46.63000 32.74900
H  34.96500 45.97000 33.85400
Mg 6.61300 55.42600 42.25900
C  6.36800 52.00200 41.71200
C  9.95200 55.25900 41.03200
C  6.68700 58.79900 41.94000
C  3.16500 55.49900 43.09400
N  7.89100 53.83700 41.33200
C  7.60000 52.51500 41.22600
C  8.77600 51.65900 40.78000
C  9.95000 52.64300 41.07400
C  9.25200 54.02700 41.19700
C  10.77300 52.20200 42.33400
C  8.76000 51.26300 39.21900
C  9.87300 50.28200 38.72600
H  10.40400 50.36700 37.28400
N  8.03500 56.89500 41.43800
C  9.36300 56.58200 41.12400
C  9.96100 57.73700 40.60200
C  9.13600 58.86600 40.83700
C  7.87700 58.21700 41.51300
C  11.35100 57.90600 39.78700
C  9.39900 60.35200 40.60300
O  10.52500 60.79300 40.27600
C  8.25900 61.36200 40.68000
N  5.12600 56.89900 42.39500
C  5.43700 58.23700 42.39600
C  4.27200 59.10300 42.79800
C  3.26200 58.03100 43.20700
C  3.84200 56.70800 42.81700
C  4.58000 60.16100 43.86600
C  1.89100 58.09600 42.45800
C  0.64800 58.14600 43.33800
N  5.14600 54.00900 42.70700
C  3.80800 54.18500 43.00000
C  3.28900 52.87200 43.35700
C  4.21500 51.96300 42.77500
C  5.27800 52.74100 42.31500
C  2.02100 52.61700 44.17400
C  4.49500 50.52800 42.45100
O  3.79100 49.50800 42.51300
C  6.00500 50.49700 41.80200
C  5.81200 49.85700 40.43500
O  5.24200 50.36100 39.46200
O  6.50900 48.68900 40.37100
C  6.41800 48.05600 39.04000
H  10.97700 55.30900 40.66000
H  6.54800 59.87300 41.79500
H  2.18200 55.51200 43.57000
H  8.86700 50.72100 41.32700
H  10.69000 52.71600 40.27800
H  11.01500 53.09600 42.90900
H  11.63400 51.56700 42.12400
H  10.18000 51.53100 42.95600
H  8.74100 52.18300 38.63500
H  7.82600 50.74300 39.00300
H  9.35000 49.32700 38.67500
H  10.60500 50.18600 39.52700
H  11.23300 58.61600 38.96900
H  11.82900 56.99800 39.42000
H  12.17700 58.38300 40.31600
H  7.96600 61.54500 41.71400
H  7.54900 60.86500 40.01900
H  8.48900 62.29100 40.15700
H  3.90400 59.67400 41.94600
H  3.08200 58.00400 44.28200
H  3.97100 60.01300 44.75800
H  4.60500 61.19100 43.51000
H  5.63900 60.08800 44.11300
H  1.77900 57.23700 41.79600
H  1.83200 58.99900 41.85000
H  0.04900 59.05600 43.31400
H  0.87000 57.97300 44.39100
H  0.03300 57.31200 43.00000
H  1.44100 51.84100 43.67500
H  1.45300 53.52900 44.36000
H  2.25000 52.19100 45.15100
H  6.45000 49.80000 42.51300
H  6.13600 47.04300 39.32700
H  7.39400 48.13900 38.56300
H  5.59600 48.41500 38.42000

