158

Mg 0.96700 -1.60400 44.35300
C  3.91200 -0.28100 43.22500
C  -0.72900 0.93000 42.70500
C  -1.99300 -3.29800 44.74400
C  2.80200 -4.37800 45.43200
N  1.55700 0.01300 43.00800
C  2.81100 0.44600 42.70900
C  2.83500 1.88800 42.16300
C  1.38200 2.32000 42.21000
C  0.66400 1.04800 42.71000
C  1.26000 3.53500 43.16200
C  3.61000 1.95300 40.73000
C  4.78100 2.91100 40.64200
H  5.71400 2.55900 39.56400
N  -1.07600 -1.19800 43.95000
C  -1.51700 -0.12800 43.24000
C  -2.95800 -0.19200 43.17700
C  -3.37200 -1.43800 43.70200
C  -2.14000 -2.06200 44.18300
C  -3.66500 0.84700 42.39200
C  -4.76400 -1.96200 43.71300
O  -5.65000 -1.31600 43.18700
C  -5.07000 -3.19800 44.49400
N  0.43400 -3.41400 45.20300
C  -0.80500 -3.97200 45.14900
C  -0.79200 -5.50400 45.29000
C  0.74500 -5.84700 45.40100
C  1.39400 -4.46300 45.38800
C  -1.65800 -6.06700 46.55600
C  1.33600 -6.80700 44.33600
C  2.58700 -7.65600 44.74600
N  2.93200 -2.24500 44.47000
C  3.57200 -3.26900 45.00300
C  4.99600 -3.18200 44.96800
C  5.18300 -1.96400 44.33100
C  3.86000 -1.47400 43.99100
C  6.02900 -4.22500 45.48500
C  6.18600 -1.09400 43.68700
O  7.41500 -1.18200 43.58700
C  5.35700 0.14600 43.12600
C  5.78000 1.26300 44.03300
O  5.43600 1.43900 45.24500
O  6.81400 2.12300 43.42000
C  7.19400 3.19400 44.27700
H  -1.30000 1.82500 42.44900
H  -2.75300 -4.08200 44.73900
H  3.45000 -5.20500 45.72800
H  3.36800 2.55600 42.84000
H  0.83800 2.60000 41.30700
H  0.21200 3.83000 43.11700
H  1.98000 4.27700 42.81600
H  1.52300 3.29600 44.19200
H  2.95900 2.31400 39.93500
H  3.93500 0.95800 40.42800
H  5.34900 2.81300 41.56700
H  4.42400 3.93200 40.50500
H  -3.83100 1.65200 43.10700
H  -4.59100 0.46200 41.96400
H  -3.07600 1.14800 41.52600
H  -4.72900 -4.00100 43.84100
H  -6.15300 -3.23900 44.60900
H  -4.54500 -3.05000 45.43800
H  -1.20800 -5.88200 44.35600
H  1.00300 -6.12000 46.42400
H  -2.02300 -5.22600 47.14500
H  -0.93300 -6.67100 47.10100
H  -2.50200 -6.71100 46.30900
H  1.64300 -6.18800 43.49300
H  0.47900 -7.42200 44.06100
H  3.40800 -7.39800 44.07700
H  2.32700 -8.68900 44.51400
H  2.92100 -7.44600 45.76200
H  7.02200 -3.86300 45.21800
H  5.91900 -5.21100 45.03300
H  5.87400 -4.22800 46.56300
H  5.75900 0.37700 42.14000
H  6.31200 3.67700 44.69700
H  7.80200 3.94800 43.77600
H  7.78000 2.80600 45.11000
Mg 24.29800 1.16900 29.13000
C  26.42300 1.03900 32.09800
C  21.68100 1.59300 31.01000
C  22.53800 0.97800 26.38700
C  27.28300 0.60800 27.23400
N  24.12000 1.16900 31.37300
C  25.05500 1.20200 32.39100
C  24.43800 1.56300 33.74200
C  22.90600 1.70500 33.33500
C  22.87000 1.46800 31.76000
C  21.81900 0.74700 33.98800
C  25.05800 2.88600 34.43200
C  25.70500 2.69200 35.82500
H  25.52800 3.67900 36.98800
N  22.35100 1.32800 28.75400
C  21.40300 1.59100 29.69900
C  20.09300 1.59000 29.06300
C  20.32200 1.27700 27.72500
C  21.78000 1.15300 27.54000
C  18.82700 2.00100 29.76100
C  19.29100 1.15200 26.59800
O  19.65600 0.94300 25.45500
C  17.76100 1.18800 26.90200
N  24.88400 0.85200 27.08100
C  23.90800 0.90800 26.11800
C  24.53000 1.11400 24.75100
C  26.07200 0.96200 25.04300
C  26.09700 0.73900 26.53000
C  24.01400 0.02900 23.71100
C  26.87000 2.25800 24.63100
C  26.28100 3.59900 25.02400
N  26.41100 0.95300 29.51100
C  27.44900 0.60800 28.65400
C  28.69300 0.66500 29.41700
C  28.33800 0.83900 30.81300
C  26.92800 0.97200 30.79800
C  30.02500 0.34200 28.91900
C  28.78400 0.88700 32.15300
O  29.92500 0.72500 32.65000
C  27.59400 1.12200 33.08700
C  27.52300 0.12500 34.12500
O  26.92800 -0.94800 33.99000
O  28.24500 0.53200 35.15700
C  28.32500 -0.36700 36.32100
H  20.76900 1.65300 31.60800
H  21.93700 0.86300 25.48200
H  28.16600 0.55700 26.59300
H  24.66600 0.67300 34.33000
H  22.50900 2.70200 33.52800
H  21.07800 1.40200 34.44500
H  22.30000 0.03100 34.65500
H  21.34100 0.24800 33.14500
H  24.31100 3.67300 34.52800
H  25.74000 3.38900 33.74700
H  26.78200 2.71100 35.66200
H  25.35500 1.72800 36.19500
H  18.25900 1.07100 29.79700
H  18.27800 2.72600 29.15900
H  18.89500 2.31700 30.80200
H  17.46500 2.21200 27.12900
H  17.45600 0.62500 27.78500
H  17.17300 0.70600 26.12100
H  24.24500 2.07100 24.31500
H  26.54700 0.17500 24.45700
H  23.13400 -0.41400 24.17900
H  24.68700 -0.81800 23.58500
H  23.79200 0.38700 22.70600
H  27.06100 2.24700 23.55800
H  27.87400 2.22400 25.05500
H  25.35000 3.52900 25.58600
H  26.13200 4.18900 24.12000
H  26.99300 4.20000 25.58900
H  30.31600 0.72500 27.94100
H  30.20100 -0.73300 28.91900
H  30.71600 0.66200 29.69900
H  27.68400 2.08300 33.59400
H  29.37800 -0.30500 36.59300
H  28.23100 -1.40800 36.01100
H  27.64500 -0.20200 37.15700

