158

Mg 8.01600 1.77400 27.90600
C  9.76600 0.73700 30.75100
C  6.23000 3.78500 30.11300
C  6.31700 2.76400 25.32400
C  9.88000 -0.51000 26.04900
N  8.00600 2.12600 30.21300
C  8.88700 1.70600 31.19800
C  8.57300 2.29100 32.54100
C  7.27500 3.03000 32.25200
C  7.12100 2.98300 30.73900
C  5.96400 2.65000 33.12900
C  9.80400 3.24900 32.98600
C  10.67700 2.77900 34.20800
H  10.95300 3.68000 35.38600
N  6.38900 3.05200 27.69700
C  5.89200 3.86800 28.68800
C  4.90700 4.72300 28.19600
C  4.97400 4.58000 26.73500
C  5.96100 3.44800 26.53400
C  3.94500 5.62400 28.99200
C  4.14500 5.18100 25.64200
O  4.03400 4.79400 24.47800
C  3.36800 6.41500 26.03000
N  7.98800 1.15300 25.98700
C  7.28400 1.83000 25.06900
C  7.43500 1.19500 23.71000
C  8.68900 0.18500 23.82300
C  8.89000 0.30400 25.36100
C  6.21200 0.34200 23.14900
C  9.92600 0.78600 23.14100
C  10.17100 0.16500 21.70400
N  9.61800 0.40100 28.25600
C  10.18100 -0.51500 27.43500
C  11.15700 -1.33400 28.14700
C  11.05900 -0.87600 29.40700
C  10.06900 0.18900 29.43700
C  12.10400 -2.30900 27.57300
C  11.53600 -1.06400 30.71900
O  12.38500 -1.86500 31.11100
C  10.85800 0.02300 31.60000
C  10.31400 -0.68800 32.78800
O  9.28100 -1.31200 32.79600
O  11.28200 -0.62600 33.80500
C  10.91100 -1.21000 35.09600
H  5.70000 4.43800 30.81000
H  5.84400 3.04000 24.37900
H  10.32100 -1.26600 25.39600
H  8.36500 1.60300 33.36100
H  7.43500 4.10000 32.38200
H  6.14000 1.69300 33.62000
H  5.05400 2.75700 32.53800
H  5.84400 3.43300 33.87700
H  9.66900 4.32800 33.05900
H  10.53600 3.09200 32.19400
H  11.63600 2.36200 33.90100
H  10.16900 1.90300 34.61100
H  4.31100 6.63200 28.79600
H  3.90600 5.37400 30.05200
H  2.96200 5.45500 28.55200
H  2.36300 6.12100 26.33400
H  3.19100 7.15700 25.25100
H  3.89700 6.92100 26.83900
H  7.66100 1.98900 22.99900
H  8.51500 -0.83800 23.48900
H  5.37900 0.19000 23.83600
H  6.54100 -0.57900 22.66700
H  5.74300 1.03000 22.44500
H  10.87500 0.64300 23.65900
H  9.77200 1.86500 23.14600
H  9.62700 -0.75100 21.47500
H  11.24100 -0.00800 21.58500
H  9.91700 0.96000 21.00200
H  12.25400 -2.21500 26.49800
H  11.68900 -3.30600 27.72200
H  13.08900 -2.24900 28.03400
H  11.52200 0.77600 32.02300
H  10.50800 -0.41700 35.72600
H  11.77300 -1.60700 35.63200
H  10.12100 -1.93200 34.88600
Mg 10.05100 47.88100 26.10400
C  7.92600 48.05100 28.94900
C  12.53200 49.33300 27.81400
C  11.84000 47.82200 23.43400
C  7.09000 47.19800 24.24200
N  10.12500 48.81800 28.04900
C  9.29400 48.53300 29.09800
C  10.01800 48.93500 30.41300
C  11.15000 49.73100 29.93900
C  11.28100 49.29000 28.48800
C  10.98600 51.24100 29.98400
C  10.44400 47.67100 31.23800
C  9.76900 47.49000 32.60600
H  10.17800 46.32100 33.47600
N  11.98600 48.43800 25.70100
C  12.92600 48.89800 26.56100
C  14.26700 48.92400 25.91500
C  14.03600 48.44400 24.59900
C  12.55400 48.23400 24.50300
C  15.60200 49.26100 26.73100
C  15.02500 48.27200 23.45500
O  14.75000 47.90800 22.27200
C  16.52000 48.43100 23.72300
N  9.48500 47.82300 24.03700
C  10.54700 47.66000 23.21100
C  9.99700 47.30700 21.78900
C  8.46000 46.94700 22.06000
C  8.32300 47.30000 23.51600
C  10.16300 48.38900 20.68300
C  8.08300 45.44500 21.69100
C  8.33300 44.26200 22.65300
N  7.96300 47.62800 26.49800
C  6.90400 47.34400 25.64800
C  5.65000 47.28800 26.33100
C  6.06500 47.48400 27.67200
C  7.42000 47.70100 27.65900
C  4.32300 47.00000 25.79600
C  5.49900 47.51500 29.02000
O  4.31600 47.48700 29.29900
C  6.69300 47.71500 29.87500
C  6.94700 46.45800 30.60700
O  7.65700 45.55600 30.26900
O  6.08200 46.56400 31.70100
C  6.23400 45.45400 32.66800
H  13.37200 49.76300 28.36400
H  12.41500 47.74200 22.50900
H  6.18400 46.95100 23.68500
H  9.27700 49.49600 30.98200
H  12.11200 49.59000 30.43400
H  11.76900 51.62300 30.63900
H  10.02600 51.49600 30.43400
H  11.24500 51.76000 29.06100
H  11.52000 47.68500 31.41000
H  10.11100 46.73800 30.78200
H  8.70400 47.56900 32.38800
H  9.99000 48.41200 33.14400
H  16.19300 48.35200 26.61800
H  15.35900 49.50200 27.76600
H  15.99400 50.16400 26.26200
H  16.81100 47.81700 24.57500
H  16.82200 49.47800 23.67700
H  16.99400 48.01600 22.83400
H  10.57300 46.43500 21.48100
H  7.83500 47.63100 21.48500
H  9.28300 49.00200 20.48800
H  10.28600 47.78700 19.78300
H  11.02700 49.00400 20.93400
H  8.76200 45.20700 20.87300
H  7.08300 45.46800 21.25700
H  7.43400 43.99600 23.20800
H  9.02900 44.52400 23.44900
H  8.70600 43.40800 22.08700
H  3.66700 46.63300 26.58500
H  4.34100 46.37500 24.90300
H  3.91100 47.94600 25.44300
H  6.58100 48.58300 30.52500
H  6.07000 46.01900 33.58500
H  7.26800 45.11100 32.63900
H  5.52900 44.62300 32.63300

