158

Mg -1.88100 17.67900 26.90200
C  -2.36200 15.26400 29.33500
C  -2.26900 20.02500 29.37000
C  -1.74400 20.03700 24.43200
C  -1.99000 15.20000 24.43500
N  -2.21600 17.55300 29.19600
C  -2.24700 16.45900 29.98700
C  -2.44000 16.87100 31.43000
C  -2.60000 18.41000 31.31600
C  -2.34500 18.71100 29.86000
C  -4.08600 18.87600 31.75100
C  -1.30800 16.32900 32.38800
C  -0.91900 17.04300 33.63800
H  -0.75600 16.17000 34.76600
N  -1.88400 19.67600 26.91700
C  -2.07800 20.46100 28.00300
C  -1.91400 21.84500 27.63700
C  -1.75700 21.88500 26.23200
C  -1.79400 20.49000 25.81400
C  -2.04200 23.08500 28.60700
C  -1.55300 23.03600 25.22800
O  -1.50900 22.96100 24.00700
C  -1.47600 24.38100 25.79700
N  -2.04900 17.58500 24.72400
C  -1.79900 18.70800 23.92200
C  -1.50400 18.30400 22.45800
C  -1.73700 16.77100 22.45200
C  -1.89100 16.49200 23.97800
C  -2.31600 19.10300 21.37600
C  -0.46900 15.89200 21.85500
C  0.87500 15.96000 22.59800
N  -2.13400 15.67300 26.81600
C  -2.18000 14.80100 25.79600
C  -2.34900 13.48400 26.23100
C  -2.47800 13.65000 27.61800
C  -2.30100 14.97600 27.92500
C  -2.45500 12.16200 25.43900
C  -2.63800 12.88800 28.93100
O  -2.88100 11.68200 29.12500
C  -2.66300 13.89100 30.04400
C  -1.70300 13.40600 31.09300
O  -0.48800 13.48800 30.98300
O  -2.38700 12.81700 32.16200
C  -1.59600 12.06600 33.09100
H  -2.27500 20.77800 30.16100
H  -1.70300 20.77000 23.62300
H  -1.84600 14.36200 23.74900
H  -3.34500 16.37800 31.78500
H  -1.81400 18.94900 31.84500
H  -4.75000 18.02700 31.91100
H  -4.61200 19.40900 30.96000
H  -4.05900 19.48200 32.65700
H  -0.35000 16.29600 31.86900
H  -1.76300 15.36800 32.62500
H  -1.58000 17.84400 33.96900
H  0.06900 17.46900 33.46200
H  -2.50300 24.02000 28.28700
H  -1.01900 23.38700 28.83200
H  -2.55100 22.78800 29.52400
H  -2.43700 24.66300 26.22600
H  -1.17500 25.02700 24.97100
H  -0.73400 24.54500 26.57800
H  -0.46600 18.63500 22.41800
H  -2.60200 16.62300 21.80600
H  -2.88200 19.83800 21.94900
H  -3.05500 18.47300 20.88200
H  -1.56700 19.60800 20.76700
H  -0.26000 16.14600 20.81600
H  -0.68500 14.82500 21.78600
H  0.65300 16.07800 23.65900
H  1.45300 16.79500 22.20200
H  1.49100 15.07000 22.47100
H  -1.80500 11.48600 25.99500
H  -2.05900 12.15800 24.42400
H  -3.41200 11.64500 25.36200
H  -3.66800 13.96900 30.45800
H  -2.18700 11.23000 33.46400
H  -1.24800 12.82400 33.79200
H  -0.69300 11.66300 32.63200
Mg 35.30000 2.89700 28.85000
C  33.59500 4.22000 31.65800
C  38.07600 2.68000 30.74900
C  37.12700 2.30600 26.07100
C  32.60600 3.75200 26.96700
N  35.70500 3.44100 30.98900
C  34.92700 3.78400 32.00300
C  35.62400 3.74300 33.41700
C  37.08700 3.45500 33.00800
C  36.95800 3.14000 31.43200
C  38.09700 4.59800 33.15100
C  34.93400 2.69900 34.38500
C  34.41900 3.22800 35.77500
H  34.92300 4.61600 36.37000
N  37.32600 2.49800 28.46800
C  38.26700 2.31600 29.40900
C  39.46200 1.87400 28.81600
C  39.27900 1.86600 27.41600
C  37.88800 2.17800 27.26500
C  40.67600 1.42100 29.60600
C  40.24800 1.50100 26.34900
O  39.90900 1.58100 25.13700
C  41.70000 1.15500 26.54700
N  34.82900 2.88500 26.83600
C  35.77800 2.46300 25.91600
C  35.20200 2.55200 24.54100
C  33.67300 2.93500 24.70000
C  33.69500 3.30100 26.21300
C  35.96700 3.28000 23.44400
C  32.68600 1.74200 24.28900
C  31.50200 2.19500 23.32700
N  33.51100 3.72100 29.22200
C  32.45900 3.88300 28.31700
C  31.24700 4.18300 28.98500
C  31.57100 4.32200 30.34900
C  33.01800 4.10300 30.41900
C  29.83300 4.38100 28.35300
C  31.05200 4.60500 31.70000
O  29.93800 4.85700 32.16500
C  32.38300 4.54100 32.58200
C  32.48800 5.81900 33.41400
O  33.09300 6.84300 33.12200
O  31.78900 5.59600 34.59900
C  31.49200 6.81900 35.27400
H  38.94900 2.67700 31.40500
H  37.67300 2.08000 25.15200
H  31.73700 4.00600 26.35600
H  35.47500 4.73200 33.85000
H  37.53000 2.61300 33.54100
H  38.99400 4.16600 33.59300
H  37.66600 5.37000 33.78800
H  38.24900 5.10200 32.19600
H  35.76300 2.00200 34.50400
H  34.15500 2.23800 33.77800
H  34.80000 2.44300 36.42800
H  33.33000 3.23400 35.72400
H  40.51800 1.44600 30.68400
H  41.58600 1.98700 29.40500
H  40.92400 0.40400 29.30300
H  41.73500 0.27900 27.19400
H  42.16300 1.99800 27.06000
H  42.21100 0.86800 25.62800
H  35.16800 1.49600 24.27300
H  33.43300 3.76900 24.04000
H  37.01500 3.52600 23.61000
H  35.55500 4.28500 23.34700
H  35.83200 2.71500 22.52100
H  32.26600 1.35600 25.21800
H  33.10300 0.88000 23.76800
H  30.62800 2.36200 23.95600
H  31.24200 1.50900 22.52100
H  31.61900 3.18200 22.87900
H  29.23200 3.55800 28.74100
H  29.68800 4.39900 27.27300
H  29.35800 5.32200 28.63000
H  32.22800 3.70900 33.26800
H  32.40200 7.40300 35.41000
H  31.04900 6.59700 36.24500
H  30.74900 7.37200 34.70000

