158

Mg -10.07100 40.65500 42.97700
C  -8.64100 37.59300 42.13200
C  -7.44000 42.21700 41.30900
C  -11.75500 43.55700 43.23400
C  -12.78600 38.95600 44.39900
N  -8.33700 39.99800 41.67300
C  -7.97200 38.64600 41.44800
C  -6.66400 38.58700 40.67300
C  -6.19700 40.09500 40.68500
C  -7.44300 40.81500 41.13800
C  -4.98200 40.40900 41.49600
C  -7.00400 38.10500 39.24100
C  -6.39800 36.79900 38.66600
H  -5.23300 37.10600 37.59100
N  -9.61300 42.59100 42.46400
C  -8.47900 43.04200 41.82900
C  -8.53500 44.44400 41.56100
C  -9.81900 44.87600 42.16200
C  -10.48800 43.66800 42.67200
C  -7.53200 45.26300 40.70200
C  -10.29000 46.33900 41.97000
O  -9.50500 47.20700 41.60700
C  -11.75000 46.68900 42.28400
N  -12.05300 41.20200 43.48500
C  -12.52400 42.43400 43.59500
C  -13.88300 42.50200 44.24600
C  -14.18300 41.02000 44.52700
C  -12.92000 40.32300 44.14900
C  -13.86800 43.29700 45.52700
C  -15.33400 40.40700 43.80400
C  -16.60800 40.18200 44.67300
N  -10.60100 38.66100 43.34200
C  -11.66300 38.16500 44.00400
C  -11.54500 36.72000 44.04500
C  -10.32400 36.43300 43.35800
C  -9.82400 37.66100 42.88300
C  -12.40700 35.73700 44.77500
C  -9.37400 35.44800 42.86400
O  -9.32200 34.22800 42.89500
C  -8.27000 36.16600 42.07800
C  -6.92600 35.89100 42.72200
O  -6.46100 36.44600 43.63900
O  -6.27700 34.92600 41.92700
C  -4.86500 34.82700 41.93400
H  -6.46900 42.63700 41.03800
H  -12.39500 44.43900 43.30600
H  -13.61000 38.45500 44.91200
H  -6.02200 37.87600 41.19300
H  -6.06100 40.44800 39.66300
H  -4.40400 41.17700 40.98300
H  -4.30000 39.55900 41.53000
H  -5.29600 40.73000 42.48900
H  -6.72200 38.86500 38.51100
H  -8.08300 37.96000 39.18600
H  -7.20300 36.23300 38.19700
H  -5.96200 36.20600 39.47000
H  -6.77400 44.68600 40.17200
H  -7.04000 45.96500 41.37500
H  -8.14100 45.61700 39.87000
H  -11.84800 46.86000 43.35600
H  -12.36500 45.85200 41.95500
H  -12.01400 47.45400 41.55400
H  -14.54100 43.08900 43.60500
H  -14.18800 40.82000 45.59900
H  -14.76800 42.94000 46.02800
H  -13.97700 44.38100 45.48000
H  -12.94300 43.18800 46.09300
H  -15.07400 39.45700 43.33600
H  -15.54600 40.94800 42.88300
H  -16.59000 40.91000 45.48500
H  -16.51900 39.16500 45.05500
H  -17.54300 40.28800 44.12300
H  -13.39200 35.66300 44.31400
H  -12.54200 35.97100 45.83100
H  -11.91500 34.76500 44.73600
H  -8.27200 35.75000 41.07100
H  -4.57100 34.14300 41.13800
H  -4.43900 34.30500 42.79000
H  -4.35900 35.78600 41.82500
Mg -5.66300 24.99400 27.72100
C  -3.78100 26.86200 30.11200
C  -6.64800 22.84300 30.13300
C  -7.16300 23.01100 25.26300
C  -4.19900 26.83300 25.23200
N  -5.18000 24.87900 29.77300
C  -4.53500 25.78900 30.64300
C  -4.83800 25.54300 32.12900
C  -5.67100 24.15400 32.07100
C  -5.79900 23.85500 30.56700
C  -5.03200 23.03100 32.85100
C  -5.66000 26.69800 32.74100
C  -5.34100 27.00700 34.17100
H  -6.39900 26.71600 35.21100
N  -6.85700 23.17700 27.75500
C  -7.12300 22.46100 28.82800
C  -7.77100 21.24300 28.41200
C  -7.91000 21.19200 27.01300
C  -7.24100 22.45700 26.61900
C  -8.27100 20.26200 29.45600
C  -8.57700 20.12900 26.12100
O  -8.58400 20.17400 24.87000
C  -9.35100 19.02500 26.80000
N  -5.68400 24.89000 25.58100
C  -6.41200 24.04600 24.78800
C  -6.30800 24.33100 23.27500
C  -5.31300 25.61300 23.30000
C  -5.08500 25.85300 24.80100
C  -5.73900 23.14700 22.48800
C  -5.93300 26.92900 22.63200
C  -5.02400 27.73700 21.78700
N  -4.28400 26.55100 27.65900
C  -3.90800 27.22100 26.57400
C  -2.89800 28.21000 27.00700
C  -2.90800 28.20000 28.37200
C  -3.65100 27.09200 28.73500
C  -2.30000 29.21900 26.14000
C  -2.36900 28.74400 29.60200
O  -1.59100 29.68500 29.76600
C  -3.00500 27.96200 30.78800
C  -1.83100 27.50600 31.61900
O  -0.79500 26.97500 31.26200
O  -2.11800 27.90200 32.88500
C  -0.97400 27.72000 33.79800
H  -6.92100 22.12800 30.91200
H  -7.59300 22.32300 24.53300
H  -3.86800 27.55600 24.48400
H  -3.87900 25.36700 32.61700
H  -6.67300 24.21300 32.49700
H  -5.78400 22.37400 33.28800
H  -4.36300 23.33300 33.65600
H  -4.46100 22.41500 32.15700
H  -6.67500 26.30800 32.66500
H  -5.78500 27.60000 32.14300
H  -5.10200 28.06800 34.24800
H  -4.45000 26.44400 34.45100
H  -9.34500 20.09000 29.38500
H  -7.99800 20.54000 30.47400
H  -7.64000 19.38600 29.30800
H  -9.95900 18.51100 26.05500
H  -10.09900 19.38400 27.50800
H  -8.53900 18.52600 27.32900
H  -7.30600 24.51300 22.87600
H  -4.32100 25.33700 22.94200
H  -4.94600 23.46200 21.80900
H  -6.53000 22.63300 21.94100
H  -5.34800 22.39500 23.17200
H  -6.27100 27.58300 23.43600
H  -6.83700 26.67700 22.07900
H  -5.49100 27.88900 20.81400
H  -4.03300 27.28700 21.72400
H  -4.81400 28.72400 22.19800
H  -1.75800 28.62100 25.40800
H  -1.43600 29.67300 26.62600
H  -2.98500 29.96100 25.72800
H  -3.70400 28.59500 31.33400
H  -0.07800 28.13500 33.33600
H  -0.68900 26.67200 33.89100
H  -1.16800 28.13800 34.78600

