158

Mg 46.77000 25.05900 27.23500
C  48.00800 27.31400 29.69500
C  46.15600 22.80800 29.74600
C  46.01300 22.91000 24.85400
C  48.28400 27.20000 24.70500
N  47.22600 25.06300 29.54500
C  47.58000 26.15300 30.29300
C  47.24500 25.90500 31.75400
C  46.93400 24.30700 31.76700
C  46.80300 24.00000 30.24100
C  48.02800 23.35600 32.35900
C  46.18100 26.87400 32.35500
C  45.90700 26.53300 33.84900
H  46.32700 27.59200 34.87200
N  46.15000 23.16200 27.31100
C  45.89600 22.42800 28.47800
C  45.42200 21.11600 28.02900
C  45.38700 21.08600 26.61800
C  45.90400 22.42900 26.17100
C  45.00600 19.99600 28.99500
C  44.89400 20.00300 25.67800
O  45.09700 20.05200 24.46000
C  44.20100 18.74600 26.20300
N  47.18100 25.02500 24.98200
C  46.53500 24.10800 24.31300
C  46.75700 24.25300 22.82900
C  47.35600 25.75700 22.79600
C  47.68300 26.00700 24.23100
C  47.60200 23.10500 22.24400
C  46.47400 26.87200 22.07800
C  46.99200 27.45700 20.84100
N  47.94000 26.76700 27.18400
C  48.44200 27.54100 26.07200
C  49.09500 28.78300 26.56500
C  48.90500 28.70100 28.00300
C  48.16800 27.51600 28.24900
C  49.78100 29.85100 25.76300
C  49.23000 29.39600 29.19500
O  49.84400 30.46000 29.35600
C  48.54200 28.60400 30.27700
C  49.42700 28.49700 31.52900
O  50.48200 28.00900 31.59800
O  48.71600 29.12100 32.55600
C  49.37500 29.06500 33.83400
H  46.00000 22.07000 30.53700
H  45.67700 22.18600 24.10800
H  48.53100 27.87800 23.88500
H  48.12600 26.05300 32.37900
H  45.95100 24.16600 32.21500
H  48.47000 23.95900 33.15200
H  48.78300 23.08500 31.62000
H  47.53900 22.47200 32.76800
H  45.18400 26.65600 31.97100
H  46.38800 27.93200 32.19300
H  46.32500 25.55500 34.08800
H  44.84400 26.38300 34.03600
H  45.54900 20.12900 29.93100
H  45.31600 19.10500 28.44900
H  43.93300 20.09100 29.16100
H  43.48100 19.08800 26.94700
H  45.01600 18.15700 26.62200
H  43.83900 18.12300 25.38400
H  45.83500 24.21800 22.24900
H  48.32900 25.83500 22.31000
H  48.43700 22.91800 22.91900
H  48.14700 23.23800 21.30900
H  47.05000 22.17800 22.09400
H  46.32000 27.75000 22.70600
H  45.44700 26.53100 21.95000
H  46.96500 26.83400 19.94700
H  48.03000 27.69100 21.08000
H  46.54600 28.39800 20.52000
H  49.05800 30.33800 25.10800
H  50.62900 29.41200 25.23700
H  50.05400 30.72700 26.35100
H  47.59200 29.09400 30.48800
H  50.43800 29.29900 33.77200
H  49.29800 28.10400 34.34300
H  49.07000 29.87600 34.49700
Mg 48.60500 35.34200 26.30000
C  46.58200 34.11600 28.81300
C  48.84400 38.33600 27.97700
C  49.96000 36.71700 23.56200
C  47.53000 32.64500 24.31100
N  47.81100 36.16200 28.13600
C  47.16000 35.43700 29.11300
C  46.99600 36.25500 30.43900
C  47.30000 37.70500 29.93100
C  48.05900 37.41300 28.62900
C  46.08600 38.65100 29.80800
C  47.86400 35.67400 31.55200
C  47.32800 35.99800 33.01200
H  46.60600 37.35400 33.16000
N  49.42900 37.21300 25.92100
C  49.53600 38.26500 26.75200
C  50.22700 39.35900 26.05900
C  50.49900 38.92600 24.72100
C  49.93600 37.59200 24.67000
C  50.61300 40.63200 26.85400
C  51.22500 39.69700 23.63400
O  51.48300 39.15600 22.57400
C  51.65700 41.14600 23.77600
N  48.60000 34.83800 24.23700
C  49.40000 35.46300 23.42600
C  49.54700 34.77700 22.01800
C  48.81300 33.41600 22.28800
C  48.22200 33.62000 23.67700
C  48.89000 35.57500 20.83700
C  49.66800 32.03200 22.36800
C  49.17700 30.83700 21.51400
N  47.46700 33.64300 26.56300
C  47.14000 32.62200 25.63200
C  46.22600 31.71200 26.27900
C  45.93600 32.29200 27.56400
C  46.72100 33.44900 27.66700
C  45.60900 30.52400 25.75900
C  45.22000 32.07800 28.82200
O  44.48800 31.20600 29.19300
C  45.71200 33.24200 29.67400
C  46.38300 32.59200 30.80900
O  47.50000 32.02700 30.82900
O  45.62500 32.76900 31.96500
C  46.15100 31.99800 33.12600
H  48.96300 39.28400 28.50700
H  50.59600 36.94600 22.70400
H  47.27600 31.73800 23.75900
H  45.95300 36.14300 30.73400
H  48.01100 38.24000 30.56100
H  45.20500 38.10000 30.13700
H  45.74300 38.91800 28.80800
H  46.17200 39.47100 30.52000
H  48.78500 36.24700 31.44600
H  47.96800 34.59300 31.46500
H  48.19600 35.83100 33.64900
H  46.64700 35.23700 33.39300
H  51.46800 41.24200 26.56000
H  50.90800 40.29900 27.84900
H  49.78000 41.33000 26.93800
H  50.88300 41.78500 24.20200
H  51.72100 41.43300 22.72700
H  52.61500 41.48500 24.17000
H  50.60000 34.60500 21.79200
H  47.95300 33.25300 21.63900
H  48.08400 36.18900 21.24000
H  48.43600 34.85100 20.16100
H  49.56800 36.19800 20.25300
H  49.69500 31.66300 23.39300
H  50.63100 32.30400 21.93400
H  48.15700 31.06100 21.20000
H  49.24800 29.84100 21.95100
H  49.78800 30.86300 20.61200
H  45.43800 30.61100 24.68600
H  44.71200 30.19700 26.28400
H  46.41900 29.81300 25.92800
H  44.92500 33.82400 30.15500
H  46.15400 30.92000 32.96500
H  45.47900 32.16800 33.96600
H  47.18400 32.21700 33.39800

