158

Mg 54.71100 25.23900 45.01100
C  51.80900 26.99100 43.92100
C  53.49500 22.45400 43.44500
C  57.83100 23.86800 45.23500
C  56.08400 28.39800 45.95400
N  52.94800 24.84700 43.70800
C  51.86800 25.73100 43.46100
C  50.83600 24.94600 42.58000
C  51.20900 23.47100 42.77300
C  52.62700 23.57500 43.37300
C  50.24200 22.84700 43.81700
C  50.86000 25.33700 41.06000
C  49.48800 25.49700 40.41400
H  49.35600 24.64800 39.21300
N  55.54800 23.40900 44.47700
C  54.86500 22.33500 43.95800
C  55.69600 21.10400 43.94100
C  56.96700 21.51700 44.33300
C  56.83500 22.99700 44.65300
C  55.27200 19.75700 43.44400
C  58.23500 20.75600 44.31600
O  58.12900 19.61500 43.96600
C  59.66000 21.21800 44.65500
N  56.75100 26.09000 45.28600
C  57.75200 25.24500 45.60100
C  58.95100 25.90400 46.23900
C  58.41600 27.41100 46.37600
C  56.98400 27.31500 45.83500
C  59.37500 25.20700 47.51100
C  59.36100 28.51900 45.81700
C  58.93500 29.18600 44.56700
N  54.13000 27.30300 44.99300
C  54.74100 28.39400 45.49400
C  53.71800 29.40700 45.83300
C  52.56200 28.97700 45.08400
C  52.89900 27.66500 44.65900
C  53.95300 30.60600 46.58000
C  51.20800 29.30700 44.62500
O  50.58900 30.32900 44.86700
C  50.68200 27.99500 43.86900
C  50.31200 28.52300 42.46200
O  51.15700 28.92000 41.60500
O  48.91700 28.64600 42.32500
C  48.51000 29.27700 41.07100
H  53.14400 21.50700 43.03100
H  58.75500 23.34300 45.48800
H  56.45100 29.29800 46.45200
H  49.85500 25.15500 43.00500
H  51.15100 22.83500 41.88900
H  49.88100 21.86300 43.51900
H  49.40400 23.51400 44.01900
H  50.78200 22.76900 44.76100
H  51.33300 24.50400 40.54000
H  51.53100 26.19600 41.04700
H  49.33100 26.53200 40.10800
H  48.77300 25.24700 41.19800
H  54.24600 19.49500 43.70200
H  55.80300 19.07200 44.10500
H  55.43500 19.60900 42.37700
H  59.95200 22.13300 44.13800
H  60.38500 20.45500 44.36900
H  59.65900 21.27700 45.74300
H  59.83000 25.91700 45.59600
H  58.37600 27.51600 47.46000
H  59.43700 25.77300 48.44000
H  60.38700 24.83900 47.34100
H  58.75300 24.31100 47.52200
H  60.35800 28.11800 45.63600
H  59.51500 29.20300 46.65100
H  58.50500 28.34700 44.02000
H  59.82300 29.49300 44.01500
H  58.33600 30.08700 44.69800
H  54.67000 30.39600 47.37400
H  52.92700 30.85100 46.85700
H  54.39800 31.37700 45.95200
H  49.80200 27.65000 44.41200
H  48.97500 30.26300 41.07800
H  47.43300 29.44100 41.10900
H  48.81300 28.75700 40.16200
Mg 48.55600 34.89200 26.49400
C  46.42200 33.60600 29.00300
C  49.02500 37.65100 28.42000
C  50.15600 36.24800 23.88800
C  47.64500 32.13000 24.51700
N  47.71000 35.54600 28.48000
C  47.08400 34.73400 29.39500
C  47.14100 35.36400 30.75800
C  47.85800 36.73300 30.54700
C  48.26200 36.58000 29.06700
C  46.98000 37.98900 30.84100
C  47.97100 34.37200 31.71300
C  47.64600 34.49800 33.19500
H  46.72800 35.58700 33.57800
N  49.50500 36.76500 26.18100
C  49.58500 37.76300 27.13700
C  50.37300 38.82000 26.53700
C  50.49800 38.56500 25.15600
C  50.04600 37.18000 24.96400
C  50.83500 40.03700 27.30800
C  51.07200 39.47100 23.96300
O  51.08700 39.05300 22.82600
C  51.43200 40.88300 24.22300
N  48.79900 34.29700 24.52200
C  49.61600 34.99200 23.63000
C  50.07200 34.21000 22.42400
C  49.22900 32.85200 22.61100
C  48.51700 33.08600 23.99100
C  49.88900 34.97600 21.12900
C  50.17600 31.54200 22.58200
C  50.87500 31.19300 21.24000
N  47.30500 33.21200 26.67500
C  47.02800 32.17000 25.76300
C  46.00900 31.25700 26.29700
C  45.78500 31.78600 27.55800
C  46.53700 32.98900 27.73400
C  45.49200 30.02800 25.57400
C  44.92400 31.62700 28.75300
O  44.08900 30.76200 29.04200
C  45.25100 32.85000 29.73100
C  45.54400 32.30000 31.09700
O  46.38400 31.39600 31.35500
O  44.51000 32.76300 31.98600
C  44.57800 32.38200 33.43200
H  49.31000 38.48200 29.06800
H  50.73800 36.60500 23.03600
H  47.52200 31.20000 23.95800
H  46.11800 35.51900 31.09900
H  48.78500 36.88000 31.10100
H  47.70100 38.74400 31.15400
H  46.28600 37.80200 31.66100
H  46.48900 38.18900 29.88900
H  49.04000 34.57000 31.78700
H  47.88500 33.33800 31.38000
H  48.54900 34.73100 33.76000
H  47.21900 33.59100 33.62300
H  50.54700 40.09500 28.35800
H  50.50700 40.95500 26.82100
H  51.91500 40.16300 27.23000
H  52.02700 40.92100 25.13600
H  50.49300 41.42200 24.35200
H  51.85900 41.35200 23.33700
H  51.11000 34.00000 22.68200
H  48.44300 32.77000 21.86100
H  49.03600 34.57200 20.58200
H  50.87500 34.85200 20.68300
H  49.51400 35.99600 21.21400
H  49.52700 30.73000 22.90800
H  50.93700 31.63600 23.35700
H  50.68100 31.97100 20.50100
H  50.47700 30.26600 20.82700
H  51.95400 31.24000 21.38500
H  44.42000 30.02900 25.77400
H  45.94200 29.17600 26.08300
H  45.66300 29.94000 24.50100
H  44.37300 33.49400 29.67600
H  44.95700 33.24200 33.98500
H  45.13100 31.47100 33.65900
H  43.51700 32.24200 33.63700

