158

Mg 16.85000 -1.04100 27.29100
C  16.04700 1.18400 29.91400
C  18.90500 -2.68200 29.47500
C  18.30100 -2.61800 24.68900
C  15.52800 1.49300 25.01200
N  17.57400 -0.68900 29.43600
C  16.91800 0.15400 30.33700
C  17.39600 -0.10900 31.80500
C  18.44200 -1.24700 31.61600
C  18.35400 -1.59700 30.09500
C  19.91300 -0.86900 31.99700
C  16.16200 -0.42000 32.73600
C  16.25600 0.01600 34.27000
H  17.62100 0.57000 34.77200
N  18.17600 -2.64400 27.10800
C  18.83000 -3.13600 28.13200
C  19.69300 -4.25800 27.61000
C  19.45900 -4.29000 26.25900
C  18.60900 -3.16000 25.92700
C  20.48600 -5.19700 28.42800
C  19.95400 -5.30800 25.22500
O  19.67300 -5.28200 24.00000
C  20.66800 -6.50800 25.69900
N  16.97800 -0.51200 25.22100
C  17.46600 -1.46200 24.30700
C  17.29700 -1.00800 22.89200
C  16.27400 0.13100 23.05000
C  16.26300 0.39600 24.51100
C  18.60400 -0.46200 22.23800
C  14.87100 -0.23900 22.43900
C  13.68400 -0.58300 23.42900
N  15.87100 0.91200 27.44000
C  15.32800 1.77100 26.42800
C  14.58100 2.86800 27.01400
C  14.80900 2.67900 28.43700
C  15.61400 1.50100 28.61900
C  13.87000 3.94300 26.19700
C  14.59300 3.17400 29.72900
O  13.90000 4.18000 30.09200
C  15.38300 2.29100 30.74500
C  16.42200 3.13600 31.38100
O  17.62600 3.09200 31.28200
O  15.79100 3.80400 32.35000
C  16.62000 4.61000 33.29300
H  19.61500 -3.15200 30.15900
H  18.74500 -3.06900 23.79900
H  15.13300 2.35100 24.46500
H  17.85400 0.75500 32.28700
H  18.04100 -2.14600 32.08300
H  19.82800 0.03300 32.60300
H  20.52600 -0.65500 31.12200
H  20.32500 -1.62800 32.66300
H  15.90000 -1.47700 32.75000
H  15.32400 0.11600 32.29100
H  15.98900 -0.79200 34.95100
H  15.41900 0.68800 34.45500
H  20.20800 -6.23500 28.24500
H  20.46200 -4.87200 29.46800
H  21.50600 -4.90800 28.17300
H  21.58100 -6.15400 26.17800
H  21.01100 -7.18700 24.91700
H  20.15900 -7.25000 26.31400
H  16.84000 -1.77400 22.26600
H  16.66700 1.03800 22.59200
H  18.34000 0.28800 21.49200
H  19.05500 -1.32200 21.74400
H  19.37200 -0.07700 22.90900
H  14.96500 -0.87400 21.55700
H  14.42600 0.69700 22.10100
H  14.06600 -1.17900 24.25800
H  12.98200 -1.26000 22.94300
H  13.15900 0.33400 23.69600
H  13.74200 3.60500 25.16900
H  14.42800 4.87800 26.24000
H  12.94900 4.23600 26.70000
H  14.65600 1.93800 31.47600
H  15.84400 5.30900 33.60400
H  17.41500 5.12500 32.75500
H  17.00100 4.04100 34.14200
Mg 35.85200 49.10900 25.60300
C  36.17700 47.58900 28.66700
C  34.24500 51.87400 27.26700
C  35.16200 50.59200 22.58500
C  37.09800 46.39500 24.06700
N  35.22700 49.66200 27.78000
C  35.59000 48.88000 28.86000
C  35.17100 49.59200 30.14900
C  34.53100 50.96300 29.72600
C  34.65000 50.82500 28.14300
C  33.02100 51.08200 30.15700
C  36.45700 49.65500 31.14000
C  36.10200 49.50400 32.63900
H  34.62400 49.53400 33.08900
N  34.85400 51.00300 25.00400
C  34.34200 51.97600 25.84300
C  33.98700 53.15000 25.01700
C  34.25500 52.80300 23.62500
C  34.69900 51.40600 23.70000
C  33.59300 54.53100 25.69300
C  34.17500 53.69700 22.42300
O  34.54800 53.36000 21.29600
C  33.63600 55.12200 22.56200
N  35.99100 48.52700 23.58100
C  35.77600 49.33400 22.55500
C  36.24200 48.70500 21.27300
C  36.92800 47.33300 21.76500
C  36.74800 47.42600 23.20300
C  35.15400 48.47700 20.14000
C  38.39600 47.23000 21.40500
C  39.46800 48.03500 22.09200
N  36.53000 47.32600 26.18300
C  37.04100 46.26100 25.44400
C  37.40400 45.18100 26.27900
C  37.07700 45.65700 27.56300
C  36.51100 46.97400 27.47400
C  37.94900 43.83500 25.86900
C  36.98300 45.26900 28.99200
O  37.27100 44.23200 29.52800
C  36.48000 46.48900 29.71000
C  35.19800 46.12200 30.44200
O  34.13400 45.96100 29.88900
O  35.46900 45.76700 31.73500
C  34.43200 44.96400 32.42300
H  33.64400 52.63100 27.77600
H  34.90400 51.03300 21.62100
H  37.55100 45.53600 23.56900
H  34.41000 48.92100 30.54800
H  35.05500 51.80300 30.18200
H  32.88800 52.03200 30.67400
H  32.61300 50.38100 30.88500
H  32.33000 51.06100 29.31400
H  37.04400 50.56700 31.02800
H  37.15200 48.87300 30.83000
H  36.68100 50.19000 33.25700
H  36.48900 48.49700 32.79500
H  32.52500 54.75100 25.66100
H  34.14400 55.32500 25.18800
H  34.03100 54.54100 26.69100
H  33.55300 55.59800 21.58500
H  34.41200 55.64700 23.11900
H  32.75000 55.06700 23.19500
H  37.03200 49.34300 20.87600
H  36.43600 46.49100 21.28000
H  34.17100 48.55700 20.60500
H  35.34500 47.49900 19.69700
H  35.38100 49.26900 19.42700
H  38.44500 47.56900 20.37100
H  38.57300 46.17200 21.59900
H  39.56900 47.83800 23.15900
H  39.33800 49.09400 21.86500
H  40.44700 47.83400 21.65700
H  38.73300 44.06400 25.14700
H  37.13500 43.21800 25.48700
H  38.48800 43.43300 26.72700
H  37.22000 46.75800 30.46300
H  34.83200 43.96400 32.58900
H  33.48300 44.94400 31.88700
H  34.12800 45.50800 33.31800

