158

Mg -0.03200 7.92900 24.76700
C  0.87700 9.34100 27.83100
C  0.30800 4.83800 26.40300
C  -0.58600 6.32900 21.89900
C  0.16000 10.93200 23.20100
N  0.77700 7.23800 26.90500
C  0.66800 7.93600 28.05200
C  0.83800 7.16100 29.35200
C  0.78000 5.75300 28.78100
C  0.55100 5.95900 27.27200
C  2.11700 4.96800 29.07000
C  -0.25900 7.54600 30.35900
C  -0.39000 6.89700 31.77200
H  -0.18900 7.69100 33.04500
N  -0.06800 5.84400 24.16700
C  0.04400 4.78800 24.99000
C  -0.04000 3.53500 24.20200
C  -0.32300 3.98000 22.84600
C  -0.36300 5.41600 22.95400
C  0.17100 2.12300 24.72000
C  -0.51600 3.19500 21.51000
O  -0.63000 3.66500 20.41100
C  -0.35400 1.72900 21.62200
N  -0.35900 8.58600 22.83700
C  -0.58200 7.73100 21.82900
C  -0.77200 8.44900 20.49300
C  -0.75600 9.96200 21.04100
C  -0.19500 9.85800 22.43700
C  0.21400 7.98500 19.35900
C  -2.13300 10.63200 20.98000
C  -2.43600 11.58000 19.87700
N  0.37200 9.78600 25.31900
C  0.52000 10.95500 24.55300
C  1.14300 11.93900 25.41100
C  1.22400 11.35000 26.69000
C  0.80100 10.05200 26.60400
C  1.38600 13.39200 25.11100
C  1.54500 11.76300 28.10800
O  1.82400 12.81600 28.67100
C  1.30400 10.45500 28.83300
C  2.66600 10.03500 29.39300
O  3.55700 9.58700 28.74000
O  2.56500 9.99900 30.78200
C  3.57900 9.21500 31.40700
H  0.37700 3.86200 26.88700
H  -0.74600 5.94400 20.89000
H  0.26800 11.88400 22.67700
H  1.83600 7.41900 29.70800
H  -0.06400 5.15800 29.13200
H  2.76700 5.09800 28.20500
H  1.92700 3.90300 29.20100
H  2.59000 5.19400 30.02500
H  -1.18000 7.42900 29.78800
H  -0.02000 8.60100 30.49300
H  0.14700 5.94800 31.77600
H  -1.44400 6.62500 31.73400
H  0.15300 2.01700 25.80500
H  1.14100 1.72500 24.42000
H  -0.70500 1.60700 24.32600
H  0.44500 1.53300 22.33800
H  0.01100 1.43700 20.63700
H  -1.22000 1.17100 21.97700
H  -1.77500 8.11200 20.23100
H  -0.06000 10.53400 20.42800
H  0.97100 7.31200 19.76200
H  0.73300 8.88500 19.02800
H  -0.42600 7.66700 18.53600
H  -2.25700 11.23100 21.88200
H  -2.93000 9.89400 21.07100
H  -1.74100 11.31400 19.08000
H  -2.18900 12.59600 20.18600
H  -3.48400 11.45900 19.60000
H  1.67500 13.49700 24.06500
H  2.24800 13.66800 25.71900
H  0.61600 14.11500 25.37900
H  0.65600 10.72200 29.66800
H  3.32700 9.11900 32.46300
H  4.46800 9.84300 31.34300
H  3.83600 8.29600 30.88100
Mg 47.54700 34.83400 27.92100
C  45.47300 33.51300 30.40600
C  48.34300 37.41900 30.08500
C  49.21400 36.27600 25.46800
C  46.50100 32.24700 25.86900
N  47.00000 35.34000 30.00600
C  46.24200 34.66800 30.85400
C  46.57100 35.04400 32.26300
C  47.00700 36.59700 32.04700
C  47.48500 36.43000 30.62500
C  45.84800 37.71900 32.04900
C  47.76900 34.19400 32.84900
C  47.97000 34.33200 34.34100
H  47.13400 35.35700 35.11000
N  48.62100 36.60900 27.78200
C  48.86100 37.53900 28.75700
C  49.71500 38.57300 28.31400
C  50.05800 38.22200 26.92100
C  49.34200 36.98400 26.68100
C  50.12300 39.75800 29.10800
C  50.91100 38.97100 25.93500
O  51.05000 38.55300 24.76300
C  51.62300 40.28800 26.29500
N  47.75700 34.39800 25.89900
C  48.53500 35.11000 25.07600
C  48.48100 34.52000 23.63400
C  47.82300 33.13900 23.84600
C  47.37400 33.21700 25.30400
C  47.77900 35.42200 22.57300
C  48.58400 31.82000 23.52500
C  50.11400 31.80600 23.63500
N  46.24900 33.26000 28.04700
C  45.93600 32.25200 27.09800
C  44.97300 31.28100 27.69300
C  44.73000 31.73700 28.96800
C  45.48500 32.96100 29.08400
C  44.37600 30.00200 26.98000
C  43.97600 31.56400 30.18600
O  43.17300 30.73000 30.54700
C  44.38000 32.70100 31.08100
C  44.71400 32.21500 32.40600
O  45.65800 31.41700 32.59700
O  43.84300 32.73700 33.31500
C  44.03600 32.32100 34.75000
H  48.57600 38.15800 30.85400
H  49.76300 36.64700 24.60100
H  46.20600 31.42500 25.21300
H  45.74000 34.88100 32.95000
H  47.76800 36.94800 32.74400
H  44.92700 37.20700 32.32900
H  45.63800 38.25400 31.12300
H  46.06100 38.43700 32.84000
H  48.68000 34.53800 32.35900
H  47.67300 33.14200 32.57800
H  49.00700 34.56100 34.58700
H  47.71500 33.35800 34.75700
H  50.70100 39.34600 29.93500
H  49.29700 40.25600 29.61400
H  50.79000 40.43900 28.58000
H  52.35300 39.99500 27.04900
H  50.96200 41.09700 26.60500
H  52.13100 40.56700 25.37200
H  49.46400 34.30200 23.21700
H  46.88500 33.02800 23.30300
H  47.65200 36.41600 23.00300
H  46.76500 35.08900 22.35300
H  48.39300 35.63100 21.69700
H  48.55600 31.75300 22.43700
H  48.15000 30.91900 23.95900
H  50.49000 31.86900 22.61400
H  50.43100 30.82400 23.98700
H  50.47800 32.49000 24.40100
H  44.83400 30.05800 25.99200
H  43.29100 29.97900 27.07400
H  44.76900 29.14100 27.52100
H  43.41800 33.21000 31.02400
H  43.16900 31.82800 35.18800
H  44.24800 33.22500 35.32100
H  44.87400 31.62500 34.76800

