158

Mg 24.88900 -4.77500 46.07000
C  26.77900 -2.42300 44.43600
C  22.29900 -4.38300 43.82400
C  23.45100 -7.64400 47.26400
C  27.86600 -5.66700 47.91200
N  24.57800 -3.55800 44.38400
C  25.46300 -2.62400 43.87400
C  24.85400 -1.82400 42.62300
C  23.43100 -2.50600 42.60300
C  23.39200 -3.49900 43.70800
C  22.35500 -1.46800 42.60200
C  25.60400 -2.20200 41.30800
C  25.56100 -0.99700 40.30700
H  25.52800 -1.17100 38.77300
N  23.01800 -5.72900 45.77000
C  22.06900 -5.41300 44.78600
C  20.93200 -6.36300 44.87500
C  21.25900 -7.24000 45.86300
C  22.65200 -6.89700 46.31900
C  19.65100 -6.32000 44.08100
C  20.40400 -8.37300 46.41000
O  19.25700 -8.58300 45.94000
C  20.74900 -9.20800 47.63800
N  25.56900 -6.44600 47.30300
C  24.77600 -7.43900 47.72000
C  25.44800 -8.42000 48.69600
C  26.68000 -7.58800 49.11400
C  26.78500 -6.50200 48.00600
C  24.63400 -9.08000 49.78900
C  28.02000 -8.45500 49.29100
C  29.01500 -7.94700 50.32000
N  26.90500 -4.08900 46.27700
C  27.93900 -4.51700 47.11000
C  29.06600 -3.62000 46.94900
C  28.66100 -2.70400 45.98600
C  27.37200 -3.11500 45.53400
C  30.36600 -3.77600 47.68100
C  29.05400 -1.62000 45.21500
O  30.08100 -0.96800 45.24800
C  27.87500 -1.40300 44.15400
C  27.35100 -0.04600 44.31700
O  26.42600 0.32100 45.05200
O  27.99200 0.75300 43.37800
C  27.63400 2.19500 43.29800
H  21.49200 -4.15800 43.12400
H  23.10400 -8.50600 47.83800
H  28.74400 -5.85600 48.53300
H  24.79300 -0.77000 42.89100
H  23.21200 -3.04000 41.67900
H  21.47700 -1.82000 42.06100
H  22.63200 -0.50400 42.17500
H  21.96300 -1.43200 43.61900
H  25.07400 -2.97300 40.75000
H  26.65600 -2.46400 41.42300
H  26.51300 -0.49200 40.47400
H  24.93600 -0.13400 40.53600
H  19.75400 -5.54700 43.32000
H  18.74200 -6.11200 44.64500
H  19.41400 -7.34900 43.81100
H  19.88400 -9.75300 48.01600
H  20.96500 -8.49300 48.43200
H  21.58200 -9.79200 47.24700
H  25.81000 -9.28800 48.14700
H  26.33800 -7.03000 49.98600
H  25.16500 -9.39700 50.68700
H  24.07100 -9.92200 49.38500
H  23.94800 -8.32400 50.17100
H  28.52200 -8.57700 48.33200
H  27.74200 -9.44700 49.64700
H  29.16300 -8.69900 51.09500
H  28.45300 -7.11200 50.74000
H  29.93600 -7.49800 49.94800
H  30.25700 -3.24100 48.62400
H  31.08500 -3.15100 47.15100
H  30.69000 -4.80800 47.81600
H  28.15500 -1.42700 43.10100
H  26.84000 2.42600 42.58800
H  28.50600 2.83500 43.16400
H  27.30100 2.48600 44.29500
Mg 16.45100 -1.84900 27.85600
C  15.28700 0.50900 30.28000
C  18.46000 -3.22900 30.19300
C  17.76300 -3.58100 25.30700
C  14.26900 -0.18200 25.49500
N  16.97400 -1.31000 30.00700
C  16.20800 -0.45500 30.80500
C  16.52400 -0.63100 32.34100
C  17.52900 -1.85000 32.25900
C  17.58100 -2.26600 30.75500
C  18.93100 -1.52800 32.88600
C  15.39900 -0.98400 33.33000
C  15.46600 -0.46700 34.80900
H  16.85000 -0.02200 35.46500
N  17.88500 -3.33400 27.76800
C  18.64500 -3.72500 28.86700
C  19.52900 -4.80400 28.40300
C  19.28700 -4.89300 26.93700
C  18.30900 -3.88600 26.60300
C  20.42100 -5.53000 29.28100
C  19.99000 -5.77000 25.89500
O  19.83200 -5.61100 24.72400
C  21.18400 -6.68000 26.43500
N  15.96600 -1.95600 25.77300
C  16.66900 -2.70900 24.85300
C  16.43100 -2.33600 23.42600
C  15.14400 -1.55600 23.56600
C  15.15000 -1.12100 25.05000
C  17.47900 -1.44100 22.82800
C  13.76400 -2.31400 23.17100
C  12.88200 -3.06900 24.15800
N  14.83000 -0.37600 27.84500
C  14.14000 0.22300 26.80400
C  13.33300 1.34400 27.37900
C  13.72700 1.38900 28.71800
C  14.68900 0.41600 28.95700
C  12.29600 2.26400 26.61400
C  13.50900 2.13200 29.89800
O  12.89200 3.15200 30.11600
C  14.46700 1.58300 30.98900
C  15.25200 2.73200 31.50800
O  16.13400 3.36900 30.94700
O  14.91500 2.97900 32.80000
C  15.79700 3.87700 33.55500
H  19.09700 -3.79900 30.87200
H  18.14300 -4.16900 24.46900
H  13.53700 0.15200 24.75600
H  17.10600 0.25100 32.60900
H  17.22200 -2.74600 32.79900
H  19.66600 -1.85800 32.15200
H  19.15800 -2.21000 33.70500
H  19.00000 -0.48700 33.20100
H  15.25800 -2.05400 33.48700
H  14.50500 -0.63900 32.81200
H  14.95700 -1.10500 35.53200
H  14.84500 0.42800 34.80100
H  20.51100 -6.59600 29.07100
H  20.28600 -5.43100 30.35800
H  21.39200 -5.07300 29.09000
H  21.84900 -6.01700 26.98900
H  21.70200 -7.08400 25.56500
H  20.88800 -7.54200 27.03300
H  16.26700 -3.25400 22.86100
H  15.33200 -0.60700 23.06400
H  18.37400 -1.98100 22.52000
H  17.86000 -0.88100 23.68200
H  17.19600 -0.69500 22.08600
H  14.09600 -3.02500 22.41400
H  13.18600 -1.56600 22.63000
H  13.03700 -2.78700 25.20000
H  13.09100 -4.12400 23.98100
H  11.82100 -2.92300 23.95700
H  11.42900 2.34000 27.26900
H  12.03000 1.92700 25.61200
H  12.72600 3.25200 26.44900
H  13.80100 1.18100 31.75200
H  15.91600 4.83400 33.04700
H  16.73500 3.35700 33.75100
H  15.31200 4.10500 34.50400

