158

Mg 35.62100 2.84100 30.32100
C  33.10600 3.64500 32.60700
C  37.83200 2.78600 32.91700
C  38.03600 1.84100 28.13200
C  33.29100 2.88800 27.81500
N  35.48700 3.08800 32.46700
C  34.34000 3.30000 33.22600
C  34.57100 3.22600 34.67700
C  36.09000 2.96900 34.81000
C  36.52700 3.02300 33.28500
C  36.80400 4.02900 35.75500
C  33.69200 2.08800 35.32600
C  33.21000 2.46100 36.80100
H  33.91500 3.46100 37.73700
N  37.69900 2.45700 30.47400
C  38.36300 2.47500 31.64800
C  39.72900 2.01400 31.35600
C  39.79800 1.69400 29.95900
C  38.52200 2.01800 29.43200
C  40.78800 1.69600 32.46900
C  40.97200 1.04500 29.15400
O  40.86900 0.88100 27.92600
C  42.19500 0.47000 29.96200
N  35.74300 2.56900 28.30500
C  36.74000 2.08000 27.65400
C  36.46700 1.72700 26.17000
C  34.96000 1.98100 26.06900
C  34.60200 2.48400 27.49000
C  37.27000 2.55700 25.06800
C  34.04400 0.77700 25.61900
C  33.06400 1.10800 24.37200
N  33.68700 3.33300 30.13700
C  32.82100 3.36200 29.05700
C  31.52600 3.91300 29.49200
C  31.58400 4.10200 30.85000
C  32.91500 3.58100 31.18400
C  30.34400 4.17300 28.72200
C  30.92400 4.55200 32.08100
O  29.85700 5.08400 32.39600
C  31.86800 4.18700 33.29600
C  32.06900 5.37900 34.12900
O  32.52900 6.43700 33.70800
O  31.58600 5.14200 35.43200
C  31.78500 6.20100 36.38600
H  38.53000 2.91100 33.74800
H  38.66200 1.44000 27.33300
H  32.58600 2.86800 26.98100
H  34.35100 4.19100 35.13300
H  36.34100 1.96500 35.15000
H  37.44800 4.56100 35.05500
H  37.37900 3.61800 36.58500
H  36.13000 4.82900 36.06100
H  34.36000 1.22700 35.32600
H  32.88400 1.77300 34.66500
H  33.07400 1.54800 37.38100
H  32.19300 2.81500 36.63500
H  40.37800 2.15900 33.36700
H  41.78200 2.10800 32.29300
H  40.89800 0.63000 32.66800
H  41.88200 -0.13800 30.81100
H  42.77700 1.34400 30.25400
H  42.72100 -0.13500 29.22300
H  36.58700 0.65100 26.04300
H  34.67300 2.81400 25.42700
H  36.66300 3.20700 24.43800
H  37.74000 1.79500 24.44700
H  37.99400 3.11400 25.66300
H  33.50600 0.52800 26.53400
H  34.66800 -0.07600 25.35400
H  33.25500 0.31200 23.65200
H  33.25600 2.06300 23.88200
H  32.02800 1.16300 24.70700
H  30.48900 4.71200 27.78600
H  29.83700 4.76100 29.48700
H  29.78300 3.24800 28.59100
H  31.32900 3.39400 33.81300
H  31.06900 6.91600 35.98100
H  32.76500 6.56800 36.69000
H  31.37900 5.74400 37.28900
Mg -4.31300 26.02600 25.83700
C  -3.10700 27.47700 28.82800
C  -6.19500 23.86900 27.82800
C  -5.13800 24.09300 23.09200
C  -2.10900 27.92300 23.99900
N  -4.51800 25.67700 28.08800
C  -3.99500 26.43500 29.03400
C  -4.60700 26.07800 30.39200
C  -5.31700 24.66600 30.12400
C  -5.44900 24.76600 28.56900
C  -4.57900 23.40600 30.56900
C  -5.59800 27.23100 30.94100
C  -5.47500 27.45900 32.53100
H  -4.99500 26.32100 33.40100
N  -5.66700 24.40300 25.48300
C  -6.29300 23.68000 26.46900
C  -7.17700 22.69500 25.78300
C  -6.87600 22.70200 24.39300
C  -5.88700 23.76900 24.23500
C  -8.17300 21.77000 26.59900
C  -7.34100 21.77500 23.32800
O  -6.88000 21.91600 22.17000
C  -8.44700 20.71000 23.49600
N  -3.62400 25.91800 23.89000
C  -4.10000 25.01300 22.91800
C  -3.39100 25.32800 21.53500
C  -2.32700 26.52600 21.90100
C  -2.66700 26.82300 23.32300
C  -2.85400 24.02800 20.77800
C  -2.29300 27.67900 20.88900
C  -3.15200 28.91700 21.18600
N  -2.91900 27.45000 26.22300
C  -2.21200 28.21700 25.38200
C  -1.47800 29.20300 26.15400
C  -1.79100 28.89400 27.51600
C  -2.66900 27.80000 27.51300
C  -0.58800 30.32400 25.67500
C  -1.55300 29.29300 28.87600
O  -1.05600 30.28000 29.37900
C  -2.39500 28.27700 29.75000
C  -1.51300 27.39500 30.45000
O  -0.56500 26.72900 29.97100
O  -1.87700 27.54000 31.77000
C  -0.86800 26.88300 32.61900
H  -6.91000 23.29200 28.41700
H  -5.16500 23.41400 22.23700
H  -1.42400 28.57800 23.45500
H  -3.84800 25.88700 31.15000
H  -6.21800 24.61900 30.73600
H  -4.64700 22.65600 29.78200
H  -5.07000 23.00200 31.45400
H  -3.51400 23.52100 30.77400
H  -6.63200 27.02000 30.66600
H  -5.30700 28.14000 30.41400
H  -6.43000 27.83900 32.89600
H  -4.71200 28.17700 32.83100
H  -7.84700 21.56200 27.61900
H  -8.23500 20.78800 26.13000
H  -9.14000 22.27200 26.62200
H  -8.06200 19.75000 23.83900
H  -8.83000 20.50100 22.49600
H  -9.22900 21.04500 24.17700
H  -4.23600 25.72700 20.97400
H  -1.29900 26.18000 22.00200
H  -1.83800 24.31100 20.50300
H  -3.52600 23.87600 19.93400
H  -2.85900 23.19000 21.47600
H  -2.70000 27.18100 20.00900
H  -1.28700 27.94200 20.56500
H  -2.52000 29.68000 21.64100
H  -3.88900 28.53100 21.89000
H  -3.62100 29.26400 20.26500
H  0.09800 30.59400 26.47800
H  -1.18800 31.21400 25.48400
H  -0.09900 29.96900 24.76800
H  -2.97700 28.94100 30.38900
H  0.08700 27.40300 32.53300
H  -0.76800 25.83200 32.34900
H  -1.18900 26.95200 33.65800

