158

Mg 1.24400 8.82000 25.71700
C  1.70900 10.65400 28.64600
C  1.13200 5.86600 27.49700
C  0.97800 7.09400 22.84600
C  1.52200 11.78100 23.90300
N  1.71900 8.29900 27.89400
C  1.56700 9.20000 28.91800
C  1.36100 8.51300 30.23700
C  1.29500 6.98200 29.83000
C  1.38600 7.00200 28.27900
C  2.30500 6.02100 30.53900
C  0.23800 9.08300 31.14100
C  0.52200 9.10800 32.63700
H  1.65000 8.27700 33.24000
N  1.19200 6.66600 25.22800
C  1.22100 5.63300 26.13500
C  1.06300 4.46000 25.33200
C  1.07100 4.72800 23.94600
C  1.05800 6.15700 23.93000
C  0.78600 3.08600 25.97200
C  1.02400 3.85500 22.72000
O  1.10100 4.28200 21.54000
C  0.75300 2.36300 22.86500
N  1.43300 9.24000 23.70100
C  1.13400 8.40900 22.66000
C  1.06900 9.07100 21.28700
C  1.30300 10.58700 21.64300
C  1.35300 10.56200 23.20000
C  1.97900 8.46200 20.20000
C  0.14600 11.48200 21.12300
C  -1.24300 11.50500 21.84700
N  1.53500 10.81000 26.13400
C  1.57100 11.92800 25.31500
C  1.87200 13.10000 26.11100
C  1.94200 12.63000 27.44600
C  1.73400 11.24700 27.36400
C  2.16300 14.44800 25.57100
C  2.15700 13.03100 28.80800
O  2.35000 14.12600 29.30400
C  1.81400 11.75000 29.61700
C  2.73200 11.60600 30.78200
O  3.82000 11.06400 30.70000
O  2.16000 12.08800 31.94300
C  2.92900 12.01100 33.15200
H  1.00000 4.92900 28.04200
H  0.57000 6.58600 21.97000
H  1.45900 12.69900 23.31500
H  2.28400 8.59100 30.81000
H  0.29100 6.61300 30.04200
H  1.85200 5.31200 31.23200
H  2.96100 6.66100 31.12800
H  2.93300 5.46800 29.84000
H  -0.66000 8.47200 31.05700
H  0.03900 10.07800 30.74200
H  -0.43200 8.86400 33.10400
H  0.64800 10.08400 33.10500
H  0.54000 3.16200 27.03100
H  1.61200 2.37700 25.90500
H  -0.00200 2.49800 25.50100
H  1.37500 1.84900 23.59800
H  0.87900 1.86300 21.90500
H  -0.29100 2.28400 23.17000
H  0.05100 8.90800 20.93100
H  2.35800 10.81400 21.48800
H  2.77100 9.17400 19.96800
H  1.43200 8.30400 19.27100
H  2.39500 7.50100 20.50200
H  0.10900 11.45000 20.03500
H  0.55800 12.48500 21.23800
H  -1.92900 12.01800 21.17300
H  -1.08300 12.20500 22.66700
H  -1.63300 10.57600 22.26300
H  1.25200 14.65000 25.00700
H  3.07600 14.59100 24.99300
H  2.17000 15.19400 26.36700
H  0.88900 12.02600 30.12300
H  2.27300 11.64600 33.94300
H  3.29100 13.02900 33.29300
H  3.73400 11.27800 33.10200
Mg 47.30300 34.57600 26.54800
C  45.89900 33.13100 29.45200
C  47.58300 37.49400 28.14400
C  48.33700 35.71200 23.70300
C  46.57600 31.42800 25.00900
N  46.99400 35.12100 28.65200
C  46.43800 34.43200 29.65100
C  46.26200 35.26500 30.96000
C  46.67200 36.71700 30.45700
C  47.09600 36.47900 29.01100
C  45.49600 37.77200 30.70500
C  47.22900 34.75600 32.05800
C  46.75000 34.64000 33.59900
H  45.76500 35.70000 34.10500
N  47.78500 36.42200 26.02700
C  47.89000 37.47800 26.78100
C  48.50100 38.58100 25.95900
C  48.84600 37.98000 24.71400
C  48.35100 36.68300 24.79400
C  48.74100 40.07100 26.46900
C  49.53100 38.57600 23.53600
O  49.91200 37.93600 22.55000
C  49.89600 40.08400 23.64900
N  47.40100 33.69400 24.61900
C  47.89200 34.40300 23.57000
C  47.97700 33.61900 22.29100
C  47.74900 32.15600 22.78000
C  47.22400 32.40200 24.19200
C  46.90700 34.25400 21.32400
C  48.86000 31.21500 22.60600
C  50.05100 31.57100 23.47300
N  46.45700 32.60000 27.04400
C  46.26800 31.50800 26.32800
C  45.66700 30.44300 27.15200
C  45.35900 31.12100 28.33700
C  45.86200 32.43000 28.22600
C  45.18000 29.05300 26.73600
C  44.55300 31.07000 29.52400
O  43.79600 30.21800 30.01900
C  44.83200 32.37100 30.28100
C  45.03800 32.15600 31.72200
O  45.84000 31.51300 32.24500
O  43.85300 32.57000 32.35900
C  43.74600 32.31100 33.78100
H  47.75000 38.47000 28.60600
H  48.68900 36.10600 22.74700
H  46.33100 30.42600 24.65000
H  45.21600 35.26000 31.26500
H  47.58500 37.03200 30.96300
H  44.59300 37.28000 31.06500
H  45.35600 38.38700 29.81600
H  45.88200 38.41800 31.49400
H  48.18000 35.28900 32.06300
H  47.53900 33.73100 31.85600
H  47.68000 34.78700 34.14900
H  46.45400 33.62700 33.87000
H  48.21200 40.71300 25.76400
H  49.82700 40.16400 26.46100
H  48.31600 40.17300 27.46800
H  50.39500 40.34300 22.71500
H  50.63600 40.11700 24.44900
H  49.04700 40.76100 23.74100
H  48.94300 33.85600 21.84600
H  47.00600 31.66700 22.15000
H  47.36500 34.97900 20.65100
H  45.99100 34.65000 21.76100
H  46.63700 33.44300 20.64700
H  49.08500 31.36700 21.55000
H  48.49000 30.19800 22.73600
H  49.93600 32.56900 23.89500
H  50.93300 31.62700 22.83500
H  50.33100 30.80800 24.20000
H  46.06700 28.54800 26.35300
H  44.37200 29.26900 26.03700
H  44.75500 28.45300 27.54200
H  43.90900 32.94400 30.18400
H  44.24600 31.37900 34.04100
H  42.71300 32.17600 34.09900
H  44.19200 33.08900 34.40100

