158

Mg 1.45000 -1.86200 45.40800
C  4.87300 -0.86000 44.88400
C  0.50000 0.76200 43.45500
C  -1.55600 -3.16300 45.48500
C  2.76300 -4.84800 46.74200
N  2.63700 -0.11900 44.36800
C  3.99300 -0.00200 44.21800
C  4.30000 1.25700 43.36100
C  2.85300 1.92000 43.21800
C  1.93800 0.77600 43.59500
C  2.72900 3.21700 44.07700
C  4.96500 0.81500 41.97400
C  6.45200 1.17200 41.66400
H  6.60100 1.61400 40.21400
N  -0.27500 -1.29100 44.54500
C  -0.49300 -0.13100 43.89000
C  -1.88600 0.01000 43.57000
C  -2.54000 -1.02000 44.28800
C  -1.47200 -1.87800 44.87000
C  -2.36400 1.26100 42.90500
C  -3.99200 -1.17800 44.32600
O  -4.76800 -0.45300 43.67600
C  -4.67800 -2.06400 45.24400
N  0.78700 -3.89200 45.63200
C  -0.56300 -4.08800 45.83000
C  -0.90200 -5.43200 46.52900
C  0.48300 -6.05900 46.71000
C  1.43100 -4.84100 46.29900
C  -1.73300 -5.31000 47.84800
C  0.81200 -7.30000 45.82100
C  1.51600 -8.45200 46.59600
N  3.42400 -2.69300 45.94400
C  3.72300 -3.92000 46.48400
C  5.19800 -3.96700 46.77600
C  5.67200 -2.77800 46.09300
C  4.55000 -2.03400 45.60000
C  6.03300 -5.07500 47.44400
C  6.81300 -2.15100 45.61800
O  8.02400 -2.45600 45.64400
C  6.41200 -0.84100 44.88600
C  6.83600 0.38600 45.67300
O  6.86400 0.52100 46.83100
O  7.22400 1.35300 44.75000
C  7.70500 2.62100 45.23900
H  0.25200 1.64900 42.86700
H  -2.55900 -3.55300 45.67000
H  3.10100 -5.74400 47.26800
H  4.97200 1.88800 43.94200
H  2.67200 2.28700 42.20700
H  3.72700 3.57200 44.33400
H  2.03700 3.18200 44.91900
H  2.21100 3.90500 43.40800
H  4.42700 1.16500 41.09200
H  4.88600 -0.26900 41.90200
H  6.96500 0.22000 41.80000
H  6.97400 1.94500 42.22900
H  -2.56300 1.96100 43.71700
H  -3.28700 1.08600 42.35400
H  -1.61500 1.59200 42.18500
H  -3.99700 -1.99400 46.09300
H  -4.74700 -3.06400 44.81600
H  -5.64400 -1.61600 45.47300
H  -1.46300 -6.01400 45.79800
H  0.56700 -6.26100 47.77800
H  -2.79300 -5.23000 47.60500
H  -1.45200 -4.44800 48.45400
H  -1.70800 -6.23200 48.42900
H  1.47400 -6.90900 45.04800
H  -0.11500 -7.65700 45.37000
H  0.98500 -9.38800 46.41900
H  1.55600 -8.36900 47.68200
H  2.51600 -8.45900 46.16400
H  6.19400 -5.90400 46.75500
H  5.56200 -5.49400 48.33300
H  7.08000 -4.85900 47.65400
H  6.87100 -0.90800 43.89900
H  8.15200 2.61700 46.23300
H  6.80900 3.24200 45.23600
H  8.29800 3.00500 44.40900
Mg 49.54600 46.36000 43.08300
C  46.40600 47.02900 41.57500
C  49.49900 43.30200 41.26200
C  52.75700 46.06400 43.70200
C  49.51900 49.70500 44.26600
N  48.18000 45.37000 41.44700
C  46.91200 45.81200 41.07200
C  46.26900 44.86300 40.07400
C  47.14300 43.54300 40.27000
C  48.38500 44.09800 41.06000
C  46.48700 42.40100 40.99000
C  46.36600 45.47700 38.62800
C  45.22100 44.90300 37.70100
H  45.69300 44.34900 36.32400
N  50.99500 44.87300 42.64600
C  50.70600 43.65800 41.97600
C  51.96600 42.91500 41.97100
C  52.96900 43.64500 42.63300
C  52.27700 44.92500 43.01400
C  52.16200 41.62300 41.31500
C  54.48300 43.27300 42.86400
O  54.95800 42.18700 42.55100
C  55.37000 44.21400 43.55200
N  50.94100 47.76700 43.62300
C  52.15600 47.31500 43.92300
C  53.05700 48.50400 44.49300
C  52.02400 49.65000 44.78000
C  50.76100 49.01900 44.22300
C  53.95800 48.14400 45.73000
C  52.40300 51.08800 44.09300
C  52.11900 52.35400 44.99500
N  48.16900 47.97500 43.19400
C  48.31000 49.23300 43.72800
C  46.95600 49.82400 43.66000
C  46.20300 49.01800 42.87700
C  46.96500 47.90400 42.53100
C  46.48700 51.18200 44.08500
C  44.87200 48.92200 42.25600
O  43.91700 49.70300 42.27300
C  44.96000 47.58300 41.32700
C  43.96400 46.72300 41.92600
O  44.17600 45.93200 42.86400
O  42.77700 46.96200 41.38000
C  41.67900 46.04000 41.73200
H  49.57200 42.29600 40.84300
H  53.80500 46.06200 44.01200
H  49.48300 50.64200 44.82600
H  45.24000 44.67500 40.38100
H  47.41500 43.18900 39.27500
H  46.06400 41.60000 40.38400
H  45.79300 42.73100 41.76300
H  47.10800 41.94200 41.76000
H  47.29500 45.32500 38.07800
H  46.19000 46.55300 38.61700
H  44.42600 45.63200 37.54900
H  44.89800 43.93600 38.08700
H  52.71000 40.94400 41.96700
H  52.76900 41.93600 40.46500
H  51.38500 41.07400 40.78300
H  55.02200 44.28800 44.58200
H  55.44100 45.21300 43.12200
H  56.39700 43.85900 43.63800
H  53.69200 49.04200 43.78900
H  51.89900 49.73400 45.85900
H  53.93300 47.08600 45.99200
H  53.67000 48.72500 46.60600
H  54.96900 48.45100 45.46300
H  51.74300 51.24300 43.24000
H  53.41900 51.17900 43.70900
H  53.10400 52.61700 45.38100
H  51.57000 52.01700 45.87500
H  51.58800 53.14500 44.46700
H  45.64200 51.43700 43.44600
H  47.27300 51.93700 44.04600
H  46.05600 51.00500 45.07100
H  44.83900 47.86200 40.28000
H  40.74100 46.36000 41.27900
H  41.45800 46.18700 42.78900
H  41.87000 44.99800 41.47800

