158

Mg 36.12400 1.96500 29.53400
C  34.04200 2.85300 32.24400
C  38.73200 1.97000 31.81900
C  38.18200 1.70800 26.97500
C  33.47600 2.53000 27.39000
N  36.34400 2.32200 31.86800
C  35.33700 2.60700 32.72500
C  35.83700 2.67000 34.17800
C  37.42000 2.49500 34.05600
C  37.55100 2.27600 32.46200
C  38.24200 3.68800 34.71000
C  35.15000 1.55700 35.14500
C  34.89300 1.92200 36.61000
H  35.68700 3.06900 37.33600
N  38.17500 1.72700 29.39200
C  39.06500 1.58900 30.45600
C  40.39300 1.28500 30.00400
C  40.22600 1.25700 28.59900
C  38.84300 1.61300 28.23700
C  41.64500 0.96400 30.81800
C  41.25000 0.89400 27.52700
O  40.87500 0.70900 26.34000
C  42.76700 0.69500 27.78800
N  35.82200 2.00100 27.54400
C  36.86600 1.88700 26.64800
C  36.50500 2.17800 25.23900
C  34.91900 2.16700 25.32000
C  34.67300 2.22900 26.85400
C  37.22200 3.45000 24.61700
C  34.25000 0.97900 24.55800
C  34.02100 -0.33800 25.35500
N  34.15700 2.56600 29.73600
C  33.20900 2.75700 28.75700
C  31.92900 3.13200 29.40600
C  32.18200 3.20500 30.81600
C  33.59600 2.87500 30.91500
C  30.61000 3.61100 28.72200
C  31.66300 3.40700 32.08600
O  30.48800 3.67300 32.45100
C  32.75200 3.09600 33.08200
C  32.80900 4.22800 34.05000
O  33.40200 5.27000 33.79100
O  32.12500 3.92600 35.20400
C  32.06300 5.19800 36.05900
H  39.52900 1.91100 32.56200
H  38.79200 1.58700 26.07800
H  32.67800 2.83400 26.71000
H  35.68900 3.60400 34.72000
H  37.69300 1.59400 34.60700
H  39.06800 3.28100 35.29400
H  37.72700 4.33100 35.42300
H  38.63800 4.34400 33.93400
H  35.76200 0.65600 35.11000
H  34.23400 1.27000 34.63000
H  34.94700 0.98100 37.15800
H  33.82700 2.14900 36.64100
H  42.15700 0.12100 30.35400
H  41.31000 0.62000 31.79600
H  42.23700 1.87100 30.94400
H  43.19500 0.61700 26.78800
H  42.73700 -0.27500 28.28400
H  43.16700 1.56400 28.31000
H  36.77700 1.30100 24.65200
H  34.65700 3.12500 24.87200
H  37.79500 3.91800 25.41700
H  36.53300 4.22200 24.27600
H  37.83900 3.15200 23.76900
H  34.93300 0.81500 23.72300
H  33.31600 1.31900 24.11000
H  32.97800 -0.34200 25.66900
H  34.59900 -0.44400 26.27300
H  34.25600 -1.22000 24.76000
H  29.90800 2.79300 28.56300
H  30.71600 4.14700 27.77800
H  30.15300 4.24100 29.48400
H  32.51600 2.16000 33.58800
H  31.37100 5.19200 36.90000
H  31.83400 6.00300 35.36000
H  33.04400 5.51300 36.41300
Mg 0.56000 43.70400 26.40200
C  2.46500 43.08800 29.46800
C  -2.23900 43.36100 28.29400
C  -1.03400 43.24700 23.54500
C  3.64800 43.50100 24.75700
N  0.24600 43.14000 28.62100
C  1.09000 43.10700 29.66700
C  0.30300 42.91300 30.99100
C  -1.17500 42.74800 30.42100
C  -1.03200 43.20300 29.03700
C  -1.65100 41.27300 30.45500
C  0.47300 44.02700 31.98500
C  0.54700 43.79500 33.50000
H  0.24600 42.39200 34.04600
N  -1.40700 43.46000 25.98300
C  -2.42200 43.39200 26.89400
C  -3.72300 43.40900 26.13300
C  -3.40600 43.41500 24.80300
C  -1.87000 43.26600 24.68400
C  -5.05000 43.46900 26.91300
C  -4.34000 43.43700 23.58800
O  -3.85500 43.31700 22.45500
C  -5.78200 43.50700 23.74700
N  1.19800 43.44700 24.45300
C  0.34700 43.26600 23.38500
C  1.13500 43.20900 21.99400
C  2.56000 43.45000 22.42500
C  2.50200 43.48700 23.99200
C  0.83800 41.95500 21.04100
C  3.32800 44.82000 22.04500
C  4.19900 44.77600 20.78800
N  2.62600 43.49400 26.94000
C  3.77000 43.42700 26.12800
C  4.93100 43.33500 26.95100
C  4.43900 43.15000 28.26100
C  3.06400 43.19500 28.18700
C  6.39000 43.27800 26.59200
C  4.86600 42.93800 29.64600
O  5.98500 42.86300 30.06200
C  3.58300 42.98500 30.51400
C  3.58300 41.68700 31.20300
O  3.53600 40.49400 30.81400
O  3.78300 42.01400 32.55700
C  4.21000 40.96100 33.49700
H  -3.14800 43.26700 28.89100
H  -1.59400 43.10700 22.61800
H  4.50400 43.38300 24.08900
H  0.45700 41.95200 31.48100
H  -1.90300 43.31200 31.00400
H  -0.86500 40.64100 30.86800
H  -2.03300 40.89400 29.50700
H  -2.45800 41.04900 31.15300
H  -0.29800 44.78200 31.82900
H  1.42400 44.52300 31.79400
H  -0.02800 44.57300 34.00200
H  1.55300 44.01200 33.85700
H  -5.81500 44.12500 26.49800
H  -4.91200 43.69100 27.97100
H  -5.31800 42.41700 26.81400
H  -6.28400 43.84700 22.84200
H  -5.99400 44.25500 24.51200
H  -6.10000 42.50900 24.04800
H  0.89300 44.06300 21.36200
H  3.22900 42.61400 22.22000
H  0.49600 42.30500 20.06700
H  0.03800 41.32000 21.42100
H  1.73000 41.34700 20.89000
H  3.78000 45.29400 22.91600
H  2.53500 45.55700 21.91200
H  5.14600 45.30200 20.91200
H  3.54200 45.36800 20.15100
H  4.40000 43.79100 20.36700
H  6.54500 43.89100 25.70500
H  6.62400 42.24000 26.35700
H  6.94800 43.75200 27.40000
H  3.53500 43.86500 31.15500
H  3.53000 40.12600 33.33300
H  4.02100 41.32300 34.50800
H  5.26700 40.70000 33.54200

