158

Mg 2.19900 -3.38200 45.33000
C  5.53700 -2.75500 44.54500
C  1.36500 -0.71700 43.25200
C  -0.97400 -4.53400 45.30700
C  3.12100 -6.20000 46.96600
N  3.32600 -2.02600 43.99100
C  4.70200 -1.95000 43.85700
C  5.08500 -0.88600 42.92200
C  3.80900 0.01300 42.87000
C  2.74600 -0.95700 43.36300
C  3.85900 1.21300 43.80100
C  5.64900 -1.40100 41.50700
C  6.99000 -1.01500 41.10300
H  7.18700 -0.47400 39.66800
N  0.45400 -2.68400 44.40900
C  0.31000 -1.53500 43.59000
C  -1.00900 -1.45100 43.11700
C  -1.72900 -2.48200 43.74000
C  -0.72600 -3.33500 44.54700
C  -1.39200 -0.42900 42.09400
C  -3.19700 -2.73200 43.50100
O  -3.89200 -1.98800 42.81200
C  -3.88600 -3.83300 44.04100
N  1.21000 -5.09800 46.04300
C  -0.09200 -5.35000 45.91500
C  -0.55000 -6.57500 46.64100
C  0.77500 -7.17500 47.19000
C  1.79300 -6.12800 46.71300
C  -1.65200 -6.29300 47.68400
C  1.07500 -8.63400 46.60300
C  0.06900 -9.78500 46.85500
N  3.97200 -4.28000 45.82600
C  4.21200 -5.39600 46.54600
C  5.60900 -5.68200 46.68800
C  6.22600 -4.64400 45.88500
C  5.16900 -3.81700 45.38900
C  6.09300 -6.90400 47.30300
C  7.46300 -4.15200 45.34000
O  8.59000 -4.47800 45.56700
C  7.03400 -2.94500 44.40200
C  7.93500 -1.87200 44.75300
O  8.93500 -1.58000 44.07000
O  7.45600 -1.09700 45.79500
C  8.03900 0.24700 45.96100
H  1.07100 0.13900 42.64200
H  -2.00400 -4.87100 45.44200
H  3.38300 -7.10500 47.51900
H  5.83400 -0.39100 43.54000
H  3.71800 0.43600 41.87000
H  3.93100 2.14100 43.23500
H  4.54700 1.10300 44.64000
H  2.85800 1.25300 44.23100
H  4.91400 -1.18200 40.73300
H  5.70800 -2.48100 41.64400
H  7.62400 -1.85700 41.38000
H  7.39400 -0.24800 41.76400
H  -2.05600 -0.83400 41.33000
H  -0.65900 0.14900 41.53100
H  -1.90400 0.35000 42.66000
H  -3.33600 -4.77200 43.98500
H  -4.88000 -4.02900 43.64000
H  -3.96800 -3.54600 45.08900
H  -0.95200 -7.16200 45.81600
H  0.86400 -7.07800 48.27200
H  -1.19000 -6.38000 48.66700
H  -2.49100 -6.97900 47.57000
H  -2.00900 -5.26400 47.62800
H  2.10700 -8.94600 46.76500
H  1.10600 -8.48100 45.52500
H  0.58500 -10.58100 47.38900
H  -0.17300 -10.16300 45.86100
H  -0.85700 -9.55800 47.38300
H  5.65100 -7.78000 46.82700
H  5.88700 -6.91400 48.37300
H  7.17500 -6.91700 47.17000
H  7.25900 -3.27400 43.38700
H  7.39700 0.89900 46.55200
H  8.07400 0.73800 44.98800
H  9.07600 0.27400 46.29500
Mg 44.00500 4.69700 47.38600
C  42.09500 7.57400 47.36700
C  41.13800 2.74500 47.17900
C  45.96100 1.89700 46.66900
C  46.85800 6.60400 47.46700
N  41.85000 5.18700 47.07500
C  41.33000 6.39900 47.32400
C  39.77900 6.30500 47.58600
C  39.54500 4.73700 47.68500
C  40.89700 4.14700 47.33000
C  38.86200 4.37900 49.06300
C  38.94400 7.00900 46.46600
C  39.23000 6.58300 45.01400
H  39.11300 7.63000 43.92900
N  43.57600 2.60000 46.98000
C  42.31100 2.05100 47.05800
C  42.40100 0.61500 46.81200
C  43.77200 0.39000 46.48200
C  44.51400 1.65300 46.64200
C  41.19200 -0.39500 47.03700
C  44.44400 -1.00600 45.98400
O  43.72200 -2.00100 45.90900
C  45.91900 -1.19300 45.48500
N  46.10400 4.25400 47.03400
C  46.69500 3.05600 46.86500
C  48.23100 3.05200 46.93600
C  48.42100 4.58500 47.25700
C  47.02300 5.23400 47.24900
C  48.93700 1.97900 47.75700
C  49.36300 5.24300 46.23200
C  50.83100 5.42400 46.65600
N  44.48600 6.68200 47.40200
C  45.65800 7.35100 47.44900
C  45.37600 8.76700 47.46700
C  44.04200 8.87800 47.47700
C  43.51800 7.60800 47.36600
C  46.40500 9.84300 47.40900
C  42.96700 9.84500 47.34800
O  42.99400 11.05800 47.13000
C  41.62500 8.94200 47.32800
C  40.89100 9.29400 48.53100
O  40.95400 8.70700 49.58200
O  40.14900 10.45700 48.33900
C  39.40400 10.95700 49.47500
H  40.20300 2.18200 47.21200
H  46.66400 1.11300 46.38000
H  47.77100 7.18500 47.61300
H  39.59500 6.77900 48.55000
H  38.90100 4.36900 46.88700
H  38.55900 5.27800 49.60000
H  39.39900 3.72100 49.74600
H  37.91900 3.92700 48.75500
H  38.90200 8.09800 46.46200
H  37.91600 6.75400 46.72400
H  38.60600 5.72200 44.77200
H  40.25100 6.21300 44.91800
H  40.21500 0.06200 47.19100
H  41.49300 -0.90800 47.95100
H  41.12100 -0.90000 46.07400
H  46.68300 -1.18300 46.26200
H  46.09500 -0.35500 44.80900
H  46.04600 -2.14100 44.96200
H  48.49200 2.93200 45.88400
H  48.83200 4.57500 48.26700
H  48.25200 1.29200 48.25300
H  49.47500 2.52500 48.53300
H  49.53300 1.32400 47.12300
H  48.98300 6.25700 46.11400
H  49.40200 4.77600 45.24800
H  51.11800 5.03400 47.63300
H  50.83800 6.49500 46.85800
H  51.52000 5.17100 45.85000
H  47.43100 9.48700 47.31500
H  46.33600 10.50000 48.27600
H  46.24400 10.39600 46.48300
H  40.95000 9.22600 46.52100
H  38.57700 11.61700 49.21200
H  40.04700 11.34100 50.26700
H  38.82600 10.11000 49.84400

