158

Mg 48.75100 45.31500 42.62800
C  45.34200 45.52700 42.13700
C  48.65600 42.00700 42.35200
C  52.15700 45.45700 42.70400
C  48.74100 48.84100 42.91900
N  47.23600 43.96700 42.20400
C  45.88700 44.21600 42.10500
C  45.10300 42.94400 41.70800
C  46.07500 41.86600 42.22200
C  47.42600 42.64100 42.24600
C  45.75400 41.00200 43.49100
C  44.56800 42.84200 40.23800
C  45.33800 43.48700 39.15400
H  45.19100 43.06000 37.60500
N  50.19800 43.90100 42.58600
C  49.97400 42.57200 42.44300
C  51.28800 41.89600 42.47100
C  52.29400 42.88100 42.41800
C  51.58600 44.15500 42.64900
C  51.50500 40.35600 42.39900
C  53.82100 42.61900 42.38700
O  54.18600 41.43600 42.35400
C  54.89300 43.72800 42.46300
N  50.27800 46.95300 42.47600
C  51.59500 46.72400 42.61100
C  52.44400 48.00700 42.85000
C  51.26100 49.10100 42.88200
C  49.99100 48.25800 42.77800
C  53.53900 47.96500 43.99600
C  51.22100 50.17300 41.69000
C  51.35800 51.61600 42.18200
N  47.35000 46.94000 42.67800
C  47.45400 48.26100 42.77900
C  46.21600 48.87600 42.58500
C  45.30500 47.86700 42.33600
C  46.04200 46.69600 42.44200
C  46.01300 50.35700 42.54800
C  43.95400 47.56500 42.04000
O  42.99900 48.25000 41.84300
C  43.87900 45.99900 41.86700
C  42.82400 45.35700 42.76200
O  42.07000 44.46300 42.39800
O  42.75500 46.05500 43.91500
C  41.55600 45.87500 44.72800
H  48.70600 40.91600 42.34600
H  53.22700 45.65600 42.79500
H  48.83600 49.90900 43.12600
H  44.21600 42.92500 42.34100
H  46.08700 41.17300 41.38100
H  44.91200 41.55900 43.90300
H  46.58100 40.84000 44.18200
H  45.31800 40.04400 43.20700
H  43.58600 43.30400 40.34600
H  44.44000 41.77900 40.03600
H  46.35700 43.26400 39.46900
H  45.25000 44.57300 39.13000
H  51.70900 40.00200 41.38800
H  50.55500 39.84600 42.55800
H  52.25600 39.93700 43.06900
H  54.64600 44.14800 43.43800
H  54.76900 44.35200 41.57800
H  55.88700 43.28300 42.51400
H  52.93500 48.14500 41.88700
H  51.27600 49.55300 43.87300
H  54.52500 48.11700 43.55700
H  53.47100 46.96100 44.41500
H  53.36300 48.77000 44.70900
H  50.32600 50.04700 41.08100
H  52.15100 49.98000 41.15500
H  50.87800 52.36700 41.55500
H  52.39000 51.91200 42.37100
H  50.89400 51.75600 43.15800
H  46.87400 50.83300 42.07900
H  46.11800 50.58400 43.60900
H  45.02100 50.64300 42.20000
H  43.49800 45.72400 40.88300
H  41.14200 46.86900 44.89400
H  41.95600 45.45700 45.65200
H  40.72400 45.27900 44.35500
Mg -1.73400 34.42700 27.72100
C  -3.29700 32.39300 30.07400
C  -0.26400 36.16100 30.40700
C  -0.53700 36.56900 25.50400
C  -3.66500 32.82500 25.20600
N  -1.89800 34.40000 30.01900
C  -2.55100 33.39100 30.73500
C  -2.36600 33.62800 32.26100
C  -1.55000 34.92500 32.29400
C  -1.10200 35.11800 30.84500
C  -2.39500 36.24600 32.74600
C  -1.65200 32.38800 32.88800
C  -2.36200 31.75700 34.08900
H  -1.71900 31.64500 35.47100
N  -0.46000 36.04500 27.92200
C  0.15500 36.51900 29.07500
C  1.04000 37.61400 28.69700
C  0.91300 37.77400 27.29700
C  -0.06600 36.75600 26.81800
C  1.91400 38.41000 29.72900
C  1.64500 38.82300 26.41600
O  1.46400 38.99900 25.24500
C  2.72400 39.67900 27.14700
N  -2.13400 34.66600 25.67200
C  -1.49200 35.65200 25.01300
C  -2.18900 35.83900 23.59300
C  -2.87200 34.39100 23.35800
C  -2.90700 33.91800 24.83000
C  -3.32400 36.96800 23.58300
C  -2.02500 33.44200 22.52700
C  -2.66000 33.09000 21.18200
N  -3.16900 32.87600 27.63900
C  -3.78600 32.33300 26.50200
C  -4.58300 31.18900 26.93000
C  -4.43000 31.20900 28.34700
C  -3.55000 32.27100 28.71400
C  -5.27600 30.26200 26.07800
C  -4.85100 30.47000 29.55500
O  -5.58500 29.50900 29.67000
C  -4.16900 31.26500 30.74200
C  -5.07600 31.65600 31.83500
O  -5.75800 32.68000 31.91400
O  -5.09400 30.56600 32.72200
C  -5.88900 30.77300 33.83100
H  0.12900 36.83600 31.17000
H  -0.12300 37.34000 24.85000
H  -4.36000 32.35300 24.51000
H  -3.39400 33.76500 32.59400
H  -0.65100 34.83600 32.90400
H  -3.43000 36.14400 33.07200
H  -2.45600 36.99200 31.95400
H  -1.94000 36.78400 33.57800
H  -0.67800 32.72000 33.24800
H  -1.33700 31.63100 32.16900
H  -2.49000 30.69700 33.86700
H  -3.32400 32.25100 34.22200
H  2.98300 38.24100 29.59900
H  1.58300 38.12800 30.72900
H  1.71000 39.47300 29.85700
H  3.20800 40.40100 26.49000
H  3.60000 39.05500 27.32800
H  2.45900 40.28400 28.01400
H  -1.51600 36.17500 22.80500
H  -3.81100 34.66500 22.87700
H  -4.35800 36.63100 23.51400
H  -3.14800 37.64800 22.75000
H  -3.27400 37.63300 24.44500
H  -1.89900 32.52000 23.09500
H  -1.07700 33.87100 22.20300
H  -1.91100 33.14300 20.39200
H  -3.53200 33.67700 20.89700
H  -2.92800 32.03300 21.19300
H  -6.31100 30.60100 26.02400
H  -5.50200 29.28300 26.49900
H  -4.92800 30.19500 25.04700
H  -3.50600 30.59500 31.29000
H  -6.91500 31.04200 33.57700
H  -5.49600 31.58100 34.44800
H  -5.82700 29.84900 34.40500

