158

Mg 24.51900 -5.28300 45.70600
C  26.59700 -3.29200 43.63700
C  21.86200 -4.64600 43.61300
C  22.99500 -8.26500 46.68600
C  27.42700 -6.37100 47.46100
N  24.34200 -4.34100 43.68400
C  25.28400 -3.42900 43.14000
C  24.64800 -2.63000 42.02000
C  23.11500 -2.80600 42.34500
C  23.07300 -4.03200 43.23000
C  22.42500 -1.57200 42.94200
C  25.33800 -3.18400 40.66100
C  25.79800 -2.04900 39.78300
H  25.63400 -2.37300 38.31600
N  22.63100 -6.23100 45.34700
C  21.69600 -5.73300 44.48800
C  20.48300 -6.46700 44.68800
C  20.79500 -7.61700 45.56300
C  22.17800 -7.41600 45.90600
C  19.19700 -6.02700 44.02700
C  19.79800 -8.66100 45.94200
O  18.70000 -8.62700 45.32600
C  20.03000 -9.78700 46.91700
N  25.16100 -7.03700 46.97400
C  24.28100 -8.15800 47.14800
C  25.04700 -9.28300 47.97800
C  26.22200 -8.45400 48.54100
C  26.35900 -7.28400 47.60400
C  24.22000 -10.14300 49.10400
C  27.54800 -9.23100 48.75900
C  28.55500 -8.82300 49.85000
N  26.55100 -4.86600 45.70500
C  27.59800 -5.31400 46.52700
C  28.82000 -4.67500 46.03700
C  28.46500 -3.90900 44.94500
C  27.09000 -4.09100 44.68600
C  30.18600 -4.94400 46.54100
C  28.95800 -3.04200 43.92100
O  30.10900 -2.75600 43.73900
C  27.80700 -2.63100 42.97500
C  27.89800 -1.15400 43.08900
O  27.67400 -0.51600 44.06100
O  28.39900 -0.59700 41.94700
C  28.75200 0.82000 41.90600
H  20.95800 -4.26100 43.13500
H  22.49300 -9.16700 47.04200
H  28.30200 -6.72200 48.01100
H  24.82800 -1.56300 42.15000
H  22.67800 -3.05000 41.37600
H  21.76000 -1.17400 42.17600
H  23.09000 -0.76000 43.23700
H  21.80200 -1.92400 43.76400
H  24.60100 -3.73600 40.07800
H  26.13600 -3.91300 40.79900
H  26.86800 -1.92200 39.94500
H  25.31200 -1.14300 40.14200
H  18.32100 -6.05600 44.67500
H  19.03500 -6.58900 43.10700
H  19.22200 -4.98100 43.71900
H  20.53100 -9.35800 47.78500
H  20.41300 -10.69700 46.45700
H  19.05800 -10.10500 47.29500
H  25.50300 -9.90500 47.20800
H  25.92200 -8.02000 49.49500
H  24.65200 -10.29200 50.09300
H  24.24800 -11.14500 48.67500
H  23.16400 -9.87200 49.12600
H  28.11200 -9.08200 47.83900
H  27.40800 -10.29500 48.94500
H  28.78800 -9.58200 50.59600
H  28.21700 -7.93800 50.39000
H  29.42500 -8.39900 49.34900
H  30.01000 -5.65400 47.34900
H  30.59500 -4.01200 46.93300
H  30.84100 -5.43700 45.82300
H  27.90300 -3.01200 41.95800
H  28.02100 1.49800 42.34700
H  28.62000 1.20200 40.89400
H  29.71500 1.07700 42.34600
Mg 29.85200 58.40600 42.05300
C  27.05500 56.82100 40.47300
C  31.80500 56.01800 40.65400
C  32.49100 60.39300 42.40000
C  27.66500 61.11900 42.72500
N  29.46100 56.76500 40.39000
C  28.25500 56.21800 39.98100
C  28.44900 54.95400 39.16000
C  30.01800 54.58100 39.42000
C  30.48000 55.84700 40.20800
C  30.21900 53.26800 40.31200
C  28.23000 55.08000 37.60900
C  27.41000 53.97400 37.01800
H  26.51100 54.37400 35.83800
N  31.93200 58.09500 41.81900
C  32.50700 57.03900 41.22600
C  34.02700 57.27100 41.17700
C  34.27400 58.59600 41.67600
C  32.90600 59.06800 42.12100
C  35.06600 56.41500 40.58600
C  35.57600 59.27900 41.75700
O  36.56400 58.73000 41.34400
C  35.68500 60.73600 42.14100
N  30.04300 60.39900 42.51000
C  31.31100 61.03900 42.73400
C  31.12800 62.54600 43.00300
C  29.58800 62.63100 43.31200
C  29.05000 61.31600 42.74900
C  32.11400 63.09100 44.06400
C  28.82300 63.87900 42.72700
C  27.90200 64.70600 43.69000
N  27.74800 58.88200 41.86900
C  27.00100 59.96000 42.25300
C  25.51600 59.66300 42.09900
C  25.51700 58.47100 41.38200
C  26.87700 58.06600 41.20500
C  24.51500 60.59000 42.53400
C  24.63700 57.59200 40.68900
O  23.43800 57.60000 40.48600
C  25.63100 56.39700 40.10000
C  25.19600 55.04600 40.60500
O  25.54700 54.58900 41.69300
O  24.48100 54.34800 39.65000
C  24.09800 53.02500 40.12500
H  32.41500 55.17200 40.33000
H  33.30800 61.09700 42.57300
H  27.04700 61.92800 43.12100
H  27.88900 54.15100 39.63900
H  30.55900 54.47900 38.47900
H  29.29500 52.69300 40.26200
H  30.52200 53.42200 41.34700
H  31.07100 52.69900 39.93900
H  29.11600 55.18800 36.98400
H  27.62800 55.98900 37.60200
H  26.72700 53.64300 37.80200
H  28.10400 53.18300 36.73400
H  35.94400 56.36200 41.22900
H  35.42000 56.88600 39.66900
H  34.77500 55.39400 40.34000
H  34.90300 61.26500 41.59800
H  36.67700 61.12700 41.91500
H  35.59900 60.81100 43.22500
H  31.27900 63.14100 42.10200
H  29.60500 62.76900 44.39300
H  32.92200 62.36700 44.16800
H  31.60100 63.15100 45.02400
H  32.51900 64.06800 43.79800
H  28.31100 63.54500 41.82500
H  29.64200 64.45600 42.29800
H  28.12700 65.77000 43.75500
H  28.04100 64.25900 44.67500
H  26.88600 64.51700 43.34000
H  24.91700 61.13900 43.38600
H  23.56400 60.07500 42.66800
H  24.39300 61.30600 41.72200
H  25.48300 56.26800 39.02700
H  23.36100 53.09700 40.92500
H  24.95600 52.41000 40.39700
H  23.60700 52.47600 39.32100

