158

Mg 36.30900 49.37200 24.83600
C  36.26600 47.81700 27.98500
C  34.94600 52.13100 26.30600
C  36.23900 50.78500 21.72000
C  37.35800 46.35500 23.44400
N  35.75700 49.92800 26.93200
C  35.90200 49.18100 28.07200
C  35.71800 49.97900 29.35400
C  35.14900 51.36800 28.78500
C  35.27300 51.14900 27.20400
C  33.70300 51.80800 29.08100
C  36.90900 49.98200 30.34100
C  36.75800 49.61000 31.90100
H  35.47100 49.52500 32.69400
N  35.63200 51.17900 24.09700
C  35.13900 52.15900 24.85200
C  34.85100 53.34200 24.01100
C  35.25400 53.03700 22.73800
C  35.79300 51.58800 22.78900
C  34.21400 54.47100 24.62500
C  35.22000 53.79300 21.33300
O  35.65900 53.39700 20.29200
C  34.68000 55.29900 21.32400
N  36.35700 48.62100 22.84200
C  36.53200 49.41300 21.73100
C  37.06000 48.71400 20.47100
C  37.63600 47.41000 21.12300
C  37.09800 47.46200 22.61700
C  35.91300 48.40400 19.44800
C  39.16700 47.24400 21.04400
C  39.75800 45.96800 20.47900
N  36.62500 47.34700 25.47300
C  37.15300 46.25900 24.80100
C  37.42100 45.23200 25.80900
C  36.98500 45.75400 27.04700
C  36.55800 47.06900 26.77900
C  38.05300 43.89200 25.57400
C  36.90500 45.53600 28.47800
O  37.29000 44.57900 29.14000
C  36.37400 46.84700 29.17800
C  35.18100 46.62200 30.01000
O  33.97400 46.88500 29.69600
O  35.63900 45.92200 31.16200
C  34.38000 45.46100 31.86100
H  34.56700 53.02200 26.81000
H  36.38600 51.25000 20.74300
H  37.77100 45.40100 23.11100
H  34.91600 49.53200 29.94200
H  35.81600 52.13000 29.18700
H  33.28300 51.31600 29.95900
H  32.97400 51.60500 28.29700
H  33.61800 52.86900 29.31200
H  37.40900 50.93600 30.17500
H  37.62900 49.31400 29.86700
H  37.30100 50.38500 32.44300
H  37.32000 48.69100 32.06500
H  34.08400 55.32600 23.96300
H  34.78600 54.81400 25.48700
H  33.23300 54.13500 24.96100
H  33.60500 55.12500 21.35700
H  34.96400 55.76800 20.38200
H  34.95300 56.01000 22.10400
H  37.88300 49.22900 19.97400
H  37.10100 46.53100 20.76400
H  35.08500 49.08700 19.63900
H  35.63200 47.36300 19.60400
H  36.23200 48.54000 18.41400
H  39.63800 47.39600 22.01600
H  39.60900 48.00800 20.40400
H  40.04200 46.21100 19.45500
H  39.04000 45.15800 20.35000
H  40.51400 45.50300 21.11200
H  38.78400 43.83900 26.38100
H  38.40900 43.80700 24.54700
H  37.25900 43.15500 25.69000
H  37.17600 47.11400 29.86600
H  34.01400 44.71500 31.15500
H  33.57200 46.17200 32.03600
H  34.73200 44.93200 32.74700
Mg 6.89400 54.30300 41.83100
C  6.52700 50.89600 41.50300
C  10.26600 53.96300 40.71000
C  7.20000 57.72100 41.69200
C  3.52400 54.55200 42.89400
N  8.19300 52.56800 41.16900
C  7.87400 51.24000 41.12700
C  9.11800 50.41500 40.66300
C  10.29600 51.45200 40.85900
C  9.51300 52.77300 40.78900
C  10.97000 51.30800 42.25700
C  9.06800 49.86600 39.22000
C  8.47500 50.79700 38.10900
H  8.00500 50.18500 36.86500
N  8.50900 55.62700 41.24400
C  9.77200 55.29600 40.78700
C  10.57700 56.48300 40.62500
C  9.77900 57.57000 41.04900
C  8.44800 57.01900 41.39000
C  12.02600 56.43800 40.09600
C  10.23300 59.00700 41.15200
O  11.39600 59.28900 40.86600
C  9.39500 60.15700 41.73900
N  5.46900 55.89300 41.99600
C  5.85100 57.22700 41.93300
C  4.66600 58.11800 42.28700
C  3.54600 57.14600 42.77100
C  4.18000 55.76100 42.49200
C  4.92000 59.45300 43.12900
C  2.16200 57.32200 41.98100
C  2.09800 56.90300 40.53500
N  5.34300 53.07700 42.22600
C  4.08200 53.22400 42.63400
C  3.43800 51.95300 42.87600
C  4.38000 51.00700 42.47100
C  5.49400 51.74100 41.99800
C  2.18000 51.79900 43.56400
C  4.59200 49.58300 42.35800
O  3.97300 48.62500 42.66900
C  5.92700 49.48500 41.57800
C  5.89200 48.67000 40.31600
O  5.59300 49.05600 39.20900
O  6.16600 47.34600 40.63200
C  6.02100 46.40800 39.50600
H  11.33200 53.77400 40.57000
H  7.23900 58.78300 41.44300
H  2.50700 54.80200 43.20200
H  9.15700 49.53500 41.30500
H  10.99200 51.34800 40.02600
H  10.50300 50.47600 42.78500
H  10.82100 52.30400 42.67400
H  12.02900 51.07400 42.14300
H  8.66600 48.85400 39.26200
H  10.11600 49.79900 38.92700
H  9.37200 51.40500 38.00200
H  7.70900 51.41000 38.58400
H  12.06200 57.23000 39.34800
H  12.38700 55.50600 39.66200
H  12.79300 56.67400 40.83400
H  9.88600 61.12200 41.86600
H  9.05000 59.86900 42.73200
H  8.49900 60.29200 41.13400
H  4.29100 58.60600 41.38700
H  3.35800 57.24000 43.84100
H  4.23000 59.47100 43.97200
H  4.71800 60.31800 42.49700
H  5.97400 59.50900 43.40100
H  1.93500 58.38600 41.90700
H  1.42200 56.69200 42.47400
H  1.44900 56.03200 40.44400
H  3.06300 56.78600 40.04200
H  1.60800 57.74200 40.04100
H  2.37500 51.66800 44.62800
H  1.71600 50.87300 43.22400
H  1.51900 52.64500 43.37400
H  6.68400 48.92700 42.12900
H  6.56900 45.48300 39.68600
H  6.31100 46.89200 38.57300
H  4.94700 46.23200 39.43300

