158

Mg 8.69500 4.20300 27.90400
C  9.97300 2.56600 30.84600
C  6.94300 6.35400 30.04700
C  7.40000 5.60700 25.24500
C  10.27900 1.82400 25.98300
N  8.47700 4.46500 30.18900
C  9.12300 3.68000 31.09100
C  8.85300 4.20500 32.51700
C  7.67800 5.27800 32.31600
C  7.74800 5.44900 30.76000
C  6.30500 4.75600 32.74200
C  10.10800 4.89500 33.13900
C  10.50700 4.26800 34.52400
H  10.89200 5.15900 35.72000
N  7.37800 5.79900 27.70000
C  6.79800 6.59900 28.66300
C  6.01200 7.65000 28.03000
C  6.12200 7.47400 26.56800
C  6.95300 6.24100 26.41900
C  5.27000 8.80800 28.75800
C  5.44400 8.08200 25.38100
O  5.52400 7.65800 24.24800
C  4.58600 9.30000 25.71800
N  8.71400 3.70300 25.92200
C  8.14600 4.49000 24.99100
C  8.47500 3.98100 23.53900
C  9.65800 2.96400 23.71800
C  9.53000 2.76500 25.28300
C  7.25800 3.44100 22.79200
C  11.06700 3.44900 23.32500
C  11.93900 2.37100 22.51500
N  9.78200 2.48000 28.24900
C  10.40700 1.61500 27.37600
C  11.28000 0.72700 28.12700
C  11.15600 1.08900 29.47600
C  10.21400 2.18000 29.48000
C  12.15600 -0.34100 27.60900
C  11.63700 0.80400 30.82300
O  12.50300 0.05000 31.24800
C  10.92400 1.79900 31.70400
C  10.14700 0.98900 32.70500
O  9.21100 0.26900 32.35400
O  10.73200 1.15100 33.91300
C  10.17500 0.31000 34.99200
H  6.40700 6.96500 30.77700
H  7.06800 6.01700 24.28800
H  10.90100 1.22200 25.31700
H  8.45600 3.39500 33.12900
H  7.91600 6.26400 32.71400
H  6.40400 3.72500 33.08300
H  5.68400 4.67900 31.84900
H  5.89800 5.38500 33.53300
H  9.96300 5.97400 33.20000
H  10.94700 4.91600 32.44300
H  11.43500 3.74000 34.30600
H  9.80700 3.52000 34.89600
H  5.81600 9.75100 28.74500
H  5.08700 8.62900 29.81800
H  4.28100 8.96400 28.32500
H  3.73000 9.02900 26.33600
H  4.15400 9.60800 24.76600
H  5.27300 10.05000 26.11000
H  8.71400 4.75900 22.81300
H  9.53200 1.96300 23.30400
H  7.50900 2.48700 22.32800
H  7.23100 4.15700 21.97000
H  6.35700 3.51700 23.40100
H  11.51200 3.78200 24.26200
H  11.03200 4.35000 22.71300
H  12.21700 2.74900 21.53100
H  11.45200 1.40700 22.65800
H  12.91300 2.28200 22.99500
H  12.61900 -0.07500 26.65900
H  11.57200 -1.25900 27.66000
H  13.01300 -0.39200 28.28200
H  11.62900 2.49600 32.15700
H  9.23200 -0.18400 34.75900
H  9.96700 1.00300 35.80700
H  10.92000 -0.42200 35.30500
Mg -2.21800 34.90000 26.64100
C  -3.96500 33.13600 29.31700
C  -0.97800 37.02400 29.03600
C  -0.70200 36.43500 24.26700
C  -3.84200 32.74800 24.54300
N  -2.55100 35.08600 28.93700
C  -3.24200 34.33900 29.81900
C  -3.05400 34.79800 31.24300
C  -2.14500 36.06800 31.06600
C  -1.97500 36.18600 29.52900
C  -2.58500 37.38400 31.83600
C  -2.47800 33.71000 32.27800
C  -1.99900 34.22600 33.68500
H  -3.07700 34.25300 34.72200
N  -0.91100 36.51600 26.64400
C  -0.52600 37.34500 27.71000
C  0.36600 38.39300 27.27200
C  0.54700 38.19300 25.84700
C  -0.33400 37.00500 25.51100
C  1.02000 39.39500 28.18000
C  1.30000 38.95600 24.86400
O  1.31900 38.70500 23.64500
C  2.03100 40.11200 25.43600
N  -2.29000 34.69300 24.63600
C  -1.52700 35.39700 23.82400
C  -1.64800 34.98400 22.33100
C  -2.75000 33.85400 22.50100
C  -3.05100 33.77500 23.99700
C  -1.78700 36.10700 21.24300
C  -2.32900 32.49700 21.87700
C  -1.37600 31.64300 22.74600
N  -3.85600 33.33700 26.77000
C  -4.23500 32.50400 25.79900
C  -5.07100 31.46400 26.35100
C  -5.00500 31.65900 27.77400
C  -4.19600 32.76800 27.98500
C  -5.94200 30.52600 25.60400
C  -5.43800 31.17200 29.04100
O  -6.12100 30.22400 29.29400
C  -4.69100 32.09000 30.13500
C  -5.72100 32.57800 31.10900
O  -6.47700 33.51300 30.94000
O  -5.76900 31.78600 32.19600
C  -6.82700 31.95700 33.19100
H  -0.47500 37.52500 29.86500
H  -0.04000 36.86500 23.51300
H  -4.34600 32.08600 23.83600
H  -4.04500 35.13700 31.54400
H  -1.14500 35.87200 31.45300
H  -1.96900 37.58900 32.71300
H  -3.63700 37.28400 32.10000
H  -2.61300 38.18500 31.09700
H  -1.66800 33.13500 31.82800
H  -3.27600 32.99500 32.47900
H  -1.74400 35.28400 33.61600
H  -1.13500 33.68600 34.07100
H  2.08600 39.48400 27.97100
H  0.94100 38.93200 29.16400
H  0.54900 40.37500 28.10600
H  1.39500 40.77900 26.01700
H  2.39900 40.72200 24.61100
H  2.93800 39.83600 25.97500
H  -0.72700 34.45400 22.08700
H  -3.65700 34.29400 22.08500
H  -2.58400 35.86600 20.53900
H  -0.84200 36.16400 20.70300
H  -1.93300 37.05900 21.75300
H  -1.80300 32.73300 20.95200
H  -3.20200 31.93000 21.55300
H  -0.90700 32.23600 23.53200
H  -0.57400 31.34900 22.06800
H  -1.75600 30.70000 23.14000
H  -6.85000 30.41000 26.19600
H  -5.37300 29.62300 25.38200
H  -6.21000 31.01700 24.66900
H  -3.97400 31.40700 30.59100
H  -7.70100 32.58800 33.02300
H  -6.30800 32.40000 34.04100
H  -7.20900 30.97700 33.47800

