158

Mg 46.42600 34.34700 28.18000
C  44.87000 32.30100 30.45500
C  46.42900 36.93100 30.30300
C  47.35300 36.52500 25.58800
C  46.08200 31.91300 25.71800
N  45.79900 34.49200 30.14300
C  45.33100 33.53800 30.98000
C  45.25600 33.95800 32.44000
C  45.60400 35.53600 32.33800
C  45.89200 35.70000 30.82100
C  44.66500 36.55600 32.90800
C  46.39100 33.25300 33.34200
C  46.21800 33.35000 34.86000
H  45.23800 34.27500 35.56600
N  47.06200 36.38700 28.09400
C  46.94500 37.27800 29.09400
C  47.37800 38.59000 28.69100
C  47.75200 38.54200 27.30400
C  47.39400 37.08600 26.93100
C  47.38400 39.88000 29.56100
C  48.39100 39.59900 26.33500
O  48.83100 39.30400 25.23300
C  48.71100 41.01200 26.76000
N  46.83300 34.16100 26.04500
C  47.02000 35.24900 25.18100
C  47.10000 34.90900 23.74200
C  46.84600 33.35500 23.80600
C  46.52900 33.10300 25.34200
C  46.24600 35.72200 22.78200
C  47.98000 32.47500 23.24900
C  49.24100 32.38100 24.17500
N  45.68000 32.46000 28.06000
C  45.56700 31.58800 26.95000
C  44.89800 30.34700 27.40300
C  44.49200 30.63000 28.73600
C  45.08600 31.88600 29.11100
C  44.62900 29.07800 26.51900
C  43.84200 30.09400 29.83600
O  43.26800 29.07200 30.02900
C  43.87600 31.28600 30.94700
C  44.09600 30.91300 32.42900
O  45.00800 30.27500 32.87000
O  42.96200 31.34700 33.12800
C  43.03900 31.08300 34.57900
H  46.53200 37.71500 31.05700
H  47.46200 37.32300 24.85100
H  45.88800 31.18600 24.92700
H  44.28200 33.74300 32.87900
H  46.53500 35.70300 32.87900
H  44.40800 37.36200 32.21900
H  45.00400 36.91700 33.87900
H  43.77900 35.94400 33.07500
H  47.32700 33.77900 33.15600
H  46.48900 32.20600 33.05700
H  47.23400 33.63900 35.13100
H  45.85800 32.35200 35.11000
H  48.37100 40.32300 29.42500
H  47.18800 39.65400 30.60900
H  46.69000 40.64700 29.21800
H  47.81100 41.31800 27.29400
H  48.83800 41.67100 25.90200
H  49.67300 41.00100 27.27300
H  48.07700 34.94100 23.26000
H  45.90800 33.06600 23.33200
H  46.81400 36.54100 22.34000
H  45.29100 36.02600 23.21100
H  46.09200 35.00200 21.97900
H  48.25300 32.90600 22.28500
H  47.60900 31.46200 23.09700
H  50.15400 32.79200 23.74400
H  49.55600 31.38700 24.49300
H  49.05600 32.92500 25.10100
H  45.60400 28.82000 26.10400
H  44.01400 29.45200 25.70000
H  44.31900 28.23400 27.13500
H  42.96200 31.86000 30.79300
H  42.37400 31.82400 35.02400
H  44.03000 31.25800 34.99700
H  42.78200 30.09400 34.95900
Mg 8.65800 48.46200 24.72700
C  6.66100 48.70600 27.38900
C  11.28600 49.83200 26.47600
C  10.51400 48.35800 21.94900
C  5.82000 47.90200 22.68900
N  8.97800 49.05700 26.69000
C  7.97400 49.08800 27.65300
C  8.53300 49.59900 28.94500
C  9.77800 50.28900 28.46000
C  10.06600 49.62700 27.12400
C  9.54600 51.81900 28.28000
C  8.94300 48.42100 29.87400
C  9.00900 48.65900 31.32200
H  8.40900 47.60500 32.23800
N  10.69200 48.77300 24.34100
C  11.60800 49.31400 25.22600
C  12.91900 49.25700 24.68400
C  12.77800 48.82900 23.26700
C  11.30200 48.57700 23.13400
C  14.16700 49.66400 25.52600
C  13.82000 48.61400 22.13700
O  13.46600 48.33900 20.95000
C  15.33200 48.78800 22.44800
N  8.14600 48.29000 22.54700
C  9.12200 48.34700 21.65700
C  8.60400 48.07700 20.23800
C  7.14100 47.62600 20.59900
C  7.00200 48.00200 21.97600
C  8.70200 49.27900 19.25600
C  6.81100 46.11800 20.29600
C  5.44000 45.97600 19.68100
N  6.60600 48.24700 24.94300
C  5.63100 48.02100 24.06300
C  4.34400 47.99200 24.76100
C  4.71700 48.19800 26.12400
C  6.08500 48.33600 26.15700
C  3.02400 47.89300 24.14200
C  4.28200 48.22100 27.44600
O  3.21200 47.87200 27.96700
C  5.45300 48.80500 28.33900
C  5.45000 48.07200 29.69900
O  5.54000 46.85100 29.85500
O  5.19500 49.03000 30.61300
C  4.91500 48.51400 32.00700
H  12.11500 50.30500 27.00600
H  11.02200 48.44500 20.98600
H  4.95800 47.78700 22.02700
H  7.85600 50.30200 29.42900
H  10.65900 50.19300 29.09500
H  8.53200 52.10100 27.99600
H  10.24600 52.10100 27.49300
H  9.67600 52.18400 29.29900
H  9.91600 47.99400 29.63400
H  8.25300 47.61000 29.64100
H  8.56200 49.61800 31.58300
H  10.04900 48.76200 31.63200
H  13.89300 49.77400 26.57500
H  14.50400 50.66900 25.27000
H  14.97700 48.93400 25.50000
H  15.89000 48.27100 21.66700
H  15.50500 48.36800 23.43900
H  15.48900 49.86500 22.50200
H  9.19300 47.25600 19.82900
H  6.37000 48.04100 19.95000
H  9.14600 50.11000 19.80400
H  7.67400 49.41900 18.92200
H  9.27800 49.00600 18.37200
H  6.86000 45.52300 21.20800
H  7.58600 45.73300 19.63300
H  5.27700 44.90000 19.61600
H  5.41100 46.43100 18.69100
H  4.61600 46.32300 20.30500
H  2.28800 47.61900 24.89700
H  3.12400 47.04700 23.46300
H  2.70700 48.79800 23.62400
H  5.33700 49.87400 28.51200
H  4.87100 49.32700 32.73100
H  5.67800 47.82100 32.36300
H  3.99400 47.93300 31.95100

