158

Mg 24.50200 -4.99800 46.10700
C  26.41900 -2.74900 44.23600
C  21.96100 -4.37000 43.99200
C  23.05500 -7.75100 47.38600
C  27.48900 -5.74200 47.97000
N  24.27200 -3.79900 44.23800
C  25.12400 -2.85400 43.73100
C  24.59900 -2.11900 42.56200
C  23.04400 -2.41600 42.67800
C  23.02200 -3.57400 43.73700
C  22.09900 -1.24400 43.05400
C  25.34200 -2.59000 41.22000
C  25.98800 -1.50700 40.29600
H  25.81200 -1.56600 38.71400
N  22.68000 -5.93600 45.74900
C  21.74300 -5.40900 44.93000
C  20.51500 -6.13900 45.06200
C  20.83500 -7.24900 45.99200
C  22.28300 -7.01100 46.45400
C  19.25500 -5.81900 44.26500
C  19.93400 -8.38700 46.41500
O  18.86800 -8.48400 45.76500
C  20.24000 -9.50100 47.30900
N  25.17900 -6.58100 47.39100
C  24.37500 -7.52800 47.88100
C  25.04000 -8.25700 49.05800
C  26.34100 -7.53000 49.21800
C  26.37200 -6.57400 48.08300
C  24.28800 -8.57200 50.33400
C  27.59200 -8.43100 49.28100
C  27.50300 -9.64700 50.22200
N  26.49400 -4.43700 46.20000
C  27.56100 -4.71500 46.97700
C  28.72300 -3.86900 46.78800
C  28.27800 -3.09900 45.70400
C  26.94700 -3.47300 45.39600
C  29.98300 -3.82100 47.63600
C  28.67500 -2.00700 44.75900
O  29.73800 -1.46700 44.48500
C  27.56900 -1.77700 43.80100
C  27.07100 -0.36700 44.03100
O  26.24600 -0.03900 44.84000
O  27.50900 0.36200 43.01700
C  26.76200 1.67200 42.81400
H  21.13100 -4.11100 43.33200
H  22.59700 -8.58000 47.93000
H  28.41600 -5.89200 48.52700
H  24.77400 -1.09300 42.88500
H  22.73300 -2.76600 41.69400
H  22.61000 -0.28400 43.13000
H  21.79700 -1.45300 44.08100
H  21.35700 -1.19400 42.25800
H  24.58100 -3.08300 40.61500
H  26.18000 -3.22400 41.50900
H  27.07300 -1.57900 40.37000
H  25.78200 -0.53800 40.75100
H  18.47400 -6.57800 44.30500
H  19.40800 -6.02300 43.20600
H  18.91500 -4.78500 44.32100
H  21.13900 -10.03500 47.00100
H  19.43800 -10.23900 47.30800
H  20.37000 -9.08500 48.30800
H  25.35700 -9.20600 48.62600
H  26.39100 -6.88900 50.09800
H  24.66700 -8.27300 51.31100
H  24.13100 -9.62700 50.55400
H  23.31000 -8.11400 50.18800
H  28.42900 -7.81900 49.61700
H  27.79600 -8.76300 48.26300
H  28.05500 -9.52500 51.15400
H  27.89100 -10.46000 49.60800
H  26.50000 -9.94700 50.52500
H  30.64000 -4.65400 47.38300
H  29.66500 -3.97300 48.66700
H  30.42300 -2.84700 47.42600
H  27.90300 -1.88200 42.76900
H  25.70900 1.48200 43.02000
H  26.92300 1.99200 41.78500
H  26.93500 2.47900 43.52600
Mg -12.10600 16.40500 42.28900
C  -9.11700 14.67800 42.02700
C  -10.61300 19.06200 40.83300
C  -15.22600 17.82300 42.09700
C  -13.60100 13.30600 43.38000
N  -10.13200 16.65100 41.21100
C  -8.99300 15.91600 41.43400
C  -7.78500 16.58000 40.72900
C  -8.23600 18.05900 40.79200
C  -9.78700 17.96100 41.00700
C  -7.54200 18.95000 41.89500
C  -7.75500 16.02000 39.26500
C  -6.33200 15.65000 38.67500
H  -6.06100 16.25400 37.24500
N  -12.86300 18.17900 41.48800
C  -12.10200 19.15900 41.00400
C  -12.98400 20.28500 40.69300
C  -14.27300 19.95100 41.05000
C  -14.18500 18.62500 41.52100
C  -12.47300 21.56200 40.09100
C  -15.49600 20.86200 40.94200
O  -15.34200 22.00400 40.49300
C  -16.89900 20.38700 41.22300
N  -14.10100 15.58000 42.62100
C  -15.19400 16.46900 42.63500
C  -16.49600 15.79900 43.18100
C  -15.98600 14.38000 43.54000
C  -14.44400 14.41800 43.18600
C  -17.33700 16.53100 44.25100
C  -16.66100 13.14900 42.81100
C  -17.27800 12.10600 43.67300
N  -11.55100 14.43300 42.77900
C  -12.22800 13.25700 43.21200
C  -11.30200 12.18300 43.38500
C  -10.01200 12.72600 43.00100
C  -10.26700 14.06900 42.59200
C  -11.62300 10.73000 43.58300
C  -8.74100 12.33000 42.68200
O  -8.16900 11.22500 42.80000
C  -8.06300 13.61400 42.19200
C  -7.07700 13.94100 43.32100
O  -7.21400 13.62000 44.49000
O  -5.96300 14.51700 42.84100
C  -4.86000 14.93900 43.68700
H  -10.13900 20.02500 40.63400
H  -16.20500 18.29700 42.20000
H  -14.10800 12.42000 43.76600
H  -6.88900 16.26900 41.26600
H  -8.04700 18.63800 39.88800
H  -8.16700 19.21000 42.75000
H  -7.32300 19.86800 41.34900
H  -6.52600 18.58400 42.03900
H  -8.04000 16.82700 38.59100
H  -8.51900 15.24300 39.24400
H  -6.32400 14.56700 38.55100
H  -5.58800 15.85100 39.44600
H  -12.82300 21.62800 39.06100
H  -11.38700 21.62200 40.16500
H  -12.82500 22.47200 40.57500
H  -16.84100 19.44700 40.67400
H  -17.59500 21.12700 40.82900
H  -16.88300 20.27100 42.30700
H  -17.13300 15.69000 42.30300
H  -15.98800 14.17400 44.61100
H  -17.00100 17.56800 44.27100
H  -17.24200 16.00200 45.19900
H  -18.33500 16.68100 43.83900
H  -15.94000 12.72700 42.11100
H  -17.52800 13.54300 42.28100
H  -18.33000 12.30300 43.87900
H  -16.92900 12.11200 44.70500
H  -17.06100 11.09200 43.33700
H  -12.39500 10.66200 44.34900
H  -10.76100 10.09600 43.79100
H  -12.01200 10.32600 42.64900
H  -7.43400 13.45800 41.31600
H  -5.03100 14.86600 44.76100
H  -4.80800 15.98700 43.39400
H  -3.98100 14.39200 43.34600

