158

Mg 1.43200 -1.71900 43.38000
C  4.73500 -0.91800 42.75600
C  0.40200 0.78600 41.41700
C  -1.77100 -3.02900 43.61000
C  2.60000 -4.72900 44.90900
N  2.44700 -0.29100 42.12900
C  3.85800 -0.08800 42.12200
C  4.22300 1.32900 41.56500
C  2.81100 1.96100 41.47500
C  1.80000 0.76900 41.65500
C  2.50100 3.34400 42.20500
C  5.01400 1.20900 40.15600
C  6.22200 2.14100 39.84700
H  6.19800 2.98700 38.59300
N  -0.43800 -1.11400 42.66600
C  -0.60600 -0.02600 41.95300
C  -2.02200 0.19400 41.80300
C  -2.74800 -0.96500 42.32800
C  -1.66800 -1.78700 42.88100
C  -2.56600 1.47600 41.20400
C  -4.22400 -1.19100 42.30500
O  -4.97000 -0.40400 41.75800
C  -4.81600 -2.34600 42.96200
N  0.54700 -3.66100 44.12100
C  -0.81500 -3.86500 44.10800
C  -1.12500 -5.17400 44.80800
C  0.26700 -5.62000 45.35000
C  1.24400 -4.61100 44.72800
C  -2.21900 -5.16300 45.92000
C  0.66300 -7.12500 45.02700
C  0.70600 -8.00100 46.29500
N  3.27800 -2.63400 43.78700
C  3.61000 -3.81300 44.48300
C  5.01600 -3.94400 44.55100
C  5.53000 -2.82000 43.93000
C  4.41300 -2.08000 43.45200
C  5.77500 -5.00100 45.28600
C  6.67700 -2.10100 43.58300
O  7.90300 -2.32900 43.86400
C  6.26900 -0.88900 42.80800
C  6.82100 0.36900 43.46400
O  6.86500 0.62000 44.72300
O  7.42200 1.18100 42.48700
C  8.32300 2.30500 42.97000
H  0.07600 1.65900 40.84800
H  -2.76000 -3.48900 43.64400
H  2.81100 -5.60800 45.52200
H  4.79200 1.81700 42.35600
H  2.68300 2.37000 40.47200
H  1.49400 3.35600 42.62300
H  2.57200 4.21400 41.55200
H  3.28700 3.42500 42.95600
H  4.36600 1.38900 39.29700
H  5.33800 0.17400 40.04200
H  7.14300 1.57800 39.69500
H  6.34600 2.82000 40.69000
H  -2.91800 1.14900 40.22500
H  -1.83700 2.28600 41.17200
H  -3.28600 1.89400 41.90800
H  -5.85800 -2.06300 42.81000
H  -4.64300 -2.32800 44.03800
H  -4.54800 -3.31900 42.55000
H  -1.51200 -5.81100 44.01300
H  0.30300 -5.46400 46.42800
H  -2.71200 -4.19100 45.90900
H  -1.76500 -5.52000 46.84400
H  -2.94400 -5.96600 45.79000
H  1.61200 -7.19600 44.49600
H  -0.13900 -7.48700 44.38400
H  -0.26800 -8.44600 46.50300
H  1.10900 -7.42300 47.12600
H  1.47500 -8.74300 46.08200
H  5.54100 -5.81900 44.60500
H  5.30600 -5.33900 46.21000
H  6.82200 -4.70500 45.35300
H  6.58800 -0.98000 41.77000
H  9.24700 2.14200 42.41500
H  8.58900 2.22100 44.02300
H  8.01200 3.29900 42.64900
Mg 35.41400 2.72400 30.04300
C  32.90600 3.89300 32.19700
C  37.55700 2.76700 32.71800
C  37.95500 1.95300 27.99500
C  33.26500 2.99000 27.29000
N  35.27500 3.50600 32.12200
C  34.10100 3.71500 32.83300
C  34.37100 3.64300 34.33900
C  35.90100 3.72000 34.39300
C  36.27900 3.25600 33.00400
C  36.46600 5.16500 34.75800
C  33.71900 2.46700 34.97000
C  33.07600 2.69700 36.37200
H  33.66700 3.79900 37.29800
N  37.47100 2.50600 30.27400
C  38.09000 2.49400 31.46500
C  39.48300 2.13800 31.27100
C  39.68400 1.97800 29.88700
C  38.35700 2.14000 29.28500
C  40.49400 1.92300 32.41800
C  40.99200 1.56700 29.19300
O  41.11200 1.44700 27.97700
C  42.20500 1.23300 29.98800
N  35.62900 2.43600 27.99000
C  36.74500 1.95500 27.38100
C  36.46900 1.72000 25.89500
C  34.99600 2.10600 25.68600
C  34.59900 2.61200 27.10300
C  37.48000 2.41100 24.92500
C  34.14200 1.01900 24.93000
C  33.84600 -0.28600 25.72900
N  33.49100 3.31900 29.73400
C  32.74900 3.36200 28.54100
C  31.37400 3.82700 28.94200
C  31.35600 3.94600 30.35900
C  32.66700 3.77000 30.78800
C  30.13300 4.03100 28.02000
C  30.57400 4.24000 31.49800
O  29.41700 4.59900 31.51900
C  31.51700 4.21100 32.75000
C  31.56400 5.54400 33.47500
O  31.90700 6.61300 32.96300
O  31.16700 5.33200 34.75700
C  31.08400 6.49600 35.64300
H  38.24200 2.73100 33.56800
H  38.77900 1.72400 27.31600
H  32.62000 3.10700 26.41700
H  33.90800 4.57900 34.65100
H  36.36100 2.96900 35.03600
H  35.63300 5.85600 34.88200
H  36.94500 5.46200 33.82600
H  37.03800 5.15000 35.68600
H  34.48300 1.69700 35.07300
H  32.95200 2.16100 34.25900
H  33.01900 1.80500 36.99600
H  32.03300 3.00800 36.30600
H  41.53400 2.06600 32.12300
H  40.41500 0.87300 32.70000
H  40.34000 2.58800 33.26700
H  42.56300 2.22600 30.26000
H  42.95000 0.71900 29.38100
H  41.90500 0.55600 30.78800
H  36.58000 0.66400 25.64700
H  34.94900 2.96700 25.02000
H  37.03400 3.05200 24.16400
H  38.04800 1.59900 24.47200
H  38.21400 3.03200 25.43900
H  34.76900 0.71300 24.09200
H  33.20700 1.40900 24.52800
H  34.49500 -0.46500 26.58600
H  34.21200 -1.09300 25.09500
H  32.78100 -0.33600 25.95700
H  30.26200 4.89900 27.37400
H  29.29800 4.16300 28.70800
H  29.86900 3.13900 27.45200
H  31.27100 3.38700 33.42000
H  31.83500 7.21700 35.32100
H  31.29200 6.07500 36.62700
H  30.08800 6.92400 35.53800

