158

Mg 7.47500 54.46100 40.20200
C  6.87700 51.03900 40.31800
C  10.85400 53.84600 39.46100
C  7.96900 57.72600 39.46600
C  4.17500 55.13300 40.68500
N  8.65000 52.67100 39.73000
C  8.15100 51.35800 39.89000
C  9.33000 50.40000 39.66100
C  10.60700 51.31900 39.82000
C  10.08000 52.70500 39.67400
C  11.48100 51.09200 41.06800
C  9.30500 49.56000 38.29000
C  9.28400 50.55900 37.01100
H  7.82700 50.71100 36.39400
N  9.20600 55.56500 39.40900
C  10.50900 55.17400 39.37800
C  11.34600 56.29500 39.09600
C  10.54400 57.47900 39.09300
C  9.14900 56.93500 39.28100
C  12.88100 56.27200 38.87000
C  11.04200 58.97700 38.89200
O  12.21900 59.19400 38.66600
C  10.15500 60.15700 39.11400
N  6.22600 56.15700 39.99300
C  6.64200 57.42800 39.82600
C  5.53400 58.48900 39.90500
C  4.36300 57.63300 40.40300
C  4.97300 56.24100 40.43000
C  5.81000 59.79800 40.71800
C  3.15500 57.63600 39.41000
C  1.75100 57.46500 40.09600
N  5.76700 53.34400 40.40800
C  4.49200 53.70900 40.65100
C  3.73300 52.55800 41.06700
C  4.65000 51.51700 40.93300
C  5.84900 52.02500 40.46700
C  2.25100 52.52200 41.42500
C  4.82600 50.02700 41.13000
O  4.07900 49.18800 41.66000
C  6.27300 49.70200 40.67500
C  6.03100 48.71000 39.50500
O  5.55400 48.98000 38.40700
O  6.12300 47.42000 39.99500
C  6.04300 46.32700 39.02800
H  11.93600 53.69500 39.44700
H  8.10600 58.80000 39.32000
H  3.18100 55.25200 41.12000
H  9.27400 49.69200 40.48800
H  11.21800 51.14200 38.93500
H  11.08700 50.52400 41.91100
H  11.57900 52.11900 41.41900
H  12.49600 50.71600 40.94100
H  8.61300 48.72100 38.37200
H  10.29000 49.10800 38.17100
H  10.05600 50.21300 36.32300
H  9.56200 51.57700 37.28300
H  13.05400 56.80500 37.93500
H  13.20000 55.24900 38.67300
H  13.50000 56.69700 39.66000
H  9.33800 60.31100 38.40800
H  10.75000 61.05900 38.96700
H  9.78500 60.23900 40.13600
H  5.32200 58.78600 38.87800
H  4.05700 57.88000 41.41900
H  5.53500 60.56000 39.98900
H  6.81600 59.90900 41.12300
H  5.12500 59.80700 41.56600
H  3.28400 56.92600 38.59400
H  3.10700 58.60000 38.90300
H  1.89800 57.23400 41.15100
H  1.18100 56.78600 39.46100
H  1.13800 58.36500 40.09400
H  2.00800 51.69900 42.09700
H  1.70500 52.43700 40.48600
H  1.96800 53.40700 41.99400
H  6.87300 49.23400 41.45600
H  6.44200 45.38100 39.39500
H  6.69800 46.53700 38.18300
H  5.00600 46.14400 38.74600
Mg -10.53700 18.01900 43.50300
C  -7.07700 18.44100 43.42500
C  -10.93100 21.46000 43.31900
C  -13.62400 17.44700 42.66600
C  -9.82100 14.51800 43.21200
N  -9.14100 19.74200 43.30900
C  -7.77200 19.66900 43.26800
C  -7.18100 21.12300 43.14400
C  -8.38300 21.93800 43.59700
C  -9.59300 21.02000 43.37600
C  -8.23600 22.52000 45.02900
C  -6.56000 21.42500 41.72600
C  -5.02600 21.61200 41.61000
H  -4.40700 22.13100 40.33800
N  -12.12600 19.31500 43.13100
C  -12.13300 20.69400 43.10200
C  -13.47600 21.09300 42.91200
C  -14.32000 19.93600 42.75900
C  -13.39900 18.85500 42.85100
C  -13.91100 22.57800 42.93000
C  -15.76900 19.94200 42.37300
O  -16.35500 21.02000 42.26800
C  -16.49100 18.75500 42.02000
N  -11.58100 16.18400 42.97600
C  -12.83900 16.24600 42.69900
C  -13.47100 14.83500 42.63500
C  -12.24800 13.90000 42.63400
C  -11.14000 14.89900 42.99400
C  -14.72100 14.55300 43.62200
C  -11.96000 13.09300 41.34600
C  -11.65400 11.55300 41.44500
N  -8.84600 16.66300 43.40300
C  -8.74900 15.30900 43.36700
C  -7.40000 14.86100 43.64300
C  -6.66700 16.11400 43.61200
C  -7.61600 17.15500 43.53200
C  -6.90500 13.45500 43.79100
C  -5.34000 16.74100 43.77400
O  -4.24000 16.23300 44.00000
C  -5.59100 18.31700 43.68700
C  -5.15500 19.01100 44.97100
O  -5.70900 18.93500 46.05800
O  -4.15200 19.89400 44.63800
C  -3.62700 20.66900 45.71600
H  -11.00400 22.54900 43.28700
H  -14.64500 17.11200 42.47000
H  -9.60400 13.44900 43.16100
H  -6.45700 21.13500 43.95900
H  -8.58900 22.78900 42.94800
H  -7.28600 22.99900 45.26800
H  -8.32200 21.65400 45.68500
H  -9.00400 23.28200 45.16000
H  -6.99400 22.34400 41.33000
H  -6.83800 20.68400 40.97800
H  -4.74300 20.56200 41.67700
H  -4.77100 22.26900 42.44200
H  -14.69500 22.60700 43.68700
H  -14.34000 22.88700 41.97700
H  -13.11200 23.27500 43.18300
H  -15.93000 18.20800 41.26300
H  -17.46000 19.12100 41.68200
H  -16.41500 18.22600 42.97000
H  -13.95700 14.76000 41.66300
H  -12.31400 13.17600 43.44700
H  -14.46900 13.59500 44.07700
H  -15.58600 14.49300 42.96200
H  -14.90800 15.37300 44.31500
H  -11.02000 13.50900 40.98200
H  -12.67800 13.44200 40.60400
H  -10.90700 11.41000 40.66400
H  -12.51100 10.89000 41.32500
H  -11.17000 11.34500 42.39900
H  -7.21500 13.01900 44.74100
H  -5.82000 13.49000 43.69800
H  -7.41900 12.98500 42.95300
H  -4.89000 18.60600 42.90400
H  -3.34400 21.58900 45.20400
H  -2.68900 20.21900 46.04100
H  -4.27000 20.83700 46.58000

