158

Mg 46.64700 25.10000 28.84600
C  47.55700 27.34400 31.49200
C  45.52400 23.00600 31.30100
C  46.02900 22.85900 26.45500
C  47.97700 27.34300 26.64900
N  46.71400 25.10500 31.04600
C  46.97700 26.16700 31.84600
C  46.87500 25.83300 33.31700
C  46.51900 24.25500 33.29500
C  46.15800 24.10500 31.78000
C  47.69800 23.35100 33.87400
C  45.82400 26.76800 34.06500
C  46.29200 27.47700 35.34300
H  45.52900 27.30400 36.58300
N  45.80100 23.20400 28.84700
C  45.38800 22.55100 29.92000
C  44.73300 21.38400 29.45500
C  44.81000 21.28100 28.07100
C  45.58900 22.47300 27.73200
C  44.14700 20.32400 30.46600
C  44.56300 20.11600 27.08800
O  44.80900 20.14600 25.92600
C  43.90000 18.90100 27.61900
N  47.21900 24.95600 26.90000
C  46.76300 23.96700 26.08800
C  47.08700 24.32800 24.67600
C  47.30000 25.85800 24.69000
C  47.46100 26.08400 26.13400
C  48.21000 23.44800 23.95900
C  46.00500 26.61200 24.16900
C  44.61300 26.18900 24.60900
N  47.53300 26.98600 28.97600
C  48.14300 27.71500 27.99600
C  48.71200 28.92100 28.54400
C  48.46100 28.89500 29.96100
C  47.88400 27.60900 30.17400
C  49.56600 29.92400 27.74700
C  48.67400 29.53200 31.26900
O  49.17000 30.59900 31.57300
C  48.14500 28.49800 32.39000
C  49.34600 28.20000 33.16100
O  50.15300 27.29700 32.84600
O  49.36400 28.90000 34.39400
C  50.39500 28.42200 35.32400
H  45.12600 22.35900 32.08500
H  45.85600 22.25200 25.56400
H  48.39900 27.97300 25.86300
H  47.86500 25.86400 33.77300
H  45.66500 24.10800 33.95600
H  47.83500 22.40500 33.35000
H  47.47900 23.28500 34.94000
H  48.63300 23.90700 33.80500
H  45.00000 26.10300 34.32100
H  45.55600 27.49900 33.30200
H  46.31900 28.54700 35.13900
H  47.28400 27.08200 35.56400
H  44.43700 19.31600 30.16900
H  43.06000 20.34500 30.53700
H  44.48700 20.41500 31.49800
H  44.45800 18.24300 28.28500
H  43.52900 18.31000 26.78200
H  42.99800 19.17000 28.17000
H  46.12800 24.10600 24.20700
H  48.24000 26.14700 24.22000
H  48.58200 22.68000 24.63700
H  49.06600 24.00600 23.57900
H  47.87700 22.89800 23.07900
H  45.92300 26.74800 23.09100
H  46.19300 27.60600 24.57500
H  44.48700 25.41600 25.36700
H  43.86400 26.15000 23.81900
H  44.26400 26.97700 25.27700
H  49.84000 29.55400 26.75900
H  50.52600 30.12500 28.22000
H  49.10300 30.90400 27.63100
H  47.37600 29.00200 32.97500
H  51.36900 28.23300 34.87200
H  50.08300 27.48100 35.77800
H  50.50300 29.25500 36.01800
Mg 29.91100 57.21600 41.11100
C  27.05000 55.82300 39.65600
C  31.83000 55.04400 39.29900
C  32.61900 59.23500 41.72300
C  27.86100 59.89500 42.31600
N  29.41400 55.66500 39.53800
C  28.22200 55.15300 39.24500
C  28.32800 53.81700 38.45600
C  29.88200 53.61800 38.35300
C  30.43500 54.82700 39.14200
C  30.45200 52.21700 38.86200
C  27.51500 53.81600 37.12100
C  27.29100 55.09400 36.33300
H  27.76000 55.08100 34.82700
N  31.90200 57.00700 40.79700
C  32.49500 56.03400 40.04400
C  33.94500 56.24400 39.99500
C  34.25700 57.47300 40.71600
C  32.88300 57.99500 41.10800
C  34.85300 55.28500 39.39800
C  35.62300 58.03400 40.86400
O  36.62600 57.47500 40.45700
C  35.84200 59.37100 41.43700
N  30.14500 59.25500 41.90700
C  31.38300 59.84900 42.06000
C  31.32100 61.36300 42.49200
C  29.88400 61.40900 43.02400
C  29.20700 60.15000 42.36400
C  32.53900 61.78900 43.42700
C  29.21800 62.72300 42.75200
C  28.63300 63.42300 43.90700
N  27.88000 57.69800 41.11400
C  27.21800 58.77200 41.68500
C  25.81100 58.53500 41.55500
C  25.66900 57.38500 40.79800
C  26.93600 56.96600 40.47000
C  24.69300 59.39400 42.10100
C  24.74100 56.51900 40.13400
O  23.51200 56.49800 40.05800
C  25.62500 55.41300 39.36200
C  25.34100 54.04400 39.95200
O  25.79000 53.53200 40.99300
O  24.33900 53.51000 39.24800
C  23.94400 52.16800 39.70400
H  32.44700 54.39500 38.67400
H  33.43000 59.95800 41.83500
H  27.27900 60.69600 42.77700
H  27.96400 52.99000 39.06500
H  30.18800 53.62400 37.30700
H  31.11900 52.27400 39.72300
H  31.07100 51.73000 38.10900
H  29.63300 51.56000 39.15400
H  26.53100 53.41800 37.36900
H  27.87700 52.98500 36.51600
H  27.74900 55.92400 36.87200
H  26.22000 55.27800 36.25000
H  35.80400 55.74700 39.13200
H  34.45800 54.92000 38.45000
H  35.03400 54.43700 40.05800
H  35.39200 60.10700 40.77100
H  36.91300 59.52700 41.56700
H  35.35800 59.55300 42.39700
H  31.43600 61.98800 41.60700
H  29.93300 61.27900 44.10500
H  33.26800 62.41000 42.90500
H  33.06100 60.91200 43.80900
H  32.13200 62.32600 44.28400
H  28.47500 62.52400 41.97900
H  29.87000 63.43300 42.24500
H  27.61100 63.69300 43.63900
H  29.28400 64.26100 44.15400
H  28.56800 62.84200 44.82700
H  24.24200 60.01100 41.32400
H  25.04400 60.01600 42.92400
H  23.89400 58.81700 42.56600
H  25.25600 55.47500 38.33800
H  23.24500 51.79300 38.95700
H  23.48500 52.21800 40.69200
H  24.84600 51.55800 39.75000

