158

Mg 34.22900 3.76800 29.61500
C  32.17300 4.74300 32.25900
C  36.88100 3.56500 31.75900
C  36.13000 2.84500 27.02300
C  31.47200 4.29700 27.41300
N  34.49400 4.29500 31.66600
C  33.51100 4.49200 32.60700
C  34.08600 4.37500 34.06500
C  35.59300 4.40200 33.79700
C  35.65800 3.99200 32.32000
C  36.27100 5.76500 34.25800
C  33.44500 3.19400 34.86800
C  33.34200 3.22500 36.35500
H  33.97200 4.40400 37.08700
N  36.21000 3.37600 29.36700
C  37.15500 3.29400 30.37000
C  38.43100 2.94100 29.77100
C  38.27100 2.65700 28.42400
C  36.77700 2.94200 28.22700
C  39.75200 2.91100 30.54000
C  39.31200 2.28500 27.37500
O  39.06500 2.44800 26.19600
C  40.59200 1.65400 27.75100
N  33.76000 3.38900 27.61000
C  34.80000 3.08100 26.69700
C  34.30700 3.10600 25.29100
C  32.85200 3.61300 25.36100
C  32.64200 3.73300 26.90300
C  35.17000 3.94100 24.34900
C  31.96100 2.61000 24.57900
C  31.39000 1.37000 25.28100
N  32.22400 4.31900 29.78500
C  31.23700 4.54000 28.81500
C  29.97600 4.92400 29.42600
C  30.26200 5.02200 30.83500
C  31.62200 4.66700 30.98100
C  28.61200 5.18100 28.68000
C  29.76600 5.28200 32.16700
O  28.61800 5.58200 32.51000
C  30.99500 5.18000 33.14100
C  31.10500 6.49000 33.82200
O  31.25500 7.60600 33.27000
O  31.04000 6.32600 35.13000
C  31.41400 7.47800 35.97800
H  37.79800 3.45200 32.34000
H  36.81700 2.58600 26.21500
H  30.70400 4.60000 26.69800
H  33.62000 5.22300 34.56600
H  35.94600 3.55000 34.37800
H  37.00800 5.56500 35.03600
H  35.42900 6.39300 34.54800
H  36.69400 6.19200 33.34900
H  33.96400 2.28700 34.55800
H  32.44100 3.01000 34.48500
H  33.73000 2.29200 36.76500
H  32.27700 3.30400 36.57400
H  39.64400 3.56100 31.40900
H  40.60300 3.20400 29.92500
H  40.07900 1.90500 30.80100
H  40.99400 1.02000 26.96100
H  40.40800 0.99400 28.59900
H  41.37800 2.37300 27.98100
H  34.40800 2.09000 24.90800
H  32.82300 4.56700 24.83400
H  35.92000 4.51000 24.89800
H  34.61600 4.67600 23.76600
H  35.69300 3.30800 23.63200
H  32.40200 2.33000 23.62300
H  31.09500 3.19200 24.26200
H  31.37600 0.54100 24.57300
H  30.36800 1.56500 25.60500
H  32.10900 1.00100 26.01300
H  27.87100 5.40900 29.44700
H  28.23100 4.31000 28.14800
H  28.71900 6.01100 27.98100
H  30.80100 4.35900 33.83200
H  31.61300 7.05000 36.96100
H  30.65800 8.26300 35.96200
H  32.35500 7.87900 35.60100
Mg 1.53700 41.93400 25.35000
C  2.45700 42.00800 28.70900
C  -1.29400 40.23700 26.51600
C  0.81200 40.99200 22.16900
C  4.79200 42.61700 24.32900
N  0.58600 41.40100 27.46700
C  1.16500 41.62000 28.63600
C  0.19700 41.26000 29.78600
C  -0.97700 40.46000 29.01400
C  -0.47000 40.58100 27.57800
C  -1.27300 39.00900 29.46400
C  -0.26900 42.40900 30.64800
C  -0.19300 42.28400 32.19700
H  -0.59700 40.91900 32.79700
N  -0.09700 40.97900 24.51000
C  -1.16600 40.44000 25.15100
C  -2.13200 40.13200 24.10100
C  -1.51300 40.27000 22.87800
C  -0.20100 40.80500 23.10600
C  -3.49600 39.68200 24.51600
C  -2.23600 40.07300 21.51300
O  -1.71700 40.21800 20.44000
C  -3.59400 39.39900 21.42500
N  2.62700 41.73700 23.54300
C  2.09700 41.36500 22.33600
C  3.04600 41.65100 21.17000
C  4.16700 42.50100 21.96100
C  3.87600 42.21800 23.34700
C  3.50400 40.45400 20.35200
C  4.31100 44.02100 21.62700
C  2.97600 44.81600 21.32600
N  3.20300 42.33500 26.27800
C  4.50000 42.62600 25.74400
C  5.35900 42.99000 26.86600
C  4.62500 42.63300 28.00900
C  3.30000 42.32300 27.61000
C  6.76100 43.34500 26.78400
C  4.67500 42.66100 29.47700
O  5.62100 42.97400 30.19600
C  3.32600 42.17200 29.96600
C  3.52900 40.88000 30.61000
O  3.99500 39.92600 30.01600
O  3.23000 40.96700 31.92100
C  3.54200 39.78800 32.63400
H  -2.18800 39.73300 26.88700
H  0.52400 40.59700 21.19300
H  5.75000 42.98800 23.95900
H  0.69700 40.57500 30.47100
H  -1.89400 41.03200 28.87300
H  -0.63900 38.67900 30.28700
H  -1.00800 38.31600 28.66500
H  -2.29000 38.85500 29.82600
H  -1.29200 42.64800 30.35700
H  0.33100 43.29600 30.44500
H  -0.87800 43.04200 32.57600
H  0.77900 42.53700 32.62000
H  -3.70600 39.83400 25.57500
H  -3.42200 38.60800 24.34500
H  -4.23400 40.18400 23.89100
H  -4.35600 40.17500 21.35600
H  -3.81300 38.60500 22.13900
H  -3.55100 38.91300 20.45100
H  2.49800 42.27400 20.46300
H  5.07600 42.01700 21.60500
H  2.94500 39.57000 20.65800
H  4.57000 40.23300 20.41200
H  3.26200 40.59400 19.29900
H  4.80400 44.01500 20.65500
H  4.89200 44.66100 22.29100
H  2.11200 44.15500 21.39000
H  3.15000 45.32700 20.37900
H  2.87400 45.55800 22.11800
H  6.90300 44.29000 27.30800
H  7.22400 43.56100 25.82200
H  7.32300 42.54600 27.26900
H  2.96100 42.92900 30.66000
H  4.46800 39.35100 32.25900
H  2.75600 39.06900 32.40100
H  3.52700 39.91900 33.71600

