158

Mg 8.35400 3.99900 28.18400
C  9.73700 2.37300 31.09400
C  6.58600 6.01000 30.34700
C  6.79900 5.13200 25.53700
C  9.90500 1.43400 26.25000
N  8.15200 4.05900 30.49100
C  8.77100 3.34800 31.44600
C  8.62100 4.02100 32.80600
C  7.48800 5.06800 32.52400
C  7.36500 4.97900 31.00100
C  6.12000 4.94900 33.30800
C  9.94400 4.56200 33.33600
C  10.58100 3.97600 34.65100
H  10.66300 4.87600 35.90200
N  6.92000 5.47300 27.96200
C  6.33200 6.28100 28.95700
C  5.49700 7.26500 28.31500
C  5.63800 7.08900 26.90600
C  6.38700 5.83400 26.71200
C  4.72500 8.39000 29.06200
C  5.12100 7.92100 25.84800
O  4.99000 7.42600 24.67500
C  4.72600 9.38200 26.01800
N  8.13100 3.23900 26.26100
C  7.62600 4.01000 25.28000
C  8.05100 3.63000 23.86100
C  9.15400 2.61400 24.04500
C  9.06100 2.37600 25.59900
C  6.94300 3.24800 22.82500
C  10.57300 3.00200 23.51700
C  11.44700 3.88800 24.45400
N  9.58400 2.17800 28.51000
C  10.10800 1.25300 27.62500
C  11.03000 0.42500 28.30500
C  10.86200 0.84100 29.65400
C  9.92700 1.81200 29.73600
C  11.92400 -0.55900 27.69200
C  11.30300 0.56200 30.95900
O  12.08500 -0.25900 31.31000
C  10.62400 1.48300 31.94400
C  9.92300 0.76700 32.93500
O  8.79600 0.28300 32.78500
O  10.61900 0.70500 34.14300
C  9.69700 0.32000 35.22200
H  6.26900 6.76300 31.07100
H  6.46000 5.50800 24.56900
H  10.30700 0.69900 25.54900
H  8.20400 3.28700 33.49500
H  7.75800 6.10700 32.71400
H  5.57000 5.88800 33.37200
H  6.47900 4.62700 34.28500
H  5.58100 4.06400 32.97100
H  9.71200 5.61200 33.51300
H  10.68700 4.57800 32.53800
H  11.60200 3.68100 34.40800
H  9.98300 3.12100 34.96700
H  5.05000 9.39200 28.78400
H  4.95800 8.21000 30.11100
H  3.64200 8.31500 28.95800
H  3.83100 9.32200 26.63800
H  4.48500 9.77700 25.03100
H  5.51600 9.95100 26.50900
H  8.56800 4.49200 23.44000
H  8.81900 1.68200 23.59200
H  5.98300 3.07500 23.31100
H  7.21300 2.37500 22.23100
H  6.82800 4.07700 22.12700
H  10.47700 3.57300 22.59300
H  11.07900 2.05100 23.35300
H  10.96100 4.28800 25.34300
H  11.76500 4.72600 23.83200
H  12.34100 3.34100 24.75500
H  12.10300 -0.23400 26.66700
H  11.63900 -1.61000 27.73600
H  12.85400 -0.41900 28.24300
H  11.31500 2.05700 32.56300
H  9.37100 -0.71800 35.16000
H  8.89200 1.05300 35.16300
H  10.17900 0.38900 36.19700
Mg 24.28000 -5.18200 46.52000
C  26.20200 -2.83100 44.71500
C  21.67600 -4.67700 44.33800
C  22.73700 -7.96000 47.79200
C  27.07400 -5.95600 48.48400
N  24.11800 -4.00100 44.64600
C  24.93100 -2.96400 44.23400
C  24.29900 -2.15000 43.07600
C  22.83100 -2.60400 43.20200
C  22.84600 -3.86400 44.08900
C  21.87900 -1.40900 43.76200
C  25.00600 -2.38700 41.71400
C  25.49600 -1.09500 41.11700
H  24.98700 -0.94200 39.66100
N  22.45800 -6.14600 46.20600
C  21.48100 -5.75600 45.26500
C  20.26300 -6.55800 45.37100
C  20.54800 -7.49100 46.39700
C  22.01700 -7.27300 46.83300
C  19.07100 -6.43700 44.48400
C  19.59400 -8.58900 46.86600
O  18.45600 -8.77900 46.41200
C  19.94600 -9.45500 47.98700
N  24.77800 -6.73900 47.95200
C  23.93200 -7.78300 48.29400
C  24.72300 -8.84700 49.07000
C  26.12800 -8.13900 49.42700
C  26.01800 -6.90100 48.53400
C  24.05200 -9.54300 50.27800
C  27.37300 -9.00800 49.28100
C  28.50500 -8.88200 50.25900
N  26.24500 -4.53600 46.71300
C  27.27400 -4.86100 47.57800
C  28.37100 -4.04300 47.36800
C  28.02500 -3.28600 46.21000
C  26.71000 -3.61000 45.82900
C  29.58400 -3.80600 48.23400
C  28.53400 -2.24100 45.33900
O  29.63700 -1.66800 45.39200
C  27.44300 -2.02600 44.21000
C  27.08700 -0.58100 44.33500
O  26.45100 -0.03300 45.24700
O  27.68500 0.07400 43.30400
C  27.80200 1.52900 43.40400
H  20.85100 -4.28200 43.74300
H  22.23200 -8.91000 47.98200
H  27.93800 -6.22100 49.09800
H  24.21900 -1.09300 43.33100
H  22.55100 -2.94300 42.20500
H  20.92200 -1.31500 43.24800
H  22.26600 -0.39100 43.77600
H  21.57100 -1.60600 44.78900
H  24.31100 -2.95300 41.09300
H  25.83200 -3.08000 41.87400
H  26.58600 -1.09200 41.09900
H  25.20200 -0.19800 41.66200
H  19.17500 -7.28500 43.80700
H  19.08100 -5.48800 43.94700
H  18.16500 -6.55400 45.07900
H  20.42200 -8.89400 48.79100
H  20.67800 -10.17100 47.61200
H  19.18400 -10.13900 48.36000
H  24.87800 -9.60500 48.30200
H  26.07600 -7.78600 50.45700
H  23.72900 -10.50900 49.89100
H  23.26300 -8.90500 50.67600
H  24.80600 -9.64800 51.05800
H  27.75500 -8.86800 48.26900
H  27.03600 -10.04500 49.29100
H  28.78900 -9.74600 50.86000
H  28.21600 -8.03000 50.87400
H  29.46000 -8.67300 49.77700
H  29.96200 -4.81000 48.42800
H  29.31000 -3.34300 49.18200
H  30.52100 -3.50500 47.76600
H  27.83500 -2.25100 43.21800
H  28.76700 1.71900 43.87500
H  26.95400 1.95500 43.94000
H  27.85800 1.87500 42.37100

