158

Mg 26.70600 50.15100 26.42300
C  24.44900 51.35300 28.91600
C  28.74600 49.23900 29.03000
C  28.88500 49.10200 24.09300
C  24.81900 51.81100 23.96900
N  26.53500 50.23600 28.73600
C  25.41900 50.57000 29.49100
C  25.76700 50.42700 31.03200
C  27.21600 49.76100 31.03400
C  27.58000 49.79400 29.48500
C  28.25400 50.43200 31.99600
C  24.69200 49.59000 31.87800
C  24.21800 50.26700 33.17000
H  23.82000 49.38800 34.34900
N  28.52100 49.24000 26.59200
C  29.21000 48.94500 27.77100
C  30.47400 48.31200 27.45600
C  30.57200 48.25900 25.98000
C  29.25400 48.86200 25.47900
C  31.52400 47.98200 28.43900
C  31.63900 47.88100 25.07600
O  31.53200 48.19800 23.88900
C  32.87900 47.18400 25.68900
N  26.80200 50.38000 24.36000
C  27.78600 49.81200 23.63800
C  27.64400 50.05500 22.12100
C  26.26300 50.88500 22.07900
C  25.93400 50.97200 23.57300
C  28.80700 50.84600 21.51100
C  25.12400 50.11700 21.36600
C  24.27400 50.91000 20.28700
N  25.06300 51.38200 26.42000
C  24.36000 51.95200 25.33400
C  23.15700 52.63500 25.80900
C  23.10800 52.35700 27.22900
C  24.27600 51.64300 27.50000
C  22.00100 53.19200 24.97300
C  22.32100 52.48300 28.39300
O  21.19100 52.93000 28.50500
C  23.14300 51.88400 29.56400
C  23.47700 52.85100 30.65500
O  24.40800 53.66300 30.48900
O  22.55700 52.88900 31.69000
C  22.72200 53.98200 32.70200
H  29.38700 48.87200 29.83400
H  29.50300 48.75600 23.26200
H  24.21800 52.11400 23.10800
H  25.77900 51.45600 31.39000
H  27.13800 48.70700 31.30100
H  28.36400 49.75900 32.84700
H  27.85400 51.39200 32.32300
H  29.18800 50.55100 31.44600
H  25.21700 48.65800 32.08500
H  23.87200 49.51100 31.16400
H  23.44300 51.03200 33.11100
H  24.97000 50.92800 33.60100
H  32.27800 48.74300 28.23900
H  31.74700 46.93400 28.23900
H  31.26100 48.02400 29.49600
H  33.71700 47.13500 24.99400
H  32.67200 46.25300 26.21800
H  33.27000 47.84700 26.46000
H  27.60400 49.07900 21.63700
H  26.29900 51.86400 21.60200
H  28.49700 51.73700 20.96300
H  29.45900 50.29400 20.83400
H  29.38900 51.17400 22.37200
H  24.47700 49.70600 22.14000
H  25.65900 49.29100 20.89800
H  24.19600 50.12500 19.53500
H  24.65400 51.74700 19.70100
H  23.28300 51.19800 20.63800
H  21.18300 53.52300 25.61200
H  21.46500 52.50800 24.31500
H  22.33300 53.99700 24.31700
H  22.47000 51.11500 29.94400
H  21.89900 54.68200 32.55900
H  23.59600 54.60000 32.49900
H  22.66300 53.51800 33.68700
Mg -13.24600 16.33800 41.74300
C  -10.22000 14.63900 41.08800
C  -11.81900 19.16500 40.30200
C  -16.19900 17.63500 42.00700
C  -14.50900 13.22600 42.85200
N  -11.24700 16.83900 40.76400
C  -10.22400 15.99000 40.63500
C  -9.01300 16.68000 39.88600
C  -9.49300 18.19500 39.77900
C  -10.87600 18.08400 40.34500
C  -8.56800 19.19000 40.54900
C  -8.58700 15.95700 38.55700
C  -7.12600 15.55900 38.44800
H  -6.45600 16.02800 37.18900
N  -13.92800 18.12800 41.18800
C  -13.20500 19.16800 40.65300
C  -14.10700 20.38100 40.58500
C  -15.40800 20.00800 41.14900
C  -15.21500 18.50600 41.51300
C  -13.71700 21.77900 40.02900
C  -16.55300 20.99300 41.40200
O  -16.45300 22.17300 41.06000
C  -17.74800 20.53800 42.22300
N  -15.20000 15.34800 42.10600
C  -16.23400 16.26800 42.36600
C  -17.55300 15.40100 42.61600
C  -16.83900 14.17800 43.23600
C  -15.44200 14.19600 42.69400
C  -18.54800 16.05800 43.62000
C  -17.60400 12.84600 42.92100
C  -17.61300 11.74500 43.98100
N  -12.54000 14.29800 41.99000
C  -13.16100 13.16600 42.46700
C  -12.15800 12.11500 42.55400
C  -11.01900 12.62700 42.05000
C  -11.26100 13.95200 41.66000
C  -12.45100 10.80700 43.08000
C  -9.62200 12.25600 41.72100
O  -8.96800 11.22100 41.90200
C  -9.06400 13.59200 41.01900
C  -7.79900 14.03700 41.79100
O  -7.75400 14.93800 42.62100
O  -6.71600 13.37000 41.28000
C  -5.47200 13.70000 41.91900
H  -11.40700 20.09600 39.90600
H  -17.23200 17.98600 42.04100
H  -14.80300 12.28300 43.31900
H  -8.17200 16.62700 40.57700
H  -9.56200 18.41700 38.71500
H  -8.16200 19.91700 39.84600
H  -7.73700 18.66500 41.02000
H  -9.15800 19.71800 41.29800
H  -8.75900 16.60900 37.70100
H  -9.20200 15.08100 38.35400
H  -6.98800 14.49100 38.62100
H  -6.51900 15.88700 39.29200
H  -14.35400 21.96200 39.16300
H  -12.70400 21.75700 39.62600
H  -13.67100 22.55700 40.79100
H  -18.43600 19.88100 41.69200
H  -18.46300 21.35000 42.35800
H  -17.48400 19.85200 43.02800
H  -18.04800 15.11900 41.68700
H  -16.80800 14.30500 44.31900
H  -18.26800 17.08800 43.84200
H  -18.70100 15.56100 44.57700
H  -19.49300 16.09300 43.07800
H  -17.20400 12.54400 41.95300
H  -18.65900 13.04400 42.72700
H  -18.68300 11.62700 44.15600
H  -17.09700 12.03600 44.89600
H  -17.15700 10.90900 43.45200
H  -13.12100 10.25900 42.41800
H  -13.03000 10.98000 43.98700
H  -11.61600 10.22600 43.47200
H  -8.73900 13.22300 40.04600
H  -5.28900 14.76600 41.78500
H  -4.66300 13.33300 41.28700
H  -5.50800 13.38400 42.96200

