158

Mg -1.99100 17.38700 27.08000
C  -2.54200 15.31800 29.81400
C  -2.82100 20.12600 28.99700
C  -1.82800 19.37500 24.36800
C  -2.09900 14.54600 24.98400
N  -2.74800 17.56100 29.07500
C  -2.64800 16.67000 30.11900
C  -2.83700 17.31200 31.48600
C  -3.15400 18.77300 31.15000
C  -2.85800 18.85400 29.60700
C  -4.54200 19.26200 31.55100
C  -1.64300 17.19200 32.48700
C  -2.01600 16.41000 33.83200
H  -0.85500 16.22700 34.92100
N  -2.06900 19.52800 26.76500
C  -2.46700 20.40900 27.69000
C  -2.55000 21.75400 27.09400
C  -2.04100 21.56100 25.77700
C  -1.98500 20.10600 25.57400
C  -3.01200 23.01100 27.75700
C  -1.72400 22.49600 24.74700
O  -1.60100 22.16200 23.54900
C  -1.48400 23.95600 25.10400
N  -2.01700 17.03500 24.98100
C  -1.90700 17.98100 24.05300
C  -1.69700 17.51800 22.62000
C  -1.54200 15.97300 22.84400
C  -1.88000 15.78800 24.37600
C  -2.77900 18.00600 21.66200
C  -0.21400 15.38000 22.34600
C  1.08600 15.92200 22.95000
N  -2.16500 15.36900 27.36500
C  -2.27500 14.35300 26.37100
C  -2.61500 13.20700 27.03300
C  -2.57400 13.46200 28.37200
C  -2.33400 14.80900 28.54900
C  -2.97700 11.83800 26.38400
C  -2.75900 12.88200 29.67300
O  -3.15800 11.77400 29.99800
C  -2.56700 14.07200 30.69300
C  -1.29700 13.81100 31.50000
O  -0.21900 14.33900 31.25800
O  -1.46200 12.79800 32.39500
C  -0.35600 12.40500 33.28800
H  -2.95400 20.98500 29.65800
H  -1.70200 19.91700 23.42800
H  -2.07300 13.66000 24.34500
H  -3.60800 16.73400 31.99500
H  -2.45400 19.39300 31.71000
H  -5.03500 19.40400 30.59000
H  -4.67100 20.18400 32.11800
H  -5.12900 18.47400 32.02200
H  -1.25200 18.13700 32.86400
H  -0.70500 16.78500 32.11000
H  -2.39900 15.40900 33.63600
H  -2.80600 16.92200 34.38200
H  -3.67700 23.45600 27.01700
H  -2.18700 23.67200 28.02400
H  -3.58400 22.76200 28.65000
H  -0.71100 24.39600 24.47500
H  -1.20900 24.12600 26.14500
H  -2.37700 24.56300 24.95400
H  -0.79900 17.98400 22.21400
H  -2.35200 15.46100 22.32400
H  -3.68000 17.45800 21.93600
H  -2.58800 17.80500 20.60800
H  -2.95600 19.08200 21.67900
H  -0.23600 15.61300 21.28100
H  -0.33400 14.29900 22.41400
H  1.75000 16.47300 22.28400
H  1.64000 15.05200 23.30300
H  0.82100 16.72000 23.64300
H  -2.70200 10.96800 26.98100
H  -2.33200 11.56200 25.55000
H  -4.00800 11.88100 26.03100
H  -3.41400 14.03200 31.37800
H  -0.81200 12.00300 34.19200
H  0.38900 13.13100 33.61400
H  0.12500 11.46000 33.03300
Mg 30.64300 58.02500 39.72800
C  27.54700 56.38900 38.97900
C  32.28300 55.17100 38.91600
C  33.37600 59.94600 39.46300
C  28.57200 60.86700 40.56900
N  29.98700 56.09700 38.92000
C  28.69500 55.62000 38.67800
C  28.75000 54.13300 38.43800
C  30.14900 53.79000 38.92400
C  30.85400 55.06600 38.93900
C  30.36700 52.99200 40.24700
C  28.24700 53.68900 37.00000
C  27.83400 54.76300 36.01900
H  28.20700 54.52300 34.52200
N  32.55600 57.62300 39.35600
C  33.09200 56.34600 38.95600
C  34.49000 56.44100 38.58800
C  34.87800 57.83900 38.80700
C  33.62400 58.57300 39.26800
C  35.41500 55.29800 38.15900
C  36.21100 58.47600 38.42800
O  37.06400 57.78700 37.90200
C  36.53700 59.94100 38.56900
N  30.92800 60.10100 39.97800
C  32.18000 60.59000 39.95700
C  32.05900 62.14000 40.32600
C  30.64800 62.36700 40.82500
C  29.94900 61.06500 40.50300
C  33.18200 62.56800 41.33100
C  29.94000 63.49700 40.13600
C  29.06600 64.46800 40.87800
N  28.46300 58.55500 39.83800
C  27.84500 59.78500 40.09200
C  26.48300 59.58100 39.93300
C  26.29200 58.29300 39.44000
C  27.57500 57.68700 39.33200
C  25.40000 60.64100 40.18700
C  25.28600 57.42300 38.96900
O  24.11800 57.51900 38.67400
C  26.08900 56.04900 38.73400
C  25.60600 55.14600 39.76900
O  25.98500 55.04900 40.89600
O  24.79400 54.17400 39.22000
C  24.49000 53.12600 40.13800
H  32.93200 54.29800 38.82200
H  34.19000 60.67400 39.44800
H  27.91800 61.69300 40.85900
H  28.07300 53.64000 39.13500
H  30.69500 53.23200 38.16400
H  30.57500 53.76700 40.98500
H  31.20000 52.32700 40.02000
H  29.44000 52.47500 40.49400
H  27.45100 52.95400 37.12000
H  29.04200 53.16700 36.46700
H  28.04500 55.77900 36.35300
H  26.76100 54.73800 35.82700
H  34.79100 54.41300 38.03500
H  36.16500 54.97200 38.88000
H  35.84400 55.68300 37.23400
H  37.55500 60.10300 38.21400
H  36.37100 60.16900 39.62200
H  35.93300 60.63100 37.97900
H  32.34900 62.57100 39.36800
H  30.68200 62.37200 41.91400
H  32.79400 63.27100 42.06800
H  34.07200 62.96800 40.84600
H  33.57100 61.70200 41.86700
H  29.49200 63.13600 39.21000
H  30.78300 64.09900 39.79900
H  28.05400 64.10100 40.71000
H  29.24200 65.45100 40.44100
H  29.34700 64.48400 41.93100
H  24.66400 60.21800 40.87000
H  25.04700 61.08600 39.25700
H  25.86700 61.44100 40.76000
H  25.87900 55.67600 37.73100
H  24.22800 53.48500 41.13400
H  25.38100 52.54800 40.38500
H  23.85100 52.37100 39.68100

