158

Mg 43.86000 3.91200 47.53700
C  41.99300 6.78500 47.09700
C  41.02700 2.05300 47.02200
C  45.95300 1.27900 47.30800
C  46.75300 6.08400 47.49800
N  41.73200 4.36000 47.26200
C  41.20400 5.60700 47.02200
C  39.69300 5.57500 46.66300
C  39.37200 4.10200 47.07600
C  40.75400 3.46400 47.18800
C  38.73500 4.13200 48.47500
C  39.44000 6.01600 45.24600
C  38.30500 6.98800 44.94200
H  37.45800 6.61900 43.68200
N  43.54100 1.96600 47.35400
C  42.32200 1.40600 47.14800
C  42.54100 0.00200 46.86600
C  43.95100 -0.28200 46.89700
C  44.55600 1.02600 47.20600
C  41.46300 -0.96100 46.64600
C  44.56500 -1.63600 46.57100
O  43.86100 -2.58700 46.21300
C  46.12400 -1.88700 46.56100
N  46.08600 3.76400 47.11700
C  46.65300 2.49900 47.32200
C  48.14300 2.58700 47.58800
C  48.42600 4.07200 47.62700
C  47.00100 4.70700 47.40800
C  48.57300 1.80800 48.91200
C  49.39400 4.55900 46.51000
C  50.34100 5.69700 46.85600
N  44.35900 6.05000 47.43100
C  45.53200 6.74600 47.54300
C  45.28700 8.17400 47.49600
C  43.88000 8.26000 47.32300
C  43.34500 6.94700 47.29700
C  46.28100 9.25700 47.51600
C  42.76900 9.16200 47.24100
O  42.67000 10.35100 47.19500
C  41.52100 8.26600 46.97200
C  40.61200 8.65500 48.05700
O  40.67900 8.32600 49.28200
O  39.60700 9.45100 47.52800
C  38.70200 10.03600 48.53000
H  40.16000 1.42700 46.79900
H  46.56200 0.38600 47.46400
H  47.68100 6.64100 47.64700
H  39.18000 6.27100 47.32600
H  38.79000 3.70600 46.24300
H  39.42900 4.42400 49.26200
H  38.17900 3.22700 48.72300
H  37.97700 4.90200 48.61500
H  39.23200 5.09500 44.70100
H  40.36300 6.43100 44.84200
H  38.72900 7.98500 44.81500
H  37.64100 7.07800 45.80200
H  40.57400 -0.68300 47.21200
H  41.64400 -1.98200 46.98200
H  41.13100 -1.00100 45.60800
H  46.57900 -1.88500 47.55100
H  46.67500 -1.23000 45.88700
H  46.31000 -2.90000 46.20300
H  48.72000 2.20200 46.74700
H  48.82200 4.42200 48.58100
H  47.75600 1.91700 49.62600
H  49.46600 2.21900 49.38200
H  48.64400 0.76200 48.61500
H  48.92000 4.97900 45.62400
H  49.99300 3.72500 46.14300
H  50.07800 6.13600 47.81900
H  50.26700 6.46100 46.08200
H  51.36500 5.32700 46.80700
H  47.11000 8.98900 46.86100
H  46.54000 9.50900 48.54500
H  45.63900 10.03300 47.09800
H  41.18000 8.49200 45.96200
H  39.08300 11.04700 48.67500
H  38.49000 9.47900 49.44300
H  37.73100 10.25500 48.08700
Mg -11.50300 16.56900 40.24900
C  -8.28900 15.00900 39.54300
C  -10.23000 19.43100 38.84600
C  -14.65300 17.60600 39.77000
C  -12.67100 13.42400 41.00200
N  -9.52300 17.05900 39.39300
C  -8.31500 16.33400 39.22100
C  -7.12600 17.20900 38.77400
C  -7.79600 18.59900 38.75800
C  -9.32400 18.38300 38.96500
C  -7.22500 19.60100 39.82000
C  -6.67900 16.85400 37.42000
C  -5.43600 17.62400 36.88300
H  -4.55600 16.89800 35.79400
N  -12.30000 18.43500 39.69100
C  -11.67400 19.48100 39.13800
C  -12.62700 20.61900 38.87800
C  -13.92400 20.07900 39.22400
C  -13.64000 18.64500 39.58100
C  -12.27700 22.00900 38.38800
C  -15.20600 20.85200 39.08700
O  -15.12400 21.95500 38.59500
C  -16.48300 20.13800 39.36200
N  -13.42900 15.62800 40.37900
C  -14.61000 16.26800 40.11500
C  -15.76000 15.34500 40.37800
C  -15.10300 13.99300 40.56300
C  -13.61900 14.36900 40.72600
C  -16.69600 15.83400 41.58600
C  -15.27000 13.06300 39.36900
C  -15.69000 11.65500 39.69300
N  -10.67800 14.64100 40.43300
C  -11.25900 13.49300 40.74700
C  -10.33200 12.43100 40.81400
C  -9.16600 12.97500 40.37400
C  -9.42800 14.27600 40.04600
C  -10.51500 10.95500 40.98200
C  -7.75800 12.66800 40.09200
O  -7.08000 11.65700 40.08700
C  -7.19000 13.96200 39.56600
C  -5.96800 14.18900 40.29700
O  -5.86800 14.76100 41.37300
O  -4.84800 13.77000 39.55000
C  -3.44000 14.31900 39.74600
H  -9.76700 20.31000 38.39200
H  -15.68200 17.81600 39.46800
H  -13.06200 12.44300 41.28100
H  -6.39400 17.05200 39.56600
H  -7.69400 19.13500 37.81500
H  -6.36100 20.11800 39.40200
H  -6.98500 18.91400 40.63100
H  -7.88700 20.31700 40.30800
H  -7.49000 16.90700 36.69400
H  -6.31700 15.82800 37.35000
H  -4.80600 17.92000 37.72200
H  -5.68300 18.54500 36.35500
H  -12.28300 22.31800 37.34300
H  -11.21000 22.02000 38.61200
H  -12.80400 22.69600 39.05000
H  -17.19100 20.96100 39.26300
H  -16.53600 19.73500 40.37300
H  -16.67100 19.36500 38.61700
H  -16.31400 15.33900 39.43900
H  -15.39800 13.60100 41.53600
H  -16.13400 16.71600 41.89200
H  -16.59000 15.16800 42.44200
H  -17.69600 16.10300 41.24600
H  -14.32300 13.05900 38.82900
H  -15.98600 13.47300 38.65700
H  -16.75200 11.41300 39.69800
H  -15.22600 11.24600 40.59000
H  -15.23600 11.00900 38.94100
H  -11.13100 10.74400 41.85600
H  -9.60000 10.36400 41.02900
H  -11.12900 10.56800 40.16900
H  -6.91100 13.67800 38.55100
H  -3.06900 14.88200 38.89000
H  -2.67200 13.54500 39.73600
H  -3.25000 14.86900 40.66800

