158

Mg 24.85700 1.68000 29.23900
C  27.07500 1.22500 31.88300
C  22.31400 1.97700 31.67500
C  22.48900 1.89400 26.74300
C  27.21000 1.15000 26.93200
N  24.73500 1.53400 31.56000
C  25.82200 1.40800 32.33400
C  25.50400 1.70500 33.81100
C  23.86900 1.89200 33.72100
C  23.59000 1.83400 32.18600
C  23.00700 0.87700 34.48200
C  26.30200 2.99000 34.39400
C  27.03200 2.77600 35.76700
H  26.52200 3.64200 36.97700
N  22.70800 1.83500 29.21500
C  21.82500 1.90600 30.37500
C  20.49900 1.96600 29.87600
C  20.57700 1.85500 28.48700
C  21.94500 1.82000 28.06100
C  19.25600 2.08000 30.79100
C  19.44800 1.84300 27.48600
O  19.67300 1.91800 26.27600
C  18.04500 1.82500 27.97200
N  24.84000 1.47000 27.04300
C  23.85100 1.72800 26.29100
C  24.21800 2.09700 24.79700
C  25.80200 1.81400 24.82300
C  25.99900 1.50800 26.37400
C  23.44800 1.23600 23.69300
C  26.67900 3.04000 24.30100
C  26.68000 4.26000 25.19500
N  26.69300 1.21200 29.39200
C  27.58100 0.92900 28.28000
C  28.90300 0.72200 28.84900
C  28.80800 0.88400 30.27700
C  27.43800 1.11600 30.52900
C  30.10500 0.35700 28.07100
C  29.49800 0.84300 31.53700
O  30.68700 0.95200 31.80300
C  28.36900 1.09400 32.59100
C  28.51300 0.08900 33.61500
O  27.97300 -1.01700 33.54700
O  29.40200 0.55100 34.60400
C  29.28600 -0.14400 35.88700
H  21.55100 2.03600 32.45300
H  21.77200 2.08000 25.94000
H  27.98500 1.07700 26.16600
H  25.75100 0.84900 34.43800
H  23.57600 2.87600 34.08900
H  22.60600 0.15400 33.77200
H  22.24300 1.47400 34.97900
H  23.65400 0.42100 35.23200
H  25.50400 3.70200 34.60500
H  26.99300 3.43400 33.67800
H  28.07600 3.06600 35.64500
H  27.07500 1.74100 36.10500
H  18.74900 3.04500 30.79600
H  19.50300 1.92500 31.84100
H  18.53800 1.27200 30.64800
H  17.81300 2.81300 28.37100
H  18.02000 0.98100 28.66200
H  17.31800 1.62300 27.18600
H  24.10800 3.18000 24.74400
H  26.00100 0.90100 24.26300
H  23.24900 0.20300 23.97900
H  23.98300 1.25500 22.74300
H  22.51900 1.77200 23.49900
H  26.19000 3.43400 23.41100
H  27.71100 2.79400 24.05000
H  27.57600 4.87500 25.29000
H  26.38800 4.01300 26.21600
H  25.95700 4.91800 24.71300
H  29.92100 -0.60300 27.58900
H  31.03300 0.47500 28.63000
H  30.12900 1.02900 27.21300
H  28.65600 2.08800 32.93600
H  28.27200 0.01000 36.25800
H  29.96100 0.15400 36.68900
H  29.39400 -1.20200 35.64500
Mg 27.29900 49.67400 26.92000
C  25.33800 50.70100 29.54400
C  29.82300 49.06300 29.13900
C  29.23200 48.89800 24.33100
C  24.74500 50.64500 24.69400
N  27.56400 50.01400 29.14100
C  26.60000 50.33400 30.03600
C  27.03200 50.06400 31.50300
C  28.56000 49.79100 31.29400
C  28.68200 49.67000 29.77600
C  29.59600 50.75400 31.93700
C  26.24100 48.86000 32.22300
C  25.49000 49.21100 33.44600
H  26.29400 49.49300 34.75900
N  29.29800 49.04800 26.73600
C  30.15200 48.82600 27.78500
C  31.42500 48.41200 27.24900
C  31.29900 48.58600 25.84900
C  29.91600 48.87200 25.55500
C  32.58300 47.94200 28.09000
C  32.40000 48.45100 24.75800
O  32.24600 48.58800 23.54300
C  33.71700 47.99800 25.16700
N  26.97200 49.84900 24.80700
C  27.97300 49.40200 23.97800
C  27.51600 49.33100 22.54000
C  26.00600 49.65300 22.68700
C  25.95100 50.20800 24.07200
C  28.21600 50.32800 21.60100
C  25.01300 48.49600 22.44400
C  25.14800 47.17100 23.29700
N  25.46100 50.48500 27.06000
C  24.47500 50.74100 26.07800
C  23.32700 51.36700 26.70700
C  23.61200 51.34900 28.08100
C  24.91300 50.79600 28.20600
C  22.03700 51.81800 26.00900
C  23.07900 51.69900 29.36600
O  22.11000 52.36700 29.63900
C  24.15300 51.13400 30.41100
C  24.36500 52.17700 31.50600
O  25.22000 53.06200 31.49400
O  23.61800 51.90500 32.61000
C  23.86500 52.77300 33.76600
H  30.66900 48.75900 29.76000
H  29.81400 48.50200 23.49600
H  24.04100 50.94800 23.91600
H  26.92000 50.98300 32.07900
H  28.87700 48.86500 31.77300
H  30.33300 50.24500 32.55800
H  29.00100 51.36400 32.61700
H  30.13100 51.34100 31.19100
H  26.99500 48.20200 32.65400
H  25.72000 48.10200 31.63700
H  24.70100 48.46400 33.54000
H  24.98900 50.15400 33.22800
H  33.44400 48.58500 27.90300
H  32.77200 46.90400 27.81800
H  32.34200 47.79900 29.14400
H  34.24500 48.69900 25.81300
H  34.30500 47.79200 24.27200
H  33.73600 47.07500 25.74700
H  27.69100 48.30300 22.22300
H  25.63800 50.42900 22.01500
H  27.41700 50.86200 21.08800
H  28.99600 49.91800 20.96000
H  28.66600 51.01400 22.31900
H  25.10100 48.28900 21.37800
H  24.00800 48.85200 22.66900
H  26.16900 46.81600 23.43700
H  24.52000 46.43200 22.79900
H  24.75000 47.39800 24.28700
H  22.03000 52.90500 25.93800
H  21.08300 51.61000 26.49300
H  21.91800 51.35100 25.03100
H  23.59300 50.32000 30.87100
H  23.00600 53.41500 33.95600
H  24.82200 53.29100 33.82300
H  23.96600 52.11900 34.63200

