158

Mg 35.81200 49.51300 24.95100
C  35.71000 48.19600 28.28400
C  34.11900 52.16900 26.22100
C  35.52800 50.44600 21.80900
C  36.85800 46.28400 23.85500
N  35.12100 50.14500 27.10200
C  35.30200 49.52300 28.26900
C  34.82000 50.43100 29.52400
C  34.16700 51.59500 28.72800
C  34.43400 51.28300 27.25900
C  32.67500 51.89900 28.92500
C  35.99500 50.76000 30.53200
C  35.98700 50.14200 31.85800
H  35.16200 50.73400 32.92300
N  35.00600 51.13100 24.10000
C  34.37900 52.12300 24.82300
C  33.94400 53.11000 23.85100
C  34.22400 52.60000 22.52700
C  34.95800 51.36700 22.76800
C  33.25200 54.36100 24.23100
C  33.90700 53.22200 21.09100
O  34.28400 52.63700 20.05600
C  33.15100 54.50900 20.94600
N  36.29200 48.54100 23.09200
C  36.14200 49.18200 21.95900
C  36.62100 48.34200 20.82000
C  37.07900 47.03300 21.39300
C  36.75600 47.28600 22.89800
C  35.56100 48.25500 19.64500
C  38.57400 46.57200 21.09200
C  39.59300 47.68200 21.13600
N  36.23700 47.60300 25.86000
C  36.69000 46.39700 25.27200
C  36.94300 45.41400 26.36900
C  36.57500 46.07200 27.54000
C  36.15000 47.37500 27.17800
C  37.51300 44.02800 26.20100
C  36.42200 45.87300 28.94900
O  36.56500 44.86700 29.70400
C  35.87600 47.22800 29.51100
C  34.71400 47.01200 30.29900
O  33.58200 46.96700 29.85500
O  35.05300 46.70300 31.65600
C  33.86300 46.42300 32.48000
H  33.60400 53.11800 26.38500
H  35.30100 50.84500 20.81900
H  37.27500 45.34500 23.48300
H  34.07700 49.86500 30.08600
H  34.75900 52.50200 28.84800
H  32.30800 51.52600 29.88100
H  32.20600 51.40900 28.07100
H  32.47900 52.97100 28.92000
H  35.92200 51.83300 30.70900
H  36.89600 50.48700 29.98300
H  37.02100 50.26700 32.17800
H  35.76900 49.07700 31.78100
H  32.16200 54.33900 24.24200
H  33.52000 55.13800 23.51600
H  33.46200 54.67700 25.25200
H  32.95700 54.90000 19.94700
H  33.80000 55.21600 21.46200
H  32.21800 54.52700 21.50800
H  37.46400 48.91000 20.42700
H  36.41800 46.22100 21.08800
H  34.64500 48.80900 19.85100
H  35.26500 47.23600 19.39300
H  36.07000 48.66500 18.77300
H  38.50000 46.15700 20.08700
H  38.92300 45.73500 21.69600
H  39.28300 48.59200 21.65000
H  40.09900 47.82900 20.18200
H  40.31600 47.14400 21.75000
H  37.76700 43.84100 25.15700
H  36.86100 43.19300 26.45200
H  38.38500 44.02200 26.85500
H  36.58700 47.74700 30.15500
H  33.49400 45.49000 32.05500
H  33.21800 47.30100 32.44400
H  34.23500 46.33700 33.50100
Mg -2.04900 34.70000 26.99500
C  -3.70600 32.79300 29.45000
C  -1.00200 36.84500 29.27500
C  -1.16900 36.62000 24.38100
C  -3.22300 32.33800 24.62100
N  -2.36900 34.85400 29.06600
C  -2.93800 33.89900 29.91300
C  -2.56300 34.14300 31.34300
C  -1.63900 35.39600 31.25900
C  -1.74400 35.79300 29.78400
C  -1.94700 36.48600 32.28200
C  -1.75500 32.96600 31.98500
C  -2.17200 32.47000 33.35500
H  -1.18300 32.61200 34.57900
N  -1.13400 36.54500 26.85100
C  -0.75600 37.26400 27.95500
C  -0.08400 38.49100 27.55100
C  -0.27600 38.49100 26.10900
C  -0.91500 37.19700 25.66900
C  0.55000 39.50900 28.54700
C  0.20100 39.52400 25.10800
O  0.14200 39.34300 23.88800
C  0.86200 40.81100 25.62900
N  -2.27100 34.51700 24.76000
C  -1.68000 35.44400 23.93600
C  -1.62200 34.94800 22.49600
C  -2.14100 33.53100 22.67800
C  -2.51900 33.37600 24.11600
C  -2.55400 35.80200 21.64800
C  -1.09800 32.50400 22.18400
C  -0.02000 32.11300 23.18400
N  -3.24200 32.93900 26.99500
C  -3.67800 32.10100 25.93300
C  -4.53200 31.05300 26.39600
C  -4.52800 31.27800 27.80400
C  -3.69700 32.42100 28.05400
C  -5.30400 30.04100 25.61200
C  -5.05400 30.79300 29.11400
O  -5.79400 29.86800 29.42200
C  -4.40300 31.71500 30.25900
C  -5.45800 32.24300 31.16000
O  -6.16900 33.17300 30.87900
O  -5.53500 31.46700 32.34200
C  -6.49600 31.97200 33.33700
H  -0.54400 37.48300 30.03500
H  -0.75000 37.12600 23.50900
H  -3.45700 31.57600 23.87400
H  -3.51000 34.28500 31.86300
H  -0.60000 35.09700 31.39700
H  -2.36100 37.35800 31.77600
H  -1.05100 36.63800 32.88400
H  -2.69700 36.04500 32.93900
H  -0.71000 33.25300 32.10700
H  -1.70600 32.08600 31.34400
H  -2.35500 31.40100 33.24000
H  -3.14700 32.94300 33.47200
H  1.42100 39.96200 28.07300
H  0.90500 39.06000 29.47500
H  -0.15900 40.29500 28.80800
H  0.90600 41.50600 24.79000
H  1.83700 40.56500 26.05000
H  0.19700 41.23100 26.38300
H  -0.59700 35.03300 22.13500
H  -3.04200 33.44600 22.07100
H  -3.25500 36.33600 22.28800
H  -3.14700 35.25000 20.91900
H  -1.99400 36.59800 21.15700
H  -0.63100 32.87600 21.27200
H  -1.68800 31.70000 21.74500
H  0.10900 32.94000 23.88300
H  0.93100 31.95400 22.67600
H  -0.19200 31.11100 23.57700
H  -5.04400 30.05900 24.55400
H  -6.36400 30.23200 25.77900
H  -5.12400 29.05100 26.03100
H  -3.65500 31.06800 30.71600
H  -7.38600 32.42100 32.89500
H  -6.13600 32.69500 34.06900
H  -6.73800 31.20300 34.07000

