158

Mg 35.08400 3.02500 29.64700
C  32.80100 4.02100 32.21500
C  37.52200 3.34200 31.82300
C  37.13300 2.58100 27.02500
C  32.38700 3.58300 27.35000
N  35.13300 3.55900 31.80500
C  34.13400 3.77700 32.65300
C  34.59800 3.82900 34.15200
C  36.19300 3.72600 33.92800
C  36.32600 3.57100 32.44400
C  37.00700 4.95900 34.52700
C  34.01900 2.60000 34.94600
C  33.93000 2.79800 36.51200
H  34.56700 3.98000 37.19500
N  36.98000 2.80400 29.48500
C  37.89600 2.93700 30.52300
C  39.23000 2.58700 30.05000
C  39.10800 2.30500 28.70000
C  37.69700 2.59700 28.32400
C  40.44500 2.30500 31.00800
C  40.15700 1.76500 27.76400
O  39.88700 1.43600 26.61900
C  41.57700 1.68500 28.21700
N  34.76200 3.01000 27.46800
C  35.78600 2.72400 26.64400
C  35.34500 2.62900 25.19900
C  33.86600 3.05600 25.30200
C  33.61600 3.24700 26.79300
C  36.16000 3.41200 24.14500
C  32.83200 2.05500 24.67700
C  32.52300 0.80800 25.56200
N  33.05800 3.63000 29.68300
C  32.14100 3.81000 28.71500
C  30.80900 4.11900 29.28600
C  31.03800 4.15500 30.67800
C  32.41900 3.95200 30.85800
C  29.50600 4.19400 28.53800
C  30.41300 4.45900 31.96900
O  29.29200 4.90100 32.17300
C  31.57100 4.37300 33.00300
C  31.61500 5.59400 33.79000
O  32.26100 6.56500 33.44500
O  31.10500 5.33100 35.06700
C  31.40300 6.44100 36.01300
H  38.32500 3.40300 32.56100
H  37.84200 2.47200 26.20200
H  31.53100 3.77400 26.69900
H  34.20500 4.74300 34.59700
H  36.46800 2.80700 34.44600
H  37.52700 5.52900 33.75700
H  37.70000 4.64300 35.30700
H  36.24200 5.60500 34.95800
H  34.49400 1.63700 34.75600
H  33.01200 2.51900 34.53900
H  34.34300 1.94700 37.05400
H  32.87300 2.84000 36.77600
H  40.46400 1.24200 31.24900
H  40.43800 2.90000 31.92100
H  41.41700 2.59700 30.61000
H  41.72600 0.90300 28.96200
H  41.99200 2.67000 28.42900
H  42.19200 1.43400 27.35300
H  35.49000 1.57200 24.97400
H  33.76400 4.04800 24.86400
H  36.47500 2.70000 23.38200
H  37.04500 3.85300 24.60300
H  35.57100 4.22700 23.72500
H  33.31200 1.78600 23.73600
H  31.94100 2.56700 24.31300
H  32.70800 1.05600 26.60700
H  33.22100 0.01800 25.28600
H  31.46600 0.64000 25.35300
H  28.78600 4.28000 29.35200
H  29.17600 3.35800 27.92000
H  29.40000 5.15300 28.03200
H  31.28200 3.63600 33.75200
H  30.72000 7.28400 35.90600
H  32.46500 6.68300 36.04200
H  31.21200 6.17200 37.05200
Mg -10.55000 37.75000 41.40600
C  -8.28600 35.05200 40.99700
C  -8.26500 39.75700 39.54700
C  -12.86900 40.20900 41.22300
C  -12.83800 35.56500 42.65200
N  -8.54400 37.38000 40.22400
C  -7.85400 36.19000 40.31900
C  -6.57000 36.30300 39.39700
C  -6.42400 37.86100 39.18600
C  -7.81900 38.40100 39.70000
C  -5.23200 38.62300 39.85200
C  -6.64600 35.51100 38.02100
C  -5.36900 34.79800 37.53200
H  -4.57100 35.57100 36.47100
N  -10.50500 39.70900 40.66900
C  -9.47800 40.34300 39.89700
C  -9.87000 41.76200 39.79300
C  -11.14200 41.96800 40.42000
C  -11.58500 40.58600 40.79200
C  -9.00600 42.76400 39.04500
C  -11.92300 43.28200 40.45600
O  -11.38900 44.35800 40.10900
C  -13.39500 43.32100 40.62800
N  -12.66100 37.83500 41.65800
C  -13.37700 38.96300 41.58300
C  -14.74400 38.76000 42.24700
C  -14.74200 37.25500 42.76700
C  -13.33400 36.86000 42.41000
C  -15.16800 39.63000 43.49100
C  -15.76100 36.40700 42.07200
C  -16.79500 35.53800 42.83200
N  -10.62600 35.69900 41.86000
C  -11.58100 34.93700 42.43900
C  -11.12700 33.57000 42.54800
C  -9.84700 33.59700 41.99900
C  -9.62200 34.93400 41.62500
C  -11.74200 32.37000 43.18600
C  -8.73000 32.81000 41.73500
O  -8.51500 31.64000 41.97400
C  -7.66200 33.62600 41.01500
C  -6.29600 33.48600 41.83200
O  -5.55300 32.53100 41.69100
O  -6.03600 34.65000 42.49200
C  -4.84400 34.59200 43.33100
H  -7.62600 40.46800 39.02000
H  -13.55700 41.03700 41.40500
H  -13.54700 34.86400 43.09800
H  -5.73100 35.92600 39.98200
H  -6.31300 38.00000 38.11100
H  -4.61500 37.82700 40.26900
H  -5.43600 39.34100 40.64600
H  -4.83900 39.19000 39.00700
H  -7.11300 36.18000 37.29800
H  -7.37500 34.70700 38.12300
H  -5.56200 33.78400 37.18400
H  -4.72900 34.77700 38.41500
H  -8.13300 42.29500 38.59200
H  -8.66000 43.42000 39.84400
H  -9.48600 43.31600 38.23700
H  -13.67900 43.17700 41.67100
H  -13.90900 42.63700 39.95300
H  -13.65300 44.35500 40.40100
H  -15.40400 38.87700 41.38700
H  -14.81600 37.10900 43.84400
H  -15.51500 40.55300 43.02700
H  -14.28500 40.12200 43.90000
H  -15.95000 39.27100 44.16000
H  -15.16400 35.76300 41.42600
H  -16.48100 37.04700 41.56300
H  -16.59300 35.45500 43.90000
H  -16.75400 34.50300 42.49200
H  -17.83100 35.80800 42.63000
H  -12.82800 32.42800 43.11600
H  -11.51800 32.25100 44.24600
H  -11.50300 31.42700 42.69400
H  -7.33000 33.21500 40.06100
H  -4.42600 35.55700 43.61900
H  -3.94600 34.14600 42.90400
H  -5.13200 34.05300 44.23400

