158

Mg 26.19400 50.69200 26.46600
C  24.00100 51.82800 29.04400
C  28.37200 49.83500 28.88300
C  28.42800 50.26300 24.05800
C  23.92700 52.25900 24.12300
N  26.27300 51.00100 28.82400
C  25.20700 51.29900 29.59700
C  25.57700 51.09600 31.14600
C  27.03100 50.40400 31.02200
C  27.27300 50.40300 29.50200
C  28.25200 51.05000 31.81600
C  24.54100 50.25900 31.93800
C  24.84400 49.86500 33.37900
H  24.16300 50.71200 34.46500
N  28.08600 49.98000 26.43700
C  28.84300 49.68200 27.55900
C  30.14500 49.10800 27.13900
C  30.24400 49.39400 25.75700
C  28.91500 49.89600 25.31500
C  31.08400 48.32900 28.00800
C  31.36400 49.18200 24.89800
O  31.34900 49.39800 23.71200
C  32.69700 48.73900 25.44500
N  26.15000 51.14500 24.40000
C  27.19000 50.83800 23.64200
C  27.08700 51.38900 22.18300
C  25.58400 51.85800 22.15500
C  25.16900 51.75500 23.62000
C  28.21600 52.47000 21.89200
C  24.62000 51.05800 21.22700
C  24.12400 49.63600 21.66600
N  24.33300 51.68600 26.53700
C  23.52700 52.24100 25.50300
C  22.29100 52.70300 26.10300
C  22.43900 52.57000 27.46600
C  23.65900 51.95000 27.69100
C  21.09000 53.21200 25.37100
C  21.79000 52.82900 28.77400
O  20.77800 53.43200 29.06700
C  22.82400 52.38500 29.83400
C  23.15000 53.58000 30.64900
O  23.98100 54.46700 30.46400
O  22.43600 53.56900 31.78400
C  22.59900 54.71600 32.78600
H  28.94500 49.21100 29.57300
H  29.12000 50.13200 23.22400
H  23.24800 52.60400 23.34000
H  25.77800 52.02600 31.67700
H  26.95300 49.35200 31.29600
H  29.13200 51.19600 31.19000
H  28.54200 50.25900 32.50700
H  28.00700 51.96900 32.35000
H  24.36900 49.37300 31.32700
H  23.60400 50.81400 31.97200
H  25.90500 49.99200 33.59600
H  24.61700 48.79900 33.36300
H  31.37900 47.33400 27.67400
H  30.63900 48.28400 29.00200
H  32.03300 48.85600 28.10900
H  32.65000 47.78300 25.96600
H  32.93900 49.52600 26.15900
H  33.44400 48.79700 24.65400
H  27.40200 50.52000 21.60600
H  25.56600 52.86600 21.74000
H  27.78200 53.28500 21.31400
H  28.95400 52.05600 21.20500
H  28.65100 52.96000 22.76300
H  25.07100 50.85400 20.25600
H  23.71700 51.64500 21.05800
H  24.24400 48.96600 20.81500
H  23.09900 49.53400 22.02400
H  24.69900 49.25500 22.51000
H  21.13100 53.16100 24.28300
H  20.91800 54.21300 25.76700
H  20.27200 52.54900 25.65400
H  22.39400 51.65300 30.51800
H  22.48900 55.65300 32.24000
H  23.53000 54.67500 33.35200
H  21.84100 54.83300 33.56100
Mg -9.34100 18.25000 43.67600
C  -5.84200 17.96300 44.02700
C  -8.93800 21.68500 43.14400
C  -12.63200 18.54500 43.14600
C  -9.49300 14.76100 43.40300
N  -7.57500 19.62900 43.49200
C  -6.32900 19.28900 43.83100
C  -5.39500 20.54300 43.73100
C  -6.40100 21.73500 43.81800
C  -7.72000 20.99000 43.41100
C  -6.49700 22.32400 45.22000
C  -4.50100 20.55000 42.43100
C  -5.02700 19.80600 41.11700
H  -5.92400 20.57000 40.15000
N  -10.60100 19.89400 43.16500
C  -10.28800 21.23400 43.09400
C  -11.48800 21.97400 42.74500
C  -12.62100 21.17000 42.87200
C  -11.98600 19.82400 43.01200
C  -11.33600 23.44300 42.49700
C  -14.18900 21.56300 42.79900
O  -14.44700 22.77200 42.80200
C  -15.34300 20.59200 42.88100
N  -10.76000 16.81600 43.15200
C  -12.08300 17.23900 43.19300
C  -13.01400 16.01000 43.35300
C  -12.02400 14.83700 43.09600
C  -10.70800 15.46500 43.25800
C  -13.80300 15.96600 44.67500
C  -12.24700 14.18600 41.66000
C  -13.59800 13.48500 41.47600
N  -7.96300 16.64800 43.70300
C  -8.16200 15.30200 43.57600
C  -6.89200 14.62500 43.77900
C  -5.95200 15.64900 43.94100
C  -6.63900 16.84900 43.89700
C  -6.58800 13.15800 43.70500
C  -4.56700 15.96800 44.13100
O  -3.56700 15.26200 44.31800
C  -4.41800 17.50500 44.18400
C  -3.78300 17.98200 45.38200
O  -2.63100 18.24600 45.43000
O  -4.67700 18.00900 46.41400
C  -4.13700 18.60000 47.65800
H  -8.73800 22.73700 42.92900
H  -13.71200 18.70400 43.16000
H  -9.56300 13.67100 43.42000
H  -4.84100 20.63000 44.66600
H  -6.22600 22.54400 43.10900
H  -7.25100 23.10400 45.11900
H  -5.48500 22.70800 45.34500
H  -6.74400 21.60900 46.00500
H  -3.42800 20.43800 42.58900
H  -4.60100 21.62500 42.28100
H  -5.50500 18.84500 41.31000
H  -4.14900 19.48100 40.56000
H  -11.66200 23.66600 41.48200
H  -10.37100 23.91700 42.68000
H  -12.00400 23.99000 43.16300
H  -15.12000 19.99300 43.76300
H  -15.35600 19.89200 42.04500
H  -16.33100 21.03200 42.74400
H  -13.65100 16.12900 42.47700
H  -12.12500 14.01200 43.80200
H  -13.69300 15.01500 45.19500
H  -14.85200 16.15700 44.44900
H  -13.32700 16.67100 45.35700
H  -11.49100 13.43200 41.43800
H  -12.13500 15.06200 41.02200
H  -14.15800 13.93200 40.65500
H  -14.26600 13.51900 42.33600
H  -13.48400 12.44000 41.18700
H  -5.54900 13.02200 43.40500
H  -7.10100 12.62000 42.90800
H  -6.79900 12.78000 44.70500
H  -3.83100 17.73100 43.29300
H  -4.98200 18.65700 48.34500
H  -3.67600 19.57800 47.52100
H  -3.42100 17.89900 48.08700

