158

Mg 0.38300 8.06100 27.24800
C  0.97700 10.14500 30.01800
C  0.67600 5.36400 29.37100
C  0.02400 6.12000 24.62300
C  0.77000 10.89600 25.28200
N  0.86600 7.81900 29.42800
C  0.91700 8.79300 30.38300
C  0.74300 8.25600 31.86000
C  0.83500 6.72800 31.59500
C  0.76600 6.56600 30.05700
C  1.95500 6.01700 32.30100
C  -0.60500 8.80300 32.51600
C  -1.00800 8.15600 33.85900
H  -0.01100 7.87600 35.04600
N  0.29300 5.97600 27.03800
C  0.47200 4.98000 27.97800
C  0.27000 3.68300 27.38100
C  -0.13500 3.97900 26.03100
C  0.03800 5.40100 25.86000
C  0.38700 2.48600 28.26800
C  -0.60400 3.00100 24.99900
O  -0.90400 3.28800 23.87700
C  -0.85800 1.51800 25.35800
N  0.43200 8.46400 25.24000
C  0.29500 7.45300 24.29500
C  0.43300 8.07200 22.87500
C  0.28700 9.57000 23.14200
C  0.53900 9.69700 24.66700
C  1.72400 7.63800 22.05800
C  -1.11800 10.05700 22.83800
C  -1.38000 11.09300 21.77600
N  0.99000 10.04000 27.52800
C  1.06900 11.09200 26.60800
C  1.29100 12.41500 27.34000
C  1.24200 12.04600 28.65000
C  1.05000 10.59700 28.73900
C  1.48100 13.76400 26.64800
C  1.36300 12.61200 29.95900
O  1.60300 13.74200 30.25500
C  1.05100 11.42000 30.95600
C  1.99700 11.30900 32.07300
O  3.06000 10.67400 31.98000
O  1.52500 11.99500 33.20200
C  2.44700 11.93700 34.33800
H  0.59700 4.45100 29.96500
H  -0.07900 5.50000 23.72900
H  0.89000 11.69600 24.54800
H  1.55700 8.58200 32.50700
H  -0.10800 6.25900 31.87800
H  2.65500 5.72800 31.51700
H  1.52100 5.08300 32.65700
H  2.52300 6.63900 32.99300
H  -1.32700 8.38700 31.81400
H  -0.66400 9.89100 32.54000
H  -1.58000 7.26500 33.60200
H  -1.60000 8.95600 34.30200
H  1.38400 2.05100 28.20500
H  -0.42100 1.81200 27.98400
H  0.05400 2.66900 29.29000
H  0.20900 1.32700 25.46600
H  -1.21600 0.86200 24.56400
H  -1.41300 1.43200 26.29200
H  -0.46600 7.67300 22.40500
H  0.99600 10.19000 22.59400
H  2.24000 6.74300 22.40400
H  2.40100 8.45800 21.81600
H  1.41100 7.36200 21.05100
H  -1.50600 10.57500 23.71500
H  -1.76300 9.19100 22.68500
H  -0.69500 10.72900 21.01100
H  -1.14300 12.07500 22.18400
H  -2.43300 11.06200 21.49500
H  0.60700 14.36900 26.89000
H  1.61700 13.59000 25.58100
H  2.39900 14.16500 27.07600
H  0.10800 11.69600 31.42800
H  2.65900 10.89400 34.57200
H  2.00200 12.47900 35.17400
H  3.45700 12.29800 34.14600
Mg -12.68500 15.94800 42.45400
C  -9.71200 14.08200 42.34500
C  -11.04600 18.36400 40.53100
C  -15.57900 17.50000 42.15000
C  -14.27200 13.01400 43.60000
N  -10.64800 16.19400 41.53000
C  -9.60100 15.26200 41.67700
C  -8.31700 15.78200 40.91700
C  -8.74000 17.26800 40.59200
C  -10.26100 17.31700 40.88100
C  -7.96600 18.38900 41.34500
C  -7.87200 14.93900 39.72800
C  -6.39800 15.29500 39.35100
H  -6.08300 15.76100 37.91400
N  -13.21500 17.77800 41.62000
C  -12.38900 18.60700 40.90400
C  -13.12700 19.75600 40.37600
C  -14.44300 19.56400 40.95900
C  -14.48900 18.24600 41.63200
C  -12.46800 20.99500 39.59400
C  -15.58500 20.54100 40.79500
O  -15.40500 21.61200 40.19800
C  -16.87100 20.29100 41.39600
N  -14.74000 15.27400 42.64300
C  -15.71400 16.15600 42.60400
C  -17.06800 15.57800 42.93300
C  -16.64600 14.13600 43.57000
C  -15.11700 14.10400 43.25000
C  -17.93800 16.47100 43.93400
C  -17.55400 13.00700 42.92400
C  -18.96800 12.95100 43.49500
N  -12.16300 14.02900 42.89800
C  -12.85000 12.94600 43.41800
C  -11.99600 11.82100 43.71600
C  -10.72100 12.25100 43.36000
C  -10.88000 13.56800 42.83600
C  -12.24700 10.47000 44.08200
C  -9.32200 11.83500 43.31200
O  -8.83600 10.78300 43.65700
C  -8.65800 13.02700 42.60200
C  -7.48200 13.54300 43.39500
O  -7.35600 13.93600 44.53700
O  -6.43700 13.48100 42.52800
C  -5.22600 14.19600 42.97000
H  -10.40500 19.14700 40.12000
H  -16.53500 18.01400 42.03300
H  -14.71900 12.08800 43.96900
H  -7.55400 15.81900 41.69500
H  -8.63400 17.51400 39.53600
H  -8.54400 18.50400 42.26200
H  -8.05100 19.29700 40.74800
H  -6.98400 18.06600 41.69000
H  -8.54100 15.06800 38.87700
H  -7.90000 13.86600 39.91800
H  -5.73900 14.48600 39.66700
H  -6.10500 16.19600 39.89000
H  -11.67100 21.31300 40.26700
H  -13.15700 21.82100 39.41800
H  -11.99700 20.59900 38.69400
H  -16.95700 20.21500 42.48000
H  -17.43300 19.49700 40.90400
H  -17.40100 21.21200 41.15600
H  -17.69400 15.45600 42.04900
H  -16.73800 14.22700 44.65300
H  -18.94700 16.61100 43.54500
H  -17.41800 17.40600 44.14000
H  -18.16700 15.88300 44.82300
H  -17.03400 12.05000 42.88000
H  -17.69100 13.25500 41.87100
H  -19.07400 13.62500 44.34500
H  -19.23900 11.90100 43.59900
H  -19.68800 13.16700 42.70600
H  -11.30700 10.11700 44.50500
H  -12.56000 9.76800 43.30900
H  -12.94600 10.38500 44.91400
H  -8.27000 12.67800 41.64500
H  -4.39000 13.91900 42.32700
H  -5.11800 13.91600 44.01800
H  -5.42100 15.25300 42.78700

