158

Mg 17.78000 -0.85100 27.93700
C  16.22400 1.01200 30.52500
C  19.74900 -2.29100 30.36700
C  19.38600 -2.51200 25.50400
C  15.86000 0.76500 25.72600
N  17.72800 -0.79600 30.34200
C  17.15100 0.06200 31.11400
C  17.67700 -0.15200 32.56800
C  18.84700 -1.19200 32.48400
C  18.77200 -1.46700 30.94900
C  20.17200 -0.62600 32.95300
C  16.43900 -0.57900 33.53100
C  16.41400 0.24400 34.81400
H  17.71800 0.81500 35.36000
N  19.28600 -2.31600 27.95700
C  19.90700 -2.86400 29.07600
C  20.85000 -3.80200 28.68100
C  20.77500 -3.87600 27.24600
C  19.79300 -2.90100 26.82500
C  21.74800 -4.66700 29.61700
C  21.44100 -4.79300 26.26900
O  21.20900 -4.67200 25.04400
C  22.49300 -5.81800 26.75600
N  17.57800 -0.94900 25.87900
C  18.45500 -1.61200 25.06400
C  18.22800 -1.23700 23.59500
C  17.03500 -0.20400 23.64100
C  16.78400 -0.09200 25.14600
C  19.48200 -0.67200 22.89100
C  15.76300 -0.66700 22.89900
C  15.11600 0.35500 21.99300
N  16.36100 0.57400 28.02800
C  15.65800 1.08500 27.06400
C  14.68200 2.04300 27.57000
C  14.96700 2.08100 28.88000
C  15.94600 1.12600 29.12900
C  13.59700 2.86900 26.88300
C  14.68000 2.70200 30.18800
O  13.97800 3.63600 30.49500
C  15.48800 2.02400 31.27400
C  16.27500 3.00300 32.06900
O  17.46400 3.18000 31.84500
O  15.51400 3.68800 32.99400
C  16.26900 4.63100 33.83200
H  20.35500 -2.76900 31.13900
H  19.84000 -3.06200 24.67700
H  15.29400 1.39100 25.03300
H  18.16900 0.76400 32.89400
H  18.57700 -2.13100 32.96800
H  20.75300 -1.45700 33.35300
H  20.08200 0.21700 33.63900
H  20.68800 -0.19500 32.09500
H  16.43300 -1.63300 33.80900
H  15.51800 -0.53100 32.95000
H  16.00200 -0.42000 35.57300
H  15.67800 1.04600 34.75500
H  21.44300 -5.71400 29.61500
H  21.59500 -4.29600 30.63000
H  22.80400 -4.64400 29.34600
H  22.15100 -6.50000 27.53400
H  23.39300 -5.35400 27.16000
H  22.79100 -6.44500 25.91700
H  17.96400 -2.17700 23.11000
H  17.28500 0.79600 23.28600
H  20.30400 -0.62800 23.60600
H  19.41100 0.33000 22.46800
H  19.65400 -1.33700 22.04500
H  15.00600 -0.95000 23.63000
H  16.05000 -1.45500 22.20200
H  14.47500 -0.01900 21.19400
H  15.94400 0.93300 21.58100
H  14.38900 0.93300 22.56300
H  13.44800 2.43400 25.89400
H  13.76900 3.94500 26.87000
H  12.66400 2.65300 27.40400
H  14.62700 1.54500 31.74100
H  16.76200 5.35800 33.18600
H  16.86000 4.17400 34.62600
H  15.62600 5.35400 34.33400
Mg 36.78000 49.16000 25.28100
C  37.02200 47.09000 28.21800
C  35.47900 51.57600 27.27000
C  36.41200 50.90500 22.51200
C  37.79100 46.34100 23.51800
N  36.40700 49.31300 27.48700
C  36.53700 48.38300 28.49800
C  36.36400 49.03000 29.84800
C  35.73900 50.43600 29.45100
C  35.86900 50.46000 27.94200
C  34.29300 50.69600 29.96800
C  37.69700 49.14100 30.61900
C  37.59700 48.44600 32.05300
H  36.29200 48.60700 32.82000
N  36.04700 51.00800 24.94900
C  35.57200 51.89600 25.90200
C  35.18100 53.15300 25.22500
C  35.38300 52.90700 23.77700
C  35.89600 51.58800 23.68600
C  34.50900 54.27900 26.00700
C  35.06100 53.76700 22.62100
O  35.19400 53.45400 21.42700
C  34.72900 55.22800 22.85900
N  37.08800 48.73300 23.31100
C  36.85100 49.59800 22.31000
C  37.09200 48.88600 20.95400
C  37.70000 47.50400 21.28600
C  37.60200 47.56600 22.83100
C  35.75000 48.76500 20.15600
C  39.18900 47.40800 20.83500
C  40.27900 48.34100 21.32800
N  37.29200 47.10700 25.71500
C  37.68000 46.06900 24.89100
C  37.92900 44.84000 25.59000
C  37.61800 45.25500 26.89200
C  37.28600 46.64800 26.93200
C  38.44100 43.46900 25.18300
C  37.63900 44.74800 28.26200
O  37.94100 43.69300 28.68100
C  37.25400 45.91400 29.19300
C  36.00100 45.59600 29.90800
O  34.89600 45.84000 29.53400
O  36.28200 44.98500 31.13300
C  35.14500 44.56000 31.96300
H  35.02400 52.41400 27.80300
H  36.36500 51.39100 21.53500
H  38.04000 45.39500 23.03300
H  35.63000 48.33300 30.25400
H  36.30500 51.28700 29.83100
H  33.87200 49.83400 30.48500
H  33.56400 50.98200 29.20900
H  34.34400 51.61600 30.55100
H  37.99900 50.17000 30.81300
H  38.37800 48.58000 29.97800
H  38.34500 48.92200 32.68600
H  37.81800 47.38000 31.98400
H  34.59200 55.29900 25.63100
H  34.95600 54.41300 26.99200
H  33.52300 53.88000 26.24600
H  35.42700 55.67500 23.56700
H  33.73900 55.32000 23.30600
H  34.72300 55.68900 21.87200
H  37.76200 49.53400 20.39000
H  37.09300 46.66600 20.94300
H  34.99600 49.42900 20.57900
H  35.39500 47.74000 20.04700
H  35.86900 49.22200 19.17400
H  39.10500 47.41400 19.74800
H  39.63800 46.44800 21.08600
H  39.78600 49.23600 21.70600
H  40.97600 48.43000 20.49500
H  40.91700 47.89200 22.09000
H  38.80700 43.50000 24.15600
H  37.48100 42.95800 25.27000
H  39.17900 43.02600 25.85200
H  38.00000 46.05300 29.97600
H  34.18300 45.05200 31.82300
H  35.44200 44.86500 32.96600
H  35.12100 43.47100 31.92400

