158

Mg 17.54900 -2.10100 28.37000
C  16.67800 0.23400 31.02800
C  19.52400 -3.70700 30.66000
C  18.90200 -3.70800 25.82200
C  15.83500 0.05800 26.21400
N  18.15200 -1.60800 30.52400
C  17.57800 -0.78000 31.44400
C  18.01000 -1.08200 32.86300
C  19.07300 -2.20600 32.62200
C  18.96000 -2.53900 31.13500
C  20.50800 -1.79300 32.96200
C  16.77700 -1.43300 33.83700
C  16.84100 -0.75700 35.24600
H  18.21500 -1.07000 35.82200
N  18.82400 -3.64300 28.30500
C  19.59800 -4.17200 29.30900
C  20.33600 -5.35600 28.84600
C  20.17000 -5.34500 27.40100
C  19.27000 -4.19800 27.10700
C  21.16100 -6.24800 29.71600
C  20.80000 -6.24500 26.27400
O  20.65200 -6.04400 25.08900
C  21.78400 -7.44300 26.56400
N  17.37500 -1.86100 26.28500
C  18.08400 -2.61300 25.45500
C  17.72300 -2.29900 23.99900
C  16.59800 -1.18000 24.06400
C  16.50500 -1.04800 25.59900
C  19.03200 -1.97000 23.14500
C  15.32800 -1.34000 23.31400
C  13.95600 -1.64000 24.06700
N  16.46300 -0.22300 28.50400
C  15.81200 0.51700 27.55500
C  15.17900 1.69400 28.10600
C  15.44800 1.62600 29.47400
C  16.25800 0.44500 29.70700
C  14.37200 2.63300 27.30800
C  15.20700 2.32700 30.71200
O  14.55300 3.31700 31.07600
C  16.00700 1.40000 31.82100
C  16.89600 2.40000 32.53100
O  18.08200 2.41900 32.44300
O  16.17400 3.27300 33.31400
C  17.04700 4.11200 34.17900
H  20.03500 -4.30500 31.41700
H  19.16900 -4.21600 24.89300
H  15.34200 0.64200 25.43400
H  18.52800 -0.18200 33.19400
H  18.91700 -3.05700 33.28400
H  20.53100 -0.71800 33.14100
H  21.23200 -2.15400 32.23100
H  20.78100 -2.13000 33.96200
H  16.69200 -2.50700 34.00000
H  15.79800 -1.20600 33.41500
H  16.23300 -1.24200 36.01000
H  16.66500 0.31700 35.31600
H  21.37000 -7.18600 29.20100
H  20.55100 -6.47900 30.58900
H  22.12400 -5.78300 29.92600
H  22.62000 -6.99700 27.10200
H  21.97600 -8.04400 25.67500
H  21.23800 -8.13800 27.20100
H  17.36100 -3.19400 23.49300
H  17.10500 -0.27400 23.73100
H  18.95500 -0.99700 22.65900
H  19.03500 -2.68400 22.32100
H  19.93700 -2.04800 23.74700
H  15.61300 -2.10200 22.58800
H  15.25800 -0.41200 22.74700
H  13.26600 -1.98100 23.29400
H  13.58600 -0.75000 24.57700
H  14.10700 -2.49200 24.72900
H  14.23500 3.61000 27.77100
H  13.42700 2.22200 26.95000
H  14.94300 2.93300 26.43000
H  15.35600 0.81700 32.47300
H  17.45800 3.53000 35.00400
H  16.37000 4.89100 34.53100
H  17.80900 4.61300 33.58200
Mg -11.74900 15.55500 41.88600
C  -8.54200 14.50800 41.14300
C  -10.85100 18.75900 40.66900
C  -15.02000 16.35500 41.74900
C  -12.65800 12.29100 42.70500
N  -9.90600 16.42100 40.87000
C  -8.69100 15.80600 40.77900
C  -7.62300 16.75100 40.29500
C  -8.33100 18.19600 40.43000
C  -9.80400 17.73800 40.66500
C  -7.76400 19.14100 41.59300
C  -7.12500 16.51000 38.77400
C  -5.66400 16.14600 38.61000
H  -4.96000 16.67200 37.33200
N  -12.79600 17.30600 41.30300
C  -12.21400 18.52000 40.88700
C  -13.27400 19.39400 40.47100
C  -14.52800 18.75100 40.72300
C  -14.16600 17.43200 41.31900
C  -13.04000 20.77500 40.00100
C  -15.86200 19.32500 40.44000
O  -15.94500 20.52500 40.08100
C  -17.26300 18.67300 40.60200
N  -13.61200 14.42700 42.00400
C  -14.77100 15.11100 42.23400
C  -15.99100 14.20200 42.74500
C  -15.12900 12.94300 43.13600
C  -13.71200 13.17800 42.51800
C  -16.92300 14.83400 43.90600
C  -15.79900 11.60500 43.00000
C  -16.52600 11.18300 44.32300
N  -10.83000 13.69900 42.04700
C  -11.31500 12.49800 42.45300
C  -10.30800 11.47800 42.36100
C  -9.18000 12.25600 41.90600
C  -9.56600 13.59700 41.69900
C  -10.32400 10.03100 42.62100
C  -7.75900 12.17700 41.61200
O  -6.99500 11.18000 41.63000
C  -7.33700 13.62800 41.17600
C  -6.36800 14.17100 42.11000
O  -6.53500 14.28600 43.33300
O  -5.13300 14.35800 41.54900
C  -3.93100 14.72200 42.40800
H  -10.54800 19.74300 40.30600
H  -16.08700 16.55200 41.63200
H  -12.90200 11.36500 43.23100
H  -6.76600 16.64500 40.96000
H  -8.23200 18.72900 39.48400
H  -7.10700 18.42300 42.08400
H  -8.54300 19.54400 42.24000
H  -7.20400 20.00700 41.23900
H  -7.37300 17.27100 38.03400
H  -7.71600 15.61900 38.56600
H  -5.73100 15.05900 38.58500
H  -5.07500 16.26000 39.52000
H  -13.42500 20.84100 38.98400
H  -12.04100 21.21200 40.03500
H  -13.61700 21.47900 40.60100
H  -18.13600 19.13200 40.13900
H  -17.42800 18.62300 41.67800
H  -17.23100 17.66100 40.19900
H  -16.53200 13.84800 41.86800
H  -14.89000 13.05900 44.19300
H  -17.93400 14.68300 43.52500
H  -16.79100 15.91400 43.96100
H  -16.75500 14.29800 44.84000
H  -15.11100 10.83100 42.65900
H  -16.51000 11.54800 42.17600
H  -17.57600 11.24500 44.03800
H  -16.33300 11.72800 45.24700
H  -16.37500 10.11700 44.49500
H  -9.32900 9.62600 42.80500
H  -10.79800 9.49600 41.79800
H  -10.85600 9.84100 43.55300
H  -6.90100 13.59300 40.17800
H  -3.01700 14.23300 42.07100
H  -4.06600 14.54300 43.47400
H  -3.76700 15.79500 42.31500

