158

Mg 1.80400 8.20300 26.29200
C  2.36400 10.31800 28.91700
C  2.92200 5.42100 28.41000
C  1.64600 6.15000 23.60700
C  1.63600 10.94800 24.19700
N  2.54400 7.92800 28.36600
C  2.48500 8.91600 29.33000
C  2.65000 8.33200 30.73900
C  3.04100 6.89600 30.51600
C  2.91900 6.75600 29.00000
C  4.35600 6.41700 31.14900
C  1.42600 8.62300 31.66600
C  1.62700 8.68800 33.20000
H  2.86400 7.90600 33.84600
N  2.19100 6.11500 26.00400
C  2.57800 5.15800 27.01900
C  2.63200 3.87800 26.37900
C  2.22200 3.94800 25.01600
C  1.93800 5.40100 24.82300
C  3.15200 2.63900 27.10300
C  2.02000 2.91000 23.99200
O  1.70100 3.14000 22.81500
C  2.17900 1.41800 24.32400
N  1.67100 8.53900 24.22700
C  1.64400 7.54600 23.32500
C  1.66900 8.05600 21.85200
C  1.39800 9.58600 22.12800
C  1.61500 9.72500 23.61500
C  2.98200 7.74600 21.00600
C  -0.00300 10.13700 21.56100
C  0.09400 11.24500 20.55200
N  1.86200 10.18700 26.49300
C  1.86900 11.19600 25.55300
C  1.97400 12.47000 26.14700
C  2.11100 12.18100 27.54800
C  2.16900 10.78900 27.62900
C  2.08900 13.79900 25.52700
C  2.40700 12.71200 28.85300
O  2.58400 13.84800 29.25700
C  2.31300 11.53300 29.77900
C  3.34500 11.60100 30.81900
O  4.57600 11.48700 30.55900
O  2.82000 11.57400 32.09600
C  3.93200 11.47400 33.12500
H  3.15200 4.61200 29.10700
H  1.82500 5.61700 22.67100
H  1.51400 11.71600 23.43000
H  3.46700 8.81300 31.27800
H  2.18600 6.37100 30.94100
H  4.95500 6.03500 30.32200
H  4.18000 5.57100 31.81300
H  4.89400 7.20800 31.67200
H  0.61900 7.92600 31.43700
H  0.90000 9.50100 31.29100
H  0.75600 8.10200 33.49400
H  1.53800 9.67700 33.64900
H  2.29300 2.09500 27.49600
H  3.69500 3.11400 27.92000
H  3.74700 1.97700 26.47500
H  1.52500 1.18000 25.16300
H  3.24000 1.18600 24.41000
H  1.94700 0.82700 23.43800
H  0.87200 7.55400 21.30400
H  2.27600 10.14000 21.79500
H  2.84400 7.29900 20.02100
H  3.61000 7.14600 21.66500
H  3.47200 8.70900 20.86100
H  -0.52900 10.57000 22.41200
H  -0.65600 9.34700 21.18900
H  -0.59500 10.99500 19.74500
H  1.11100 11.51700 20.26800
H  -0.38600 12.13600 20.95600
H  1.99800 13.64200 24.45300
H  3.02000 14.32000 25.74700
H  1.22100 14.34900 25.89300
H  1.35300 11.47400 30.29100
H  4.48100 10.54600 32.96700
H  3.49200 11.47200 34.12200
H  4.58200 12.34900 33.16400
Mg -2.35500 34.49500 27.30300
C  -3.26700 32.39900 29.90700
C  -0.50200 36.35900 29.40000
C  -2.02200 36.75500 24.88000
C  -4.19900 32.48000 25.05600
N  -2.01500 34.34600 29.48700
C  -2.39000 33.36900 30.32900
C  -1.83900 33.67800 31.77100
C  -0.85700 34.96600 31.53800
C  -1.16400 35.30400 30.06500
C  -1.07600 36.09900 32.55100
C  -1.03700 32.52900 32.24200
C  -1.48500 31.93200 33.52000
H  -0.38500 32.03100 34.63000
N  -1.46400 36.30500 27.20200
C  -0.75400 36.95000 28.14100
C  0.00100 38.09000 27.62900
C  -0.60900 38.35000 26.33600
C  -1.40400 37.05000 26.06500
C  0.96300 38.89500 28.47900
C  -0.42800 39.54500 25.31400
O  -0.88800 39.50000 24.20900
C  0.29800 40.75200 25.76300
N  -2.97800 34.58000 25.26300
C  -2.75400 35.66300 24.50400
C  -3.36400 35.46300 23.09900
C  -3.66600 33.97400 23.06400
C  -3.64400 33.63400 24.57200
C  -4.59800 36.35300 22.86700
C  -2.62600 33.09900 22.18600
C  -3.29000 32.24300 21.11300
N  -3.44600 32.70900 27.43900
C  -4.17500 32.04800 26.45600
C  -4.89500 30.94500 27.01800
C  -4.58200 30.99800 28.45200
C  -3.71700 32.11400 28.59900
C  -5.69600 29.87900 26.29000
C  -4.83900 30.48400 29.75600
O  -5.62000 29.58100 30.07400
C  -3.98100 31.35500 30.72200
C  -4.91400 31.97500 31.75500
O  -5.59600 32.98900 31.61700
O  -4.75700 31.31300 32.94000
C  -5.57000 31.75700 34.05200
H  0.25100 36.64900 30.13700
H  -1.95600 37.49700 24.08200
H  -4.65600 31.73600 24.40000
H  -2.68600 33.96500 32.39500
H  0.21600 34.77200 31.51800
H  -0.14700 36.22200 33.10700
H  -1.82100 35.64500 33.20500
H  -1.32500 37.01300 32.01200
H  0.01800 32.79800 32.18800
H  -1.09800 31.74000 31.49200
H  -1.70300 30.88000 33.33800
H  -2.36600 32.48500 33.84800
H  1.48300 38.23600 29.17400
H  0.47900 39.67700 29.06400
H  1.59200 39.36900 27.72500
H  0.18300 41.47900 24.95900
H  1.38200 40.76000 25.88300
H  -0.01600 41.18100 26.71400
H  -2.64200 35.73500 22.32800
H  -4.64600 33.69900 22.67500
H  -5.11200 36.48100 23.82000
H  -5.24200 35.85500 22.14200
H  -4.46500 37.25300 22.26600
H  -2.14400 32.41700 22.88600
H  -1.79100 33.70100 21.82800
H  -4.12300 32.84400 20.75100
H  -3.55300 31.25700 21.49800
H  -2.69400 32.03100 20.22600
H  -5.27000 28.88800 26.44200
H  -5.67400 30.03300 25.21200
H  -6.69700 29.81800 26.71700
H  -3.26100 30.73000 31.25000
H  -4.92500 32.28200 34.75500
H  -5.84000 30.80400 34.50700
H  -6.40200 32.40200 33.77100

