158

Mg 30.12800 57.95100 39.92600
C  27.24300 56.04100 38.89700
C  32.04700 55.17300 39.06800
C  32.74200 59.98200 40.18900
C  27.97600 60.71200 40.47300
N  29.68400 55.85900 38.90200
C  28.40700 55.27400 38.72000
C  28.56300 53.85700 38.43700
C  30.06500 53.54900 38.91000
C  30.67200 54.92600 38.92800
C  30.22500 52.83000 40.32500
C  28.20100 53.21700 37.09800
C  28.77100 53.94700 35.93500
H  27.96400 54.71700 34.91600
N  32.13900 57.64500 39.63800
C  32.70900 56.42700 39.30300
C  34.12800 56.70300 39.18400
C  34.38500 58.07700 39.51300
C  33.04900 58.64200 39.75000
C  35.17600 55.64300 38.89800
C  35.71800 58.74900 39.48700
O  36.73800 58.04800 39.45500
C  35.83000 60.26100 39.52200
N  30.33400 60.14300 40.16400
C  31.51900 60.69700 40.30500
C  31.45900 62.18400 40.63700
C  29.93100 62.39500 40.95400
C  29.38400 61.04000 40.42300
C  32.42600 62.75200 41.79700
C  29.34200 63.68000 40.27400
C  28.92600 64.86300 41.18000
N  27.99700 58.33500 39.87600
C  27.33000 59.43800 40.11600
C  25.96300 59.11000 40.16900
C  25.84200 57.84900 39.58900
C  27.10300 57.32400 39.44200
C  24.85200 60.13600 40.33400
C  24.89800 56.77600 39.10100
O  23.65600 56.76200 38.99600
C  25.78700 55.62200 38.61500
C  25.24700 54.43200 39.36700
O  25.32200 54.25500 40.54400
O  24.61200 53.60400 38.43700
C  23.79200 52.64700 39.14100
H  32.67200 54.28000 39.01500
H  33.57800 60.68000 40.26800
H  27.26500 61.51400 40.68300
H  27.85300 53.29200 39.04100
H  30.60300 52.92000 38.20000
H  30.67600 51.84200 40.23400
H  29.27600 52.75500 40.85600
H  30.75400 53.46800 41.03300
H  27.14600 53.00300 36.92800
H  28.71800 52.25900 37.15400
H  29.42700 53.26600 35.39200
H  29.24600 54.79400 36.43000
H  34.76900 54.63800 39.01100
H  35.93300 55.75600 39.67500
H  35.50400 55.74300 37.86300
H  36.81000 60.58300 39.16800
H  35.69100 60.71900 40.50100
H  35.16400 60.64800 38.75100
H  31.71200 62.70900 39.71600
H  29.80400 62.45900 42.03400
H  32.76100 63.75700 41.54200
H  33.32000 62.17900 42.04600
H  31.80200 62.87600 42.68300
H  28.42400 63.47200 39.72300
H  30.01100 64.11700 39.53300
H  27.83800 64.91500 41.22000
H  29.41100 65.82300 40.99900
H  29.09000 64.62700 42.23200
H  23.95200 59.71800 40.78500
H  24.70500 60.53300 39.33000
H  25.18400 60.97800 40.94200
H  25.62400 55.47700 37.54700
H  24.35400 52.18400 39.95200
H  23.57000 51.80200 38.48900
H  22.82200 53.00700 39.48400
Mg 2.40300 42.16800 24.82000
C  3.35400 42.16600 28.21700
C  -0.67400 41.00100 25.80000
C  1.72200 41.51800 21.63200
C  5.64000 43.18500 23.94300
N  1.36200 41.78300 26.85100
C  1.97400 41.78000 28.11300
C  0.98600 41.59400 29.19900
C  -0.23500 41.03000 28.34200
C  0.14300 41.25800 26.90700
C  -0.85700 39.68400 28.74500
C  0.71500 42.91500 30.08100
C  0.64700 42.80300 31.63700
H  -0.40300 41.86400 32.30400
N  0.75300 41.48100 23.89100
C  -0.41100 40.97900 24.43400
C  -1.28900 40.46500 23.34400
C  -0.62800 40.62100 22.12100
C  0.64300 41.25200 22.49800
C  -2.71500 39.99600 23.62900
C  -1.03900 40.37300 20.74900
O  -0.34100 40.62500 19.76700
C  -2.47900 39.91200 20.49400
N  3.47300 42.37200 23.07500
C  3.02700 42.01600 21.88700
C  3.98900 42.28400 20.72700
C  5.01600 43.15400 21.53200
C  4.69400 42.91900 22.91000
C  4.67200 40.96100 20.28100
C  5.10700 44.64900 21.20200
C  3.83700 45.46700 20.97000
N  4.15600 42.54400 25.75700
C  5.39800 42.99600 25.29600
C  6.22100 43.31800 26.40900
C  5.52000 42.88700 27.61700
C  4.26600 42.43700 27.14300
C  7.60500 43.76500 26.39600
C  5.56300 42.68400 29.10100
O  6.44100 42.80900 29.89300
C  4.19900 42.20300 29.55400
C  4.29900 40.98400 30.27800
O  4.80000 40.01400 29.75400
O  3.66100 41.02400 31.45400
C  3.50300 39.74000 32.12000
H  -1.68700 40.78800 26.14600
H  1.74300 41.19700 20.58900
H  6.55000 43.72200 23.67100
H  1.26100 40.75200 29.83300
H  -0.98100 41.82500 28.37200
H  -1.86200 39.81300 29.14600
H  -0.16500 39.18400 29.42300
H  -0.99500 39.02500 27.88700
H  -0.20600 43.40000 29.76100
H  1.44800 43.70000 29.89300
H  0.76300 43.78700 32.09300
H  1.64000 42.47500 31.94300
H  -3.02300 39.03000 23.22800
H  -3.36300 40.79800 23.27700
H  -2.88300 39.97600 24.70600
H  -2.51500 38.84200 20.69700
H  -2.65900 39.91000 19.41900
H  -3.26100 40.56800 20.87700
H  3.39700 42.77800 19.95700
H  6.04700 42.80300 21.48600
H  5.30700 40.54000 21.06100
H  5.23900 41.28200 19.40700
H  3.98100 40.17300 19.98200
H  5.66200 44.67000 20.26400
H  5.77500 45.14600 21.90600
H  3.01500 44.78000 21.17200
H  3.86800 46.01300 20.02700
H  3.84100 46.14900 21.82000
H  7.91500 44.23900 27.32700
H  7.76800 44.40600 25.53000
H  8.18900 42.84700 26.32900
H  3.84700 42.99700 30.21300
H  4.41200 39.39400 32.61400
H  3.10100 38.94900 31.48700
H  2.75300 39.91100 32.89200

