158

Mg 2.02200 -1.44000 44.03700
C  5.36900 -1.04100 43.28900
C  1.36800 1.52700 42.26700
C  -1.33700 -2.06600 44.08800
C  2.64200 -4.63100 45.10500
N  3.19300 -0.07200 42.72800
C  4.56300 -0.03800 42.64200
C  5.12000 1.18200 41.76700
C  3.80100 1.98700 41.54700
C  2.72600 1.09600 42.26500
C  3.97400 3.36900 42.21000
C  5.69400 0.54400 40.51200
C  6.79700 1.32800 39.86700
H  6.51000 2.08100 38.56800
N  0.18500 -0.39600 43.31600
C  0.20000 0.88100 42.74400
C  -1.20400 1.42800 42.67500
C  -2.05300 0.32600 43.11800
C  -1.09500 -0.78400 43.59100
C  -1.55400 2.85300 42.16800
C  -3.60700 0.30000 43.00200
O  -4.23600 1.15900 42.39800
C  -4.34400 -0.75800 43.57100
N  0.84100 -3.10800 44.50000
C  -0.55100 -3.18500 44.43600
C  -1.13900 -4.57200 44.80500
C  0.22000 -5.34800 44.99200
C  1.35400 -4.28600 44.86700
C  -2.18000 -4.48300 45.99000
C  0.44800 -6.64300 44.08900
C  0.39400 -8.02000 44.79100
N  3.69600 -2.58000 44.37500
C  3.79300 -3.90300 44.76100
C  5.22000 -4.22500 44.84600
C  5.87400 -3.09900 44.32100
C  4.88800 -2.16500 43.96000
C  5.71000 -5.51100 45.33900
C  7.12500 -2.46900 44.01500
O  8.27700 -2.88800 44.18200
C  6.91600 -1.12600 43.34400
C  7.66700 0.01400 43.91800
O  8.62900 0.45400 43.33000
O  7.00400 0.70300 44.97800
C  7.41400 2.12100 45.27900
H  1.09900 2.54600 41.98100
H  -2.39400 -2.27200 43.90700
H  2.91500 -5.59800 45.53200
H  5.94400 1.62900 42.32300
H  3.43900 2.04800 40.52100
H  4.72100 3.33900 43.00400
H  3.08300 3.74400 42.71300
H  4.28100 4.11900 41.48000
H  4.87500 0.46100 39.79800
H  5.92500 -0.52000 40.56400
H  7.55500 0.63100 39.51000
H  7.24900 2.05800 40.53800
H  -1.66400 2.82000 41.08400
H  -0.82900 3.54700 42.59300
H  -2.53100 3.08200 42.59200
H  -5.39700 -0.52100 43.72200
H  -3.94600 -0.97200 44.56300
H  -4.17200 -1.61300 42.91600
H  -1.74800 -4.79100 43.92800
H  0.18900 -5.73300 46.01100
H  -1.76400 -5.00400 46.85200
H  -3.10800 -4.98100 45.70700
H  -2.31200 -3.42300 46.20200
H  1.41800 -6.50800 43.61100
H  -0.42900 -6.59500 43.44400
H  0.28500 -8.05200 45.87500
H  1.27900 -8.60400 44.54000
H  -0.54700 -8.47800 44.48400
H  5.29200 -6.26200 44.66900
H  5.43200 -5.70900 46.37500
H  6.79600 -5.54800 45.25700
H  7.25300 -1.26200 42.31600
H  7.83000 2.26100 46.27600
H  6.51300 2.71900 45.14100
H  8.19100 2.56000 44.65300
Mg 29.88600 57.95300 38.81400
C  27.31800 55.65000 37.85400
C  32.11000 55.57800 38.30900
C  32.30800 60.34200 38.93300
C  27.41500 60.57700 38.29900
N  29.67700 55.87500 38.20200
C  28.59100 55.08000 37.95800
C  28.97500 53.62100 37.85500
C  30.45700 53.58100 38.27100
C  30.79900 55.12700 38.22100
C  30.92600 52.97300 39.61500
C  28.61800 52.99900 36.42700
C  29.07000 53.79300 35.25800
H  28.05000 54.13500 34.14400
N  31.97100 57.92900 38.86700
C  32.67900 56.83500 38.59400
C  34.11300 57.12100 38.61500
C  34.23900 58.53600 38.83000
C  32.81700 59.02400 38.92200
C  35.13000 56.12400 38.46600
C  35.57500 59.31300 38.83800
O  36.68000 58.79000 38.73200
C  35.59400 60.77000 39.02700
N  29.93600 60.14700 38.48700
C  31.01700 60.85200 38.71200
C  30.80000 62.35100 38.66000
C  29.25400 62.44900 38.45800
C  28.83000 60.93700 38.47000
C  31.21800 63.21000 39.99000
C  28.69600 63.12000 37.14500
C  27.62200 64.19400 37.39200
N  27.75200 58.13800 38.29100
C  26.89200 59.20900 38.15900
C  25.56700 58.72200 37.78300
C  25.72900 57.36900 37.65100
C  27.04100 57.02900 38.04000
C  24.34900 59.52700 37.53800
C  24.95600 56.16000 37.41300
O  23.79700 55.96800 37.07800
C  25.99500 55.02500 37.60500
C  25.58400 54.08700 38.64400
O  25.59900 54.36700 39.82200
O  25.15000 52.88200 38.16800
C  25.02000 51.84300 39.16900
H  32.78500 54.77100 38.01600
H  33.11300 61.08000 38.95100
H  26.66500 61.36600 38.21400
H  28.32100 53.13400 38.57900
H  31.03500 53.14300 37.45700
H  31.47700 52.03700 39.52400
H  30.04600 52.73500 40.21200
H  31.56500 53.65500 40.17600
H  27.53700 52.85800 36.40700
H  29.15100 52.05000 36.37000
H  29.88600 53.25000 34.78000
H  29.58300 54.74500 35.39600
H  35.47900 55.98900 37.44200
H  34.73100 55.13100 38.67600
H  36.01100 56.30500 39.08200
H  35.08800 61.03100 39.95700
H  35.02100 61.36300 38.31500
H  36.62400 61.10000 39.16200
H  31.37600 62.59100 37.76600
H  28.80000 62.86800 39.35600
H  32.00500 62.66800 40.51500
H  30.34800 63.26900 40.64400
H  31.68400 64.14600 39.68200
H  28.34800 62.48700 36.32800
H  29.54100 63.67700 36.74300
H  26.64400 63.79300 37.12500
H  27.84300 65.13100 36.88000
H  27.55800 64.43700 38.45200
H  23.59500 59.26100 38.27900
H  24.03400 59.32500 36.51400
H  24.48500 60.60600 37.61000
H  26.15600 54.49600 36.66600
H  24.27800 52.13300 39.91300
H  25.95900 51.69300 39.70200
H  24.72600 50.90900 38.69000

