158

Mg 3.01000 -0.18400 44.49500
C  6.39700 0.54500 43.99600
C  2.16000 2.80700 42.55500
C  -0.25500 -1.07300 44.35900
C  3.84100 -3.13500 45.94300
N  4.08100 1.36000 43.38600
C  5.51400 1.46000 43.28600
C  5.95100 2.47600 42.18500
C  4.65000 3.46000 42.13800
C  3.52800 2.54000 42.72600
C  4.84200 4.86400 42.93000
C  6.42900 1.73800 40.81200
C  7.72200 2.40000 40.09900
H  7.39900 3.45600 39.03900
N  1.18400 0.76300 43.56400
C  1.06500 1.96300 42.84000
C  -0.28300 2.07800 42.46700
C  -1.01400 0.94100 42.88600
C  -0.01400 0.10500 43.54200
C  -0.75500 3.34100 41.66300
C  -2.45000 0.78700 42.61700
O  -3.19700 1.66100 42.19900
C  -3.04600 -0.61400 42.81700
N  1.99800 -1.85400 45.04700
C  0.59500 -1.97500 44.96700
C  0.20800 -3.41000 45.41700
C  1.50000 -3.78600 46.29200
C  2.49300 -2.93600 45.63700
C  -1.17300 -3.49600 46.15600
C  1.88600 -5.33600 46.19700
C  2.02100 -6.06000 47.52600
N  4.75500 -1.19400 44.87100
C  4.92900 -2.40900 45.49000
C  6.35400 -2.66400 45.56500
C  6.92900 -1.54300 45.06700
C  5.94000 -0.62400 44.64400
C  7.05500 -3.92000 46.22600
C  8.19500 -0.93400 44.75100
O  9.37400 -1.39900 44.85400
C  7.90300 0.48400 44.04900
C  8.54000 1.62600 44.79300
O  8.08300 2.15300 45.80800
O  9.56700 2.17500 44.04200
C  9.91300 3.59900 44.38000
H  1.97600 3.77600 42.08500
H  -1.28100 -1.44800 44.35900
H  4.16000 -3.89600 46.65800
H  6.81200 3.03100 42.55700
H  4.56100 3.77000 41.09700
H  5.60400 4.66500 43.68400
H  3.98300 5.23200 43.49000
H  5.31600 5.61100 42.29300
H  5.52700 1.85000 40.21100
H  6.63900 0.67700 40.95100
H  8.38500 1.66000 39.65100
H  8.25200 3.01100 40.82900
H  0.07900 3.61100 41.01600
H  -1.13000 4.17400 42.25700
H  -1.43900 3.13000 40.84200
H  -3.95200 -0.72800 42.22200
H  -3.43000 -0.78600 43.82200
H  -2.35900 -1.38700 42.47200
H  0.19400 -3.95200 44.47100
H  1.44900 -3.56000 47.35700
H  -1.87200 -4.09600 45.57200
H  -1.55400 -2.50300 46.39200
H  -1.07100 -4.13400 47.03400
H  2.79900 -5.45900 45.61500
H  1.14500 -5.93300 45.66400
H  2.89400 -5.94500 48.16800
H  2.00500 -7.12900 47.31400
H  1.15700 -5.78800 48.13400
H  7.85000 -4.15400 45.51800
H  6.48200 -4.84700 46.24900
H  7.51800 -3.83400 47.21000
H  8.34500 0.39100 43.05700
H  10.26400 4.05600 43.45500
H  10.62300 3.67200 45.20400
H  8.99800 4.10600 44.68700
Mg 42.31200 40.93100 27.63000
C  41.09100 43.06600 30.07500
C  42.71400 38.61400 29.96000
C  43.21300 39.06400 25.13300
C  41.70900 43.52100 25.22700
N  42.03300 40.86200 29.77600
C  41.46900 41.83400 30.59900
C  41.53800 41.50300 32.02500
C  42.34800 40.15500 31.98100
C  42.37400 39.83000 30.52700
C  43.65700 40.10200 32.74500
C  40.13300 41.38100 32.67700
C  39.87700 42.38600 33.89800
H  39.24300 41.83300 35.13500
N  42.93600 39.05600 27.62400
C  43.01500 38.17400 28.67300
C  43.44200 36.88500 28.11000
C  43.78000 37.10200 26.74400
C  43.30700 38.44100 26.42500
C  43.60800 35.70400 28.99000
C  44.40900 36.07400 25.70800
O  44.68400 36.47600 24.56600
C  44.77600 34.65100 26.09600
N  42.61300 41.32000 25.50100
C  42.89300 40.30300 24.67900
C  42.88400 40.63800 23.19900
C  42.10200 42.00300 23.26100
C  42.19400 42.32200 24.74900
C  44.29900 40.61700 22.46300
C  40.67300 41.84300 22.67800
C  39.79600 40.65500 23.20700
N  41.65500 42.86200 27.60600
C  41.49300 43.79000 26.52400
C  41.01600 45.05300 27.09200
C  40.78100 44.79200 28.47300
C  41.24200 43.49900 28.74500
C  40.96800 46.31500 26.36100
C  40.30100 45.33600 29.76100
O  39.74000 46.42400 30.02900
C  40.57300 44.31600 30.83700
C  41.61700 44.97100 31.66500
O  42.71400 45.30900 31.37400
O  41.05300 45.13100 32.91200
C  41.83100 45.75000 34.05600
H  42.75700 37.79300 30.67800
H  43.35400 38.39000 24.28500
H  41.33000 44.31900 24.58500
H  42.19700 42.18200 32.56500
H  41.73200 39.38600 32.44700
H  43.99500 39.06600 32.78100
H  43.55000 40.46800 33.76600
H  44.41600 40.69800 32.23700
H  40.08800 40.37700 33.09800
H  39.36800 41.54400 31.91700
H  39.17700 43.21000 33.76500
H  40.85600 42.76100 34.19300
H  43.76300 36.01800 30.02200
H  44.51800 35.15800 28.74300
H  42.76000 35.01800 28.96300
H  45.76300 34.71500 26.55500
H  45.00800 34.11600 25.17500
H  44.11100 34.09800 26.76000
H  42.39000 39.85100 22.62900
H  42.64100 42.77300 22.70800
H  44.23000 40.27900 21.42900
H  44.95100 40.03800 23.11800
H  44.77800 41.59500 22.51100
H  40.77100 41.72300 21.59900
H  40.07900 42.74200 22.84100
H  40.35900 39.89900 23.75500
H  39.34400 40.10800 22.38000
H  39.03700 41.10300 23.84800
H  41.50300 46.33900 25.41100
H  41.13600 47.06300 27.13500
H  39.94500 46.34000 25.98700
H  39.69500 44.25200 31.48000
H  41.90300 45.02700 34.86900
H  41.19400 46.56600 34.39700
H  42.78300 46.18700 33.75300

