158

Mg 55.81600 24.94900 44.52600
C  53.25200 26.83800 43.09200
C  54.67900 22.08800 42.88000
C  58.72900 23.45000 45.24200
C  57.16600 27.90900 45.82000
N  54.20400 24.50500 43.06800
C  53.24300 25.45100 42.61400
C  52.30100 24.75500 41.60700
C  52.61900 23.24200 41.90000
C  53.89800 23.24100 42.62600
C  51.52600 22.50900 42.82900
C  52.60100 25.20500 40.12500
C  51.52900 24.84300 39.11200
H  51.94300 24.02900 37.85700
N  56.54300 23.01400 44.25700
C  55.84100 21.94400 43.67000
C  56.69000 20.76600 43.85200
C  57.81200 21.19900 44.57700
C  57.77800 22.63100 44.67600
C  56.24600 19.32800 43.45300
C  58.92300 20.31600 45.18900
O  58.88700 19.09400 45.02300
C  60.03500 20.80500 45.93300
N  57.76100 25.62500 45.30500
C  58.77500 24.74600 45.53400
C  59.91600 25.39000 46.32500
C  59.45100 26.88900 46.32100
C  58.02800 26.82800 45.79500
C  60.24800 24.73200 47.61600
C  60.36200 27.87000 45.44100
C  60.60000 29.19200 46.11000
N  55.37700 27.04000 44.53000
C  55.88400 28.06700 45.23400
C  55.00700 29.19400 45.11500
C  53.99200 28.81900 44.25200
C  54.28100 27.50000 43.88100
C  55.23700 30.45900 45.88600
C  52.76700 29.24200 43.68500
O  52.20300 30.31900 43.89700
C  52.15300 27.96500 42.94100
C  51.96800 28.34000 41.56200
O  52.73200 29.04600 40.94900
O  50.80300 27.79200 40.98300
C  50.34900 28.27600 39.68700
H  54.23100 21.21300 42.40500
H  59.74800 23.08100 45.37900
H  57.61000 28.75200 46.35300
H  51.26100 24.92000 41.88900
H  52.69800 22.60700 41.01700
H  50.64400 23.14500 42.76200
H  51.81200 22.49700 43.88100
H  51.41100 21.45500 42.57600
H  53.54200 24.74600 39.82500
H  52.69800 26.27000 39.91600
H  51.15300 25.79800 38.74600
H  50.66400 24.33800 39.54100
H  57.09300 18.77700 43.04400
H  55.57600 19.51600 42.61400
H  55.93200 18.73300 44.31000
H  60.32100 20.06900 46.68400
H  59.76100 21.63300 46.58600
H  60.83800 21.13600 45.27400
H  60.85000 25.37300 45.76400
H  59.38800 27.28600 47.33400
H  60.67200 25.48500 48.28100
H  61.07000 24.04600 47.41500
H  59.33000 24.31500 48.02900
H  59.74600 28.18500 44.59900
H  61.24700 27.37700 45.03800
H  61.67700 29.30800 46.22500
H  60.08600 29.31000 47.06400
H  60.13400 29.96700 45.50100
H  55.86100 30.18800 46.73700
H  54.29500 30.95000 46.13000
H  55.77000 31.07900 45.16500
H  51.13400 27.75900 43.26800
H  51.12800 28.52000 38.96500
H  49.64400 29.06600 39.94500
H  49.78300 27.45900 39.24000
Mg -10.63600 39.59400 40.26400
C  -9.81700 36.32200 39.43100
C  -7.28700 40.45300 39.32700
C  -11.50700 42.78400 40.05300
C  -13.88600 38.54500 40.79900
N  -8.77900 38.52900 39.20000
C  -8.71100 37.18000 39.11400
C  -7.30300 36.78700 38.72700
C  -6.47500 38.04100 38.98600
C  -7.53800 39.09700 39.27000
C  -5.38100 37.89500 40.03800
C  -7.13500 36.14000 37.36400
C  -7.73000 37.02600 36.24500
H  -8.87500 36.40500 35.42900
N  -9.53900 41.33400 39.86900
C  -8.22000 41.49800 39.47300
C  -7.92500 42.87600 39.47300
C  -9.11100 43.62700 39.65900
C  -10.12200 42.58400 39.87200
C  -6.55800 43.36200 39.03600
C  -9.17600 45.15000 39.59000
O  -8.22700 45.80200 39.23200
C  -10.45400 45.87300 39.87800
N  -12.53100 40.59200 40.34700
C  -12.65200 41.91100 40.20200
C  -14.08300 42.33300 39.95700
C  -14.90100 41.00500 40.42600
C  -13.71700 39.96700 40.52300
C  -14.46200 43.57800 40.73300
C  -16.08500 40.54600 39.52200
C  -17.47300 41.14800 39.91100
N  -11.66600 37.85700 40.17800
C  -12.93400 37.57900 40.55900
C  -13.13600 36.14200 40.49700
C  -11.98300 35.53300 39.99000
C  -11.08700 36.70900 39.82900
C  -14.41300 35.45000 40.83400
C  -11.28200 34.26700 39.59000
O  -11.63800 33.08800 39.50900
C  -9.87200 34.79000 39.20700
C  -8.90400 34.05000 40.10200
O  -8.72100 34.32600 41.29400
O  -8.35300 33.01300 39.43100
C  -7.19200 32.36100 40.11600
H  -6.22700 40.68500 39.20700
H  -11.86400 43.81300 39.96500
H  -14.91700 38.35600 41.10400
H  -7.05700 35.96000 39.39300
H  -5.94200 38.33400 38.08100
H  -4.46100 38.02000 39.46500
H  -5.27900 36.92800 40.53000
H  -5.39100 38.65900 40.81500
H  -7.50100 35.11600 37.28400
H  -6.07700 36.31100 37.16300
H  -7.00300 37.33600 35.49500
H  -8.09200 37.94600 36.70500
H  -6.42500 44.17500 39.75000
H  -6.60800 43.67700 37.99400
H  -5.76100 42.63400 39.19300
H  -10.92600 45.66800 40.83900
H  -11.18000 45.71500 39.08100
H  -10.10700 46.90300 39.79000
H  -14.27700 42.50500 38.89800
H  -15.35500 41.10800 41.41100
H  -13.73700 44.00900 41.42400
H  -15.32900 43.44300 41.37900
H  -14.67100 44.38500 40.03100
H  -16.17200 39.46000 39.52900
H  -15.83700 41.05800 38.59300
H  -17.44100 41.86300 40.73400
H  -18.00500 40.21600 40.09900
H  -18.00100 41.66600 39.11100
H  -15.22500 35.83400 40.21500
H  -14.68000 35.57900 41.88300
H  -14.34700 34.40900 40.51800
H  -9.60000 34.45400 38.20600
H  -7.39900 32.13100 41.16100
H  -6.38700 33.08700 40.23500
H  -6.85600 31.45400 39.61400

