158

Mg 16.90400 -1.60700 27.70300
C  16.57700 0.73300 30.31100
C  19.02000 -3.48600 30.03500
C  18.19700 -3.28100 25.25400
C  15.56900 0.79900 25.52400
N  17.78100 -1.36700 29.88400
C  17.31200 -0.41500 30.73600
C  17.73800 -0.71000 32.17700
C  18.84100 -1.89300 31.93600
C  18.50300 -2.32400 30.53600
C  20.42100 -1.45600 32.14700
C  16.47100 -1.04100 33.01200
C  16.35300 -0.38900 34.46600
H  17.53900 0.39100 35.11300
N  18.31100 -3.26200 27.60300
C  18.96800 -3.91900 28.68100
C  19.59900 -5.08200 28.07200
C  19.37000 -4.99900 26.69800
C  18.59400 -3.79800 26.48400
C  20.24400 -6.14800 28.89000
C  19.90900 -5.98400 25.61200
O  19.63900 -5.88200 24.42200
C  20.72000 -7.22800 26.08000
N  16.81800 -1.27900 25.60500
C  17.50300 -2.16400 24.87800
C  17.37400 -1.71600 23.38500
C  16.42600 -0.52400 23.41000
C  16.23600 -0.29800 24.93100
C  18.67500 -1.56500 22.54800
C  15.11500 -0.57400 22.53000
C  15.11700 0.34900 21.31200
N  16.13900 0.24100 27.86300
C  15.52500 1.11700 26.87800
C  14.83500 2.23800 27.55200
C  15.22100 2.11100 28.86200
C  16.03200 0.93700 29.00100
C  14.17100 3.29100 26.77800
C  15.15500 2.77700 30.11900
O  14.54200 3.81500 30.49300
C  16.04800 1.86600 31.14200
C  17.13900 2.56800 31.82500
O  18.32500 2.70400 31.55900
O  16.50300 3.36500 32.86600
C  17.39600 4.31500 33.53900
H  19.66800 -4.01500 30.73800
H  18.64300 -3.79100 24.39700
H  15.01500 1.46700 24.86200
H  18.21300 0.18200 32.58500
H  18.70800 -2.73100 32.61900
H  20.87100 -1.38600 31.15600
H  20.90700 -2.24900 32.71400
H  20.53900 -0.45300 32.55700
H  16.41100 -2.12900 33.05700
H  15.59000 -0.61000 32.53400
H  16.01400 -1.12200 35.19800
H  15.46100 0.23600 34.43500
H  21.30500 -5.91000 28.81300
H  19.98500 -7.15400 28.55800
H  19.95300 -6.14700 29.94000
H  20.10600 -8.02900 26.49100
H  21.54700 -7.01400 26.75800
H  21.10200 -7.71600 25.18300
H  16.86600 -2.48700 22.80600
H  16.94800 0.33200 22.98200
H  18.37100 -0.78500 21.85100
H  18.83800 -2.50100 22.01400
H  19.55900 -1.28100 23.11900
H  14.22400 -0.44200 23.14400
H  14.94900 -1.56800 22.11400
H  15.90200 -0.02500 20.65500
H  15.33100 1.36000 21.65800
H  14.23800 0.37000 20.66800
H  13.28600 2.90800 26.27000
H  14.93600 3.71600 26.12800
H  13.96500 4.08300 27.49700
H  15.41000 1.54100 31.96300
H  18.43000 3.99200 33.65700
H  16.98900 4.31800 34.55000
H  17.37000 5.34800 33.19200
Mg 48.05600 44.67900 42.42800
C  44.53800 44.07300 42.28500
C  48.43800 41.20800 42.40600
C  51.32400 45.21100 42.04700
C  47.27500 48.16100 42.07700
N  46.67000 42.85600 42.35500
C  45.29300 42.90700 42.35500
C  44.65100 41.50900 42.22200
C  45.87900 40.52500 42.42400
C  47.05300 41.54000 42.41100
C  45.73000 39.64500 43.65400
C  43.83500 41.14300 40.88300
C  43.98200 42.06100 39.58000
H  43.58500 41.54700 38.18000
N  49.64900 43.43000 42.19800
C  49.55900 42.04600 42.27300
C  50.86900 41.57100 42.28200
C  51.78300 42.67000 42.26300
C  50.93000 43.86000 42.12600
C  51.19500 40.07500 42.19100
C  53.21900 42.50900 42.33500
O  53.65900 41.40000 42.59300
C  54.21100 43.60800 42.21700
N  49.10000 46.47600 41.93700
C  50.47800 46.40000 41.97400
C  51.03600 47.77400 41.62100
C  49.78900 48.70300 41.83000
C  48.61600 47.76400 41.98500
C  52.21400 48.25800 42.49500
C  49.64700 49.94100 40.78900
C  49.27600 51.24100 41.53100
N  46.30600 45.90100 42.24500
C  46.15900 47.25000 42.14400
C  44.71400 47.65200 42.15600
C  44.01000 46.45600 42.19400
C  45.03400 45.38900 42.20300
C  44.16900 48.97300 42.10500
C  42.69700 45.85700 42.25400
O  41.54500 46.29200 42.29300
C  43.04100 44.29200 42.43100
C  42.52100 43.84600 43.75600
O  41.57300 43.10300 43.88800
O  43.19500 44.36800 44.80600
C  42.61000 44.18200 46.12700
H  48.65100 40.13800 42.38500
H  52.39400 45.35200 41.88300
H  46.99800 49.21700 42.07900
H  43.86900 41.40900 42.97500
H  45.95700 39.88500 41.54500
H  46.34600 40.04700 44.45800
H  45.99400 38.63300 43.34800
H  44.70100 39.54000 43.99800
H  42.77000 41.23600 41.09200
H  43.95700 40.11000 40.55500
H  45.02300 42.38400 39.56400
H  43.48900 43.01500 39.76600
H  52.12300 39.90500 41.64500
H  50.44700 39.61500 41.54600
H  51.07200 39.62100 43.17400
H  54.12800 44.14700 41.27300
H  55.19500 43.30700 42.57600
H  53.91400 44.39700 42.90800
H  51.25900 47.83000 40.55500
H  49.95200 49.17700 42.79800
H  53.09800 47.94600 41.93900
H  52.18700 47.69900 43.43000
H  52.08800 49.33900 42.56500
H  48.85100 49.59000 40.13300
H  50.57800 50.11900 40.25000
H  50.15200 51.88100 41.42200
H  49.16400 51.18700 42.61400
H  48.33800 51.59300 41.10000
H  43.10900 48.79600 41.91900
H  44.53200 49.49500 41.21900
H  44.24800 49.65200 42.95400
H  42.48600 43.78300 41.64300
H  41.62300 44.58200 46.35900
H  43.44300 44.35600 46.80800
H  42.52500 43.10200 46.24200

