158

Mg 51.18700 45.53300 41.49100
C  48.36500 47.09000 39.91900
C  50.21600 42.60400 40.09000
C  54.32800 44.33600 41.93200
C  52.27900 48.71100 42.33300
N  49.43700 44.95300 40.13300
C  48.40600 45.71500 39.78100
C  47.23700 44.77000 39.27700
C  47.71500 43.35500 39.71100
C  49.25000 43.63800 39.95900
C  47.03800 42.89100 41.02900
C  46.84000 44.87500 37.79300
C  45.37800 44.79900 37.42800
H  44.86100 43.54500 36.70000
N  52.19400 43.67300 41.05800
C  51.62000 42.55800 40.43100
C  52.50400 41.40600 40.42300
C  53.72800 41.94300 40.91900
C  53.45100 43.34000 41.37200
C  52.09900 40.03600 39.96700
C  55.11600 41.25600 41.01500
O  55.25000 40.17700 40.38800
C  56.28000 41.77800 41.71000
N  53.12100 46.44300 41.99700
C  54.21100 45.73700 42.22300
C  55.45700 46.58300 42.52600
C  54.78900 47.92000 42.93900
C  53.31800 47.72300 42.38600
C  56.41000 45.97700 43.60900
C  55.45800 49.09600 42.34600
C  55.65300 50.16500 43.39100
N  50.36600 47.57500 41.39400
C  50.96800 48.68900 41.75600
C  50.01800 49.85200 41.59200
C  48.97000 49.27400 40.77400
C  49.30700 47.88000 40.68600
C  50.23700 51.23800 42.11200
C  47.71000 49.54900 40.01800
O  47.04400 50.57700 39.74100
C  47.32300 48.06800 39.44900
C  45.99100 47.67600 39.84300
O  44.97500 47.68000 39.13100
O  46.08000 47.55900 41.24800
C  44.70000 47.59500 41.81600
H  49.83400 41.60400 39.87400
H  55.34900 43.95000 41.89100
H  52.35800 49.70400 42.78200
H  46.35500 45.09900 39.82700
H  47.60000 42.57700 38.95700
H  46.61400 43.69300 41.63200
H  47.76500 42.57100 41.77600
H  46.40200 42.00900 40.95100
H  47.31100 44.06600 37.23500
H  47.23900 45.81400 37.40900
H  45.09500 45.71600 36.91100
H  44.87600 44.91300 38.38900
H  52.79300 39.22100 40.17400
H  51.75100 39.83000 38.95500
H  51.11900 39.83900 40.40200
H  56.08200 41.85400 42.77900
H  56.72200 42.65500 41.23600
H  57.12600 41.09200 41.68400
H  55.93900 46.72200 41.55900
H  54.70800 47.97100 44.02500
H  56.58100 46.60000 44.48800
H  57.39300 45.68600 43.23800
H  56.06900 44.98300 43.89700
H  54.80000 49.53600 41.59700
H  56.44400 48.86700 41.94100
H  55.94100 49.82200 44.38500
H  54.81600 50.86400 43.40100
H  56.50500 50.79600 43.13600
H  50.84500 51.77900 41.38700
H  50.65400 51.29000 43.11800
H  49.23600 51.66200 42.19400
H  47.31300 48.12900 38.36100
H  44.75400 48.17800 42.73500
H  44.33800 46.63300 42.17700
H  43.93200 48.09000 41.22200
Mg 26.33000 50.01200 26.77200
C  24.04100 51.12900 29.21400
C  28.45200 49.23800 29.21800
C  28.31800 48.74600 24.34000
C  24.21500 51.31300 24.27200
N  26.13700 50.02300 28.95700
C  25.11900 50.38300 29.75100
C  25.42300 50.13900 31.21300
C  27.00300 49.89800 31.23200
C  27.25900 49.67700 29.67300
C  27.96800 51.04200 31.85500
C  24.57800 49.01900 31.87700
C  24.12200 49.16200 33.35700
H  24.99500 49.94200 34.42400
N  28.16700 49.09600 26.77000
C  28.92800 48.89600 27.90200
C  30.13000 48.07900 27.56500
C  30.06400 47.90100 26.16000
C  28.85200 48.65400 25.61100
C  31.17800 47.66300 28.63200
C  30.92200 47.02300 25.25400
O  30.80000 46.98800 24.05500
C  31.93500 46.10400 25.89500
N  26.40900 50.19700 24.63800
C  27.23200 49.44700 23.87000
C  26.83000 49.38900 22.34900
C  25.41900 50.03400 22.35200
C  25.36000 50.63400 23.83000
C  27.95300 50.01200 21.40400
C  24.24100 49.14600 21.94800
C  23.25700 49.75400 20.91700
N  24.64900 51.11500 26.70100
C  23.82300 51.55500 25.63800
C  22.65900 52.17300 26.19500
C  22.73900 52.01900 27.57800
C  23.90000 51.30800 27.81900
C  21.58000 52.72600 25.41700
C  21.92700 52.36200 28.81100
O  20.83000 52.87400 28.91500
C  22.82800 51.68900 29.92700
C  23.23600 52.66200 30.89900
O  23.97600 53.64600 30.76500
O  22.60500 52.42100 32.16500
C  23.07400 53.21400 33.26400
H  29.01100 48.88800 30.08800
H  28.73100 48.04200 23.61500
H  23.48400 51.60100 23.51400
H  25.17400 51.04100 31.77300
H  27.25900 48.90600 31.60200
H  28.68300 51.33800 31.08800
H  28.51800 50.52400 32.64100
H  27.46100 51.90900 32.27900
H  25.14400 48.09400 31.76400
H  23.65000 48.84100 31.33300
H  24.04600 48.23200 33.92100
H  23.21600 49.76400 33.42500
H  31.07100 48.30100 29.50900
H  32.14600 47.62300 28.13300
H  30.93300 46.64200 28.92600
H  32.86500 46.64100 26.08600
H  32.22100 45.30800 25.20700
H  31.40000 45.77300 26.78500
H  26.79900 48.31900 22.14300
H  25.51500 50.88300 21.67500
H  28.91900 50.02500 21.90900
H  27.64500 51.03500 21.18700
H  28.02000 49.45900 20.46700
H  23.71200 48.82000 22.84400
H  24.71300 48.26100 21.52100
H  22.21600 49.66700 21.22800
H  23.28100 49.32200 19.91600
H  23.43300 50.82500 20.81400
H  20.70300 52.84700 26.05300
H  21.27800 52.16700 24.53200
H  21.85100 53.75900 25.19700
H  22.28200 50.86200 30.38100
H  24.15900 53.32000 33.26300
H  22.68600 52.90800 34.23600
H  22.80500 54.25500 33.08200

