158

Mg 48.44700 16.13100 28.53900
C  46.31800 16.06900 31.32700
C  50.70400 17.92000 30.46800
C  50.50500 16.03200 25.99100
C  45.88500 14.79800 26.65600
N  48.41600 16.97300 30.61800
C  47.49700 16.74400 31.60500
C  48.02600 17.20800 32.96600
C  49.20200 18.12800 32.57200
C  49.43200 17.65700 31.14600
C  48.93100 19.68500 32.77500
C  48.27900 15.99600 33.90200
C  48.37900 16.39800 35.38800
H  48.01400 17.76900 35.94400
N  50.33500 16.78000 28.25000
C  51.13500 17.52300 29.17600
C  52.41700 17.78800 28.52000
C  52.33600 17.23500 27.29000
C  51.05400 16.63500 27.12500
C  53.49100 18.62400 29.20200
C  53.40200 17.33300 26.22600
O  53.19000 16.89100 25.12100
C  54.86100 17.70700 26.59900
N  48.26400 15.28500 26.64100
C  49.27000 15.48000 25.68800
C  48.84700 15.05800 24.26500
C  47.41800 14.44900 24.53900
C  47.12800 14.83600 26.04300
C  48.90300 16.15400 23.20300
C  47.25300 12.95100 24.47400
C  47.24800 12.32600 23.05200
N  46.47600 15.68100 28.83200
C  45.58900 15.14000 27.96100
C  44.31000 15.03900 28.62100
C  44.55300 15.30600 30.01600
C  45.94100 15.68700 30.07000
C  42.98700 14.48600 28.09200
C  43.99900 15.31900 31.35400
O  42.93800 14.97700 31.80800
C  45.24200 15.75000 32.32600
C  44.74300 16.87100 33.18900
O  44.21200 17.91300 32.78000
O  44.69200 16.39700 34.49200
C  43.87600 17.21100 35.31700
H  51.44600 18.38200 31.12300
H  51.10700 16.02100 25.08000
H  45.09000 14.37300 26.04000
H  47.25300 17.79100 33.46700
H  50.08800 17.79700 33.11400
H  49.78200 20.13500 33.28700
H  48.08000 19.91400 33.41600
H  48.77200 20.14300 31.79900
H  49.19500 15.53500 33.53200
H  47.44600 15.29400 33.91900
H  49.40900 16.27400 35.72400
H  47.86000 15.60400 35.92600
H  54.28900 17.94400 29.49800
H  53.14900 19.06800 30.13700
H  53.75700 19.41200 28.49700
H  54.98100 18.78700 26.68200
H  55.45200 17.55900 25.69500
H  55.14400 16.98500 27.36500
H  49.56500 14.31900 23.91000
H  46.60800 14.95600 24.01500
H  49.39400 17.06800 23.53600
H  47.89100 16.34700 22.84600
H  49.54700 15.76800 22.41300
H  46.23900 12.79800 24.84300
H  47.87600 12.39200 25.17300
H  47.87000 11.46200 22.81600
H  47.51900 13.09000 22.32400
H  46.29800 11.89100 22.74100
H  42.89100 13.40600 28.19800
H  42.87500 14.69100 27.02700
H  42.26400 14.99900 28.72800
H  45.53700 14.86900 32.89600
H  44.17100 18.25500 35.42700
H  43.77500 16.78700 36.31600
H  42.89400 17.24600 34.84600
Mg 16.98000 51.80000 25.98000
C  19.17000 49.95700 28.21100
C  14.93400 52.27500 28.70000
C  14.86200 53.09400 23.94400
C  18.84900 50.36300 23.44400
N  17.11100 51.27700 28.17800
C  18.08400 50.58800 28.89100
C  17.88000 50.70800 30.38100
C  16.37400 51.02600 30.34400
C  16.09900 51.49900 28.96500
C  15.40500 49.91100 30.85400
C  18.82000 51.81000 31.03800
C  19.19300 51.53900 32.44000
H  18.14400 50.93700 33.31000
N  15.19300 52.71900 26.30600
C  14.48000 52.88300 27.49700
C  13.40000 53.81700 27.32400
C  13.34100 54.09500 25.85200
C  14.44300 53.29100 25.26600
C  12.57200 54.40600 28.48000
C  12.41500 54.98800 25.08500
O  12.64600 55.26900 23.92300
C  11.25400 55.69900 25.76200
N  16.74400 51.44400 23.86200
C  15.82300 52.29100 23.26400
C  16.24800 52.62300 21.82600
C  17.69500 52.02100 21.73800
C  17.84400 51.23200 23.11300
C  15.27400 51.93300 20.80700
C  18.87400 53.09500 21.59600
C  19.83900 52.92300 20.41500
N  18.65800 50.45800 25.80700
C  19.21200 49.89200 24.71200
C  20.28700 48.98400 25.07200
C  20.30700 49.05600 26.47000
C  19.30300 49.92200 26.84400
C  21.20200 48.14000 24.09900
C  21.03400 48.59100 27.63700
O  22.08200 47.92500 27.72200
C  20.32400 49.18200 28.84000
C  19.85700 48.16400 29.77900
O  19.17200 47.17000 29.53700
O  20.52300 48.40000 30.96100
C  20.32200 47.35800 32.03200
H  14.27200 52.44500 29.55200
H  14.38400 53.73900 23.20400
H  19.59200 50.10900 22.68400
H  18.05100 49.67300 30.68000
H  16.16100 51.93900 30.90000
H  14.84400 49.51500 30.00700
H  14.70600 50.39800 31.53400
H  15.96100 49.08200 31.29100
H  18.25700 52.74100 30.97500
H  19.75700 51.84200 30.48200
H  19.49400 52.51000 32.83400
H  20.03400 50.85300 32.34200
H  12.65500 53.82600 29.39900
H  11.52000 54.57300 28.25200
H  13.12100 55.33100 28.65800
H  10.75800 56.28500 24.98800
H  11.79400 56.28200 26.50800
H  10.59100 54.96400 26.21700
H  16.27200 53.70700 21.72300
H  17.73000 51.39700 20.84500
H  14.25500 52.03200 21.17900
H  15.54300 50.89400 20.61500
H  15.20700 52.45600 19.85300
H  19.28500 52.92100 22.59000
H  18.48400 54.11200 21.54200
H  19.53100 52.05200 19.83600
H  20.88300 52.83000 20.71100
H  19.80400 53.83400 19.81700
H  21.77300 47.31300 24.52200
H  22.01800 48.78500 23.77600
H  20.53100 47.79000 23.31500
H  20.97400 49.82600 29.43300
H  20.64700 46.40900 31.60800
H  19.30000 47.16200 32.35600
H  21.00600 47.68400 32.81600

