158

Mg -0.77800 7.81900 27.04500
C  0.74500 9.85100 29.54200
C  -0.92300 5.28800 29.33600
C  -1.70800 5.71000 24.56900
C  0.12600 10.16400 24.67000
N  0.19500 7.47000 29.20100
C  0.43800 8.58600 30.04400
C  0.26600 8.16100 31.55000
C  -0.03700 6.59700 31.42500
C  -0.34200 6.43500 29.90400
C  1.26400 5.69900 31.85500
C  -1.01300 8.91000 32.10000
C  -1.14700 8.89900 33.60900
H  -0.00400 8.50400 34.53900
N  -1.32000 5.79800 26.95800
C  -1.38200 4.95600 28.05700
C  -1.95400 3.66600 27.67100
C  -2.19000 3.79700 26.22600
C  -1.72300 5.11400 25.84800
C  -2.27500 2.61000 28.67000
C  -2.69000 2.72000 25.27000
O  -2.75700 2.89000 24.05700
C  -3.11200 1.45600 25.97300
N  -0.76200 7.94100 24.90300
C  -1.29000 6.96700 24.12800
C  -1.47500 7.44600 22.61500
C  -0.90000 8.88400 22.68500
C  -0.50500 9.00200 24.18900
C  -0.76700 6.50800 21.62200
C  -1.87300 9.88500 22.03500
C  -1.27200 11.01100 21.22900
N  0.11200 9.65500 27.09100
C  0.50200 10.46600 26.02100
C  1.21700 11.63500 26.52800
C  1.16300 11.44900 27.90600
C  0.60900 10.22700 28.18200
C  1.57000 12.95000 25.80300
C  1.47900 12.06300 29.09400
O  2.02900 13.13000 29.23100
C  1.21800 11.07100 30.28300
C  2.43100 10.93800 31.09400
O  3.52900 10.34300 30.86600
O  2.28400 11.82400 32.14400
C  3.17500 11.62900 33.29400
H  -1.11800 4.58800 30.15100
H  -2.07200 5.04200 23.78600
H  0.33200 10.98800 23.98300
H  1.14200 8.31400 32.17900
H  -0.96100 6.26000 31.89500
H  1.07700 5.00400 32.67300
H  2.12700 6.32100 32.09400
H  1.54500 5.15600 30.95300
H  -1.91100 8.36600 31.80800
H  -1.18000 9.91800 31.72000
H  -2.05800 8.39100 33.92500
H  -1.31100 9.89300 34.02600
H  -1.79700 1.64600 28.49400
H  -3.33100 2.38500 28.52100
H  -2.16200 2.80600 29.73600
H  -2.31700 0.86000 26.42000
H  -3.52600 0.78500 25.22000
H  -3.86100 1.85600 26.65600
H  -2.54900 7.35100 22.45400
H  0.09200 8.97400 22.24200
H  0.04500 7.00000 21.08600
H  -1.54800 6.30400 20.88900
H  -0.31900 5.65900 22.13800
H  -2.57300 10.17800 22.81800
H  -2.52800 9.34100 21.35400
H  -1.89600 11.84800 21.54000
H  -1.42500 10.77200 20.17700
H  -0.22200 11.21800 21.43500
H  0.71600 13.51200 25.42300
H  2.18600 12.79400 24.91700
H  2.07000 13.64000 26.48200
H  0.35100 11.58400 30.70000
H  2.69800 11.46800 34.26100
H  3.68400 12.59200 33.32900
H  3.85500 10.80900 33.06200
Mg 48.33300 34.64900 27.17900
C  46.33200 33.33800 29.63700
C  48.90800 37.47600 29.06400
C  50.08400 35.91100 24.52600
C  47.32600 31.89200 25.04200
N  47.82700 35.22800 29.11900
C  47.05700 34.47900 30.07100
C  47.06900 35.13000 31.43700
C  47.38900 36.63000 31.00100
C  48.14300 36.51400 29.66700
C  46.25800 37.65400 30.97000
C  48.07600 34.53100 32.40600
C  47.67500 34.53600 33.91600
H  46.68200 35.62000 34.51700
N  49.50300 36.38700 26.90900
C  49.61500 37.38800 27.85800
C  50.60500 38.37900 27.34000
C  50.97000 37.94500 25.99800
C  50.18200 36.71300 25.72300
C  51.05100 39.50700 28.10900
C  51.87700 38.61500 24.95800
O  52.06200 38.13800 23.85200
C  52.70300 39.80600 25.34600
N  48.53800 34.08300 24.97700
C  49.35900 34.74400 24.12000
C  49.43000 34.03600 22.79300
C  48.62000 32.75700 23.02500
C  48.04200 32.93100 24.44400
C  49.09800 34.89200 21.60900
C  49.39300 31.41200 22.84800
C  49.39100 30.96100 21.41900
N  47.08900 32.98000 27.21800
C  46.85500 31.95700 26.38400
C  46.02400 31.02700 27.03600
C  45.63700 31.59700 28.23900
C  46.42300 32.71100 28.34800
C  45.37700 29.81900 26.39900
C  44.84800 31.41800 29.43300
O  43.91000 30.62100 29.60200
C  45.18700 32.62400 30.37200
C  45.52500 32.10700 31.66600
O  46.22100 31.09700 31.75200
O  44.70700 32.63300 32.63900
C  44.46400 31.85000 33.82700
H  48.94700 38.43100 29.59300
H  50.72100 36.24600 23.70500
H  47.07200 30.92300 24.60800
H  46.12100 35.27900 31.95300
H  48.20100 37.12400 31.53300
H  46.07900 38.06900 29.97800
H  46.60700 38.51900 31.53300
H  45.28100 37.32600 31.32400
H  49.06600 34.91000 32.14800
H  48.02700 33.47800 32.12800
H  48.55300 34.60000 34.55800
H  47.31400 33.57600 34.28500
H  50.35000 39.81700 28.88400
H  51.28500 40.40500 27.53600
H  51.95600 39.15500 28.60500
H  53.25000 39.58000 26.26100
H  52.14100 40.70200 25.61000
H  53.35800 39.96800 24.49000
H  50.49500 33.83000 22.68800
H  47.79700 32.83700 22.31600
H  48.52000 35.75200 21.95000
H  48.62500 34.28900 20.83400
H  50.05000 35.22200 21.19300
H  48.95900 30.63800 23.47900
H  50.41900 31.56500 23.18100
H  49.12800 31.78100 20.75100
H  48.73800 30.09500 21.30400
H  50.40800 30.59700 21.27300
H  46.06700 29.09400 25.96800
H  44.80800 30.06800 25.50400
H  44.64800 29.34300 27.05500
H  44.40000 33.37700 30.34100
H  43.85100 32.55400 34.38900
H  45.32000 31.52800 34.42000
H  43.81400 31.01400 33.56800

