158

Mg 16.52400 51.98200 26.43400
C  18.30600 50.61300 29.17100
C  14.15100 52.99500 28.56400
C  15.00600 53.10300 23.80800
C  18.91200 50.39400 24.27100
N  16.23500 51.72000 28.62000
C  17.09000 51.20600 29.61100
C  16.45000 51.36000 30.95200
C  15.16700 52.13700 30.70700
C  15.13300 52.23400 29.17700
C  13.92900 51.62000 31.44400
C  17.47700 52.02800 31.95600
C  16.77600 52.54900 33.20600
H  16.09200 51.50500 34.04100
N  14.81000 53.00600 26.18700
C  13.97900 53.34900 27.22200
C  12.81400 53.98000 26.61000
C  13.10900 54.10500 25.22200
C  14.41200 53.44400 25.04900
C  11.60200 54.52200 27.38400
C  12.24300 54.58000 24.11200
O  12.59500 54.68000 22.93100
C  10.82900 54.89600 24.43100
N  16.92100 51.72500 24.37200
C  16.15500 52.34300 23.54100
C  16.60200 52.24800 22.05500
C  17.95600 51.48200 22.17900
C  17.94000 51.14100 23.65200
C  15.63700 51.38500 21.15800
C  19.19300 52.26700 21.78400
C  20.15700 51.39300 20.95700
N  18.21600 50.60200 26.62400
C  19.06000 50.13300 25.68400
C  20.12400 49.32500 26.32600
C  19.92400 49.59500 27.71400
C  18.67500 50.31600 27.80800
C  21.10200 48.51800 25.51700
C  20.37800 49.30100 29.04100
O  21.45300 48.74600 29.40000
C  19.36200 49.90500 30.00600
C  18.80100 48.85200 30.90600
O  17.97600 47.95500 30.69200
O  19.33600 49.02800 32.16200
C  18.93900 47.97100 33.19800
H  13.43700 53.41700 29.27600
H  14.54900 53.53500 22.91500
H  19.69300 49.88300 23.70300
H  16.28700 50.35600 31.34600
H  15.28500 53.14600 31.10400
H  13.25500 51.18700 30.70500
H  13.49400 52.51900 31.88100
H  14.29000 50.83600 32.10800
H  18.05000 52.86000 31.54600
H  18.18700 51.27200 32.29200
H  16.20300 53.47300 33.13100
H  17.65300 52.89000 33.75800
H  12.00700 54.48600 28.39500
H  10.71000 53.90500 27.27000
H  11.36100 55.56300 27.17000
H  10.39600 54.09000 25.02400
H  10.22800 54.99400 23.52800
H  11.01400 55.86200 24.90200
H  16.77100 53.19800 21.54700
H  17.85700 50.52000 21.67600
H  14.77000 51.99100 20.89300
H  15.31800 50.45100 21.62200
H  16.06600 51.15600 20.18300
H  19.64100 52.48400 22.75300
H  19.05300 53.16000 21.17300
H  19.73400 50.41800 20.71800
H  21.13500 51.29500 21.42900
H  20.23600 51.96800 20.03400
H  21.52600 47.76500 26.18200
H  21.89400 49.19400 25.19500
H  20.56600 48.01400 24.71300
H  19.99100 50.56700 30.60200
H  17.86700 48.08600 33.35300
H  19.42700 48.17200 34.15200
H  19.19000 46.97100 32.84500
Mg -12.70900 39.44800 42.31700
C  -11.35400 36.37200 41.33800
C  -10.05700 41.08000 40.53200
C  -14.41600 42.37400 42.31000
C  -15.63700 37.83100 43.36800
N  -11.08500 38.78100 40.87600
C  -10.61700 37.44400 40.77600
C  -9.34200 37.35700 40.02100
C  -8.80500 38.80700 40.03500
C  -10.05100 39.64000 40.48200
C  -7.45400 38.92200 40.88100
C  -9.33400 36.73500 38.59500
C  -8.11200 35.92400 38.20400
H  -7.21700 36.53100 37.11200
N  -12.29600 41.43200 41.61300
C  -11.10700 41.89800 41.00000
C  -11.17100 43.31300 40.82400
C  -12.53300 43.66500 41.06600
C  -13.16900 42.47900 41.69700
C  -10.05000 44.07300 40.30000
C  -13.21300 45.02600 40.80400
O  -12.65800 45.91500 40.29000
C  -14.66400 45.20600 41.06700
N  -14.68600 40.03400 42.94300
C  -15.12200 41.29700 42.88900
C  -16.61700 41.41600 43.35200
C  -16.89700 39.98200 43.85900
C  -15.70600 39.21300 43.29300
C  -16.95700 42.49000 44.34500
C  -18.28500 39.47100 43.29700
C  -19.14100 38.50800 44.19200
N  -13.34800 37.51700 42.57000
C  -14.56300 37.03200 42.95000
C  -14.44200 35.56400 42.90100
C  -13.17400 35.30200 42.28200
C  -12.59100 36.50600 42.03600
C  -15.45300 34.61200 43.38400
C  -12.30200 34.28100 41.84800
O  -12.36400 33.06700 41.90100
C  -11.06300 34.91900 41.21700
C  -9.83600 34.53700 42.03300
O  -9.60500 34.90700 43.15800
O  -9.05000 33.70300 41.30900
C  -7.70800 33.43100 41.78600
H  -9.12600 41.57400 40.24800
H  -15.02400 43.27000 42.44700
H  -16.45300 37.36300 43.92200
H  -8.72000 36.61100 40.51600
H  -8.53900 39.22600 39.06500
H  -6.91100 37.98400 40.76400
H  -7.70400 39.08200 41.93000
H  -6.86100 39.77400 40.55000
H  -9.36400 37.54100 37.86200
H  -10.23900 36.16600 38.38300
H  -8.54400 34.95500 37.95100
H  -7.50400 35.69900 39.08000
H  -10.18000 44.34700 39.25300
H  -9.10900 43.56600 40.51700
H  -10.05100 45.06300 40.75600
H  -15.14700 44.30300 40.69400
H  -15.07500 46.06500 40.53700
H  -14.84600 45.39600 42.12500
H  -17.27000 41.61500 42.50200
H  -16.85700 39.88400 44.94400
H  -17.55000 43.20400 43.77400
H  -16.04900 42.99800 44.67200
H  -17.45500 42.03900 45.20400
H  -18.27800 38.95600 42.33600
H  -18.92300 40.33200 43.09500
H  -20.14400 38.60800 43.77700
H  -19.12000 38.83900 45.23000
H  -18.84900 37.45700 44.18400
H  -16.42000 35.01400 43.08200
H  -15.34800 34.65300 44.46800
H  -15.25500 33.60200 43.02700
H  -11.01400 34.52100 40.20300
H  -7.47100 32.37700 41.64600
H  -7.54300 33.59100 42.85200
H  -7.04500 34.08200 41.21600

