158

Mg 26.95000 50.55500 26.26100
C  25.04200 51.75900 28.95800
C  29.48400 49.68400 28.38200
C  28.61400 49.35900 23.70700
C  24.38900 51.82000 24.10600
N  27.19800 50.73400 28.43900
C  26.22700 51.09100 29.38300
C  26.74800 50.76900 30.79500
C  28.28800 50.32900 30.61600
C  28.32900 50.24600 29.01600
C  29.36600 51.22700 31.33700
C  25.91600 49.70600 31.63700
C  25.18500 50.26400 32.88200
H  25.94400 50.75800 34.11500
N  28.85800 49.67700 26.10300
C  29.76400 49.37700 27.06800
C  30.89800 48.70100 26.49100
C  30.61900 48.52600 25.12400
C  29.29900 49.18200 24.89600
C  32.04000 48.27900 27.41900
C  31.47300 47.86900 24.03000
O  31.17600 47.87400 22.83200
C  32.68200 47.22400 24.41300
N  26.67700 50.80200 24.08500
C  27.41400 50.01700 23.30200
C  26.81800 50.07700 21.82100
C  25.52400 50.92200 21.93700
C  25.47200 51.20300 23.48300
C  27.80700 50.43200 20.68700
C  24.20600 50.16800 21.43000
C  23.13600 50.99100 20.56500
N  25.12000 51.66500 26.38700
C  24.20900 52.09100 25.47400
C  23.16600 52.75800 26.10500
C  23.47200 52.71700 27.45000
C  24.67300 51.98400 27.60700
C  21.93200 53.22000 25.54400
C  22.94200 53.00200 28.70400
O  21.91700 53.50600 29.05500
C  23.91300 52.40100 29.81400
C  24.34700 53.47800 30.72700
O  25.34700 54.14000 30.54200
O  23.56300 53.50200 31.86800
C  24.13200 54.28200 33.04800
H  30.28100 49.30000 29.02200
H  28.98200 48.62000 22.99200
H  23.52200 52.18200 23.54900
H  26.74200 51.73900 31.29200
H  28.44700 49.30000 30.93800
H  29.48000 52.10700 30.70400
H  30.32200 50.70900 31.25100
H  29.16700 51.51000 32.37000
H  26.53200 48.86000 31.94200
H  25.21200 49.28300 30.92000
H  24.51000 49.46900 33.19900
H  24.62700 51.07000 32.40600
H  32.31000 49.00800 28.18300
H  32.98800 48.19300 26.88800
H  31.90300 47.27500 27.82100
H  32.43000 46.45100 25.13900
H  33.45600 47.88100 24.81000
H  33.12600 46.86500 23.48400
H  26.47500 49.04600 21.72300
H  25.74600 51.85000 21.41000
H  28.76700 50.59100 21.17800
H  27.55000 51.25300 20.01700
H  27.82700 49.55600 20.03900
H  23.74600 49.64900 22.27200
H  24.62100 49.29900 20.91900
H  22.94700 50.32200 19.72500
H  23.45400 52.00300 20.31700
H  22.20800 51.02900 21.13700
H  21.39000 52.48200 24.95300
H  22.23300 54.00200 24.84700
H  21.30200 53.64200 26.32700
H  23.26400 51.73600 30.38500
H  24.96700 53.70600 33.44700
H  23.41800 54.34800 33.86900
H  24.49700 55.27100 32.76900
Mg -2.21800 34.90000 26.64100
C  -3.96500 33.13600 29.31700
C  -0.97800 37.02400 29.03600
C  -0.70200 36.43500 24.26700
C  -3.84200 32.74800 24.54300
N  -2.55100 35.08600 28.93700
C  -3.24200 34.33900 29.81900
C  -3.05400 34.79800 31.24300
C  -2.14500 36.06800 31.06600
C  -1.97500 36.18600 29.52900
C  -2.58500 37.38400 31.83600
C  -2.47800 33.71000 32.27800
C  -1.99900 34.22600 33.68500
H  -3.07700 34.25300 34.72200
N  -0.91100 36.51600 26.64400
C  -0.52600 37.34500 27.71000
C  0.36600 38.39300 27.27200
C  0.54700 38.19300 25.84700
C  -0.33400 37.00500 25.51100
C  1.02000 39.39500 28.18000
C  1.30000 38.95600 24.86400
O  1.31900 38.70500 23.64500
C  2.03100 40.11200 25.43600
N  -2.29000 34.69300 24.63600
C  -1.52700 35.39700 23.82400
C  -1.64800 34.98400 22.33100
C  -2.75000 33.85400 22.50100
C  -3.05100 33.77500 23.99700
C  -1.78700 36.10700 21.24300
C  -2.32900 32.49700 21.87700
C  -1.37600 31.64300 22.74600
N  -3.85600 33.33700 26.77000
C  -4.23500 32.50400 25.79900
C  -5.07100 31.46400 26.35100
C  -5.00500 31.65900 27.77400
C  -4.19600 32.76800 27.98500
C  -5.94200 30.52600 25.60400
C  -5.43800 31.17200 29.04100
O  -6.12100 30.22400 29.29400
C  -4.69100 32.09000 30.13500
C  -5.72100 32.57800 31.10900
O  -6.47700 33.51300 30.94000
O  -5.76900 31.78600 32.19600
C  -6.82700 31.95700 33.19100
H  -0.47500 37.52500 29.86500
H  -0.04000 36.86500 23.51300
H  -4.34600 32.08600 23.83600
H  -4.04500 35.13700 31.54400
H  -1.14500 35.87200 31.45300
H  -1.96900 37.58900 32.71300
H  -3.63700 37.28400 32.10000
H  -2.61300 38.18500 31.09700
H  -1.66800 33.13500 31.82800
H  -3.27600 32.99500 32.47900
H  -1.74400 35.28400 33.61600
H  -1.13500 33.68600 34.07100
H  2.08600 39.48400 27.97100
H  0.94100 38.93200 29.16400
H  0.54900 40.37500 28.10600
H  1.39500 40.77900 26.01700
H  2.39900 40.72200 24.61100
H  2.93800 39.83600 25.97500
H  -0.72700 34.45400 22.08700
H  -3.65700 34.29400 22.08500
H  -2.58400 35.86600 20.53900
H  -0.84200 36.16400 20.70300
H  -1.93300 37.05900 21.75300
H  -1.80300 32.73300 20.95200
H  -3.20200 31.93000 21.55300
H  -0.90700 32.23600 23.53200
H  -0.57400 31.34900 22.06800
H  -1.75600 30.70000 23.14000
H  -6.85000 30.41000 26.19600
H  -5.37300 29.62300 25.38200
H  -6.21000 31.01700 24.66900
H  -3.97400 31.40700 30.59100
H  -7.70100 32.58800 33.02300
H  -6.30800 32.40000 34.04100
H  -7.20900 30.97700 33.47800

