158

Mg 0.42300 7.92800 24.83900
C  1.16400 9.53600 27.93200
C  0.35000 5.02800 26.55700
C  0.36600 6.42800 21.90600
C  1.11300 10.96500 23.29600
N  0.75100 7.36000 27.00100
C  0.94100 8.15000 28.12300
C  0.87700 7.38100 29.40700
C  0.59200 5.97100 28.90900
C  0.54100 6.12600 27.38500
C  1.65100 4.83400 29.33100
C  -0.17700 7.82500 30.48300
C  0.21600 7.63200 31.99000
H  1.46400 6.87900 32.44000
N  0.31400 6.03900 24.29900
C  0.29000 4.94500 25.19300
C  0.16900 3.70800 24.47100
C  0.07800 4.09700 23.10400
C  0.30400 5.55500 23.05600
C  0.08200 2.33700 25.09400
C  -0.10800 3.25600 21.86600
O  -0.06100 3.71400 20.67200
C  -0.43200 1.82700 22.05000
N  0.82500 8.63300 22.84300
C  0.60300 7.85200 21.77200
C  0.52200 8.67800 20.46000
C  0.93400 10.07900 20.91900
C  0.92300 9.93600 22.47000
C  1.49100 8.17200 19.24900
C  -0.00300 11.22200 20.31700
C  -1.25800 11.62200 21.07600
N  0.87400 9.92000 25.41000
C  1.21500 11.01300 24.69400
C  1.39800 12.11600 25.62800
C  1.35200 11.54200 26.85700
C  1.12900 10.22700 26.70600
C  1.55000 13.51800 25.13300
C  1.54400 11.92200 28.28200
O  1.93800 13.05400 28.75600
C  1.34700 10.59000 28.96400
C  2.39300 10.44800 30.04100
O  3.38900 9.66200 29.90100
O  2.09100 11.24800 31.09100
C  3.11200 11.13900 32.09500
H  0.29900 4.11500 27.15400
H  0.41000 5.85800 20.97600
H  1.28500 11.88600 22.73400
H  1.89500 7.38200 29.79700
H  -0.40300 5.65800 29.22500
H  1.76200 4.79700 30.41400
H  2.59800 5.14600 28.89100
H  1.44900 3.85400 28.89800
H  -1.09900 7.32300 30.19000
H  -0.22800 8.91000 30.38700
H  -0.70400 7.31200 32.48100
H  0.27800 8.65800 32.35100
H  -0.96100 2.13000 25.32900
H  0.78900 2.23900 25.91800
H  0.40700 1.54400 24.42000
H  0.38700 1.15300 22.30000
H  -0.84400 1.39200 21.14000
H  -1.14200 1.70800 22.86900
H  -0.49900 8.79200 20.09500
H  1.98600 10.20100 20.65900
H  0.88400 7.84600 18.40400
H  2.05600 7.30400 19.58800
H  2.18400 8.91300 18.85000
H  -0.27500 11.02300 19.28000
H  0.56900 12.14400 20.21000
H  -2.14400 11.59200 20.44200
H  -1.19700 12.64200 21.45300
H  -1.33200 10.79800 21.78600
H  0.58300 13.67400 24.65600
H  2.44000 13.57000 24.50600
H  1.74500 14.13300 26.01200
H  0.40700 10.78100 29.48300
H  2.96600 10.18200 32.59600
H  2.99500 11.91300 32.85300
H  4.15800 11.14000 31.78800
Mg 47.66500 24.92400 28.97800
C  47.98600 27.30400 31.43000
C  46.66100 22.70100 31.39800
C  47.55700 22.45300 26.58400
C  48.87600 27.16100 26.58300
N  47.42300 25.01800 31.22500
C  47.52400 26.08000 31.98900
C  47.20700 25.81500 33.43600
C  46.83300 24.31900 33.37000
C  47.01300 23.95800 31.87400
C  47.71500 23.44300 34.35000
C  45.98700 26.65100 33.96900
C  46.04300 27.45400 35.30200
H  46.57400 26.68100 36.50200
N  47.21700 22.89900 28.96700
C  46.73600 22.16900 30.05900
C  46.21000 20.94400 29.58100
C  46.36900 20.96400 28.12500
C  47.14000 22.13500 27.86500
C  45.60000 19.81200 30.38300
C  45.85400 19.93500 27.02800
O  45.89900 20.06000 25.81700
C  44.99000 18.77200 27.50800
N  48.20000 24.78600 26.87700
C  48.12300 23.67500 26.07000
C  48.54700 24.03900 24.61600
C  48.91700 25.52200 24.65600
C  48.60700 25.85000 26.10900
C  49.58900 23.03700 24.16400
C  48.31800 26.42200 23.57100
C  46.80700 26.54900 23.65400
N  48.30700 26.80400 29.01800
C  48.80900 27.61000 27.99200
C  49.16700 28.93300 28.46200
C  48.87900 28.92200 29.82500
C  48.30000 27.57500 30.10600
C  49.72700 30.03500 27.61900
C  48.84500 29.63400 31.04800
O  49.12400 30.81300 31.21100
C  48.44000 28.63000 32.11800
C  49.52100 28.33100 33.05200
O  50.59200 27.85000 32.65500
O  49.33000 28.93000 34.24300
C  50.45700 28.84400 35.18300
H  46.28000 22.05200 32.18900
H  47.27400 21.72400 25.82200
H  49.39200 27.91100 25.98000
H  48.13100 26.02700 33.97500
H  45.80500 24.16100 33.69500
H  47.06700 23.15800 35.17900
H  48.51900 24.00000 34.83100
H  48.14600 22.58200 33.84000
H  45.09400 26.04400 34.12200
H  45.80700 27.40600 33.20400
H  45.00500 27.70700 35.52000
H  46.64200 28.33600 35.07800
H  44.53500 19.75700 30.15600
H  45.61800 19.86800 31.47100
H  46.05900 18.92900 29.93800
H  44.16500 19.19700 28.08000
H  45.50200 18.05800 28.15400
H  44.62000 18.27600 26.61100
H  47.74200 23.95100 23.88600
H  49.98400 25.58500 24.44600
H  49.93300 22.44800 25.01400
H  50.46400 23.60600 23.85000
H  49.26000 22.31300 23.41900
H  48.59500 26.01000 22.60100
H  48.75600 27.41500 23.46800
H  46.46200 27.57400 23.78800
H  46.40600 26.13300 24.57900
H  46.25400 26.18300 22.78900
H  48.97500 30.14700 26.83700
H  50.70400 29.69200 27.28000
H  49.77400 30.93700 28.22900
H  47.59000 28.97800 32.70500
H  50.03300 29.15200 36.13900
H  51.31700 29.51000 35.12000
H  50.78400 27.80500 35.23900

