158

Mg 16.31100 51.96000 24.57200
C  17.88900 50.79900 27.59600
C  13.58200 52.83900 26.56200
C  14.80000 52.81400 21.86600
C  18.96800 50.48300 22.75100
N  15.81700 51.71400 26.82500
C  16.67800 51.38100 27.85600
C  16.14600 51.70200 29.30400
C  14.68400 52.11700 28.89400
C  14.65400 52.30200 27.33200
C  13.59500 51.15900 29.44900
C  16.92700 52.84200 30.06700
C  16.75500 52.92000 31.66600
H  15.85200 51.80700 32.40900
N  14.41500 52.83200 24.22300
C  13.40400 53.06800 25.11100
C  12.32800 53.59400 24.38400
C  12.62400 53.70600 23.01100
C  13.98300 53.08500 23.00500
C  11.04300 54.01700 25.17600
C  11.80100 54.21200 21.78900
O  12.29600 54.31200 20.62900
C  10.35600 54.66700 21.94200
N  16.98100 51.89500 22.60800
C  16.02000 52.17600 21.69600
C  16.48600 51.80600 20.28700
C  18.01100 51.49900 20.53400
C  18.01900 51.26800 22.02800
C  15.70600 50.66100 19.72100
C  18.83100 52.72200 20.13500
C  20.38500 52.53200 20.33500
N  18.05600 50.80500 25.04200
C  19.01900 50.29200 24.20400
C  19.96800 49.58200 25.01500
C  19.58700 49.81000 26.32200
C  18.40800 50.49400 26.32800
C  21.14800 48.89600 24.53200
C  19.95700 49.44700 27.71100
O  20.95000 48.88000 28.16600
C  18.85300 50.18700 28.58000
C  18.30500 49.15400 29.55800
O  17.56500 48.23100 29.22600
O  18.54500 49.49200 30.89700
C  18.19300 48.47700 31.90200
H  12.68500 53.05700 27.14600
H  14.16900 52.93800 20.98300
H  19.81200 49.99500 22.26000
H  16.10800 50.71700 29.77000
H  14.43200 53.06100 29.37700
H  13.11000 50.74800 28.56300
H  12.92800 51.83800 29.97900
H  13.87900 50.39800 30.17500
H  16.57600 53.75700 29.59100
H  17.98400 52.77400 29.80600
H  16.43500 53.94500 31.85400
H  17.77800 52.88000 32.04300
H  10.95200 55.10300 25.19800
H  10.98400 53.67500 26.20900
H  10.11300 53.68100 24.71800
H  10.43900 55.40300 22.74100
H  9.74800 53.80400 22.21300
H  10.01300 55.03600 20.97500
H  16.27900 52.66500 19.64900
H  18.33700 50.62900 19.96300
H  16.40300 50.15900 19.05000
H  14.98200 51.16400 19.08000
H  15.26800 50.05900 20.51800
H  18.47600 53.55800 20.73600
H  18.63900 53.04400 19.11100
H  20.69600 51.53900 20.01200
H  20.64300 52.51700 21.39400
H  20.98900 53.27900 19.81900
H  21.83500 49.39700 23.85000
H  20.87600 47.87300 24.27400
H  21.79200 48.57800 25.35200
H  19.40100 50.98500 29.08200
H  18.49800 47.45400 31.67900
H  17.14400 48.38200 32.18300
H  18.70100 48.72600 32.83300
Mg 9.04300 47.23000 26.61500
C  7.13700 47.26600 29.61000
C  11.86900 47.89500 28.53500
C  10.69200 48.04800 23.85900
C  5.98400 47.14300 24.82100
N  9.42300 47.57300 28.84300
C  8.49200 47.41100 29.85900
C  9.22900 47.49400 31.24300
C  10.76000 47.84500 30.81800
C  10.70500 47.74200 29.28800
C  11.20700 49.20200 31.36000
C  9.08200 46.27400 32.22600
C  10.15000 46.11500 33.27300
H  9.50400 45.58800 34.60600
N  11.00700 47.71200 26.21300
C  12.00300 47.90900 27.13800
C  13.27900 47.98200 26.40800
C  12.93300 47.88500 24.98900
C  11.48000 47.85500 25.00900
C  14.65800 48.01100 27.06500
C  13.82800 47.98200 23.77000
O  13.50500 47.75700 22.58600
C  15.20600 48.38600 24.02400
N  8.40800 47.63100 24.61500
C  9.33700 48.08700 23.69700
C  8.66000 48.40400 22.38100
C  7.21800 47.79300 22.57200
C  7.20800 47.51900 24.11500
C  8.59900 49.91500 22.02400
C  6.99400 46.48500 21.74000
C  6.22500 46.55200 20.36600
N  6.99400 47.14800 27.08700
C  5.88200 47.14900 26.20900
C  4.73100 47.12000 27.06700
C  5.13400 47.11000 28.41100
C  6.54500 47.08700 28.37000
C  3.27900 47.02700 26.63400
C  4.71100 47.13600 29.76400
O  3.59400 47.03400 30.30000
C  6.02300 47.14100 30.63200
C  6.11900 45.81900 31.34100
O  6.64000 44.81200 30.88000
O  5.44300 45.89700 32.55200
C  5.65600 44.78600 33.49200
H  12.71200 47.86900 29.22800
H  11.18400 48.52300 23.00800
H  5.12400 47.10900 24.14800
H  8.65200 48.32400 31.65200
H  11.51600 47.11900 31.11900
H  10.62900 49.44900 32.25000
H  10.92600 50.03600 30.71700
H  12.25600 49.18100 31.65500
H  8.99600 45.31600 31.71400
H  8.17300 46.57500 32.74700
H  10.53200 47.09700 33.55400
H  10.93800 45.43900 32.94200
H  15.06300 48.97600 26.76100
H  15.25000 47.12900 26.81700
H  14.50700 48.01900 28.14400
H  15.79500 48.45300 23.10900
H  15.70800 47.64300 24.64300
H  15.32000 49.32600 24.56500
H  9.31600 47.95800 21.63400
H  6.44400 48.50300 22.28000
H  7.60500 50.34400 22.14900
H  8.94500 50.03300 20.99700
H  9.38900 50.42400 22.57500
H  6.56800 45.72700 22.39800
H  7.96600 46.06600 21.48100
H  7.00600 46.57900 19.60600
H  5.55900 47.41200 20.43600
H  5.58400 45.68600 20.19800
H  3.30000 47.34500 25.59200
H  2.71000 47.80600 27.14300
H  2.79100 46.06400 26.78400
H  6.00900 47.94200 31.37000
H  4.66100 44.55600 33.87500
H  6.11100 45.15800 34.41000
H  6.10200 43.87600 33.09100

