158

Mg 42.41300 41.62700 25.65300
C  41.41100 43.87600 28.15900
C  43.62700 39.56700 28.14200
C  43.60200 39.48000 23.27100
C  41.85400 44.10100 23.28700
N  42.36600 41.63600 27.91000
C  42.00400 42.69800 28.66300
C  42.16300 42.39500 30.15200
C  42.91300 41.05100 30.15800
C  43.02400 40.73400 28.64700
C  44.28100 40.87900 30.93300
C  40.79000 42.46800 31.02700
C  40.79100 42.95100 32.45500
H  40.07000 42.06600 33.56100
N  43.43000 39.78200 25.71100
C  43.82500 39.08000 26.84500
C  44.41800 37.81000 26.47800
C  44.36600 37.69600 25.04100
C  43.74400 38.96700 24.62100
C  44.94400 36.75400 27.43300
C  44.83300 36.57000 24.18000
O  44.75900 36.61200 22.96000
C  45.60800 35.49000 24.75700
N  42.76300 41.82500 23.59200
C  43.21300 40.76600 22.82800
C  43.06900 41.05400 21.32300
C  42.55300 42.65000 21.29800
C  42.43500 42.90400 22.79900
C  44.32400 40.79800 20.59300
C  41.08900 42.83600 20.71000
C  40.92700 44.11300 19.87100
N  41.57200 43.53800 25.64600
C  41.48000 44.43300 24.60200
C  40.85600 45.59900 25.10100
C  40.84800 45.44200 26.51200
C  41.39000 44.15500 26.77900
C  40.44800 46.79900 24.30400
C  40.47700 46.08500 27.68300
O  39.93300 47.20100 27.94300
C  40.85900 45.09200 28.83800
C  41.84400 45.72900 29.91200
O  43.01200 45.95300 29.69300
O  41.20700 45.98500 31.13200
C  41.99300 46.43200 32.32000
H  44.03800 38.95700 28.94900
H  43.93400 38.83600 22.45400
H  41.64700 44.87500 22.54500
H  42.82600 43.16700 30.54400
H  42.23000 40.32200 30.59400
H  44.32000 41.69700 31.65200
H  45.16100 40.90000 30.28900
H  44.20400 39.95700 31.50900
H  40.41800 41.44400 31.05400
H  39.98200 42.88000 30.42400
H  40.31400 43.93100 32.47900
H  41.80400 43.18300 32.78400
H  44.75900 37.10700 28.44700
H  46.01800 36.63400 27.29100
H  44.38800 35.82000 27.35000
H  46.54400 35.85100 25.18300
H  45.99900 34.84600 23.96900
H  44.96500 35.02600 25.50400
H  42.28400 40.43900 20.88200
H  43.31200 43.29100 20.84900
H  45.12400 41.16700 21.23400
H  44.36500 41.37000 19.66600
H  44.26300 39.72500 20.40900
H  40.38500 42.85900 21.54100
H  40.82500 41.95200 20.13000
H  41.60100 44.94200 20.08700
H  39.87000 44.33700 20.01400
H  41.15800 43.96800 18.81600
H  40.07700 47.56000 24.99000
H  39.63200 46.50500 23.64400
H  41.29800 47.27400 23.81400
H  39.88100 44.98800 29.31000
H  42.39000 45.57000 32.85600
H  41.38200 47.06400 32.96500
H  42.89800 47.00400 32.11600
Mg -12.58200 37.30800 42.29900
C  -10.11400 34.86000 41.49700
C  -10.66500 39.58700 40.60000
C  -15.26100 39.29000 42.24500
C  -14.55800 34.65200 43.55500
N  -10.60900 37.21400 41.17100
C  -9.84700 36.09700 40.92300
C  -8.48500 36.53200 40.35100
C  -8.52800 38.11400 40.29200
C  -10.04100 38.28100 40.64000
C  -7.57200 38.92200 41.25200
C  -8.28600 35.81600 39.03900
C  -6.96000 35.01500 38.84400
H  -6.04700 35.57100 37.79400
N  -12.96500 39.22900 41.62400
C  -12.00400 40.00100 40.89700
C  -12.59700 41.26800 40.61100
C  -13.93800 41.10100 40.97500
C  -14.13600 39.84600 41.68400
C  -11.87700 42.34200 39.88900
C  -14.91100 42.08900 40.60800
O  -14.62700 43.08600 39.95100
C  -16.36600 41.97100 40.85300
N  -14.63200 37.00600 42.76300
C  -15.50700 37.99900 42.79700
C  -16.92700 37.47800 43.25800
C  -16.59200 36.05600 43.83100
C  -15.15400 35.85800 43.36200
C  -17.68000 38.35700 44.26700
C  -17.53300 34.84500 43.46100
C  -17.79900 33.85400 44.60700
N  -12.38200 35.22100 42.56300
C  -13.22900 34.29900 43.19500
C  -12.62700 32.99400 43.30700
C  -11.38000 33.18800 42.62200
C  -11.30900 34.51200 42.18400
C  -13.22900 31.71200 43.87000
C  -10.26300 32.49000 42.16900
O  -10.00100 31.26000 42.32000
C  -9.32400 33.54600 41.46600
C  -7.98200 33.51800 42.12300
O  -7.08900 32.83900 41.73100
O  -8.03200 34.33300 43.29500
C  -6.75700 34.66100 43.86200
H  -10.02300 40.28500 40.05700
H  -16.12400 39.95900 42.27700
H  -15.07200 33.85900 44.10100
H  -7.80500 36.19500 41.13400
H  -8.46300 38.50200 39.27600
H  -8.17500 39.39100 42.03000
H  -7.07800 39.63100 40.58900
H  -6.86100 38.26900 41.75700
H  -8.29800 36.55300 38.23600
H  -9.04300 35.07700 38.77800
H  -7.09200 33.95100 38.64700
H  -6.43400 34.98900 39.79800
H  -12.03700 43.35600 40.25500
H  -12.12600 42.29400 38.82800
H  -10.79000 42.26400 39.89500
H  -16.71600 40.98100 40.56000
H  -16.95000 42.77200 40.39800
H  -16.53200 41.93700 41.92900
H  -17.57200 37.34200 42.38900
H  -16.33100 36.07000 44.88900
H  -18.59900 38.78400 43.86500
H  -16.92200 39.13000 44.39300
H  -18.01400 37.75400 45.11100
H  -17.08400 34.31500 42.62100
H  -18.44500 35.31800 43.09800
H  -17.16900 34.04200 45.47700
H  -17.63600 32.86600 44.17800
H  -18.85200 33.93500 44.87900
H  -12.72700 30.92100 43.31300
H  -14.28100 31.84200 43.61800
H  -13.03200 31.55700 44.93100
H  -9.05300 33.25100 40.45200
H  -6.53300 35.72600 43.80600
H  -5.90400 34.23900 43.33000
H  -6.77500 34.22900 44.86300

