158

Mg -12.18600 38.44400 42.68600
C  -10.22800 35.61900 41.82000
C  -9.68100 40.49500 41.36400
C  -14.16400 41.22700 42.98000
C  -14.81400 36.28900 43.40100
N  -10.19500 38.05400 41.71900
C  -9.60200 36.83200 41.53900
C  -8.31500 36.99000 40.65600
C  -8.04900 38.56200 40.87800
C  -9.41300 39.08500 41.33900
C  -6.90200 38.96100 41.88200
C  -8.50700 36.52700 39.17600
C  -7.20900 35.81700 38.70900
H  -6.44400 36.47800 37.56100
N  -11.94900 40.60700 42.24900
C  -10.84000 41.17300 41.77300
C  -11.08500 42.61600 41.59300
C  -12.36200 42.90600 42.19800
C  -12.91200 41.55800 42.51500
C  -10.12800 43.62000 40.97500
C  -13.07600 44.19700 42.54500
O  -12.74400 45.32300 42.17600
C  -14.41400 44.19600 43.34300
N  -14.18900 38.74100 43.12400
C  -14.75200 39.94400 43.25300
C  -16.23500 39.91400 43.72700
C  -16.48400 38.28400 43.77600
C  -15.08100 37.72700 43.36700
C  -16.61600 40.68600 44.96600
C  -17.69100 37.72200 42.91200
C  -18.90300 37.38400 43.68800
N  -12.46500 36.39800 42.86100
C  -13.58500 35.65700 43.17900
C  -13.31100 34.28500 42.92300
C  -11.98100 34.23300 42.50900
C  -11.52300 35.58800 42.37800
C  -14.20600 33.07400 43.08900
C  -10.89700 33.38400 42.07100
O  -10.80800 32.18700 42.01800
C  -9.74300 34.24000 41.53000
C  -8.66600 33.90100 42.44800
O  -8.65800 34.11000 43.65200
O  -7.56300 33.24800 41.89100
C  -6.37400 33.11000 42.64800
H  -8.99300 41.10500 40.77500
H  -14.99200 41.87700 43.27100
H  -15.64700 35.65900 43.71900
H  -7.51100 36.42000 41.12100
H  -7.92200 38.99700 39.88700
H  -6.50800 38.03900 42.31000
H  -7.21500 39.70400 42.61500
H  -6.14200 39.37200 41.21800
H  -8.69000 37.32600 38.45900
H  -9.35800 35.84800 39.11400
H  -7.40500 34.77600 38.45200
H  -6.42600 35.78900 39.46700
H  -10.29600 43.62300 39.89800
H  -9.08700 43.31700 41.08800
H  -10.18200 44.63700 41.36300
H  -15.23000 43.84700 42.71000
H  -14.65900 45.18200 43.73900
H  -14.24300 43.61400 44.24800
H  -16.82200 40.21600 42.86000
H  -16.56900 37.97900 44.81800
H  -17.16300 40.13900 45.73300
H  -17.19200 41.56900 44.68900
H  -15.70200 40.97600 45.48400
H  -17.40300 36.85300 42.32100
H  -18.04200 38.50900 42.24400
H  -18.97900 36.30300 43.80100
H  -19.80800 37.73300 43.19100
H  -18.86100 37.78400 44.70100
H  -15.15600 33.35000 42.63200
H  -14.43100 32.90600 44.14200
H  -13.90200 32.20100 42.51200
H  -9.46800 33.99800 40.50300
H  -5.56300 32.96900 41.93300
H  -6.50400 32.15500 43.15700
H  -6.18300 33.94400 43.32200
Mg 0.86000 41.66300 26.65100
C  3.09800 42.27100 29.33500
C  -1.21500 40.27400 28.98100
C  -1.06500 40.75600 24.09700
C  3.52000 42.38100 24.44900
N  0.83100 41.51900 28.91500
C  1.80700 41.88300 29.76400
C  1.27000 41.89200 31.16500
C  0.03200 40.96600 31.06500
C  -0.18300 40.96900 29.58700
C  0.34000 39.59200 31.67300
C  1.10900 43.39500 31.60500
C  1.48500 43.71500 33.07700
H  1.36000 42.61300 34.15700
N  -0.93700 40.66600 26.51300
C  -1.56300 40.05000 27.59500
C  -2.73100 39.30700 27.07700
C  -2.74600 39.49600 25.69000
C  -1.56400 40.30800 25.35200
C  -3.58500 38.52600 28.03300
C  -3.65400 38.87100 24.62600
O  -3.46300 38.88500 23.41000
C  -4.74800 37.98900 25.07100
N  1.09300 41.82100 24.62300
C  0.13200 41.48200 23.72500
C  0.56900 41.72000 22.22600
C  1.95900 42.26600 22.41000
C  2.20000 42.26600 23.90000
C  0.26700 40.50700 21.34300
C  2.14800 43.59300 21.70000
C  1.78300 44.99800 22.38300
N  2.87400 42.29400 26.77800
C  3.79700 42.48200 25.82800
C  5.08300 42.71500 26.42600
C  4.82700 42.63500 27.82400
C  3.47400 42.40500 27.98500
C  6.43900 42.87900 25.77600
C  5.50100 42.64600 29.10600
O  6.66100 42.69900 29.49000
C  4.32800 42.56300 30.11000
C  4.60000 41.44400 31.04300
O  4.72200 40.25000 30.77800
O  4.87600 41.89900 32.26200
C  5.29400 40.92800 33.26300
H  -1.76900 39.77300 29.77700
H  -1.74400 40.72800 23.24200
H  4.41500 42.48000 23.83200
H  2.07200 41.41600 31.72700
H  -0.78200 41.48900 31.56700
H  0.96000 39.72400 32.56000
H  0.96200 39.17400 30.88200
H  -0.60000 39.05900 31.81600
H  0.08500 43.64600 31.33000
H  1.59300 44.06600 30.89500
H  0.85600 44.53400 33.42800
H  2.54200 43.94100 33.21400
H  -3.39000 37.46600 27.86900
H  -4.63600 38.74300 27.84100
H  -3.44600 38.80400 29.07800
H  -5.60700 38.56700 25.41200
H  -4.39900 37.23200 25.77400
H  -5.12200 37.41000 24.22600
H  -0.02700 42.51500 21.77800
H  2.64000 41.59200 21.89000
H  -0.28300 40.87800 20.47800
H  -0.40100 39.78800 21.81800
H  1.11200 40.02900 20.84700
H  1.48200 43.55600 20.83800
H  3.07000 43.66200 21.12200
H  1.50300 45.67000 21.57200
H  2.58900 45.48500 22.93100
H  0.86100 44.69300 22.87800
H  6.85900 41.99200 25.30100
H  7.25800 43.38800 26.28300
H  6.24200 43.60900 24.99000
H  4.15200 43.53300 30.57700
H  4.53100 40.15900 33.38300
H  5.51300 41.37400 34.23300
H  6.26800 40.49100 33.04200

