158

Mg 24.20500 -5.19100 45.72000
C  26.05200 -2.63300 44.13000
C  21.57000 -4.29300 43.72100
C  22.74900 -8.07400 46.56600
C  27.18400 -6.20800 47.39900
N  23.94800 -3.71500 43.96600
C  24.79100 -2.74200 43.62800
C  24.19300 -1.95100 42.47000
C  22.62600 -2.16100 42.72800
C  22.70500 -3.45500 43.50900
C  22.01300 -0.90700 43.47900
C  24.72600 -2.30800 41.06300
C  24.98400 -1.06000 40.18300
H  24.96300 -1.48000 38.73400
N  22.39700 -6.09100 45.20100
C  21.40400 -5.53000 44.40000
C  20.25200 -6.41900 44.30900
C  20.58000 -7.53400 45.14000
C  21.95400 -7.27100 45.72000
C  19.04100 -6.16400 43.45800
C  19.51900 -8.64500 45.48200
O  18.37700 -8.61400 45.00500
C  19.89300 -9.65700 46.50300
N  24.87400 -6.86500 46.96200
C  23.99000 -7.98000 47.13700
C  24.68700 -9.08200 47.90300
C  26.08700 -8.46000 48.22200
C  26.07800 -7.11200 47.46800
C  23.84400 -9.59100 49.07100
C  27.38100 -9.34800 47.91300
C  28.25800 -9.67900 49.15800
N  26.21900 -4.57000 45.83600
C  27.29400 -5.02100 46.63000
C  28.31500 -4.14500 46.42700
C  27.87500 -3.17900 45.49500
C  26.58900 -3.51800 45.13000
C  29.55100 -4.13400 47.11100
C  28.28700 -2.01800 44.77400
O  29.31600 -1.44200 44.70200
C  27.14000 -1.61700 43.81100
C  26.85500 -0.21000 44.03400
O  26.21600 0.20600 44.97500
O  27.46500 0.58000 43.07300
C  27.36400 2.01200 43.21200
H  20.63100 -3.89400 43.33200
H  22.25000 -8.99000 46.88800
H  28.04200 -6.64500 47.91500
H  24.45700 -0.90300 42.61800
H  22.16800 -2.40600 41.77000
H  21.11300 -0.54400 42.98300
H  22.70700 -0.06700 43.51200
H  21.86100 -1.26000 44.49900
H  24.08300 -2.99300 40.50900
H  25.67900 -2.83600 41.06800
H  26.01200 -0.81400 40.44900
H  24.36400 -0.18000 40.35500
H  19.33900 -5.74000 42.49900
H  18.41000 -5.44300 43.97900
H  18.43300 -6.98800 43.08600
H  18.99900 -10.28000 46.54200
H  20.14500 -9.27100 47.49000
H  20.74400 -10.20000 46.09300
H  24.71400 -9.93300 47.22300
H  26.06100 -8.13000 49.26100
H  24.28100 -9.48100 50.06400
H  23.55800 -10.62900 48.90100
H  23.00900 -8.89300 49.12800
H  27.85600 -8.93200 47.02500
H  27.09800 -10.37300 47.67200
H  29.15000 -10.19900 48.80700
H  27.72000 -10.22200 49.93400
H  28.48600 -8.73300 49.64900
H  30.04200 -3.16400 47.19800
H  30.27100 -4.61900 46.45200
H  29.38100 -4.64000 48.06100
H  27.56000 -1.73100 42.81100
H  26.75400 2.37400 42.38500
H  28.35400 2.46600 43.25700
H  26.76700 2.25800 44.09000
Mg 46.51700 25.70300 28.26800
C  47.77200 27.93100 30.73100
C  45.91900 23.47600 30.71900
C  46.04500 23.47400 25.78400
C  47.85500 27.93700 25.77300
N  46.71500 25.76300 30.48200
C  47.12400 26.81100 31.28000
C  46.84000 26.55800 32.73400
C  46.45700 25.05200 32.74900
C  46.39400 24.66600 31.19600
C  47.46800 24.09300 33.58800
C  45.62400 27.46100 33.26100
C  45.12500 27.03300 34.65200
H  44.76700 28.15000 35.66300
N  45.81100 23.76800 28.29800
C  45.74100 22.97500 29.40200
C  45.46200 21.63000 28.96300
C  45.42400 21.59100 27.53100
C  45.72900 22.97500 27.13400
C  45.45200 20.48400 29.94000
C  45.18700 20.43600 26.51000
O  45.24200 20.55700 25.29100
C  44.91500 19.20200 27.09700
N  46.77600 25.79000 26.08800
C  46.46700 24.71500 25.35500
C  46.62400 25.08200 23.83900
C  47.08000 26.50200 23.79600
C  47.27800 26.74600 25.32700
C  47.71200 24.14200 23.27900
C  45.97500 27.41200 23.15600
C  46.05700 27.50800 21.61800
N  47.64000 27.51700 28.18800
C  48.13000 28.27200 27.12100
C  48.86800 29.41300 27.65200
C  48.72900 29.38500 29.06300
C  47.96600 28.20100 29.33300
C  49.54400 30.51200 26.81500
C  48.97900 30.04700 30.37500
O  49.59300 31.07700 30.60900
C  48.32500 29.21600 31.46700
C  49.34900 28.87500 32.52000
O  50.42500 28.35400 32.26900
O  48.90600 29.18800 33.76100
C  49.90000 29.07900 34.88400
H  45.56600 22.86000 31.54900
H  45.85600 22.71800 25.02000
H  48.17600 28.64800 25.00800
H  47.75700 26.87000 33.23300
H  45.44900 24.87100 33.12300
H  46.97100 23.61600 34.43300
H  48.27600 24.64000 34.07400
H  47.91800 23.33300 32.94900
H  44.82200 27.44200 32.52400
H  46.04900 28.46400 33.22300
H  45.92800 26.40900 35.04500
H  44.21400 26.46100 34.47800
H  45.90500 19.53900 29.64200
H  44.43500 20.19100 30.19800
H  45.88100 20.76400 30.90200
H  44.17800 19.25400 27.89800
H  45.86100 18.83200 27.49300
H  44.52200 18.47800 26.38300
H  45.68200 24.86500 23.33600
H  48.04900 26.66400 23.32400
H  48.52400 24.08500 24.00300
H  48.05100 24.53800 22.32200
H  47.33500 23.12200 23.19900
H  46.12200 28.41100 23.56500
H  44.94600 27.09000 23.31500
H  46.38600 28.49300 21.28700
H  45.04400 27.44900 21.21900
H  46.71400 26.74400 21.20300
H  49.81900 31.37000 27.42900
H  49.02100 30.84200 25.91800
H  50.45300 29.96500 26.56300
H  47.57500 29.81100 31.98700
H  49.63200 28.32400 35.62200
H  49.86300 30.02100 35.43100
H  50.91900 28.92600 34.52900

