158

Mg 45.30500 3.92000 47.45700
C  43.15300 6.43200 46.74500
C  42.73800 1.72400 47.25900
C  47.58500 1.48000 47.61100
C  47.99500 6.25000 47.40400
N  43.22600 4.06600 47.09100
C  42.54300 5.20000 46.73800
C  41.01300 4.91700 46.71000
C  40.90800 3.45200 46.98700
C  42.40500 3.05000 47.11400
C  40.00400 2.99900 48.14100
C  40.33600 5.31900 45.33900
C  39.25700 6.43000 45.42700
H  39.27700 7.53300 44.29200
N  45.17700 1.84400 47.41000
C  44.03600 1.10100 47.30500
C  44.31900 -0.30600 47.29100
C  45.71000 -0.41800 47.45200
C  46.21400 1.00100 47.47200
C  43.28000 -1.47400 47.18400
C  46.40700 -1.68200 47.61100
O  45.84400 -2.76100 47.55800
C  47.78900 -1.74300 48.02000
N  47.51300 3.86100 47.57200
C  48.17900 2.73100 47.71400
C  49.69800 2.89100 47.43000
C  49.84200 4.42100 47.58500
C  48.40500 4.90000 47.40600
C  50.67700 2.13200 48.44800
C  50.89800 5.07500 46.67000
C  51.72100 6.22400 47.21600
N  45.57000 5.98800 47.09400
C  46.68700 6.75500 47.25300
C  46.25800 8.17100 47.09700
C  44.86300 8.07700 46.97400
C  44.52600 6.78200 46.97700
C  47.14800 9.47900 47.05100
C  43.60400 8.81600 46.84000
O  43.43400 10.02800 46.85200
C  42.45900 7.75500 46.72200
C  41.48800 7.97200 47.83100
O  41.45300 7.40300 48.92300
O  40.66700 8.96700 47.55000
C  39.74300 9.62700 48.44300
H  41.92100 1.03700 47.02700
H  48.31800 0.67300 47.56000
H  48.88000 6.88500 47.33000
H  40.41100 5.37200 47.49600
H  40.71900 2.88300 46.07600
H  39.19700 3.71000 48.31900
H  40.66100 2.92800 49.00800
H  39.53000 2.05700 47.86500
H  39.89000 4.51400 44.75500
H  41.15400 5.71700 44.73900
H  39.29100 6.93300 46.39300
H  38.32600 5.86700 45.36300
H  43.61400 -2.11000 46.36400
H  42.28900 -1.06300 46.99400
H  43.24400 -2.05300 48.10600
H  48.06800 -2.74800 48.33400
H  48.08400 -1.10500 48.85400
H  48.42100 -1.57700 47.14800
H  49.85300 2.63900 46.38100
H  49.92400 4.74500 48.62300
H  51.54600 2.70700 48.76800
H  50.98600 1.17100 48.03800
H  50.01200 2.03900 49.30600
H  50.35300 5.59700 45.88300
H  51.56600 4.35200 46.20200
H  51.39300 7.19100 46.83500
H  52.74700 6.00200 46.92300
H  51.70700 6.25800 48.30600
H  46.93000 9.98600 46.11100
H  48.21500 9.28200 47.14800
H  46.81300 10.15700 47.83600
H  41.86200 7.74700 45.80900
H  39.67300 10.70100 48.27100
H  40.08700 9.39500 49.45100
H  38.73000 9.27400 48.24900
Mg 35.57500 49.44600 25.75600
C  36.07100 47.54000 28.56000
C  34.08600 51.81900 27.86300
C  34.43400 51.04800 23.08000
C  36.27900 46.64300 23.85400
N  34.96000 49.53400 27.91800
C  35.48200 48.77700 28.86200
C  35.31500 49.31100 30.25700
C  34.43600 50.54500 30.03500
C  34.51400 50.69200 28.55000
C  33.03500 50.51200 30.67900
C  36.68300 49.54800 31.02400
C  36.79200 49.04000 32.46200
H  36.77100 50.11400 33.58500
N  34.59200 51.25800 25.49700
C  34.09800 52.09100 26.49600
C  33.52900 53.31100 25.85200
C  33.62200 53.09900 24.42800
C  34.25100 51.75700 24.26300
C  33.11800 54.52500 26.72600
C  33.36800 54.04700 23.23700
O  33.51000 53.82400 22.05200
C  32.88900 55.49100 23.65300
N  35.44000 48.99300 23.77200
C  35.00600 49.77800 22.81700
C  35.13900 49.21500 21.41800
C  35.85600 47.85100 21.69800
C  35.87700 47.79200 23.19600
C  33.92200 49.01400 20.58100
C  37.32400 47.58400 21.16400
C  37.56600 46.32400 20.42400
N  36.22900 47.52800 26.06000
C  36.46200 46.49500 25.20600
C  36.86600 45.33900 25.96400
C  36.86600 45.72200 27.31800
C  36.37400 47.07100 27.31100
C  37.28000 43.98200 25.42900
C  37.14400 45.28100 28.66100
O  37.59300 44.24200 29.02700
C  36.62400 46.46200 29.59000
C  35.65200 45.97200 30.53100
O  34.49000 45.80000 30.22900
O  36.18400 45.74800 31.76500
C  35.22700 45.50800 32.84200
H  33.56900 52.45400 28.58600
H  34.06000 51.54300 22.18100
H  36.66100 45.81100 23.25900
H  34.70500 48.61900 30.83600
H  35.03400 51.33900 30.48000
H  32.83800 49.57600 31.20100
H  32.18500 50.42000 30.00300
H  32.84800 51.41300 31.26300
H  36.88300 50.61800 31.07800
H  37.49600 49.17900 30.39800
H  37.80200 48.63100 32.48600
H  36.05500 48.28300 32.73500
H  32.05800 54.54500 26.98100
H  33.44800 55.47400 26.30400
H  33.70500 54.51000 27.64400
H  32.49100 56.12800 22.86300
H  33.79200 55.99900 23.99400
H  32.20200 55.41100 24.49500
H  35.74800 49.93800 20.87600
H  35.16600 47.07000 21.38100
H  33.89600 49.90200 19.94900
H  32.97100 49.16900 21.09100
H  34.06600 48.14900 19.93300
H  37.99500 47.65700 22.02100
H  37.65300 48.42400 20.55300
H  38.48600 46.44600 19.85300
H  36.69500 46.20700 19.77800
H  37.69700 45.46300 21.07900
H  37.69900 44.21300 24.45000
H  36.43000 43.30300 25.36200
H  38.05300 43.58400 26.08600
H  37.53200 46.75900 30.11400
H  35.58500 45.96500 33.76500
H  35.10600 44.43200 32.96900
H  34.23700 45.91300 32.63300

