158

Mg -1.96900 17.24100 26.68900
C  -2.27000 15.08400 29.30400
C  -3.13000 19.78700 28.82500
C  -1.84000 19.35600 24.10200
C  -1.28600 14.64000 24.51300
N  -2.81200 17.40400 28.90400
C  -2.66900 16.35800 29.76300
C  -2.93400 16.92800 31.15900
C  -3.63000 18.34300 30.88700
C  -3.23600 18.53200 29.43900
C  -5.19800 18.32000 31.00100
C  -1.62200 16.99900 32.09300
C  -1.76900 16.80300 33.63900
H  -0.41100 16.69500 34.41500
N  -2.14500 19.30400 26.54000
C  -2.67100 20.13700 27.53500
C  -2.60200 21.52400 26.99000
C  -2.18900 21.49100 25.65500
C  -2.03900 20.01300 25.34600
C  -2.97300 22.69300 27.83400
C  -1.94300 22.49600 24.64000
O  -1.60700 22.26000 23.50900
C  -1.95100 23.86300 24.93900
N  -1.54400 17.08900 24.62400
C  -1.65100 18.08400 23.74900
C  -1.64500 17.61300 22.27600
C  -1.14700 16.12200 22.43900
C  -1.35700 15.87200 23.97100
C  -2.94800 17.84000 21.45600
C  0.31600 15.90900 21.98500
C  1.34300 16.55200 22.86200
N  -1.85100 15.23800 26.84300
C  -1.56100 14.28100 25.90800
C  -1.55800 13.01100 26.53600
C  -1.76100 13.22500 27.87100
C  -2.00500 14.60800 28.00000
C  -1.34900 11.73700 25.82200
C  -1.78600 12.73600 29.15900
O  -1.52500 11.61100 29.52000
C  -2.28000 13.81200 30.18000
C  -1.27800 13.73200 31.27500
O  -0.08900 13.88200 31.19300
O  -1.93800 13.40700 32.46600
C  -1.14100 13.09100 33.66300
H  -3.51500 20.64400 29.38100
H  -1.85900 20.07300 23.27900
H  -1.01300 13.78700 23.88800
H  -3.55800 16.16200 31.62000
H  -3.14400 19.19400 31.36500
H  -5.65700 19.21600 30.58100
H  -5.36800 18.25900 32.07600
H  -5.50000 17.44100 30.43200
H  -1.19600 17.98400 31.89900
H  -0.89800 16.31400 31.65100
H  -2.35900 15.90700 33.82900
H  -2.27700 17.61900 34.15200
H  -2.36900 23.56100 27.57200
H  -2.89100 22.46500 28.89600
H  -4.02300 22.90500 27.63300
H  -2.95200 24.29300 24.90200
H  -1.38800 24.40000 24.17600
H  -1.48600 24.11500 25.89200
H  -0.89700 18.17800 21.72000
H  -1.84200 15.45700 21.92500
H  -2.88700 18.07400 20.39400
H  -3.51400 18.67000 21.88100
H  -3.55200 16.95300 21.64700
H  0.48300 16.17200 20.94000
H  0.49500 14.83800 22.07500
H  1.37600 16.20600 23.89500
H  1.57400 17.59300 22.63500
H  2.29600 16.13500 22.53600
H  -0.56600 11.78300 25.06600
H  -2.30200 11.34900 25.46300
H  -0.99200 11.01500 26.55600
H  -3.20800 13.49400 30.65500
H  -1.47100 12.23800 34.25700
H  -1.22400 13.90600 34.38100
H  -0.07900 12.92800 33.48300
Mg 26.24900 -0.09300 29.40300
C  28.12900 -0.61500 32.30800
C  23.51500 0.18700 31.31800
C  24.55400 0.06400 26.58300
C  29.20100 -0.88400 27.53300
N  25.85300 -0.47400 31.59700
C  26.84000 -0.35100 32.60400
C  26.23400 -0.23400 33.91400
C  24.70100 -0.04800 33.59000
C  24.63700 -0.08300 32.08300
C  23.68800 -1.04800 34.33400
C  26.96200 0.66400 34.97300
C  26.26500 1.04700 36.26500
H  26.57600 0.23500 37.51400
N  24.24300 0.10700 29.01400
C  23.28300 0.18300 29.93600
C  22.05600 0.45800 29.25800
C  22.24900 0.29300 27.84500
C  23.71000 0.12300 27.68300
C  20.76200 0.75200 30.06300
C  21.27800 0.24900 26.67100
O  21.52900 0.03300 25.49200
C  19.96700 0.56300 27.04600
N  26.82600 -0.35200 27.34400
C  25.89300 -0.18400 26.34100
C  26.52900 -0.16100 24.91200
C  28.05500 -0.18900 25.31300
C  28.07000 -0.49100 26.83000
C  26.11900 -1.30700 23.96600
C  28.93100 0.96500 24.97200
C  30.41700 0.73000 24.80700
N  28.33000 -0.66800 29.79400
C  29.35700 -0.98500 28.92700
C  30.51200 -1.28000 29.66200
C  30.10700 -1.04900 30.97200
C  28.75100 -0.71700 31.04800
C  31.77700 -1.74900 29.14500
C  30.57700 -1.11500 32.35500
O  31.73400 -1.30800 32.77800
C  29.32000 -0.77300 33.25100
C  29.21300 -1.83000 34.26900
O  28.60900 -2.91300 34.04000
O  29.83400 -1.51800 35.48200
C  29.75000 -2.49200 36.53500
H  22.62900 0.35300 31.93400
H  24.02000 0.09400 25.63000
H  30.05600 -0.93500 26.85500
H  26.35200 -1.21500 34.37300
H  24.31000 0.93600 33.84800
H  22.92100 -1.37500 33.63200
H  23.25800 -0.52100 35.18600
H  24.17400 -1.86600 34.86600
H  27.41300 1.58300 34.59900
H  27.87100 0.14400 35.27700
H  25.18100 1.11300 36.16600
H  26.48700 2.10300 36.41900
H  20.25500 1.55800 29.53200
H  21.04300 1.14700 31.03900
H  20.03500 -0.05800 30.12200
H  19.36500 0.53700 26.13800
H  19.87000 1.62000 27.29400
H  19.50400 -0.08100 27.79300
H  26.27800 0.81300 24.49000
H  28.52600 -1.08100 24.90000
H  25.41400 -1.95700 24.48500
H  26.95900 -1.83400 23.51400
H  25.49900 -0.93900 23.14900
H  28.95400 1.77400 25.70200
H  28.65700 1.51200 24.06900
H  30.62800 1.13000 23.81600
H  30.67100 -0.33000 24.76500
H  31.04200 1.15300 25.59300
H  32.26200 -2.17200 30.02400
H  32.42800 -1.09800 28.56100
H  31.43500 -2.53400 28.47000
H  29.60200 0.17300 33.71500
H  29.79200 -3.52400 36.18400
H  28.74900 -2.38400 36.95400
H  30.44500 -2.45700 37.37400

