158

Mg 25.52400 1.66000 29.51400
C  27.34700 1.58000 32.44800
C  22.54500 1.88300 31.26200
C  24.01600 1.68500 26.52600
C  28.58900 1.46600 27.75900
N  25.04600 1.63800 31.66600
C  25.98200 1.82800 32.65700
C  25.23100 2.02300 34.00500
C  23.69400 2.07400 33.59700
C  23.73000 1.81200 32.07900
C  22.80300 1.07900 34.43900
C  25.70300 3.30700 34.82300
C  26.29800 3.20500 36.21500
H  25.98700 4.31900 37.25700
N  23.57300 1.64500 28.98600
C  22.51100 1.78500 29.82500
C  21.33500 1.76900 29.01600
C  21.70400 1.56300 27.67100
C  23.15300 1.65600 27.69900
C  19.85500 1.74800 29.65900
C  20.85800 1.29500 26.39100
O  21.34200 1.01900 25.28700
C  19.36700 1.22800 26.49100
N  26.26900 1.62100 27.33800
C  25.41000 1.76800 26.30500
C  26.07600 1.96500 24.93600
C  27.57200 1.93100 25.38100
C  27.52600 1.64000 26.90400
C  25.65200 0.94900 23.82600
C  28.29900 3.15200 25.03600
C  28.07000 4.47000 25.81300
N  27.53200 1.28300 29.87800
C  28.71200 1.32800 29.14100
C  29.89400 1.14900 29.99100
C  29.38300 1.23400 31.26100
C  27.99700 1.35500 31.16100
C  31.40700 0.92700 29.58500
C  29.76700 1.43500 32.61500
O  30.89400 1.38600 33.12100
C  28.45700 1.66500 33.47900
C  28.36200 0.60200 34.41300
O  27.85800 -0.48200 34.13700
O  29.01800 0.91100 35.54200
C  28.90300 -0.05100 36.63400
H  21.62900 2.20500 31.76200
H  23.48900 1.77500 25.57400
H  29.55900 1.67200 27.30200
H  25.41100 1.10900 34.57200
H  23.26100 3.06500 33.73400
H  23.43100 0.44100 35.06100
H  22.14900 0.48200 33.80400
H  22.19100 1.56600 35.19800
H  24.88600 4.02700 34.86700
H  26.44400 3.71100 34.13300
H  27.38600 3.18300 36.16000
H  26.06800 2.24700 36.68100
H  19.10800 2.25900 29.05200
H  19.88500 1.98500 30.72300
H  19.56400 0.73400 29.38600
H  18.98400 0.80600 25.56100
H  18.94800 2.22400 26.63800
H  19.14900 0.55000 27.31500
H  25.76900 2.94000 24.55800
H  28.05900 1.08900 24.88900
H  26.39800 0.16200 23.71900
H  25.39500 1.45200 22.89400
H  24.74900 0.42700 24.14300
H  27.92400 3.31000 24.02500
H  29.35900 2.92600 25.14900
H  27.60500 4.30400 26.78500
H  27.44000 5.19000 25.29100
H  29.03600 4.96800 25.89700
H  31.84600 1.70500 28.96000
H  31.53100 -0.10300 29.24900
H  31.89000 0.95300 30.56200
H  28.43000 2.64400 33.95700
H  27.85600 -0.21400 36.88900
H  29.27300 0.34300 37.58000
H  29.43200 -0.98500 36.44100
Mg 48.16200 25.08400 28.27800
C  49.33100 27.51100 30.69400
C  47.46200 23.14900 30.96900
C  47.71300 22.72900 26.04300
C  49.95200 27.02100 25.79300
N  48.33700 25.36200 30.62300
C  48.72000 26.49000 31.32700
C  48.55400 26.23500 32.79100
C  48.13500 24.72200 32.87200
C  48.01000 24.37100 31.38900
C  49.11300 23.81500 33.66000
C  47.55800 27.19700 33.42700
C  47.67100 27.36000 34.95000
H  46.40900 27.64500 35.74600
N  47.39800 23.26300 28.42200
C  47.16900 22.54900 29.64500
C  46.59800 21.23500 29.35200
C  46.62600 21.20200 27.91000
C  47.27600 22.41200 27.37800
C  46.16100 20.23900 30.45200
C  46.13700 20.12100 26.98400
O  46.37200 20.12300 25.77500
C  45.54200 18.97500 27.65500
N  48.83000 24.90300 26.28200
C  48.31400 23.86900 25.52700
C  48.78000 23.95800 24.05200
C  49.20700 25.47900 23.96500
C  49.38200 25.80300 25.42100
C  49.93700 22.98700 23.70100
C  48.20400 26.52200 23.31500
C  48.75200 27.90600 22.91100
N  49.35600 26.89000 28.14400
C  49.92100 27.53700 27.06600
C  50.55000 28.74700 27.49900
C  50.22300 28.86000 28.87600
C  49.55900 27.65200 29.24100
C  51.45400 29.61100 26.63100
C  50.38800 29.66000 30.04900
O  50.88100 30.78100 30.07800
C  49.77200 28.88100 31.30400
C  50.89300 28.76400 32.28000
O  51.83600 27.96300 32.20000
O  50.61800 29.45200 33.48700
C  51.37200 29.07000 34.71100
H  47.09900 22.49100 31.76200
H  47.38800 21.97300 25.32500
H  50.40900 27.63900 25.01800
H  49.51700 26.40400 33.27200
H  47.14100 24.58100 33.29700
H  49.77600 24.34900 34.34000
H  49.73800 23.26100 32.96000
H  48.44400 23.17000 34.23000
H  46.56700 26.76300 33.29200
H  47.62900 28.15400 32.90800
H  48.42600 28.13100 35.10500
H  48.21600 26.44900 35.19600
H  46.17600 20.65000 31.46200
H  46.69000 19.28600 30.45400
H  45.11800 19.95300 30.31900
H  44.63700 19.15100 28.23600
H  46.23100 18.28700 28.14200
H  45.02000 18.46200 26.84700
H  47.95500 23.68500 23.39500
H  50.17000 25.50600 23.45500
H  50.13500 22.32700 24.54500
H  50.79600 23.61600 23.46500
H  49.60500 22.30300 22.92000
H  47.39800 26.65900 24.03600
H  47.69600 26.02200 22.49000
H  48.37100 28.67000 23.58800
H  48.46700 28.24500 21.91500
H  49.83500 27.84800 22.80200
H  51.97700 28.97900 25.91300
H  52.07900 30.15000 27.34300
H  50.80700 30.30200 26.09000
H  49.02500 29.58700 31.66800
H  51.25200 27.98900 34.78300
H  50.97700 29.46900 35.64500
H  52.36900 29.50300 34.62600

