158

Mg -1.94600 16.96100 26.97100
C  -2.52600 14.63100 29.64400
C  -2.29500 19.44800 29.24700
C  -1.63600 18.88400 24.43900
C  -2.24400 14.14700 24.67100
N  -2.29500 16.93500 29.17100
C  -2.31500 15.93500 30.12100
C  -2.54600 16.40200 31.59300
C  -2.59400 17.98000 31.28500
C  -2.41700 18.14800 29.79100
C  -3.86700 18.60700 31.85000
C  -1.30800 15.94100 32.43900
C  -0.80400 16.73200 33.57600
H  -0.25000 16.05200 34.90400
N  -1.84200 18.97300 26.84000
C  -2.04500 19.84600 27.90700
C  -1.94500 21.13700 27.33900
C  -1.71800 21.02400 25.94400
C  -1.75600 19.60900 25.69300
C  -2.01300 22.36700 28.27100
C  -1.49300 22.09500 24.87100
O  -1.28100 21.83800 23.70300
C  -1.51000 23.47300 25.27500
N  -2.09600 16.57800 24.84700
C  -1.89500 17.63600 24.05700
C  -1.89400 17.24900 22.58600
C  -1.71100 15.68000 22.66100
C  -2.06800 15.41900 24.13100
C  -3.21400 17.70000 21.82900
C  -0.26600 15.10500 22.31500
C  0.85000 15.55900 23.18600
N  -2.27700 14.85400 27.08500
C  -2.37000 13.90900 26.04500
C  -2.43000 12.65400 26.70400
C  -2.59100 12.89500 28.10600
C  -2.48500 14.20900 28.24600
C  -2.45800 11.34600 26.03900
C  -2.89000 12.23900 29.41300
O  -3.24000 11.10500 29.67800
C  -2.70100 13.35300 30.44500
C  -1.49400 12.94500 31.21300
O  -0.31700 13.26800 31.00200
O  -1.86400 12.30600 32.38000
C  -0.99700 12.24500 33.56900
H  -2.35400 20.21400 30.02300
H  -1.61500 19.61000 23.62400
H  -2.38800 13.28800 24.01300
H  -3.43700 15.97500 32.05300
H  -1.80300 18.62300 31.67300
H  -4.09500 18.07400 32.77400
H  -4.62500 18.62500 31.06600
H  -3.71800 19.66200 32.07900
H  -0.44300 15.69200 31.82400
H  -1.61600 15.03900 32.96700
H  -1.71900 17.30900 33.70800
H  0.05800 17.31000 33.24300
H  -2.80300 23.05500 27.97100
H  -1.09700 22.95400 28.20100
H  -2.10200 22.14700 29.33400
H  -2.41200 23.72900 25.83000
H  -1.53300 23.99600 24.31900
H  -0.62800 23.67700 25.88200
H  -1.00900 17.65700 22.09800
H  -2.58100 15.24000 22.17300
H  -2.92400 18.24700 20.93100
H  -3.87600 18.32700 22.42600
H  -3.66400 16.78600 21.44200
H  -0.02900 15.50800 21.33100
H  -0.34100 14.02400 22.43600
H  1.47900 16.11400 22.49100
H  1.28900 14.67300 23.64500
H  0.45200 16.21500 23.96000
H  -3.20400 11.41800 25.24700
H  -2.86100 10.58100 26.70300
H  -1.50100 10.99200 25.65800
H  -3.40400 13.56800 31.24900
H  -0.93100 13.27600 33.91800
H  0.01100 11.92200 33.30800
H  -1.37100 11.68400 34.42500
Mg 48.83200 35.85700 27.66000
C  46.82800 33.95000 29.92300
C  49.33500 38.12000 30.09900
C  50.13900 37.91700 25.29000
C  47.88800 33.48600 25.22600
N  48.18600 35.98500 29.76800
C  47.45700 35.07900 30.48700
C  47.57000 35.39200 31.97800
C  47.89600 36.95700 31.95600
C  48.53100 37.01500 30.55200
C  46.60200 37.80800 31.97900
C  48.58000 34.53000 32.94200
C  48.69700 34.80700 34.41800
H  47.79700 35.88400 35.07700
N  49.67900 37.79400 27.74400
C  49.83800 38.53000 28.83700
C  50.47800 39.71900 28.45100
C  50.72000 39.74700 27.02300
C  50.14400 38.47700 26.62300
C  50.56000 40.92900 29.53300
C  51.20600 40.84800 26.12600
O  51.35600 40.59300 24.93200
C  51.59200 42.18300 26.75900
N  48.97600 35.80600 25.61600
C  49.63100 36.73200 24.87400
C  49.85300 36.26700 23.37500
C  49.40400 34.78800 23.46800
C  48.76800 34.62400 24.88200
C  49.04400 37.02700 22.30300
C  50.59800 33.72700 23.34400
C  50.63800 33.08100 21.90700
N  47.63700 34.01900 27.59100
C  47.35900 33.23300 26.45900
C  46.41600 32.19100 26.89500
C  46.21000 32.40100 28.28100
C  46.91700 33.60900 28.58400
C  45.82500 31.13000 26.05100
C  45.48600 32.00800 29.44900
O  44.69600 31.09700 29.65900
C  45.88800 32.92900 30.54700
C  46.51900 32.12600 31.64200
O  47.59200 31.51300 31.62400
O  45.68500 32.23800 32.70800
C  46.11600 31.68300 34.00900
H  49.44200 38.77800 30.96500
H  50.62000 38.59400 24.58200
H  47.74900 32.80400 24.38500
H  46.60800 35.19100 32.44800
H  48.51000 37.31400 32.78300
H  46.30500 38.17800 32.96100
H  45.71800 37.40000 31.48900
H  46.73900 38.63400 31.28100
H  49.45500 34.80000 32.35100
H  48.53700 33.44100 32.94200
H  49.70900 35.14900 34.63400
H  48.53900 33.85000 34.91600
H  51.59700 41.20600 29.72100
H  50.01900 40.61800 30.42600
H  49.94200 41.78200 29.25200
H  52.20300 41.89200 27.61400
H  50.77300 42.70500 27.25500
H  52.07200 42.97900 26.19000
H  50.90200 36.35900 23.09400
H  48.60400 34.56400 22.76300
H  48.04400 37.27600 22.65800
H  48.78800 36.54900 21.35800
H  49.48100 37.96500 21.95900
H  50.54500 33.01800 24.17000
H  51.52100 34.28300 23.50900
H  50.66100 31.99700 22.02300
H  51.47700 33.35700 21.26800
H  49.83200 33.50300 21.30700
H  45.03500 31.57500 25.44500
H  45.36600 30.46800 26.78500
H  46.64300 30.62200 25.54000
H  45.03700 33.50900 30.90300
H  45.67500 32.30800 34.78500
H  47.20300 31.74700 34.06300
H  45.77900 30.64600 34.00600

