158

Mg 17.89500 52.00900 24.71400
C  19.62800 50.78000 27.56900
C  15.14400 52.59800 26.85400
C  16.21500 52.98100 22.06400
C  20.51700 50.99300 22.73300
N  17.51900 51.72500 26.93500
C  18.34000 51.22800 27.94500
C  17.78600 51.55400 29.30700
C  16.32700 52.03500 29.08500
C  16.32800 52.18300 27.56100
C  15.33600 50.98100 29.77100
C  18.60200 52.74100 29.98200
C  19.04900 52.49200 31.38700
H  18.00400 51.95100 32.41800
N  15.93800 52.76900 24.48300
C  14.96100 52.94300 25.51300
C  13.84500 53.62600 24.84500
C  14.12800 53.74500 23.44400
C  15.50100 53.23400 23.28900
C  12.66600 53.98900 25.72700
C  13.26900 54.28500 22.32800
O  13.60200 54.27700 21.12500
C  12.03700 55.04000 22.62400
N  18.28300 51.90100 22.68600
C  17.44800 52.39100 21.80000
C  18.08700 52.38200 20.39400
C  19.36500 51.58900 20.56000
C  19.41800 51.44400 22.06000
C  17.17000 51.85300 19.26300
C  20.68900 52.19700 19.96500
C  21.35200 51.45900 18.78700
N  19.67900 51.07100 24.99000
C  20.68000 50.79900 24.08700
C  21.78700 50.12800 24.80700
C  21.40000 50.14500 26.14000
C  20.10200 50.66400 26.20700
C  23.13200 49.55600 24.20200
C  21.87700 49.73200 27.51200
O  22.88500 49.16800 27.99200
C  20.71900 50.22500 28.45100
C  20.23200 49.09500 29.38100
O  19.63900 48.09500 29.03500
O  20.49100 49.40700 30.69800
C  20.00800 48.38600 31.59000
H  14.42500 52.96000 27.59200
H  15.66500 53.28500 21.17100
H  21.27300 50.68100 22.01000
H  17.84200 50.66500 29.93500
H  16.17000 53.03600 29.48900
H  14.46400 51.10600 29.12800
H  15.39000 51.29000 30.81500
H  15.83700 50.02000 29.65800
H  18.07500 53.69400 30.00600
H  19.50800 52.85500 29.38700
H  19.47700 53.45000 31.68100
H  19.79000 51.69500 31.33900
H  12.08200 54.84900 25.39800
H  12.85200 54.06700 26.79800
H  11.94000 53.18500 25.60100
H  11.56700 55.46600 21.73800
H  12.19900 55.93300 23.22900
H  11.26800 54.39300 23.04400
H  18.26200 53.45600 20.33300
H  19.20700 50.55800 20.24000
H  17.10100 52.70200 18.58200
H  16.15800 51.55400 19.53500
H  17.58700 51.08400 18.61200
H  21.44000 52.29300 20.74900
H  20.46400 53.22900 19.69700
H  21.61300 52.22000 18.05200
H  20.58600 50.85000 18.30600
H  22.23200 50.84900 18.99200
H  23.28400 49.98700 23.21200
H  23.06800 48.46800 24.18500
H  24.03100 49.76700 24.78100
H  21.11200 50.99100 29.12000
H  20.52900 47.43500 31.48400
H  18.95100 48.23200 31.37100
H  20.31100 48.67600 32.59600
Mg 9.68900 48.09100 25.51800
C  7.89800 48.22800 28.57800
C  12.48500 49.29000 27.23900
C  11.40300 47.73500 22.74500
C  6.70000 47.08200 23.82200
N  10.01900 48.91200 27.62500
C  9.24000 48.69000 28.71000
C  9.96700 49.18100 29.98300
C  11.23300 49.92900 29.45700
C  11.29200 49.26200 28.01900
C  11.16400 51.49500 29.35100
C  10.32000 48.00400 30.97400
C  9.76000 48.13800 32.40000
H  10.14700 46.91100 33.34000
N  11.70100 48.44600 25.03800
C  12.69500 48.83200 25.90800
C  13.98200 48.84900 25.26700
C  13.65300 48.47800 23.89400
C  12.16500 48.15600 23.77700
C  15.31700 49.12300 25.83800
C  14.57900 48.29400 22.76300
O  14.26200 47.96100 21.63800
C  16.00100 48.83100 22.90400
N  9.11400 47.56800 23.55300
C  10.03200 47.48300 22.54000
C  9.40200 46.89300 21.27600
C  7.96600 46.50000 21.71900
C  7.91300 47.02500 23.14000
C  9.44700 47.75400 20.05100
C  7.62700 44.93500 21.54300
C  8.31500 44.04200 22.52100
N  7.68700 47.85500 25.98700
C  6.57300 47.48200 25.18600
C  5.42000 47.27100 26.09200
C  5.91800 47.55700 27.40800
C  7.28400 47.96500 27.29200
C  4.10900 46.79800 25.69800
C  5.60900 47.51000 28.85500
O  4.54600 47.13400 29.44500
C  6.85800 47.98400 29.60600
C  7.18500 46.77100 30.44300
O  7.83400 45.79400 30.05800
O  6.58100 46.92900 31.65300
C  6.77900 45.82000 32.53400
H  13.30400 49.80200 27.74900
H  11.95100 47.51500 21.82600
H  5.78500 46.73300 23.33900
H  9.32900 49.90700 30.48700
H  12.08500 49.69300 30.09400
H  12.20300 51.82400 29.38600
H  10.58500 51.98200 30.13600
H  10.70200 51.78300 28.40700
H  11.38300 47.84200 31.15200
H  9.84600 47.08400 30.63200
H  8.67200 48.12200 32.46400
H  10.27600 48.96300 32.89000
H  16.01800 48.30100 25.69400
H  15.24100 49.44700 26.87600
H  15.69000 49.98600 25.28600
H  16.07900 49.91500 22.98900
H  16.54000 48.53300 22.00500
H  16.55300 48.40600 23.74200
H  10.02700 46.00300 21.20500
H  7.17100 47.04100 21.20500
H  9.19500 48.74700 20.42300
H  8.86200 47.37700 19.21200
H  10.47500 47.77600 19.69000
H  7.99400 44.72400 20.53800
H  6.54100 44.88000 21.60800
H  9.32700 44.36800 22.76100
H  8.49800 43.13300 21.94700
H  7.71400 43.90800 23.42100
H  3.89300 47.16300 24.69300
H  3.45000 47.29900 26.40800
H  4.03500 45.71600 25.80100
H  6.62300 48.91400 30.12400
H  7.83700 45.57200 32.44600
H  6.13400 44.97000 32.30900
H  6.63200 46.18500 33.55000

