158

Mg 24.68100 -7.05800 45.36700
C  26.96800 -4.51500 44.24600
C  22.28100 -5.66400 43.39500
C  23.06600 -10.00100 45.60400
C  27.46800 -8.56200 47.00300
N  24.71800 -5.26800 44.00800
C  25.70700 -4.41000 43.64100
C  25.17700 -3.35900 42.63300
C  23.62400 -3.58200 42.72600
C  23.51700 -4.91700 43.38900
C  22.89600 -2.47600 43.45400
C  25.66500 -3.55300 41.24000
C  26.26100 -2.25100 40.53300
H  26.03800 -2.25400 39.02500
N  22.83700 -7.67600 44.67800
C  22.01300 -7.00400 43.86800
C  20.83400 -7.80600 43.49900
C  20.96400 -9.01800 44.16300
C  22.34500 -8.96700 44.86200
C  19.73900 -7.33900 42.58800
C  19.85100 -10.10500 44.24700
O  18.83500 -10.02000 43.59800
C  19.98700 -11.26400 45.26400
N  25.16200 -8.95400 46.31900
C  24.34900 -10.00300 46.24800
C  24.90600 -11.22700 47.00200
C  26.24200 -10.77100 47.42400
C  26.26200 -9.32900 46.97500
C  24.01600 -11.73500 48.13600
C  27.40200 -11.74800 46.90000
C  28.71300 -11.70300 47.65100
N  26.73900 -6.57900 45.74200
C  27.70100 -7.30100 46.38600
C  28.94200 -6.47900 46.48200
C  28.74800 -5.43500 45.63500
C  27.35600 -5.54100 45.16600
C  30.21500 -6.92900 47.23100
C  29.26000 -4.22100 45.02700
O  30.39300 -3.84300 45.08900
C  28.14100 -3.57400 44.15600
C  27.86000 -2.21700 44.71800
O  27.42400 -1.98600 45.82900
O  27.85900 -1.33500 43.66900
C  27.38700 0.01000 43.74200
H  21.55400 -5.10200 42.80400
H  22.69700 -11.02800 45.56700
H  28.22400 -9.13600 47.54300
H  25.34900 -2.37000 43.06000
H  23.21000 -3.74600 41.73100
H  22.07200 -2.88000 44.04200
H  22.42000 -1.83200 42.71400
H  23.59000 -1.92400 44.08800
H  24.81100 -3.85800 40.63600
H  26.45600 -4.30200 41.28500
H  27.31500 -2.26700 40.81100
H  25.88200 -1.30400 40.91500
H  19.81000 -7.90000 41.65600
H  19.83300 -6.25900 42.47600
H  18.73200 -7.42500 42.99600
H  19.02500 -11.77500 45.21600
H  20.21600 -10.92700 46.27500
H  20.71200 -12.03500 45.00500
H  25.04000 -11.98600 46.23100
H  26.29900 -10.82900 48.51100
H  24.60000 -11.88400 49.04400
H  23.49000 -12.65900 47.89700
H  23.23900 -11.01700 48.39700
H  27.64800 -11.56000 45.85500
H  26.98800 -12.75600 46.92900
H  29.51900 -11.19400 47.12300
H  29.13200 -12.70600 47.72100
H  28.58900 -11.34400 48.67300
H  30.10700 -6.90200 48.31500
H  31.06100 -6.36000 46.84700
H  30.37500 -7.97800 46.98100
H  28.67200 -3.44400 43.21300
H  27.49600 0.38200 44.76100
H  26.32600 0.12800 43.52200
H  28.06300 0.66400 43.19100
Mg 17.60600 -0.55900 27.31000
C  16.16600 1.07100 30.09000
C  19.36700 -2.57200 29.33000
C  18.68700 -1.78900 24.58600
C  15.80800 1.83800 25.28500
N  17.81700 -0.64300 29.53800
C  17.08300 0.05300 30.48700
C  17.62400 -0.34300 31.95600
C  18.65200 -1.55900 31.59400
C  18.61800 -1.67900 30.06100
C  20.09700 -1.38000 32.07000
C  16.54200 -0.72900 33.02200
C  16.56300 -0.04300 34.43400
H  17.84300 0.60500 34.99600
N  18.86200 -1.96000 27.03300
C  19.45700 -2.70600 27.98200
C  20.33600 -3.64800 27.28100
C  20.12000 -3.53700 25.89800
C  19.13000 -2.39800 25.77700
C  21.21300 -4.70300 28.03500
C  20.42200 -4.44500 24.76200
O  20.00200 -4.19100 23.64800
C  21.26800 -5.69800 25.03500
N  17.38300 0.07800 25.23700
C  17.86400 -0.69400 24.31600
C  17.77900 -0.14300 22.87100
C  16.67800 1.02700 23.15400
C  16.68500 1.04900 24.64400
C  19.24300 0.40500 22.41800
C  15.27000 0.79100 22.48100
C  14.20300 -0.09300 23.19700
N  16.21600 1.04400 27.54200
C  15.58200 1.90100 26.63600
C  14.71000 2.73200 27.31000
C  14.84600 2.43600 28.68500
C  15.79800 1.39700 28.72800
C  13.87300 3.69100 26.69800
C  14.39100 2.74900 30.04800
O  13.51700 3.52400 30.50100
C  15.33100 1.97500 30.98000
C  16.22700 2.82300 31.74000
O  17.29100 3.33100 31.41300
O  15.53600 3.13800 32.87400
C  16.21600 4.03700 33.78500
H  20.09300 -3.19100 29.86000
H  18.99700 -2.15400 23.60500
H  15.18000 2.50000 24.68300
H  18.27700 0.44600 32.32900
H  18.27400 -2.53200 31.90800
H  20.38700 -2.33900 32.49700
H  20.22600 -0.50500 32.70800
H  20.78600 -1.15400 31.25600
H  16.52500 -1.79600 33.24300
H  15.54400 -0.66300 32.58900
H  16.25500 -0.73700 35.21700
H  15.77300 0.68900 34.26600
H  22.14800 -4.76200 27.47900
H  20.64000 -5.62900 28.08800
H  21.56900 -4.32500 28.99300
H  22.28500 -5.32800 25.16600
H  21.19800 -6.28900 24.12200
H  21.02900 -6.28500 25.92300
H  17.45200 -0.94700 22.21100
H  17.04100 2.00200 22.82800
H  20.07100 0.21400 23.10100
H  19.17600 1.47500 22.22100
H  19.51600 -0.11200 21.49800
H  15.37600 0.40100 21.46900
H  14.87900 1.77400 22.22100
H  13.48700 -0.53100 22.50200
H  13.59500 0.59500 23.78300
H  14.69300 -0.93300 23.69000
H  14.40400 4.51600 26.22400
H  13.32800 4.21100 27.48600
H  13.23000 3.34200 25.89000
H  14.81900 1.29700 31.66300
H  15.54400 4.77200 34.22900
H  17.01900 4.58600 33.29300
H  16.71000 3.42700 34.54100

