158

Mg 0.96500 7.60000 26.93600
C  1.26200 9.67500 29.67000
C  0.86100 4.87400 29.17800
C  0.27400 5.45800 24.30100
C  1.00200 10.16400 24.87800
N  1.13600 7.28000 29.18300
C  1.13600 8.36700 30.07500
C  1.11700 7.86400 31.48400
C  1.16200 6.31200 31.32100
C  1.03700 6.08200 29.80700
C  2.42600 5.57100 31.94300
C  -0.15300 8.30900 32.31700
C  -0.14300 8.36200 33.82600
H  1.11100 7.97400 34.61800
N  0.69300 5.52900 26.80200
C  0.64500 4.54600 27.79000
C  0.45700 3.25300 27.21100
C  0.26300 3.45400 25.84900
C  0.41400 4.86000 25.56800
C  0.54600 2.02800 28.16200
C  -0.11200 2.43300 24.76600
O  -0.24300 2.59100 23.60100
C  -0.43400 1.05400 25.24200
N  0.94900 7.71300 24.88800
C  0.53700 6.77500 23.99600
C  0.46200 7.31700 22.53300
C  0.35600 8.84400 22.86500
C  0.78200 8.94400 24.25700
C  1.70900 7.14000 21.58400
C  -1.07800 9.47300 22.89200
C  -1.50100 10.01300 21.51400
N  1.05400 9.53200 27.18200
C  1.08400 10.49100 26.21800
C  1.33000 11.75500 26.78700
C  1.40000 11.53200 28.17800
C  1.17000 10.15800 28.36500
C  1.46400 13.03000 25.95600
C  1.63000 12.12600 29.46700
O  1.95000 13.27900 29.78000
C  1.41300 10.89100 30.47900
C  2.55200 10.83100 31.47700
O  3.68300 10.64900 31.14300
O  2.08100 11.37900 32.67300
C  2.95600 11.84100 33.74100
H  0.52800 4.10200 29.87500
H  0.03800 4.88700 23.40000
H  1.07600 10.91600 24.09000
H  2.00700 8.13200 32.05400
H  0.31800 5.79800 31.78100
H  2.21000 5.36800 32.99200
H  3.26800 6.24700 31.79600
H  2.68200 4.65100 31.41800
H  -1.00300 7.68000 32.05100
H  -0.42500 9.31900 32.00900
H  -0.92800 7.69300 34.17900
H  -0.45800 9.39600 33.96600
H  -0.47900 1.78100 28.44000
H  1.01900 2.31900 29.10000
H  1.09700 1.19600 27.72300
H  0.48400 0.52000 25.48700
H  -0.76500 0.46200 24.38900
H  -1.17700 1.06300 26.04000
H  -0.50200 7.03200 22.11300
H  1.02800 9.46300 22.27000
H  2.22300 6.22400 21.87700
H  2.47900 7.90700 21.50000
H  1.19900 7.02800 20.62800
H  -1.13600 10.26900 23.63500
H  -1.89400 8.81800 23.19600
H  -2.42000 9.50600 21.22100
H  -0.73000 9.81600 20.76900
H  -1.63400 11.09400 21.48200
H  1.22300 13.78500 26.70500
H  0.75400 13.15200 25.13800
H  2.48000 13.14200 25.57800
H  0.50500 10.99700 31.07300
H  3.71200 12.45100 33.24700
H  3.33600 11.11900 34.46400
H  2.37500 12.62000 34.23500
Mg 41.15200 9.58200 29.58500
C  43.23900 10.67900 32.14400
C  38.83700 8.76000 31.88800
C  39.30100 8.49400 27.07400
C  43.81800 10.08000 27.19300
N  41.18700 9.66500 31.86500
C  41.95600 10.22900 32.73800
C  41.34200 10.31700 34.15800
C  39.93700 9.70500 33.89500
C  40.00400 9.34600 32.42100
C  39.51500 8.52700 34.84800
C  41.31300 11.79600 34.70700
C  40.54000 11.97000 35.98100
H  41.08700 12.76900 37.18700
N  39.32900 8.66400 29.48600
C  38.49600 8.41100 30.54100
C  37.29100 7.63100 30.10200
C  37.39300 7.64300 28.63600
C  38.69200 8.33500 28.35900
C  36.16800 7.18300 31.00400
C  36.49500 7.11300 27.54800
O  36.63800 7.22500 26.32700
C  35.22700 6.40500 27.96000
N  41.55700 9.04800 27.53300
C  40.58700 8.77700 26.65500
C  40.98600 8.95300 25.18800
C  42.33300 9.78300 25.27100
C  42.57900 9.52100 26.76800
C  40.96100 7.59600 24.43400
C  42.14900 11.27500 24.76100
C  41.29100 12.22100 25.61700
N  43.00400 10.35300 29.57800
C  43.95300 10.51100 28.52100
C  45.18100 11.04300 29.12600
C  44.87100 11.21500 30.52200
C  43.59600 10.68300 30.71000
C  46.42600 11.45200 28.39200
C  45.41700 11.77300 31.77700
O  46.47300 12.36800 32.02300
C  44.31500 11.41900 32.89700
C  45.07200 10.60100 33.97200
O  45.90400 9.71500 33.79500
O  44.68600 11.02700 35.21500
C  45.31100 10.39400 36.31400
H  37.97900 8.59500 32.54300
H  38.71800 8.14200 26.22000
H  44.56700 10.27800 26.42300
H  42.00900 9.70200 34.76100
H  39.21300 10.51800 33.93100
H  38.73400 8.94000 35.48500
H  40.33800 8.17900 35.47300
H  39.04200 7.70300 34.31500
H  41.10100 12.51200 33.91300
H  42.29900 12.16100 34.99600
H  40.12500 11.01600 36.30800
H  39.71100 12.58900 35.63700
H  35.18900 7.38300 30.56800
H  36.25900 7.50300 32.04200
H  36.36100 6.11800 31.13200
H  35.39500 5.68500 28.76000
H  34.89200 5.82800 27.09800
H  34.43800 7.05500 28.33800
H  40.17500 9.55800 24.78200
H  43.14500 9.35200 24.68500
H  40.57100 7.67000 23.41900
H  40.34900 6.91000 25.02100
H  41.91600 7.08300 24.32200
H  41.43300 11.27600 23.93900
H  43.09400 11.67700 24.39600
H  40.95000 11.72300 26.52500
H  40.50500 12.72400 25.05500
H  41.95500 13.03600 25.90500
H  46.64300 10.79200 27.55200
H  47.31600 11.31400 29.00600
H  46.32900 12.51000 28.14700
H  43.96000 12.36600 33.30400
H  45.58400 9.34600 36.19300
H  44.69300 10.62000 37.18300
H  46.23100 10.94500 36.50900

