158

Mg 1.87500 -1.17300 43.48700
C  5.32200 -0.51800 42.74600
C  1.09000 1.84000 41.79700
C  -1.36400 -1.88100 43.60800
C  2.74000 -4.22600 44.59200
N  3.09800 0.40600 42.37600
C  4.47200 0.54500 42.32700
C  4.84900 1.74500 41.44900
C  3.60000 2.64500 41.62200
C  2.44100 1.57400 41.88600
C  3.68400 3.64800 42.73000
C  5.22000 1.27700 39.94200
C  6.72100 1.60200 39.64900
H  7.41300 0.82900 38.53100
N  0.07800 -0.17100 42.86400
C  -0.03400 1.09300 42.21000
C  -1.40200 1.35900 41.93600
C  -2.15700 0.23400 42.28900
C  -1.17500 -0.69000 42.95300
C  -1.84700 2.62500 41.27900
C  -3.68300 0.14000 42.23700
O  -4.29200 0.90000 41.51200
C  -4.44700 -0.93400 42.92300
N  0.88000 -2.87600 43.70000
C  -0.47000 -2.89500 43.91000
C  -0.93200 -4.27100 44.37000
C  0.44300 -5.16300 44.37300
C  1.42900 -4.03600 44.21100
C  -1.77200 -4.28600 45.67000
C  0.68000 -6.25800 43.32500
C  0.67300 -7.66300 43.85200
N  3.64500 -2.18900 43.79200
C  3.83600 -3.45400 44.29700
C  5.22400 -3.67100 44.46200
C  5.77600 -2.53700 43.88900
C  4.83100 -1.68900 43.43300
C  5.91800 -4.83400 45.11300
C  7.12500 -1.90300 43.70100
O  8.23900 -2.28400 43.97200
C  6.85100 -0.63900 42.81600
C  7.61400 0.54500 43.30600
O  8.48900 1.11200 42.67300
O  7.19000 0.82400 44.60700
C  7.92500 2.01200 45.03700
H  0.82000 2.75200 41.26000
H  -2.41000 -2.18000 43.70100
H  3.04600 -5.22300 44.91600
H  5.72000 2.09600 42.00200
H  3.53700 3.23500 40.70700
H  3.56200 4.68400 42.41600
H  4.63500 3.64300 43.26200
H  2.91100 3.54300 43.49100
H  4.76500 1.86900 39.14800
H  5.01900 0.21500 39.80700
H  7.30300 1.52000 40.56700
H  6.63200 2.61000 39.24600
H  -2.28400 2.38200 40.31000
H  -1.10300 3.37200 41.00100
H  -2.68300 3.00900 41.86300
H  -5.53300 -0.85100 42.96500
H  -4.09200 -1.05200 43.94700
H  -4.27500 -1.75900 42.23200
H  -1.63100 -4.49400 43.56400
H  0.49500 -5.69000 45.32600
H  -2.45100 -3.43300 45.66600
H  -1.04200 -4.23900 46.47900
H  -2.34400 -5.20100 45.82100
H  1.69700 -6.10100 42.96800
H  -0.13500 -6.25300 42.60200
H  0.36300 -7.60900 44.89600
H  1.67800 -8.05000 43.68300
H  -0.08300 -8.30700 43.40300
H  5.32300 -5.45000 45.78700
H  6.84100 -4.61100 45.64700
H  6.26200 -5.50900 44.32900
H  7.25300 -0.91000 41.84000
H  8.92700 1.83700 45.42900
H  7.43900 2.33100 45.95900
H  7.96200 2.85800 44.35100
Mg 24.37400 -5.60100 46.14700
C  26.56800 -3.27900 44.68600
C  21.96000 -4.48000 44.23800
C  22.89600 -8.42000 47.03400
C  27.35400 -6.84200 47.88900
N  24.38700 -4.25500 44.27800
C  25.37600 -3.32900 43.95700
C  24.76900 -2.28700 42.97600
C  23.27800 -2.50500 43.05000
C  23.18600 -3.83100 43.91800
C  22.37000 -1.42100 43.55600
C  25.39600 -2.42100 41.54800
C  25.38700 -1.13400 40.62900
H  24.39800 -1.14600 39.48000
N  22.68200 -6.26100 45.82700
C  21.76300 -5.68400 45.01500
C  20.57600 -6.57800 45.02200
C  20.78200 -7.70800 45.82300
C  22.18700 -7.54800 46.26900
C  19.30700 -6.10800 44.24300
C  19.81000 -8.75200 46.07300
O  18.70600 -8.64400 45.54100
C  20.07800 -9.94900 46.81300
N  25.07000 -7.36700 47.28800
C  24.19100 -8.39300 47.53700
C  24.88300 -9.58300 48.21900
C  26.11600 -8.89300 48.81600
C  26.25400 -7.67700 47.83300
C  23.97200 -10.28800 49.29100
C  27.39200 -9.73000 48.83700
C  28.31500 -9.56900 50.10000
N  26.57900 -5.08100 46.39000
C  27.58900 -5.65200 47.13300
C  28.77500 -4.86900 47.08100
C  28.39600 -3.83200 46.14200
C  27.05500 -4.09200 45.70600
C  30.02100 -5.26000 47.75200
C  28.89100 -2.78700 45.36100
O  30.02600 -2.34400 45.26900
C  27.77300 -2.41900 44.36900
C  27.43200 -0.99800 44.35400
O  26.71100 -0.43900 45.14900
O  27.95400 -0.33300 43.30300
C  27.65100 1.09700 43.21200
H  21.09900 -4.07500 43.70300
H  22.39400 -9.34100 47.33800
H  28.16300 -7.32600 48.44100
H  25.09800 -1.32800 43.37600
H  22.90700 -2.73500 42.05100
H  23.06400 -0.88800 44.20600
H  21.53700 -1.76400 44.17000
H  22.05300 -0.77500 42.73700
H  24.78700 -3.15500 41.02000
H  26.38600 -2.86400 41.65500
H  26.38700 -0.95200 40.23500
H  25.14500 -0.22900 41.18500
H  19.12000 -6.71100 43.35400
H  19.46800 -5.12000 43.81200
H  18.35600 -5.96300 44.75700
H  19.17800 -10.42900 47.19800
H  20.54600 -9.64900 47.75100
H  20.60700 -10.76000 46.31200
H  25.17200 -10.29400 47.44500
H  25.95700 -8.50000 49.82000
H  23.85000 -11.35300 49.09300
H  22.99500 -9.81200 49.37500
H  24.50800 -10.28100 50.24000
H  27.92300 -9.39100 47.94700
H  27.12000 -10.78300 48.76400
H  27.72300 -9.41400 51.00300
H  29.02400 -8.75900 49.93100
H  28.81400 -10.52300 50.27300
H  30.15800 -4.78700 48.72500
H  30.83800 -4.93100 47.10900
H  30.07700 -6.32900 47.95500
H  28.24000 -2.65200 43.41100
H  26.82600 1.20700 42.50700
H  28.50400 1.60800 42.76400
H  27.51900 1.60300 44.16800

