158

Mg 9.15500 4.29700 27.66800
C  10.20700 2.52000 30.30800
C  6.65000 5.73900 29.60200
C  7.74900 5.61500 24.76100
C  11.15500 2.30700 25.47000
N  8.46100 4.12600 29.64900
C  9.28800 3.52200 30.65900
C  8.74700 3.77500 32.10400
C  7.47900 4.70300 31.79800
C  7.45300 4.85500 30.25200
C  6.16900 4.00100 32.30800
C  9.83200 4.22200 33.06300
C  9.33800 4.95800 34.33400
H  10.29600 5.20000 35.48100
N  7.53600 5.60800 27.23700
C  6.55800 6.02800 28.16800
C  5.59900 6.84800 27.49200
C  5.99900 6.98300 26.08800
C  7.21500 6.08900 25.95100
C  4.53300 7.56400 28.29200
C  5.41400 7.84600 24.98900
O  5.85200 7.86800 23.84200
C  4.34900 8.79300 25.34000
N  9.54700 4.18900 25.44300
C  8.83500 4.83200 24.41500
C  9.24300 4.40300 23.02300
C  10.46100 3.46100 23.26300
C  10.36100 3.28000 24.80600
C  8.00900 3.87300 22.20600
C  11.77300 4.12800 22.91400
C  12.31100 5.37900 23.64500
N  10.29500 2.74400 27.77800
C  11.07400 2.06200 26.84500
C  11.68500 0.89900 27.50800
C  11.46100 1.11600 28.88800
C  10.57300 2.18300 28.99400
C  12.61600 -0.05400 26.84200
C  11.78400 0.67700 30.19700
O  12.63500 -0.17400 30.39500
C  11.06400 1.66300 31.24200
C  10.22400 0.80800 32.15300
O  9.13500 0.33200 31.79100
O  10.71700 0.73600 33.42700
C  9.75300 0.07800 34.38500
H  5.90800 6.13600 30.29800
H  7.15400 5.84200 23.87400
H  11.92400 1.67200 25.02500
H  8.44500 2.80500 32.49800
H  7.49300 5.69000 32.26100
H  5.71000 4.85100 32.81300
H  6.35200 3.24300 33.07000
H  5.56100 3.66600 31.46700
H  10.64900 4.74400 32.56400
H  10.29500 3.27400 33.33800
H  8.54100 4.41100 34.83800
H  9.03500 5.96800 34.06100
H  4.84300 8.54600 28.64800
H  4.32000 6.95800 29.17200
H  3.60400 7.72900 27.74500
H  3.38500 8.34800 25.58300
H  4.12400 9.46300 24.51000
H  4.61500 9.48300 26.14100
H  9.63200 5.20900 22.40100
H  10.36800 2.47500 22.80900
H  7.10300 4.01500 22.79600
H  8.08900 2.79600 22.06000
H  7.98700 4.37700 21.23900
H  11.73900 4.41100 21.86200
H  12.55400 3.36900 22.91400
H  13.10700 5.06600 24.32000
H  11.61200 5.89600 24.30200
H  12.95300 6.02400 23.04500
H  13.07700 -0.64800 27.63000
H  13.43000 0.41200 26.28700
H  11.93200 -0.50600 26.12300
H  11.80100 2.20900 31.83100
H  10.21800 -0.73600 34.94000
H  9.01700 -0.60300 33.95900
H  9.46800 0.84100 35.11000
Mg -5.15900 25.23100 26.87500
C  -4.15300 26.88000 29.87900
C  -7.05900 23.06300 28.89900
C  -5.58100 23.32600 24.11600
C  -2.92400 27.24800 25.19200
N  -5.64700 25.14400 29.08500
C  -5.07900 25.83200 30.13200
C  -5.54300 25.38300 31.53600
C  -6.24900 24.03200 31.16800
C  -6.44900 24.11600 29.63600
C  -5.44700 22.75200 31.55800
C  -6.51200 26.33800 32.17600
C  -6.55500 26.32500 33.71400
H  -5.84500 25.17700 34.53700
N  -6.31300 23.68800 26.59400
C  -7.06200 22.93600 27.45900
C  -7.98500 22.07500 26.66000
C  -7.52500 22.08300 25.32300
C  -6.30900 22.96900 25.32300
C  -9.15500 21.29100 27.26200
C  -8.17200 21.46700 24.09300
O  -7.72200 21.57200 22.91700
C  -9.44400 20.58500 24.18100
N  -4.36900 25.28500 24.95300
C  -4.63700 24.34200 23.99100
C  -4.08800 24.80500 22.60400
C  -3.39000 26.15100 22.94300
C  -3.62000 26.28700 24.42600
C  -3.14800 23.75100 21.98500
C  -3.75400 27.38800 22.02200
C  -2.79600 27.61100 20.77700
N  -3.83300 26.77900 27.37200
C  -3.06600 27.56400 26.54700
C  -2.45000 28.63000 27.31800
C  -2.82800 28.40600 28.67800
C  -3.62200 27.27900 28.65900
C  -1.65200 29.70500 26.78300
C  -2.71100 28.80700 30.10100
O  -2.07900 29.74300 30.58900
C  -3.52000 27.77900 30.89600
C  -2.53000 27.03500 31.71100
O  -1.62400 26.29500 31.34500
O  -2.72000 27.40900 33.01300
C  -1.89000 26.74300 33.95100
H  -7.69700 22.37700 29.46000
H  -5.73700 22.70400 23.23200
H  -2.32900 28.05200 24.75400
H  -4.70900 25.10400 32.18000
H  -7.25400 23.86700 31.55800
H  -5.97900 22.17800 32.31700
H  -4.43000 23.08800 31.76100
H  -5.39300 22.05100 30.72500
H  -7.46200 25.91900 31.84200
H  -6.35600 27.30300 31.69200
H  -7.56200 26.28600 34.12800
H  -6.23000 27.25900 34.17300
H  -8.99600 20.21300 27.26600
H  -10.07200 21.33400 26.67400
H  -9.32000 21.65900 28.27500
H  -9.51100 19.85700 24.99000
H  -9.52400 19.96400 23.28900
H  -10.33800 21.19600 24.30200
H  -4.98000 25.01200 22.01200
H  -2.30500 26.04500 22.94900
H  -2.10300 23.92700 21.73300
H  -3.55300 23.54100 20.99500
H  -3.20700 22.88600 22.64600
H  -3.82300 28.21700 22.72600
H  -4.77400 27.39500 21.63900
H  -2.31500 26.69400 20.43800
H  -2.04100 28.34100 21.06800
H  -3.29700 28.18300 19.99500
H  -1.90800 30.21200 25.85300
H  -0.64000 29.32000 26.65300
H  -1.79100 30.36800 27.63700
H  -4.30400 28.21700 31.51400
H  -0.82500 26.97000 33.89100
H  -2.07000 25.67000 33.89400
H  -2.18900 26.89000 34.98800

