158

Mg 53.68200 24.04500 45.12300
C  50.96700 26.12400 44.53400
C  51.75700 21.41500 43.79500
C  56.41400 22.02500 44.98300
C  55.52800 26.71300 46.03100
N  51.66800 23.83200 44.17700
C  50.72400 24.87700 44.09000
C  49.41800 24.29100 43.64900
C  49.59500 22.76800 44.00400
C  51.10600 22.61500 44.04800
C  48.98200 22.16600 45.27500
C  48.89400 24.68800 42.21500
C  50.00000 24.67800 41.16200
H  50.53300 23.30800 40.75700
N  54.02000 21.97600 44.51400
C  53.13700 21.08900 44.05100
C  53.79100 19.79800 44.00800
C  55.08800 19.97200 44.58500
C  55.24000 21.32600 44.74300
C  53.07500 18.54100 43.46700
C  56.03800 18.78600 44.90300
O  55.74600 17.62600 44.61400
C  57.27200 18.95400 45.80200
N  55.73200 24.42700 45.15100
C  56.66100 23.41600 45.25100
C  58.03300 24.02300 45.71600
C  57.66200 25.48400 46.01100
C  56.18200 25.56200 45.70400
C  58.78400 23.34600 46.85700
C  58.41200 26.51000 45.14900
C  57.90900 26.71600 43.61600
N  53.36900 25.98200 45.36800
C  54.17200 26.98700 45.81100
C  53.44600 28.18500 46.07400
C  52.23400 27.90800 45.41600
C  52.21300 26.58700 45.05100
C  53.84000 29.41400 46.68700
C  50.93400 28.45800 45.02300
O  50.54800 29.60700 45.12600
C  50.06000 27.30000 44.50200
C  49.68500 27.79300 43.10300
O  50.40300 28.01000 42.12000
O  48.30300 27.75800 43.06000
C  47.67200 28.47400 41.93700
H  51.22700 20.52100 43.45900
H  57.37400 21.53500 45.15400
H  56.17200 27.55000 46.31000
H  48.67300 24.70400 44.33000
H  49.12500 22.23700 43.17500
H  48.50900 22.89100 45.93700
H  49.72600 21.67300 45.90100
H  48.29800 21.39300 44.92400
H  48.33400 25.61700 42.32400
H  48.14300 23.99700 41.83200
H  50.86300 25.25200 41.49700
H  49.72900 25.13200 40.20800
H  53.61200 18.33600 42.54100
H  52.01700 18.65400 43.23100
H  52.95900 17.67100 44.11300
H  57.49900 18.12100 46.46800
H  57.18300 19.86200 46.39800
H  58.15000 18.91900 45.15700
H  58.67100 24.02600 44.83200
H  57.72800 25.68800 47.08000
H  59.64200 22.80100 46.46200
H  58.12700 22.64900 47.37800
H  59.22100 24.08000 47.53400
H  59.41200 26.07800 45.11600
H  58.49800 27.49900 45.59900
H  57.02900 26.11000 43.39700
H  58.78100 26.49600 43.00000
H  57.63100 27.76400 43.51000
H  54.22600 30.09400 45.92800
H  54.60500 29.21000 47.43700
H  52.93400 29.87000 47.08600
H  49.18200 27.18000 45.13700
H  48.29800 29.11000 41.31100
H  46.94900 29.22100 42.26300
H  47.14000 27.74400 41.32700
Mg -5.29100 24.99500 26.01400
C  -3.71000 26.32600 28.93000
C  -7.15200 23.14700 28.18800
C  -6.30800 23.34600 23.29700
C  -3.10600 26.91600 24.11500
N  -5.26900 24.67500 28.30500
C  -4.65600 25.39300 29.24200
C  -5.05300 25.05200 30.65300
C  -6.02200 23.83800 30.40100
C  -6.18700 23.85600 28.88800
C  -5.48400 22.45100 30.87400
C  -5.79400 26.32900 31.25300
C  -5.62700 26.51200 32.70600
H  -6.67800 25.79600 33.54400
N  -6.56200 23.44000 25.78000
C  -7.22300 22.82700 26.80900
C  -8.03500 21.80300 26.20000
C  -7.86400 21.91400 24.77900
C  -6.87600 22.91100 24.52400
C  -8.92500 20.88700 27.02300
C  -8.51300 21.21700 23.66300
O  -8.33600 21.48400 22.49700
C  -9.53300 20.14500 24.01900
N  -4.68400 25.08000 23.94000
C  -5.31600 24.35300 23.02100
C  -4.86700 24.75100 21.57800
C  -3.90000 25.94800 21.85100
C  -3.92400 26.00600 23.37100
C  -4.29600 23.53400 20.81700
C  -4.25300 27.27600 21.22200
C  -3.43200 27.53400 19.94500
N  -3.81000 26.46200 26.37600
C  -2.93700 27.04800 25.50300
C  -2.04300 28.01100 26.21100
C  -2.25800 27.72800 27.55000
C  -3.31700 26.72800 27.59700
C  -1.05900 28.99300 25.66200
C  -1.90600 28.02900 28.92900
O  -1.07500 28.79100 29.41400
C  -2.74100 27.08200 29.84600
C  -1.69900 26.27600 30.62600
O  -1.30300 25.15600 30.36400
O  -1.57100 26.86000 31.84500
C  -1.03100 26.00800 32.95600
H  -7.88200 22.60500 28.79400
H  -6.56700 22.92500 22.32400
H  -2.56100 27.69600 23.57800
H  -4.14500 24.80200 31.20200
H  -6.97700 24.10200 30.85500
H  -4.55200 22.73600 31.36200
H  -5.23200 21.81200 30.02800
H  -6.23300 22.06800 31.56700
H  -6.86800 26.24600 31.08900
H  -5.52600 27.26500 30.76300
H  -5.76700 27.56700 32.94200
H  -4.60900 26.26900 33.00900
H  -9.97900 20.96100 26.75400
H  -8.71200 21.01400 28.08400
H  -8.70900 19.86300 26.72000
H  -10.14400 19.77100 23.19700
H  -10.24800 20.62900 24.68400
H  -9.00000 19.38600 24.59200
H  -5.72700 25.02800 20.96800
H  -2.87000 25.70000 21.59300
H  -4.98500 22.97000 20.18900
H  -4.02900 22.80300 21.58000
H  -3.40500 23.90200 20.30700
H  -4.03300 28.19400 21.76500
H  -5.26400 27.35000 20.82000
H  -4.04600 27.67700 19.05600
H  -2.70700 26.76300 19.68600
H  -2.81300 28.42900 20.00300
H  -1.29700 29.23100 24.62500
H  -0.07300 28.58200 25.87900
H  -1.10900 29.89600 26.27100
H  -3.17600 27.71100 30.62300
H  -0.60400 25.05100 32.65500
H  -1.85700 25.69900 33.59600
H  -0.26100 26.49400 33.55500

