158

Mg 47.29800 25.02400 29.01000
C  48.23100 27.49600 31.52400
C  46.30800 23.10600 31.59400
C  46.83900 22.65800 26.82400
C  48.61400 27.14400 26.63800
N  47.23400 25.35000 31.37100
C  47.49100 26.45800 32.15200
C  47.19200 26.17300 33.63500
C  46.87800 24.64600 33.58700
C  46.82600 24.30300 32.12200
C  47.76900 23.59400 34.34800
C  46.08600 27.15500 34.13400
C  46.57900 28.09300 35.23600
H  47.07700 27.43100 36.60600
N  46.50400 23.21100 29.18800
C  46.14700 22.53700 30.34400
C  45.69300 21.23500 29.95400
C  45.65000 21.14900 28.53100
C  46.34400 22.41900 28.09000
C  45.25000 20.29800 30.98500
C  45.17500 20.05700 27.64300
O  45.25600 20.14400 26.41300
C  44.64200 18.73300 28.17300
N  47.99500 24.84100 27.14800
C  47.57100 23.77200 26.38500
C  47.93000 23.96500 24.91300
C  48.40100 25.42300 24.81100
C  48.32100 25.85800 26.29900
C  48.94900 22.96700 24.25500
C  47.58400 26.42000 23.88700
C  48.43800 27.33400 23.03200
N  48.31000 26.87400 29.08300
C  48.73400 27.66900 28.02100
C  49.20300 28.87800 28.44400
C  49.04400 28.85000 29.84100
C  48.54500 27.60100 30.17900
C  49.74600 30.04700 27.55600
C  49.14100 29.68800 31.06600
O  49.67800 30.84700 31.10600
C  48.66500 28.74600 32.21800
C  49.80100 28.50600 33.16400
O  50.65600 27.66000 33.06200
O  49.81000 29.47000 34.14000
C  50.80100 29.15500 35.19600
H  45.85600 22.50000 32.38200
H  46.67500 22.01600 25.95700
H  48.83600 27.79000 25.78600
H  48.13400 26.48500 34.08600
H  45.88200 24.47600 33.99500
H  48.19100 22.93800 33.58700
H  47.15500 23.09700 35.09900
H  48.57000 24.15000 34.83500
H  45.24800 26.55000 34.48000
H  45.74400 27.74800 33.28600
H  45.74300 28.76200 35.43900
H  47.50500 28.60400 34.97100
H  44.23300 20.04600 30.68300
H  45.23000 20.67900 32.00600
H  45.76500 19.33800 31.03200
H  45.19200 18.39000 29.04900
H  44.55900 18.02500 27.34900
H  43.66800 19.01300 28.57400
H  46.96300 23.96600 24.41100
H  49.47200 25.36800 24.61600
H  49.95200 23.39500 24.23500
H  48.76600 22.48800 23.29400
H  48.99700 22.16200 24.98800
H  47.05800 27.13100 24.52300
H  46.91900 25.79400 23.29200
H  48.47800 26.98200 22.00100
H  49.42100 27.50200 23.47200
H  48.00300 28.33200 23.09100
H  49.43500 31.05600 27.82800
H  49.53600 29.92800 26.49300
H  50.82800 30.08000 27.68900
H  47.87800 29.28500 32.74600
H  50.50200 28.24900 35.72300
H  50.90500 29.97300 35.90800
H  51.81400 29.03900 34.81200
Mg -2.19400 35.66400 27.21500
C  -3.54900 33.45800 29.51400
C  -0.62700 37.30900 29.64200
C  -1.11100 37.77900 24.85000
C  -3.99400 33.84600 24.71000
N  -2.29800 35.55900 29.34000
C  -2.79700 34.50000 30.09200
C  -2.59500 34.65600 31.59300
C  -1.64300 35.95000 31.61200
C  -1.60700 36.38900 30.18100
C  -2.01700 37.10700 32.69800
C  -1.89500 33.39100 32.20700
C  -2.63600 32.76100 33.40800
H  -1.75100 32.75700 34.67100
N  -1.03400 37.30400 27.20100
C  -0.42700 37.79000 28.32200
C  0.50200 38.87000 27.96500
C  0.52500 38.84900 26.57500
C  -0.58500 38.01800 26.16700
C  1.18800 39.63400 29.03500
C  1.26100 39.67900 25.63400
O  1.16800 39.67000 24.44600
C  2.39100 40.58100 26.20600
N  -2.61600 35.81700 25.12400
C  -2.04800 36.83600 24.36300
C  -2.32500 36.68900 22.85600
C  -3.20700 35.42200 22.78300
C  -3.32600 34.98900 24.31300
C  -2.93300 37.92300 22.16100
C  -2.61300 34.26700 21.93300
C  -1.45400 33.47000 22.52200
N  -3.66600 34.14400 27.12300
C  -4.24300 33.47200 26.07100
C  -4.98400 32.30900 26.58900
C  -4.79000 32.26800 27.97200
C  -3.85700 33.37300 28.23300
C  -5.83000 31.51100 25.66600
C  -4.97900 31.52800 29.19800
O  -5.43000 30.39900 29.39300
C  -4.35800 32.41300 30.25900
C  -5.50200 33.00600 31.05000
O  -6.26600 33.88400 30.64900
O  -5.58000 32.31800 32.23400
C  -6.52300 32.83200 33.17400
H  -0.04700 37.69800 30.48200
H  -0.70100 38.40900 24.05800
H  -4.58300 33.33000 23.94900
H  -3.56600 34.78000 32.07200
H  -0.59200 35.70200 31.76400
H  -2.23400 36.71500 33.69100
H  -2.83000 37.68600 32.26000
H  -1.09400 37.67500 32.81200
H  -0.94300 33.76900 32.58200
H  -1.55300 32.57100 31.57600
H  -2.91400 31.71500 33.27400
H  -3.52700 33.35200 33.61900
H  1.10500 39.20400 30.03400
H  0.75100 40.63000 28.97100
H  2.25600 39.81200 28.90600
H  2.86000 41.07800 25.35700
H  3.17700 40.10300 26.78900
H  1.91700 41.25400 26.92100
H  -1.41600 36.32400 22.37800
H  -4.26200 35.52900 22.52900
H  -3.80600 37.73700 21.53500
H  -2.19100 38.47400 21.58400
H  -3.23900 38.63900 22.92300
H  -2.22300 34.62600 20.98100
H  -3.42700 33.59600 21.65900
H  -0.65800 33.26500 21.80700
H  -1.82100 32.53800 22.95200
H  -1.02600 33.99000 23.37900
H  -5.39600 31.38200 24.67400
H  -6.62900 32.19000 25.36700
H  -6.32100 30.64900 26.11600
H  -3.73600 31.79500 30.90600
H  -7.35500 33.41200 32.77500
H  -6.04600 33.41700 33.96000
H  -7.16600 32.04100 33.56100

