158

Mg 53.66400 23.83400 44.41900
C  50.87600 25.86000 43.86400
C  51.54000 21.11300 44.52200
C  56.28500 21.78300 44.00400
C  55.72000 26.59000 43.71600
N  51.52100 23.55900 44.07900
C  50.53800 24.45900 43.94400
C  49.16500 23.85600 43.92200
C  49.36900 22.43600 44.29900
C  50.90600 22.37100 44.35200
C  48.71000 22.01400 45.68700
C  48.47800 23.98500 42.57500
C  49.32200 23.71200 41.35100
H  49.13400 24.61200 40.12900
N  53.85000 21.71500 44.24800
C  52.87800 20.80100 44.43100
C  53.43400 19.46400 44.44600
C  54.81400 19.67900 44.35800
C  55.04700 21.12500 44.18800
C  52.71300 18.19000 44.81700
C  55.86000 18.52400 44.54700
O  55.44800 17.37100 44.65100
C  57.34300 18.77900 44.59100
N  55.71100 24.22900 43.72100
C  56.61200 23.17100 43.82600
C  57.98900 23.71400 43.55400
C  57.83800 25.25300 43.43700
C  56.32800 25.35500 43.58800
C  59.12500 23.29200 44.55800
C  58.45500 25.96100 42.14100
C  59.40700 27.18600 42.24000
N  53.40900 25.88400 44.05200
C  54.31900 26.85800 43.79300
C  53.62700 28.15500 43.89100
C  52.30100 27.79000 43.95700
C  52.20500 26.39000 43.95000
C  54.28700 29.54100 43.84800
C  50.98700 28.31100 43.92900
O  50.57200 29.49500 44.00600
C  49.99500 27.13600 43.87100
C  49.25000 27.41800 42.67400
O  49.79500 27.51900 41.58600
O  47.90500 27.64500 42.91900
C  47.13200 28.24700 41.83400
H  50.85200 20.30200 44.77000
H  57.24000 21.26800 43.87300
H  56.37000 27.44700 43.52500
H  48.53200 24.39000 44.63000
H  49.02800 21.72700 43.54400
H  48.52700 22.88300 46.31800
H  49.39600 21.43500 46.30500
H  47.70700 21.61500 45.53800
H  48.14100 25.02100 42.53500
H  47.57900 23.36900 42.54600
H  49.07800 22.69100 41.06000
H  50.38700 23.65700 41.57600
H  53.05400 17.51100 44.03600
H  51.65200 18.42200 44.73200
H  52.95200 17.83100 45.81800
H  57.78600 17.91300 45.08200
H  57.56700 19.66700 45.18300
H  57.76700 18.81500 43.58700
H  58.15200 23.26600 42.57400
H  58.38400 25.63500 44.30000
H  59.42900 24.04300 45.28700
H  60.03600 22.89200 44.11200
H  58.67800 22.45800 45.09800
H  57.65500 26.39900 41.54500
H  58.96400 25.37100 41.37800
H  60.38600 26.82600 41.92400
H  59.59500 27.44100 43.28300
H  59.09400 28.05000 41.65300
H  53.94200 30.12800 42.99700
H  55.37200 29.57400 43.74300
H  53.96300 30.01000 44.77700
H  49.31700 27.10300 44.72400
H  46.98800 27.49800 41.05600
H  47.76600 28.97700 41.33000
H  46.15100 28.63900 42.10000
Mg 48.18300 15.89700 28.48400
C  46.17700 15.61900 31.38800
C  50.25000 18.00000 30.21800
C  50.07200 16.06100 25.81000
C  45.83200 14.00900 26.75700
N  48.09500 16.77700 30.55800
C  47.23200 16.36400 31.57100
C  47.75800 16.94700 32.94600
C  48.94300 17.86600 32.47300
C  49.05700 17.57200 30.96000
C  48.74200 19.44500 32.68500
C  48.19900 15.90200 33.92300
C  48.03200 16.33700 35.45200
H  49.10900 15.89200 36.41400
N  49.86800 16.96100 28.16500
C  50.59500 17.77600 28.95600
C  51.82200 18.21300 28.31200
C  51.79700 17.64900 26.96900
C  50.56900 16.80300 26.91600
C  52.89800 19.02100 29.02000
C  52.86100 17.74700 25.86800
O  52.81200 17.09800 24.82800
C  54.09800 18.54900 26.03800
N  47.88400 15.29300 26.53300
C  48.91500 15.37100 25.60500
C  48.58300 14.68200 24.27700
C  47.14500 14.23100 24.53100
C  46.92900 14.51200 25.99900
C  48.57900 15.70400 23.00500
C  46.97600 12.72800 24.14500
C  47.80100 11.64500 24.93800
N  46.38100 15.05700 28.94100
C  45.54500 14.25200 28.11500
C  44.37000 13.97900 28.83300
C  44.57000 14.45200 30.14300
C  45.82500 15.09200 30.16300
C  43.18600 13.19800 28.26700
C  43.95800 14.47300 31.43400
O  42.89600 14.00600 31.85900
C  44.98700 15.16800 32.34300
C  44.43100 16.48400 32.88500
O  44.11800 17.50400 32.23800
O  44.29500 16.38000 34.28100
C  44.08500 17.70200 34.93600
H  50.88200 18.68800 30.78300
H  50.74700 16.17000 24.95900
H  45.08100 13.41000 26.23700
H  46.98300 17.57200 33.39000
H  49.86300 17.56200 32.97100
H  48.58700 20.05700 31.79600
H  49.56900 19.82500 33.28400
H  47.86000 19.73400 33.25600
H  49.25600 15.73000 33.72200
H  47.67100 14.97800 33.68800
H  47.12000 15.80700 35.72400
H  47.86400 17.41000 35.53300
H  52.81600 19.10200 30.10400
H  53.06800 19.98700 28.54500
H  53.76900 18.39400 28.83100
H  53.85000 19.38000 26.69900
H  54.30600 18.86500 25.01600
H  54.99300 18.05800 26.42200
H  49.26000 13.85100 24.08000
H  46.35800 14.85000 24.10100
H  47.58100 15.84500 22.58800
H  49.22300 15.34100 22.20400
H  48.85000 16.72300 23.27900
H  47.42800 12.64500 23.15700
H  45.90200 12.58200 24.03200
H  47.08100 10.87400 25.21200
H  48.34200 12.02800 25.80200
H  48.57700 11.19300 24.32100
H  42.80900 13.40500 27.26500
H  42.36900 13.46700 28.93600
H  43.38000 12.12600 28.30200
H  45.34300 14.42300 33.05500
H  44.50600 18.49600 34.31900
H  44.60800 17.67300 35.89200
H  43.00100 17.81600 34.92600

