158

Mg 46.42700 45.27100 42.92900
C  42.99500 44.45700 42.92800
C  47.10100 42.02000 42.31300
C  49.65900 46.11700 42.54500
C  45.50900 48.73600 43.16800
N  45.13000 43.43300 42.45100
C  43.79400 43.31100 42.73200
C  43.36000 41.84700 42.56300
C  44.72700 41.05600 42.58800
C  45.68800 42.24000 42.47800
C  45.04900 40.14600 43.83900
C  42.52600 41.64500 41.29300
C  42.79700 42.49300 40.15600
H  42.43600 42.04200 38.68500
N  48.12500 44.22100 42.56700
C  48.22500 42.89600 42.32800
C  49.61500 42.49600 42.17000
C  50.35800 43.70300 42.21800
C  49.40800 44.74500 42.36200
C  50.11800 41.07100 41.86200
C  51.86400 43.84000 42.00800
O  52.49600 42.78300 41.82000
C  52.58600 45.25600 41.92600
N  47.40200 47.14900 42.67300
C  48.79000 47.18700 42.81300
C  49.36100 48.61700 42.88600
C  48.04600 49.47000 42.78100
C  46.90900 48.43400 42.94400
C  50.21100 48.77300 44.16500
C  47.89900 50.33600 41.50300
C  48.82300 51.59900 41.53600
N  44.69800 46.48400 43.02100
C  44.41000 47.80700 43.18800
C  42.98200 48.09900 43.39800
C  42.39200 46.76400 43.26200
C  43.44600 45.82000 43.04000
C  42.25900 49.36000 43.62700
C  41.17700 46.09000 43.22200
O  40.01300 46.43200 43.25000
C  41.54100 44.56300 43.17700
C  41.00900 43.90900 44.42400
O  40.18400 43.01500 44.33100
O  41.83000 44.17100 45.48100
C  41.79500 43.08900 46.46700
H  47.41600 40.97600 42.26200
H  50.67800 46.48200 42.68500
H  45.21000 49.78400 43.23600
H  42.67900 41.57200 43.36800
H  44.93800 40.40800 41.73700
H  45.88900 40.55300 44.40200
H  45.37800 39.21500 43.37800
H  44.13100 39.98100 44.40400
H  41.44700 41.70700 41.42800
H  42.73600 40.63400 40.94300
H  43.87400 42.63300 40.06500
H  42.30600 43.45200 40.31800
H  50.29500 41.09600 40.78600
H  49.35400 40.32600 42.08200
H  51.04700 40.83800 42.38100
H  52.12000 45.91100 41.18900
H  53.64700 45.04500 41.79300
H  52.47700 45.61900 42.94800
H  49.96500 48.92700 42.03300
H  47.85200 50.01700 43.70300
H  50.36900 49.78100 44.54700
H  51.20900 48.34400 44.07300
H  49.69400 48.22100 44.94900
H  46.90200 50.77400 41.46600
H  48.11300 49.74900 40.60900
H  49.50700 51.78900 40.70900
H  49.44900 51.55300 42.42800
H  48.19800 52.49100 41.56900
H  41.44600 49.59300 42.94000
H  43.04000 50.11400 43.72300
H  41.82100 49.29300 44.62200
H  40.96000 44.14200 42.35700
H  41.15500 43.39500 47.29400
H  42.84700 43.07000 46.75100
H  41.53200 42.08500 46.13400
Mg -8.96800 39.87900 42.39900
C  -7.71400 36.77000 41.12900
C  -6.15500 41.39900 41.07000
C  -10.35300 42.78200 42.83600
C  -11.80100 38.12000 43.37600
N  -7.30500 39.19200 40.96100
C  -6.99300 37.87500 40.70400
C  -5.57400 37.78300 40.10300
C  -5.00500 39.15500 40.46800
C  -6.22000 40.03100 40.87100
C  -3.91900 38.92200 41.62100
C  -5.65300 37.41600 38.57700
C  -4.79500 36.20600 38.02100
H  -3.69600 36.53700 37.00500
N  -8.35700 41.86300 41.99400
C  -7.15500 42.25300 41.42900
C  -7.09200 43.64600 41.37700
C  -8.30100 44.18200 41.89300
C  -9.05300 42.90900 42.32100
C  -5.91400 44.41500 40.66000
C  -8.63800 45.57300 42.03800
O  -7.87200 46.49200 41.60100
C  -9.95900 45.96100 42.61300
N  -10.84400 40.36100 42.81400
C  -11.15900 41.67200 43.15800
C  -12.61000 41.75400 43.71800
C  -13.06300 40.32800 43.71000
C  -11.80900 39.51200 43.32700
C  -12.88800 42.42500 45.13000
C  -14.10300 39.98900 42.60900
C  -15.28700 39.04600 42.97500
N  -9.60800 37.84300 42.50500
C  -10.78300 37.30600 42.87500
C  -10.77700 35.91000 42.75400
C  -9.57600 35.65700 42.07400
C  -8.89400 36.86500 41.94100
C  -11.82700 34.93600 43.17000
C  -8.73400 34.63800 41.47500
O  -8.94000 33.40100 41.49000
C  -7.44500 35.31700 40.83200
C  -6.29000 34.72300 41.56900
O  -6.01100 35.02100 42.74500
O  -5.45700 33.96300 40.73300
C  -4.14200 33.51500 41.42700
H  -5.16100 41.78400 40.83200
H  -10.83200 43.73400 43.07300
H  -12.74900 37.70700 43.72600
H  -4.92000 36.98900 40.46300
H  -4.55400 39.48100 39.53100
H  -4.18700 39.42300 42.55100
H  -3.03000 39.40000 41.20800
H  -3.54100 37.90600 41.73500
H  -5.28400 38.22500 37.94700
H  -6.67900 37.18900 38.28700
H  -5.40200 35.44800 37.52600
H  -4.26900 35.76900 38.87000
H  -5.36000 43.68700 40.06800
H  -5.41000 45.00600 41.42600
H  -6.44700 45.06100 39.96300
H  -10.02400 47.04700 42.68800
H  -10.03300 45.46900 43.58300
H  -10.78400 45.69900 41.95100
H  -13.10200 42.20400 42.85500
H  -13.43900 40.06800 44.70000
H  -13.69500 42.00000 45.72600
H  -13.27300 43.42900 44.95400
H  -11.96300 42.47000 45.70400
H  -13.71500 39.56700 41.68200
H  -14.58500 40.94300 42.39400
H  -16.28100 39.45600 42.79900
H  -15.40200 38.83200 44.03700
H  -15.25600 38.05900 42.51200
H  -11.91500 34.94200 44.25600
H  -11.57100 33.92700 42.84700
H  -12.81500 35.16800 42.77300
H  -7.44200 35.21300 39.74700
H  -4.42600 32.89600 42.27700
H  -3.54900 34.32700 41.84900
H  -3.44600 32.96100 40.79700

