158

Mg -1.67200 18.06600 27.53300
C  -2.24400 15.82700 30.06500
C  -2.21200 20.66400 29.55500
C  -1.37500 20.05800 24.81700
C  -1.89000 15.28400 25.22300
N  -2.06300 18.21200 29.64200
C  -2.24300 17.18300 30.52400
C  -2.57000 17.66600 31.94500
C  -2.90700 19.19000 31.69100
C  -2.32500 19.39800 30.22800
C  -4.43400 19.63500 31.89200
C  -1.44500 17.45900 32.94200
C  -1.90100 16.92000 34.24800
H  -0.87200 16.81500 35.38600
N  -1.73500 20.08100 27.20600
C  -1.94100 20.99700 28.22600
C  -1.74200 22.36900 27.74300
C  -1.58100 22.27100 26.34700
C  -1.56300 20.73800 26.08100
C  -1.78500 23.58300 28.58400
C  -1.31900 23.30900 25.34700
O  -1.41100 23.13900 24.11500
C  -0.87700 24.53700 25.84100
N  -1.63200 17.70100 25.32100
C  -1.44100 18.71400 24.42100
C  -1.56700 18.33900 22.96500
C  -1.86600 16.78000 23.08800
C  -1.82400 16.52800 24.60800
C  -2.81200 19.04800 22.30300
C  -0.89900 16.00000 22.15200
C  0.63500 15.97200 22.55900
N  -1.89300 16.02200 27.58100
C  -1.94100 15.01900 26.61300
C  -2.06500 13.68200 27.20900
C  -2.16700 13.97000 28.58000
C  -2.10000 15.38600 28.72200
C  -1.97500 12.40000 26.53100
C  -2.33900 13.35900 29.86600
O  -2.52700 12.18600 30.10100
C  -2.39600 14.52600 30.87900
C  -1.09400 14.29100 31.65900
O  0.05600 14.42100 31.24900
O  -1.37500 13.81300 32.86400
C  -0.23700 13.68300 33.75500
H  -2.30000 21.33400 30.41300
H  -1.20300 20.72500 23.96900
H  -1.96900 14.49000 24.47700
H  -3.48600 17.18800 32.29000
H  -2.32600 19.68400 32.46900
H  -4.79900 20.08100 30.96700
H  -4.49200 20.38200 32.68400
H  -5.10300 18.81300 32.14800
H  -0.95300 18.41600 33.11600
H  -0.62500 16.81700 32.62100
H  -2.45900 15.98700 34.16600
H  -2.63400 17.59700 34.68800
H  -2.25300 23.42300 29.55600
H  -2.13000 24.49900 28.10400
H  -0.75200 23.78400 28.86700
H  -1.67600 25.27400 25.92300
H  -0.35700 25.10900 25.07200
H  -0.23300 24.41600 26.71200
H  -0.65100 18.61300 22.44100
H  -2.85900 16.44600 22.78700
H  -2.82100 18.62600 21.29900
H  -2.68600 20.12800 22.21900
H  -3.73700 18.88300 22.85500
H  -1.00800 16.44400 21.16200
H  -1.31500 14.99500 22.23300
H  0.84600 16.40600 23.53600
H  1.14700 16.65200 21.87800
H  1.17900 15.04600 22.37400
H  -1.20600 11.75900 26.96200
H  -1.65200 12.45900 25.49100
H  -2.98000 12.02800 26.72900
H  -3.28300 14.38200 31.49500
H  0.31300 14.62300 33.81700
H  0.40000 12.89500 33.35200
H  -0.57400 13.33200 34.73000
Mg 16.33600 52.87100 26.84800
C  18.23700 51.57200 29.54900
C  13.94800 53.96000 29.29100
C  14.68800 54.39800 24.42200
C  18.46600 51.18300 24.64800
N  16.16400 52.79200 29.13200
C  17.16100 52.33500 30.03600
C  16.75200 52.66100 31.47400
C  15.24800 53.18600 31.32800
C  15.12100 53.32000 29.80400
C  14.11000 52.32400 31.90000
C  17.70800 53.66300 32.11200
C  17.65800 53.69700 33.61300
H  16.48400 53.04000 34.29900
N  14.56500 54.04100 26.82800
C  13.70900 54.29200 27.88200
C  12.47900 54.99300 27.41700
C  12.64200 55.02000 26.03300
C  14.01200 54.49000 25.70300
C  11.36200 55.52100 28.29100
C  11.80500 55.64000 24.97800
O  12.12700 55.69300 23.80000
C  10.34700 56.23100 25.30700
N  16.61300 52.83600 24.89200
C  15.91400 53.67000 24.07300
C  16.31900 53.37400 22.60800
C  17.66100 52.66500 22.71000
C  17.53300 52.14200 24.17100
C  15.27300 52.48200 21.92000
C  18.93100 53.68000 22.67500
C  20.23700 53.02300 22.20700
N  17.93200 51.53300 26.99100
C  18.70000 50.89000 26.01700
C  19.74400 50.08600 26.70300
C  19.67000 50.41700 28.06900
C  18.50400 51.19300 28.20600
C  20.72000 49.22100 25.89900
C  20.18900 50.16000 29.37200
O  21.17700 49.53600 29.75600
C  19.33300 50.95300 30.38000
C  18.65400 50.06700 31.32300
O  17.81800 49.17300 31.08800
O  19.06500 50.40600 32.54100
C  18.56100 49.63900 33.67300
H  13.29400 54.27900 30.10500
H  14.15000 54.87000 23.59700
H  19.28400 50.78600 24.04300
H  16.80200 51.74000 32.05500
H  15.23000 54.12800 31.87600
H  13.58900 52.85400 32.69800
H  14.52600 51.37700 32.24500
H  13.41000 52.08800 31.09800
H  17.39600 54.64300 31.75000
H  18.71700 53.30500 31.90800
H  17.52400 54.77100 33.74100
H  18.62400 53.46200 34.06100
H  10.52700 54.88000 28.00800
H  11.13000 56.54600 28.00200
H  11.48600 55.49000 29.37400
H  9.78300 55.84300 24.45900
H  10.42400 57.31700 25.36700
H  10.14400 55.62500 26.19000
H  16.43400 54.34500 22.12700
H  17.81300 51.76700 22.11200
H  15.79400 51.81500 21.23300
H  14.62600 53.20300 21.42000
H  14.72200 51.91600 22.67100
H  19.08300 54.22200 23.60800
H  18.74600 54.42200 21.89700
H  20.46600 53.54000 21.27500
H  20.09600 51.97300 21.95100
H  21.01400 53.29600 22.92200
H  21.53000 49.82300 25.48900
H  20.14200 48.79400 25.07900
H  21.09400 48.40500 26.51800
H  19.79000 51.78800 30.91000
H  17.48800 49.49300 33.54600
H  18.76200 50.14600 34.61700
H  18.97100 48.63700 33.79600

