158

Mg 54.97100 24.67800 44.18300
C  52.20400 26.33600 43.07100
C  53.66300 21.78400 42.77400
C  57.86200 22.99700 44.95200
C  56.43800 27.73100 45.37200
N  53.25300 24.16100 42.91400
C  52.26400 25.04900 42.55600
C  51.17100 24.36000 41.82100
C  51.31200 22.92200 42.40500
C  52.83800 22.92000 42.64400
C  50.36500 22.58400 43.55200
C  51.41500 24.50500 40.26700
C  50.22300 24.90000 39.29300
H  50.44100 25.23900 37.81800
N  55.66900 22.65100 43.90500
C  54.90600 21.65300 43.30000
C  55.68500 20.46000 43.35100
C  56.89100 20.73900 44.14500
C  56.84900 22.17200 44.41000
C  55.25200 19.23800 42.56300
C  57.97600 19.67900 44.38900
O  57.78300 18.48400 44.19000
C  59.15200 19.93600 45.20600
N  56.87300 25.33900 44.82300
C  57.87800 24.38200 45.14000
C  59.14100 24.96700 45.73400
C  58.80700 26.53200 45.53400
C  57.31400 26.57700 45.23700
C  59.50300 24.45800 47.18700
C  59.70500 27.22800 44.40300
C  60.85000 28.12000 44.81600
N  54.44600 26.62900 44.35000
C  55.02400 27.73000 44.95700
C  54.03700 28.76900 45.02300
C  52.89900 28.31400 44.35200
C  53.21500 26.96000 43.91000
C  54.27500 30.06800 45.58000
C  51.60600 28.66800 43.78300
O  50.95200 29.67000 43.87400
C  51.08800 27.38200 43.05200
C  50.66100 27.73700 41.68000
O  51.40700 28.00300 40.73700
O  49.26500 27.65100 41.66200
C  48.56800 28.21400 40.47900
H  53.08700 20.85700 42.72900
H  58.74900 22.41100 45.20300
H  56.93800 28.53900 45.91000
H  50.18800 24.71400 42.13100
H  51.11900 22.27700 41.54800
H  50.86300 22.15500 44.42200
H  49.58900 21.86200 43.30200
H  49.83500 23.39200 44.05700
H  51.82700 23.58000 39.86300
H  52.16000 25.29000 40.14100
H  49.77700 25.75700 39.79800
H  49.56900 24.02900 39.31900
H  54.96200 19.64400 41.59400
H  54.31700 18.81400 42.93000
H  56.02700 18.48900 42.40100
H  58.80100 20.55400 46.03200
H  59.87400 20.52400 44.63800
H  59.61100 19.03800 45.62000
H  59.85400 24.64200 44.97600
H  58.97800 27.06900 46.46700
H  58.71000 23.86100 47.63700
H  59.82300 25.28500 47.82000
H  60.33700 23.76000 47.12300
H  58.97200 27.79300 43.82600
H  60.18100 26.52800 43.71600
H  61.10200 27.98400 45.86800
H  60.55600 29.16100 44.68100
H  61.72500 27.77900 44.26400
H  53.61500 30.70000 44.98600
H  55.30000 30.41200 45.44200
H  53.92600 30.07100 46.61300
H  50.23100 27.13500 43.67800
H  48.22100 27.36100 39.89500
H  49.31000 28.77300 39.90900
H  47.82300 28.95400 40.76800
Mg 41.68400 40.34500 26.12200
C  40.70100 42.60500 28.73300
C  42.51600 38.10200 28.49900
C  42.61900 38.24300 23.59200
C  40.97000 42.88700 23.82200
N  41.60900 40.41000 28.37700
C  41.07200 41.33400 29.21900
C  41.04700 40.85300 30.71300
C  41.83300 39.48500 30.55100
C  42.02000 39.33200 29.02400
C  43.14800 39.40500 31.38600
C  39.61300 40.72500 31.28800
C  39.41000 40.20600 32.73400
H  38.98000 41.03500 33.99500
N  42.51900 38.44100 26.09000
C  42.72300 37.61200 27.18500
C  43.22700 36.33400 26.76400
C  43.33800 36.34500 25.35800
C  42.81500 37.71800 24.90300
C  43.66800 35.22900 27.83100
C  43.82500 35.36000 24.30500
O  43.69800 35.40300 23.09000
C  44.49600 34.08100 24.82800
N  41.76800 40.58600 24.03000
C  42.09900 39.53800 23.25200
C  42.05400 39.89400 21.78500
C  41.30200 41.24900 21.79000
C  41.26400 41.61000 23.25500
C  43.44200 39.93700 20.95800
C  39.90200 41.15100 21.17500
C  38.92900 40.10400 21.84600
N  41.05500 42.33000 26.16600
C  40.81500 43.21600 25.14300
C  40.37000 44.49900 25.65900
C  40.34500 44.29300 27.02800
C  40.76200 42.96700 27.31200
C  40.06500 45.71800 24.88000
C  40.10500 44.88500 28.21400
O  39.89600 46.08500 28.43600
C  40.12700 43.80700 29.37100
C  41.02200 44.24000 30.53000
O  42.23100 44.46600 30.45900
O  40.30500 44.43000 31.61900
C  41.02500 44.98700 32.73900
H  42.72800 37.38600 29.29500
H  42.93900 37.56200 22.80100
H  40.77400 43.65400 23.07000
H  41.50400 41.54600 31.41900
H  41.19600 38.66700 30.88800
H  43.24600 40.30600 31.99100
H  43.94000 39.50200 30.64300
H  43.31800 38.47400 31.92700
H  39.11200 40.08200 30.56300
H  39.18800 41.72800 31.27300
H  40.31600 39.73700 33.11800
H  38.67300 39.41800 32.58200
H  43.70500 35.62400 28.84700
H  44.69300 34.93900 27.59800
H  43.02900 34.35800 27.68700
H  45.05600 33.59900 24.02700
H  43.62400 33.47400 25.07100
H  45.03900 34.21900 25.76300
H  41.50100 39.12500 21.24500
H  41.95100 42.00600 21.34900
H  43.73800 40.92600 20.60600
H  43.36300 39.35500 20.03900
H  44.11700 39.44600 21.65900
H  40.00300 40.84500 20.13300
H  39.48600 42.15500 21.09200
H  38.49900 39.54800 21.01300
H  38.03400 40.57600 22.25200
H  39.41300 39.42000 22.54300
H  40.80400 46.51700 24.82100
H  39.20900 46.13200 25.41100
H  39.80700 45.37700 23.87700
H  39.08600 43.68800 29.66900
H  41.48100 44.15100 33.27000
H  40.29900 45.50700 33.36400
H  41.83000 45.70300 32.58000

