158

Mg 16.10900 -1.56900 28.61300
C  15.07000 0.15700 31.53500
C  18.19300 -3.30600 30.63100
C  17.43000 -3.04200 25.92200
C  14.39100 0.61500 26.63200
N  16.51200 -1.61000 30.84700
C  15.93400 -0.87400 31.80600
C  16.50700 -1.18700 33.20400
C  17.55700 -2.33400 32.82300
C  17.41200 -2.43800 31.33500
C  19.04400 -2.07100 33.33700
C  15.37500 -1.56400 34.20700
C  15.33500 -0.80600 35.59300
H  16.69500 -0.40000 36.25200
N  17.46900 -3.06500 28.32900
C  18.22300 -3.66600 29.28200
C  19.23100 -4.51700 28.69300
C  19.04400 -4.46700 27.32700
C  17.92200 -3.51700 27.13700
C  20.13200 -5.23500 29.57900
C  19.67500 -5.27600 26.17000
O  19.39100 -5.13100 24.96900
C  20.57100 -6.39800 26.47200
N  15.97200 -1.16600 26.57800
C  16.62000 -1.91000 25.63500
C  16.39700 -1.33100 24.21900
C  15.16600 -0.41600 24.49600
C  15.16400 -0.34000 25.96900
C  17.66000 -0.73400 23.56000
C  13.81000 -0.92000 24.01800
C  13.37900 -0.45500 22.63600
N  14.89200 0.07500 28.92300
C  14.21000 0.86100 28.02200
C  13.39500 1.77400 28.71100
C  13.69100 1.56200 30.08300
C  14.55100 0.49400 30.23400
C  12.55700 2.77600 28.08100
C  13.39800 2.02800 31.45000
O  12.61400 2.83700 31.90700
C  14.33500 1.11800 32.40200
C  15.24400 2.07600 33.00100
O  16.34500 2.34400 32.57300
O  14.78100 2.60900 34.18800
C  15.69900 3.33600 35.05700
H  18.90800 -3.83200 31.26700
H  17.86000 -3.53100 25.04500
H  13.80100 1.30600 26.02600
H  17.06100 -0.33600 33.60000
H  17.18300 -3.25300 33.27500
H  19.37800 -2.75300 34.11800
H  19.14600 -1.11200 33.84400
H  19.82900 -2.27200 32.60700
H  15.43600 -2.60700 34.51700
H  14.40100 -1.50500 33.72100
H  14.90900 -1.58500 36.22500
H  14.64300 0.02900 35.48000
H  20.74800 -4.60300 30.21900
H  20.85100 -5.77700 28.96500
H  19.56700 -6.01300 30.09200
H  19.99500 -7.02300 27.15400
H  21.54500 -6.06800 26.83300
H  20.63000 -7.05000 25.60000
H  16.06300 -2.09300 23.51400
H  15.51300 0.58600 24.24500
H  18.48100 -0.78000 24.27600
H  17.58600 0.32800 23.32500
H  17.99100 -1.24700 22.65700
H  12.99000 -0.59500 24.65900
H  13.81300 -2.00900 24.00300
H  13.92000 0.44300 22.33600
H  12.32800 -0.20700 22.78600
H  13.47600 -1.28300 21.93500
H  11.79900 2.30800 27.45300
H  13.08900 3.45300 27.41300
H  12.04400 3.32800 28.86800
H  13.65100 0.70900 33.14600
H  15.63300 4.40000 34.82900
H  16.75100 3.05100 35.02300
H  15.31200 3.31600 36.07600
Mg 36.32900 49.47500 24.95700
C  36.18800 47.57600 27.98900
C  34.98300 52.10800 26.64000
C  36.12700 51.25100 22.12800
C  37.38200 46.63900 23.31300
N  35.79800 49.73900 27.04800
C  35.94500 48.89900 28.10200
C  35.59300 49.60800 29.38500
C  34.95800 50.93900 28.91400
C  35.34300 50.96600 27.46000
C  33.36200 51.04300 29.27700
C  36.80200 49.77300 30.39400
C  36.62400 49.64900 31.89300
H  35.18600 49.72100 32.40000
N  35.47800 51.40600 24.42500
C  35.06500 52.38200 25.28900
C  34.79400 53.61600 24.58200
C  35.18600 53.37200 23.23300
C  35.58100 51.95800 23.20700
C  34.04200 54.78500 25.15500
C  35.11900 54.41100 22.00800
O  35.41500 54.04700 20.88300
C  34.63100 55.85700 22.15900
N  36.69000 48.97200 22.98400
C  36.54800 49.90600 21.99900
C  36.79800 49.22300 20.61800
C  37.41200 47.79600 21.01400
C  37.17500 47.76100 22.54400
C  35.54900 49.22500 19.72300
C  38.95700 47.61300 20.69900
C  39.97300 48.61000 21.45500
N  36.80100 47.51000 25.48400
C  37.18100 46.46600 24.67200
C  37.27700 45.27700 25.50800
C  36.82500 45.66600 26.76000
C  36.49300 46.97400 26.72000
C  37.73100 43.85300 24.98200
C  36.63900 45.22900 28.13700
O  36.83400 44.12500 28.59700
C  36.29100 46.48900 29.00600
C  35.01400 46.14900 29.67600
O  33.86700 46.26100 29.20000
O  35.33400 45.49400 30.85000
C  34.21600 45.04700 31.71400
H  34.60400 52.96300 27.20500
H  36.13000 51.82000 21.19600
H  37.60900 45.69600 22.81100
H  34.93300 49.03200 30.03300
H  35.47000 51.78200 29.37800
H  32.76100 51.10500 28.36900
H  33.20300 51.96100 29.84300
H  33.05900 50.16900 29.85300
H  37.35800 50.70400 30.28600
H  37.55200 49.03600 30.10700
H  37.22900 50.50200 32.20400
H  37.16400 48.82900 32.36700
H  32.96400 54.76400 24.99800
H  34.37500 55.77600 24.84700
H  34.16300 54.84300 26.23700
H  34.57700 56.43600 21.23700
H  35.29400 56.40000 22.83200
H  33.71400 55.78700 22.74500
H  37.56200 49.77200 20.06700
H  36.94300 46.97900 20.46500
H  35.62400 49.79200 18.79500
H  34.68800 49.68100 20.21100
H  35.27100 48.23200 19.37000
H  39.11900 47.84600 19.64700
H  39.10700 46.55300 20.90200
H  40.06200 48.42600 22.52600
H  39.62700 49.63800 21.34500
H  40.96000 48.56500 20.99400
H  38.53500 43.97200 24.25600
H  36.84700 43.39500 24.53800
H  38.11600 43.36600 25.87700
H  37.05500 46.72000 29.74800
H  33.39100 45.75600 31.78800
H  34.67100 44.93000 32.69700
H  33.93300 44.09700 31.26200

