158

Mg 54.06500 23.97000 44.17100
C  51.28700 26.13300 43.26900
C  52.31000 21.47100 42.42400
C  56.68700 22.10100 44.34700
C  55.90600 26.86200 45.07600
N  52.07600 23.89700 42.92600
C  51.14700 24.85600 42.69100
C  50.08800 24.27300 41.77300
C  50.18600 22.74000 41.97300
C  51.65200 22.69100 42.34400
C  49.24700 22.20200 43.12400
C  50.03800 24.78400 40.29000
C  51.37700 25.18900 39.77300
H  51.39900 25.93500 38.45500
N  54.41700 22.06800 43.61500
C  53.54200 21.18900 43.02300
C  54.17300 19.91300 43.02200
C  55.41500 19.97200 43.70500
C  55.52600 21.35100 44.00200
C  53.56200 18.58700 42.52500
C  56.35600 18.78500 44.15100
O  56.10200 17.64000 43.81200
C  57.69300 19.10600 44.85900
N  56.07200 24.41700 44.59700
C  56.97300 23.44700 44.61100
C  58.35600 24.03300 45.00600
C  58.09500 25.62700 44.99800
C  56.62500 25.65400 44.88600
C  58.84500 23.53400 46.35600
C  58.83300 26.35100 43.87800
C  60.04200 27.20100 44.26900
N  53.73400 26.05300 44.24200
C  54.52700 27.05700 44.74000
C  53.71900 28.32300 44.78700
C  52.51000 27.95500 44.19800
C  52.53600 26.61900 43.91900
C  54.14400 29.61000 45.30500
C  51.23200 28.50400 43.80600
O  50.77400 29.57400 43.79900
C  50.39800 27.29900 43.28800
C  49.77300 27.70500 41.97700
O  50.37100 28.06800 40.96800
O  48.40400 27.56400 41.97800
C  47.64500 28.38000 41.04400
H  51.89000 20.61600 41.88900
H  57.54900 21.43600 44.42400
H  56.37400 27.81200 45.34200
H  49.07800 24.53900 42.08600
H  49.91100 22.26200 41.03300
H  48.85800 21.25100 42.75800
H  48.35100 22.73700 43.43700
H  49.88600 21.84800 43.93300
H  49.43400 25.68400 40.17200
H  49.62100 24.06500 39.58300
H  51.97600 24.28100 39.69100
H  51.88900 25.85500 40.46800
H  53.77400 17.75500 43.19700
H  53.87000 18.45400 41.48900
H  52.47600 18.56100 42.43800
H  58.11700 18.13600 45.11700
H  57.42900 19.71300 45.72600
H  58.31000 19.59300 44.10400
H  59.05900 23.80400 44.20500
H  58.28600 25.99000 46.00800
H  58.89800 22.45400 46.21600
H  58.12800 23.74800 47.14800
H  59.70500 24.13600 46.64800
H  58.05800 27.03200 43.52500
H  59.11200 25.66000 43.08300
H  60.31800 27.10900 45.31900
H  59.86500 28.24700 44.01600
H  60.90500 26.79700 43.73900
H  54.10200 29.64700 46.39300
H  53.50300 30.34900 44.82400
H  55.16900 29.70600 44.94600
H  49.63000 27.27200 44.06000
H  48.00500 29.40800 40.98700
H  46.62900 28.53500 41.40700
H  47.61700 28.01800 40.01700
Mg -2.33700 34.41500 25.82300
C  -3.94800 32.51400 28.32600
C  -0.75000 36.03400 28.35200
C  -1.17600 36.50300 23.50600
C  -4.42900 32.85500 23.49800
N  -2.52600 34.37900 28.08000
C  -3.03300 33.42900 28.88800
C  -2.65200 33.65300 30.37000
C  -1.86000 34.99000 30.30300
C  -1.77900 35.19500 28.80100
C  -2.38500 36.14100 31.24300
C  -1.84400 32.46100 31.07200
C  -2.36300 31.95000 32.39600
H  -1.49200 32.12000 33.72800
N  -1.08200 35.93700 25.88000
C  -0.43100 36.44700 27.03700
C  0.60800 37.38200 26.56100
C  0.45500 37.58200 25.13200
C  -0.66700 36.65600 24.78800
C  1.54000 38.07900 27.47500
C  1.32300 38.37500 24.12600
O  1.19500 38.24700 22.95800
C  2.56200 39.14600 24.64500
N  -3.13300 34.95400 23.75200
C  -2.24900 35.72900 23.00000
C  -2.64300 35.58100 21.49400
C  -3.37200 34.21300 21.51700
C  -3.68600 33.94500 23.00500
C  -3.32900 36.83200 20.97500
C  -2.51500 33.02600 20.82600
C  -1.58900 32.25100 21.74400
N  -3.95900 33.01300 25.84500
C  -4.57200 32.38700 24.85100
C  -5.39600 31.30500 25.36100
C  -5.09000 31.30200 26.75600
C  -4.29600 32.41200 26.99000
C  -6.07000 30.20700 24.61000
C  -5.30600 30.53200 27.97300
O  -5.96800 29.50700 28.20600
C  -4.64800 31.32100 29.09100
C  -5.75900 31.79500 29.97900
O  -6.74500 32.37600 29.53000
O  -5.52900 31.50600 31.31300
C  -6.63400 31.92700 32.19600
H  -0.25200 36.54700 29.17800
H  -0.82000 37.11100 22.67200
H  -4.85500 32.14200 22.78900
H  -3.60900 33.81300 30.86500
H  -0.82200 34.84500 30.60200
H  -2.86000 36.95200 30.69000
H  -1.46600 36.50300 31.70500
H  -3.13800 35.73700 31.91900
H  -0.86700 32.91700 31.22700
H  -1.68800 31.65100 30.35900
H  -2.57700 30.89100 32.24800
H  -3.23400 32.51600 32.72700
H  1.55200 37.72500 28.50600
H  1.43700 39.16400 27.48900
H  2.57800 37.91200 27.18900
H  2.98000 39.82100 23.89800
H  3.17800 38.34800 25.06100
H  2.20100 39.82800 25.41500
H  -1.69800 35.56500 20.95000
H  -4.32000 34.23500 20.97900
H  -3.82800 37.33400 21.80500
H  -4.13300 36.57100 20.28700
H  -2.71400 37.60400 20.51300
H  -1.87700 33.40000 20.02500
H  -3.24900 32.33000 20.42000
H  -2.14200 31.33600 21.95400
H  -1.38700 32.74400 22.69500
H  -0.65100 32.01600 21.24200
H  -6.75500 30.70000 23.91900
H  -6.68200 29.76400 25.39600
H  -5.38400 29.50500 24.13700
H  -4.00100 30.67500 29.68300
H  -6.48800 32.89600 32.67400
H  -6.68800 31.10800 32.91200
H  -7.61000 31.86300 31.71300

