158

Mg 29.68400 60.10000 40.13100
C  26.64700 58.60800 39.01900
C  31.25900 57.23000 38.85800
C  32.66500 61.69400 40.08800
C  27.99000 62.85400 40.88800
N  29.02500 58.19800 39.01800
C  27.75000 57.79500 38.64100
C  27.67000 56.41200 37.92600
C  29.09900 55.85700 38.40700
C  29.84900 57.18700 38.71400
C  29.05700 54.88200 39.60700
C  27.47800 56.46500 36.35900
C  26.21600 55.69400 35.92500
H  25.68400 55.98300 34.54200
N  31.75100 59.47800 39.64800
C  32.11100 58.27300 39.20400
C  33.54600 58.15500 39.22900
C  34.03100 59.49600 39.63600
C  32.86800 60.28800 39.83300
C  34.30700 56.93700 38.95400
C  35.49700 59.90000 39.87200
O  36.42300 59.12700 39.49900
C  35.83200 61.16500 40.41500
N  30.25300 62.10900 40.25400
C  31.53500 62.51300 40.27800
C  31.54100 64.04500 40.62900
C  30.03400 64.40000 40.90700
C  29.38200 63.03800 40.68300
C  32.48900 64.37900 41.85700
C  29.40100 65.57400 40.10500
C  28.98800 66.75900 40.97400
N  27.78600 60.57300 40.06800
C  27.16400 61.74100 40.56500
C  25.77900 61.59300 40.59400
C  25.54300 60.34600 40.04700
C  26.73800 59.78100 39.73400
C  24.70500 62.54600 41.00800
C  24.46700 59.45600 39.60500
O  23.28900 59.56200 39.76700
C  25.13000 58.30100 38.81700
C  24.64900 57.12800 39.50700
O  25.09100 56.67400 40.56800
O  23.70200 56.53400 38.80100
C  23.06900 55.33300 39.39300
H  31.65600 56.25100 38.58300
H  33.60300 62.23800 40.21700
H  27.33800 63.66400 41.22200
H  26.89000 55.71300 38.22600
H  29.72500 55.31300 37.69900
H  28.04600 54.71400 39.97600
H  29.57500 55.30400 40.46800
H  29.46900 53.91300 39.32600
H  28.33300 56.06700 35.81300
H  27.27400 57.49100 36.05600
H  25.45300 56.11600 36.58000
H  26.29300 54.61500 36.06300
H  34.76900 56.77300 37.98100
H  33.87700 55.99200 39.28700
H  35.06500 56.99400 39.73600
H  36.89900 61.03500 40.59700
H  35.18900 61.17800 41.29400
H  35.58500 61.92600 39.67500
H  31.80400 64.54300 39.69600
H  29.82600 64.56200 41.96500
H  31.87600 64.84100 42.63100
H  33.15400 65.15100 41.46800
H  33.01800 63.48700 42.19400
H  28.60400 65.21800 39.45100
H  30.14800 66.07100 39.48600
H  28.03800 66.61100 41.48800
H  28.88200 67.67700 40.39700
H  29.66300 66.81000 41.82800
H  24.48200 63.29600 40.24900
H  25.07300 63.05900 41.89600
H  23.74800 62.12700 41.32000
H  24.86000 58.23200 37.76300
H  22.09900 55.67400 39.75500
H  23.47500 54.96900 40.33800
H  22.99800 54.53500 38.65400
Mg 15.62600 52.24400 26.00800
C  17.66700 51.22400 28.58500
C  13.01700 52.64100 28.02700
C  13.73200 52.72300 23.28900
C  18.34300 51.13400 23.79200
N  15.35600 51.90400 28.04500
C  16.33400 51.70500 28.95100
C  15.80400 51.96000 30.38300
C  14.26100 52.10200 30.15900
C  14.16700 52.25400 28.69200
C  13.47500 50.91400 30.58800
C  16.42700 53.20100 30.99300
C  16.65200 53.13900 32.60700
H  16.03200 52.07700 33.40600
N  13.67200 52.76300 25.74800
C  12.71900 52.88900 26.67700
C  11.49500 53.41400 26.14000
C  11.59100 53.36100 24.74300
C  13.08800 52.94700 24.48900
C  10.27300 53.69600 27.01300
C  10.46100 53.50900 23.66700
O  10.58500 53.26300 22.50400
C  9.05600 53.93200 24.07500
N  15.99900 52.02900 23.81700
C  15.02300 52.36200 22.95700
C  15.52800 52.26100 21.51500
C  17.04400 51.86600 21.66400
C  17.16400 51.72700 23.21000
C  14.73400 51.30700 20.54100
C  18.05500 52.89300 21.05700
C  19.26100 52.27700 20.22400
N  17.55300 51.25500 26.09900
C  18.59400 51.01700 25.16400
C  19.75800 50.49300 25.82300
C  19.43500 50.53200 27.19300
C  18.08700 51.00100 27.29300
C  21.03500 50.10400 25.07900
C  19.91000 50.27400 28.52100
O  21.06800 49.98200 28.87200
C  18.77100 50.72600 29.47800
C  18.41100 49.49800 30.24200
O  17.90900 48.49200 29.72500
O  18.66500 49.66300 31.56400
C  18.20300 48.63800 32.48600
H  12.22800 53.00100 28.69100
H  13.13200 52.91900 22.39800
H  19.20100 51.04600 23.12300
H  15.99900 51.10700 31.03300
H  13.89300 53.03100 30.59600
H  12.72200 51.16900 31.33400
H  14.09600 50.09100 30.94200
H  12.89700 50.48300 29.77000
H  15.88300 54.11800 30.76600
H  17.43300 53.18500 30.57500
H  16.31800 54.10700 32.98100
H  17.73100 53.06100 32.74000
H  10.41300 53.68500 28.09400
H  9.50000 52.93300 26.92000
H  9.87500 54.66100 26.70000
H  9.05500 54.99900 24.29400
H  8.61400 53.38900 24.91000
H  8.52400 53.70200 23.15100
H  15.46900 53.29400 21.17100
H  17.20800 50.94300 21.10800
H  13.80500 51.02800 21.03900
H  15.36600 50.45900 20.27600
H  14.49300 51.86700 19.63800
H  18.43900 53.56100 21.82700
H  17.54100 53.44600 20.27100
H  19.35900 51.19700 20.32800
H  20.12600 52.69200 20.74100
H  19.34100 52.63000 19.19600
H  21.16700 50.63700 24.13800
H  21.02000 49.02500 24.92500
H  21.84800 50.30500 25.77600
H  19.22000 51.36300 30.24000
H  18.81000 47.73300 32.50500
H  17.23400 48.30200 32.11600
H  17.96400 49.01000 33.48200

