158

Mg 53.66900 23.74800 44.79800
C  51.19300 26.26800 44.14900
C  51.53800 21.52800 43.18500
C  56.02700 21.70000 45.19200
C  55.53900 26.26100 46.27100
N  51.69300 23.99800 43.64300
C  50.93900 25.12400 43.41900
C  49.82500 24.71900 42.42800
C  49.76000 23.23400 42.58400
C  51.10300 22.88000 43.08600
C  48.49500 22.60400 43.36200
C  50.23200 25.17900 41.02600
C  49.09100 25.41500 40.08000
H  49.41900 25.86900 38.67100
N  53.75900 21.81500 44.31000
C  52.79100 21.03400 43.78100
C  53.21700 19.66600 43.87400
C  54.49500 19.65700 44.49900
C  54.84900 21.12100 44.74100
C  52.39600 18.56100 43.35300
C  55.33700 18.35500 44.79500
O  54.91000 17.21900 44.51500
C  56.62700 18.35300 45.39600
N  55.62600 24.05200 45.27500
C  56.44700 22.97400 45.41900
C  57.88500 23.37100 45.81600
C  57.65500 24.87600 46.21900
C  56.16900 25.06500 45.91400
C  58.64000 22.58400 46.94000
C  58.62500 25.75600 45.38100
C  59.66300 26.67200 46.17300
N  53.47000 25.90600 45.15200
C  54.29200 26.70300 45.88500
C  53.71000 28.07300 45.94400
C  52.46600 27.92000 45.27200
C  52.35300 26.55100 44.90600
C  54.32600 29.20200 46.73300
C  51.29400 28.64200 44.92200
O  50.97600 29.79700 45.05100
C  50.39800 27.57900 44.22200
C  49.95900 28.12400 42.95900
O  50.68600 28.67300 42.12300
O  48.58600 27.96200 42.80700
C  48.07700 28.80300 41.70600
H  50.86700 20.84500 42.66100
H  56.74000 20.88100 45.30400
H  56.15000 27.08300 46.64900
H  48.87500 25.09800 42.80400
H  49.64900 22.79000 41.59400
H  47.72200 23.36900 43.43700
H  48.80900 22.26400 44.34900
H  48.05400 21.73400 42.87600
H  51.02200 24.55600 40.60700
H  50.77800 26.11900 41.11800
H  48.50100 26.20300 40.54900
H  48.49700 24.50800 39.96800
H  52.38800 18.52800 42.26400
H  51.35400 18.76200 43.60400
H  52.57700 17.62000 43.87300
H  56.46500 18.74600 46.40000
H  57.11700 19.01300 44.68100
H  57.01500 17.34000 45.50100
H  58.47300 23.18100 44.91800
H  57.80400 24.99800 47.29100
H  58.71200 23.08700 47.90400
H  59.61700 22.33100 46.52700
H  58.09300 21.65300 47.08700
H  58.04600 26.52600 44.87100
H  59.07600 25.15600 44.59100
H  60.69500 26.37400 45.99200
H  59.44500 26.88800 47.21900
H  59.57800 27.63800 45.67500
H  54.96900 29.83500 46.12100
H  54.78900 28.76400 47.61700
H  53.41100 29.66500 47.10300
H  49.50600 27.40200 44.82300
H  48.15400 28.34700 40.71900
H  48.50000 29.80600 41.63800
H  47.01700 29.05200 41.75700
Mg 46.72700 25.01600 28.71300
C  47.31200 27.45900 31.21200
C  45.67000 22.85200 31.12500
C  46.36500 22.77500 26.37500
C  48.40300 27.16800 26.43700
N  46.30300 25.22000 30.89100
C  46.54600 26.34700 31.68300
C  46.19100 26.09600 33.09600
C  45.96000 24.50700 33.10900
C  45.94000 24.13100 31.59400
C  46.96700 23.69900 33.85800
C  44.84400 26.83000 33.48500
C  44.52900 27.29000 34.96100
H  45.26100 26.52200 36.15800
N  45.99700 23.18000 28.72500
C  45.58400 22.43400 29.77200
C  45.05000 21.15300 29.34800
C  45.14300 21.11200 27.95700
C  45.84700 22.42900 27.63200
C  44.53200 20.17800 30.30200
C  44.68900 20.08400 26.88100
O  44.72000 20.27200 25.69100
C  44.13100 18.80900 27.34100
N  47.23000 25.01400 26.55900
C  47.06400 23.88200 25.89500
C  47.39300 24.09200 24.42300
C  47.99800 25.58100 24.45000
C  47.94800 25.98700 25.89700
C  48.30600 23.07300 23.76600
C  47.28600 26.52500 23.46900
C  45.84100 26.93200 23.88300
N  47.79000 26.81200 28.75500
C  48.32600 27.54000 27.78000
C  48.71700 28.78600 28.23600
C  48.43200 28.76400 29.58100
C  47.80100 27.55600 29.86000
C  49.08100 30.02400 27.46100
C  48.28000 29.64500 30.78400
O  48.64700 30.80400 30.90400
C  47.71700 28.72200 31.90000
C  48.70700 28.50700 32.89400
O  49.63900 27.70900 32.84300
O  48.46800 29.36800 34.02200
C  49.37900 29.21700 35.19000
H  45.40500 22.14000 31.90900
H  46.34500 22.11900 25.50300
H  48.84200 27.83000 25.68700
H  47.00400 26.37500 33.76700
H  44.95600 24.32200 33.49100
H  47.76800 24.42200 34.01100
H  47.20800 22.67700 33.56400
H  46.58600 23.46600 34.85200
H  43.99400 26.25900 33.11000
H  44.79500 27.80600 33.00300
H  43.50600 26.95800 35.13900
H  44.56300 28.37900 34.95900
H  44.27300 19.21100 29.87200
H  43.68200 20.60800 30.83200
H  45.32400 20.02800 31.03500
H  44.83300 18.16800 27.87300
H  43.81500 18.17800 26.51000
H  43.31300 19.02800 28.02800
H  46.45900 24.07400 23.86200
H  49.07100 25.62000 24.26300
H  48.72700 22.36700 24.48200
H  49.14300 23.51100 23.22200
H  47.73900 22.46800 23.05900
H  47.18100 25.92100 22.56800
H  47.96600 27.34200 23.22900
H  45.13800 26.73900 23.07200
H  45.75400 28.01300 23.99300
H  45.49100 26.43800 24.78900
H  48.47400 29.85200 26.57200
H  50.12400 29.95600 27.15000
H  48.91600 30.95500 28.00200
H  46.84100 29.14800 32.38900
H  48.76800 28.77100 35.97600
H  49.73500 30.20200 35.49300
H  50.22400 28.54200 35.05400

