158

Mg 47.63700 16.11900 28.98900
C  45.54300 15.96000 31.71000
C  49.60400 18.25000 30.90400
C  49.70000 16.49200 26.35400
C  45.18100 14.67200 26.96200
N  47.65700 16.88300 31.07300
C  46.65900 16.66200 31.99100
C  46.95600 17.26300 33.38300
C  48.07000 18.30400 32.94400
C  48.46600 17.87900 31.54700
C  47.61200 19.79400 32.83300
C  47.44700 16.18200 34.37600
C  47.49900 16.62500 35.81100
H  47.26400 18.12700 36.30900
N  49.41200 17.12300 28.72700
C  50.03600 17.96600 29.56100
C  51.31700 18.39800 29.08300
C  51.44800 17.80500 27.75100
C  50.18700 17.09400 27.54800
C  52.45600 19.10200 29.87700
C  52.64300 17.74100 26.79000
O  52.63900 17.11300 25.75100
C  53.86600 18.49300 27.15800
N  47.51100 15.63300 26.95100
C  48.46000 15.85400 26.05000
C  48.11800 15.32400 24.61800
C  46.70000 14.60800 24.83800
C  46.41500 15.04600 26.32100
C  47.94000 16.49600 23.56800
C  46.76000 13.10200 24.53000
C  47.49100 12.12200 25.49200
N  45.75700 15.47400 29.18700
C  44.86400 14.78800 28.31200
C  43.72800 14.38800 29.05300
C  43.98300 14.73000 30.42000
C  45.20800 15.43100 30.47400
C  42.49500 13.75400 28.43100
C  43.44700 14.67200 31.73200
O  42.35500 14.24600 32.15700
C  44.42900 15.49700 32.64900
C  43.66900 16.56600 33.38200
O  43.34100 17.69000 32.98700
O  43.42400 16.13600 34.68000
C  42.87800 17.10500 35.64700
H  50.27200 18.93800 31.42600
H  50.37500 16.52600 25.49600
H  44.42400 14.16800 26.35800
H  46.06400 17.74800 33.77700
H  48.94200 18.27300 33.59700
H  47.42100 20.05400 31.79200
H  48.43300 20.47000 33.07400
H  46.73300 20.05700 33.42100
H  48.44400 15.83400 34.10500
H  46.74000 15.36100 34.49200
H  48.56600 16.57600 36.03100
H  46.84700 15.97200 36.39100
H  53.22600 18.47800 30.33100
H  52.07600 19.62500 30.75400
H  52.86500 19.84000 29.18800
H  54.31100 18.26100 28.12500
H  53.82000 19.58000 27.21600
H  54.67700 18.35700 26.44300
H  48.86200 14.62600 24.23400
H  45.83700 15.03200 24.32500
H  47.92800 16.17300 22.52700
H  48.92100 16.97000 23.54700
H  47.18500 17.24200 23.81600
H  47.28400 13.00300 23.57900
H  45.70800 12.82400 24.47800
H  47.71500 12.56100 26.46500
H  48.30000 11.53500 25.05700
H  46.80300 11.33800 25.80900
H  42.13700 14.33100 27.57900
H  41.64100 13.80500 29.10500
H  42.70200 12.75400 28.04900
H  44.82200 14.72800 33.31300
H  42.02700 17.62100 35.20300
H  43.55500 17.88800 35.98800
H  42.66400 16.60800 36.59300
Mg 26.86800 49.73700 26.98300
C  24.79200 50.84400 29.50200
C  29.25300 48.94300 29.30800
C  29.01300 49.03600 24.39800
C  24.67400 51.24100 24.56700
N  27.02200 49.83500 29.13800
C  25.94200 50.13500 29.98100
C  26.23300 49.98600 31.51800
C  27.80200 49.52300 31.39400
C  28.05000 49.41600 29.88400
C  28.92800 50.43400 32.06900
C  25.27100 48.94400 32.08700
C  24.60700 49.45900 33.44600
H  24.43300 48.49800 34.60300
N  28.79200 48.90300 26.87900
C  29.60700 48.58400 27.95600
C  30.81700 48.07700 27.42700
C  30.81400 48.21600 26.02500
C  29.45100 48.66400 25.67100
C  31.94000 47.61000 28.34700
C  31.88100 47.94300 25.03900
O  31.75300 48.02600 23.81600
C  33.22700 47.56600 25.54900
N  26.85500 50.04700 24.79600
C  27.87000 49.67300 23.99600
C  27.44000 49.90100 22.46600
C  25.99700 50.47400 22.56600
C  25.81600 50.59400 24.07300
C  28.46200 50.64800 21.50900
C  24.85800 49.69200 21.83200
C  24.62900 48.28600 22.38400
N  25.14000 50.88700 27.02100
C  24.31500 51.45900 25.97200
C  23.22800 52.13900 26.51800
C  23.38400 51.91800 27.87600
C  24.44400 51.07500 28.12000
C  22.25600 52.95500 25.77300
C  22.81500 52.21700 29.18600
O  21.84300 52.90400 29.37800
C  23.63000 51.57300 30.28200
C  24.01200 52.56000 31.27500
O  24.93800 53.36200 31.19400
O  23.13600 52.47100 32.35600
C  23.37600 53.43400 33.43700
H  29.96700 48.64000 30.07700
H  29.58300 48.64900 23.55100
H  23.93700 51.62000 23.85700
H  26.18900 50.96500 31.99600
H  27.96800 48.58500 31.92300
H  29.55800 50.92300 31.32700
H  29.56400 49.77700 32.66200
H  28.40800 51.14500 32.71200
H  25.78900 48.06200 32.46500
H  24.54500 48.68500 31.31600
H  23.64500 49.91600 33.21100
H  25.19700 50.27900 33.85500
H  32.90200 48.08700 28.16000
H  32.14700 46.54200 28.27700
H  31.61700 47.73100 29.38100
H  33.99900 47.41100 24.79500
H  33.07300 46.63100 26.08700
H  33.56300 48.30900 26.27200
H  27.40600 48.92400 21.98200
H  26.00600 51.53300 22.30600
H  28.04100 51.38400 20.82400
H  28.91300 49.94800 20.80600
H  29.23500 51.20500 22.03800
H  25.06000 49.54500 20.77100
H  23.96300 50.30700 21.92900
H  25.33600 48.05900 23.18200
H  24.73800 47.46100 21.68100
H  23.61600 48.24700 22.78500
H  21.32800 52.40800 25.94100
H  22.38200 53.07400 24.69700
H  22.18700 53.91600 26.28300
H  22.95600 50.80700 30.66400
H  23.47000 54.48800 33.17400
H  24.30300 53.06500 33.87700
H  22.57400 53.37400 34.17300

