158

Mg 35.36600 2.12700 30.22600
C  33.12400 3.25500 32.64500
C  37.91900 2.15900 32.44600
C  37.51000 1.21100 27.69200
C  32.99700 2.71400 27.84700
N  35.47000 2.73300 32.24500
C  34.43200 3.05900 33.11600
C  34.83300 2.84000 34.55400
C  36.38200 2.91900 34.41400
C  36.66600 2.62400 32.90100
C  37.04100 4.30900 34.82400
C  34.23100 1.48600 35.10700
C  33.81700 1.55800 36.58400
H  34.61300 2.48400 37.57300
N  37.38600 1.61500 30.08100
C  38.24500 1.67600 31.12100
C  39.56600 1.20700 30.81600
C  39.49400 1.00000 29.41600
C  38.10100 1.23600 28.99700
C  40.69900 1.05200 31.83800
C  40.61500 0.68700 28.44000
O  40.41700 0.54900 27.24200
C  42.01300 0.45400 29.00900
N  35.35400 1.98100 28.06900
C  36.32700 1.61400 27.19600
C  35.84900 1.49000 25.72500
C  34.36700 1.97500 25.81600
C  34.22000 2.29100 27.32400
C  36.63300 2.43100 24.78500
C  33.33500 0.85600 25.34100
C  33.16700 0.54700 23.81600
N  33.48800 2.78400 30.14800
C  32.66800 3.03500 29.11200
C  31.32400 3.26600 29.61000
C  31.42500 3.39400 31.01500
C  32.80900 3.12400 31.28400
C  30.11000 3.49500 28.79200
C  30.67200 3.70200 32.27000
O  29.52600 4.07300 32.51600
C  31.85100 3.66200 33.36200
C  31.89100 4.92800 34.09200
O  32.23300 6.04300 33.74700
O  31.56500 4.48300 35.39300
C  32.04700 5.47800 36.36900
H  38.67300 2.33800 33.21500
H  38.06700 0.96400 26.78600
H  32.19300 2.79400 27.11200
H  34.54300 3.72900 35.11400
H  36.83000 2.17400 35.07200
H  36.33200 5.03200 35.22600
H  37.55800 4.76600 33.98000
H  37.66700 3.99500 35.65900
H  34.88900 0.61700 35.08400
H  33.39000 1.21900 34.46800
H  33.77900 0.57200 37.04700
H  32.75400 1.79500 36.54900
H  40.78400 -0.02400 31.98900
H  40.43000 1.61000 32.73400
H  41.48800 1.51200 31.24300
H  42.11500 -0.11900 29.93100
H  42.53400 1.40300 29.13700
H  42.51500 -0.11800 28.22800
H  35.79200 0.43800 25.44800
H  34.18300 2.89300 25.25700
H  37.34300 3.04200 25.34200
H  35.97500 3.00000 24.12800
H  37.23800 1.86200 24.07900
H  32.35300 0.97800 25.79800
H  33.67100 -0.12800 25.66600
H  33.76700 -0.33400 23.58800
H  33.61300 1.37700 23.26700
H  32.11800 0.32700 23.62100
H  29.39000 3.92100 29.49100
H  29.73100 2.57400 28.34900
H  30.37600 4.11700 27.93800
H  31.56100 2.80500 33.96900
H  32.03300 4.96200 37.32900
H  31.39900 6.35400 36.34600
H  33.08900 5.76500 36.22900
Mg 48.52700 34.39000 27.12800
C  46.67700 33.23400 29.95700
C  48.98500 37.30000 29.06200
C  49.96400 35.81700 24.46300
C  47.53600 31.71300 25.38700
N  47.92000 35.13000 29.34800
C  47.35900 34.43000 30.33000
C  47.56500 35.10400 31.73100
C  47.70900 36.58800 31.30300
C  48.24000 36.36700 29.82800
C  46.34600 37.36000 31.43400
C  48.77600 34.47000 32.44300
C  48.65700 34.16900 33.96000
H  47.69500 35.06900 34.75700
N  49.33000 36.29700 26.79900
C  49.45700 37.35000 27.73400
C  50.24500 38.44800 27.18400
C  50.54100 38.00800 25.76800
C  49.96000 36.65600 25.60400
C  50.78900 39.56900 27.92900
C  51.35100 38.75800 24.72200
O  51.50600 38.27100 23.62900
C  52.03000 40.02300 25.00000
N  48.63100 33.88300 25.13400
C  49.40800 34.51800 24.28900
C  49.50500 33.73000 22.98000
C  48.73100 32.41200 23.29700
C  48.27100 32.68700 24.73300
C  48.92900 34.39100 21.76900
C  49.63500 31.15200 23.22100
C  50.72500 31.06200 24.38300
N  47.25600 32.88900 27.49900
C  47.06300 31.79300 26.72100
C  46.29600 30.79300 27.49500
C  46.07500 31.38300 28.71700
C  46.69200 32.65300 28.70400
C  45.88600 29.45300 26.99000
C  45.47600 31.16100 30.01200
O  44.87700 30.22400 30.44600
C  45.65400 32.43600 30.79400
C  46.01500 32.02500 32.19000
O  47.12200 31.59300 32.50500
O  44.98900 32.28500 33.08100
C  45.06400 32.00900 34.49000
H  49.29200 38.21600 29.57100
H  50.36000 36.25900 23.54700
H  47.44400 30.82700 24.75600
H  46.60100 34.88100 32.18800
H  48.56600 37.02400 31.81600
H  45.64400 36.89000 32.12300
H  45.94400 37.55800 30.44100
H  46.51300 38.35400 31.84900
H  49.65800 35.07400 32.23100
H  48.96800 33.52900 31.92800
H  49.69700 34.18800 34.28800
H  48.29200 33.17000 34.19900
H  50.47900 39.74300 28.96000
H  50.68800 40.45900 27.30800
H  51.86700 39.41000 27.95800
H  52.56000 40.34600 24.10400
H  52.74600 39.95500 25.81900
H  51.19200 40.66900 25.26500
H  50.48700 33.28300 22.82400
H  47.78200 32.28200 22.77600
H  48.91100 35.46400 21.96400
H  48.01300 33.97700 21.34600
H  49.66700 34.16100 21.00100
H  50.11800 31.23700 22.24800
H  48.98800 30.27800 23.29700
H  50.38400 30.29400 25.07800
H  50.90700 31.91700 25.03500
H  51.62500 30.70800 23.88100
H  46.32200 29.22600 26.01700
H  44.82000 29.56000 26.79400
H  46.19300 28.67900 27.69300
H  44.62600 32.79300 30.85400
H  44.16500 31.53300 34.88300
H  45.27200 32.95600 34.99000
H  45.91200 31.35500 34.69400

