158

Mg 0.57500 7.72100 25.53300
C  1.30700 9.76200 28.29800
C  0.51600 5.09000 27.62200
C  0.27900 5.76300 22.71100
C  1.16600 10.59000 23.42200
N  0.97300 7.47300 27.61200
C  1.17600 8.42100 28.60300
C  1.18900 7.84700 30.05300
C  1.07100 6.32000 29.82400
C  0.74300 6.29200 28.25100
C  2.36700 5.37400 30.18400
C  0.07900 8.32800 30.98000
C  0.43200 8.46300 32.44500
H  1.70300 7.62200 32.83900
N  0.35200 5.69900 25.20300
C  0.42400 4.76500 26.24300
C  0.34300 3.43200 25.62100
C  0.19900 3.65000 24.16400
C  0.34200 5.06800 23.99900
C  0.27400 2.15900 26.44500
C  0.05700 2.54700 23.09800
O  0.08200 2.82800 21.89700
C  -0.06900 1.12900 23.48700
N  0.84800 8.04700 23.41100
C  0.47300 7.12700 22.50400
C  0.27800 7.71600 21.09600
C  0.33600 9.29400 21.44000
C  0.83100 9.38200 22.83100
C  1.29200 7.26400 20.06000
C  -1.04200 10.03100 21.49100
C  -1.16500 11.24100 20.59800
N  1.12700 9.73700 25.76700
C  1.25100 10.80700 24.85200
C  1.48900 12.04800 25.51300
C  1.40200 11.69800 26.84100
C  1.24400 10.29700 27.00100
C  1.80100 13.28600 24.90000
C  1.63300 12.28800 28.18900
O  1.87000 13.43800 28.53300
C  1.40300 11.07700 29.17400
C  2.66200 11.08400 30.03800
O  3.83400 10.94700 29.60400
O  2.31700 11.36500 31.38000
C  3.42200 11.19000 32.24400
H  0.29700 4.22800 28.25600
H  0.08200 5.25700 21.76400
H  1.20900 11.51100 22.83800
H  2.17900 8.11800 30.41900
H  0.25400 5.81700 30.34200
H  2.10400 4.58200 30.88600
H  3.12300 6.06600 30.55400
H  2.83400 4.86500 29.34200
H  -0.78600 7.68300 30.83000
H  -0.06900 9.33500 30.59000
H  -0.38900 8.33500 33.15000
H  0.81400 9.48400 32.48300
H  0.96700 1.37000 26.15300
H  -0.77400 1.86500 26.38400
H  0.60400 2.27100 27.47800
H  -0.21500 0.52300 22.59300
H  -0.94200 1.16200 24.13800
H  0.81400 0.70700 23.96800
H  -0.72000 7.51900 20.70500
H  1.00600 9.84800 20.78200
H  1.69800 6.26700 20.22600
H  2.15400 7.91100 19.89400
H  0.75900 7.24000 19.11000
H  -1.38000 10.19500 22.51400
H  -1.81700 9.30600 21.24500
H  -0.25300 11.47400 20.04800
H  -1.38900 12.09700 21.23500
H  -1.97100 11.13300 19.87300
H  1.37100 13.53200 23.92900
H  2.86800 13.31900 24.67900
H  1.44500 14.04400 25.59800
H  0.53300 11.37300 29.76100
H  3.93800 10.24500 32.07600
H  3.04100 11.13200 33.26300
H  4.21300 11.91000 32.03200
Mg 46.89700 16.31900 28.25400
C  45.03100 15.85200 31.16800
C  49.23800 17.99200 30.02200
C  48.30600 17.26500 25.30400
C  44.37900 14.69300 26.58200
N  46.99400 16.94400 30.34300
C  46.24800 16.51500 31.38700
C  46.89900 16.82900 32.76100
C  48.18200 17.71600 32.33700
C  48.14100 17.48800 30.82300
C  48.02400 19.18900 32.74500
C  47.15100 15.52600 33.60900
C  46.75300 15.53200 35.16900
H  46.34300 16.84600 35.85300
N  48.51100 17.48500 27.71500
C  49.43600 18.01400 28.62800
C  50.56300 18.59800 27.92800
C  50.30700 18.47900 26.58500
C  48.98200 17.73800 26.46900
C  51.61100 19.38000 28.72900
C  51.23100 18.88300 25.38700
O  50.92900 18.61400 24.20700
C  52.60100 19.52900 25.59200
N  46.39200 16.10100 26.26600
C  47.16000 16.53300 25.17600
C  46.64700 15.91200 23.86000
C  45.29500 15.34800 24.30900
C  45.38900 15.32200 25.82800
C  46.61100 16.92300 22.66400
C  44.96100 13.97500 23.75100
C  45.65100 12.72400 24.22100
N  45.09100 15.34200 28.71900
C  44.19000 14.68400 27.92800
C  43.04900 14.27500 28.70400
C  43.39900 14.64800 30.00500
C  44.59800 15.33400 29.96300
C  41.93400 13.60200 28.24900
C  42.93300 14.64800 31.36200
O  41.82500 14.22400 31.72900
C  43.98600 15.41300 32.13100
C  43.36600 16.54500 32.85900
O  43.36700 17.69100 32.46000
O  42.95100 16.14100 34.09800
C  42.29900 17.16500 34.96700
H  50.11700 18.26700 30.60900
H  48.76700 17.33400 24.31600
H  43.61500 14.17900 25.99500
H  46.12900 17.44800 33.22100
H  49.10700 17.35300 32.78600
H  46.99800 19.42000 33.03500
H  48.32700 19.93900 32.01400
H  48.70000 19.35000 33.58500
H  48.21300 15.29100 33.54400
H  46.65000 14.70700 33.09200
H  47.57400 15.05400 35.70300
H  45.86400 14.92500 35.34000
H  52.36600 19.85500 28.10200
H  52.08800 18.71300 29.44700
H  51.08300 20.19400 29.22600
H  53.28200 18.88200 26.14500
H  52.62800 20.40000 26.24700
H  53.02000 19.71000 24.60200
H  47.30000 15.09400 23.55300
H  44.50300 16.05500 24.06100
H  47.48600 16.67600 22.06300
H  46.69400 17.97500 22.93700
H  45.66600 16.75900 22.14600
H  45.03400 14.02800 22.66500
H  43.90300 13.85600 23.98300
H  45.35300 12.44600 25.23200
H  46.72600 12.90100 24.23600
H  45.46300 11.95700 23.46900
H  41.84700 13.79000 27.17900
H  41.07700 14.08400 28.71900
H  41.97000 12.57100 28.60100
H  44.37400 14.70500 32.86300
H  42.78000 18.14200 34.92100
H  42.04300 16.75400 35.94300
H  41.36300 17.31600 34.42900

