158

Mg 46.85900 17.29000 28.51300
C  45.09500 16.74100 31.55800
C  49.08200 19.20000 30.46900
C  48.34400 18.07500 25.66800
C  44.04500 16.00300 26.78300
N  47.08500 17.93600 30.68800
C  46.30900 17.45100 31.77500
C  47.00800 17.82200 33.15500
C  48.09300 18.83300 32.73800
C  48.17500 18.58100 31.26000
C  47.87200 20.31700 33.07200
C  47.61700 16.57900 33.86700
C  47.62300 16.53200 35.44400
H  47.40200 17.91100 36.08600
N  48.51200 18.32900 28.12900
C  49.24700 19.11400 29.03400
C  50.36600 19.65900 28.36200
C  50.26000 19.26100 26.94500
C  49.00700 18.49100 26.83700
C  51.30900 20.57000 29.18100
C  51.19400 19.61500 25.78200
O  51.04000 19.34300 24.57400
C  52.45500 20.34800 26.07500
N  46.24000 17.09400 26.49000
C  47.16300 17.40800 25.48600
C  46.53100 17.17100 24.12400
C  45.14100 16.54100 24.46600
C  45.15900 16.53200 26.01100
C  46.61100 18.29300 23.03200
C  44.92800 15.15700 23.81100
C  45.72700 13.93300 24.43400
N  45.07500 16.35000 29.03700
C  44.03300 15.86200 28.22400
C  42.92700 15.39900 29.05500
C  43.36500 15.62900 30.37500
C  44.67900 16.21000 30.31300
C  41.63700 14.75100 28.67200
C  42.99900 15.49200 31.74300
O  41.93800 15.11000 32.28900
C  44.18500 16.08500 32.51500
C  43.69700 17.06200 33.52500
O  43.82700 18.27000 33.43200
O  43.31300 16.41700 34.71100
C  43.29800 17.14900 35.96600
H  49.77200 19.74100 31.12000
H  48.86900 18.31700 24.74100
H  43.21800 15.60800 26.19100
H  46.29800 18.22400 33.87800
H  49.06600 18.53200 33.12500
H  48.80000 20.87900 33.17600
H  47.27800 20.38800 33.98300
H  47.28800 20.81800 32.30100
H  48.58600 16.37500 33.41100
H  46.88000 15.82600 33.58700
H  48.67800 16.38700 35.67600
H  47.09400 15.68700 35.88400
H  52.03800 19.98800 29.74500
H  50.68900 21.10900 29.89800
H  51.83000 21.33700 28.60800
H  52.14600 21.38300 26.22300
H  53.22400 20.14900 25.32900
H  52.82500 20.05300 27.05700
H  47.05000 16.34000 23.64700
H  44.42300 17.31000 24.18000
H  47.01500 19.25300 23.35300
H  45.57600 18.44900 22.72800
H  47.13000 17.98600 22.12400
H  45.11000 15.16400 22.73700
H  43.91200 14.92000 24.12800
H  45.99300 13.28000 23.60300
H  45.12000 13.37800 25.15000
H  46.58500 14.31400 24.98800
H  41.25600 15.07500 27.70300
H  40.84400 15.07700 29.34400
H  41.67300 13.66300 28.62000
H  44.80600 15.34700 33.02200
H  44.08600 17.90100 35.92000
H  43.38600 16.48100 36.82200
H  42.34100 17.66900 35.97700
Mg 6.30500 53.93600 40.53200
C  5.55700 50.57700 39.93000
C  9.64500 53.07100 39.62500
C  7.31400 57.09900 40.60700
C  3.12400 54.70200 41.24700
N  7.38900 52.07800 39.70000
C  6.83100 50.85400 39.51500
C  7.89900 49.82900 39.10700
C  9.23300 50.56400 39.43700
C  8.73100 52.05300 39.59300
C  9.86000 50.21400 40.80700
C  7.75700 49.29500 37.66400
C  7.48500 50.28400 36.57100
H  6.43500 49.88700 35.45900
N  8.25000 54.95300 40.13400
C  9.45100 54.42200 39.72500
C  10.47400 55.52200 39.66400
C  9.79800 56.70100 40.00700
C  8.36500 56.28300 40.36800
C  11.95000 55.43800 39.20700
C  10.39100 58.13200 39.96000
O  11.50100 58.28000 39.50800
C  9.75500 59.28500 40.47500
N  5.25700 55.67900 40.77400
C  5.86500 56.89400 40.73800
C  4.98100 58.11800 40.96700
C  3.64500 57.28800 41.29900
C  3.97100 55.82600 41.05500
C  5.40800 59.05300 42.16000
C  2.40500 57.72100 40.47900
C  2.15300 57.23400 39.02400
N  4.63000 52.93400 40.61000
C  3.37000 53.30800 40.97300
C  2.51100 52.14900 41.16400
C  3.37300 51.06800 40.77500
C  4.61900 51.59600 40.42300
C  1.17800 52.07700 41.80600
C  3.42800 49.62100 40.64700
O  2.55300 48.82100 40.89300
C  4.83000 49.26000 40.10800
C  4.65600 48.54900 38.84600
O  4.13100 49.02900 37.86000
O  4.96500 47.19000 38.88900
C  4.25700 46.23400 38.04900
H  10.67000 52.78500 39.37900
H  7.57600 58.15900 40.57800
H  2.10500 54.96700 41.53600
H  7.72400 48.90700 39.66200
H  9.94800 50.46600 38.62100
H  9.28200 49.32300 41.05400
H  9.72300 51.01500 41.53300
H  10.87100 49.80800 40.80800
H  7.16200 48.38200 37.63500
H  8.72100 48.86500 37.39400
H  8.42700 50.38100 36.03200
H  7.19600 51.28400 36.89500
H  12.61300 55.88500 39.94800
H  11.95300 55.77800 38.17100
H  12.30000 54.40600 39.21600
H  10.54700 59.98400 40.74500
H  9.25400 59.15200 41.43300
H  9.06400 59.69000 39.73500
H  4.80400 58.69100 40.05600
H  3.38100 57.21400 42.35400
H  4.58600 59.19800 42.86200
H  5.62700 59.99100 41.65100
H  6.23700 58.59500 42.70000
H  2.35600 58.81000 40.50300
H  1.48700 57.46100 41.00500
H  2.43300 57.89000 38.20000
H  1.09500 56.99700 39.13500
H  2.69000 56.30300 38.84100
H  0.64500 53.02600 41.86700
H  1.18100 51.64500 42.80600
H  0.63200 51.46400 41.08900
H  5.30400 48.54800 40.78400
H  4.25300 45.24300 38.50400
H  4.72600 46.22000 37.06600
H  3.21200 46.51600 37.92000

