158

Mg 34.82000 2.97800 30.50600
C  32.31200 3.93900 32.78000
C  37.19900 3.36300 33.09900
C  37.17500 2.01200 28.44500
C  32.35800 2.69300 28.08200
N  34.71400 3.46600 32.63700
C  33.57100 3.74700 33.35700
C  33.90400 3.99900 34.81300
C  35.49400 3.99500 34.86100
C  35.86300 3.55000 33.49100
C  35.95600 5.38500 35.38100
C  33.19400 2.87800 35.69100
C  33.85400 2.48300 37.02900
H  34.42800 3.62000 37.81800
N  36.96000 2.69500 30.72100
C  37.67400 2.88200 31.85200
C  39.06600 2.43100 31.56800
C  39.12500 1.94600 30.23300
C  37.72300 2.15600 29.76700
C  40.16000 2.52400 32.58300
C  40.24500 1.34100 29.42500
O  40.08600 0.93700 28.27100
C  41.64700 1.23800 30.03100
N  34.81200 2.34200 28.55600
C  35.91000 2.14200 27.81100
C  35.59400 2.08000 26.32600
C  34.08300 1.87200 26.34900
C  33.68700 2.38400 27.71400
C  36.09000 3.31100 25.50600
C  33.70700 0.38700 26.31700
C  32.52900 0.03400 25.38100
N  32.74800 3.22300 30.38700
C  31.86200 3.11900 29.36000
C  30.53300 3.41000 29.80300
C  30.68600 3.73500 31.20000
C  32.00900 3.62400 31.48300
C  29.16800 3.20700 29.08100
C  29.95700 4.13900 32.34700
O  28.76300 4.41700 32.54500
C  31.00400 4.31600 33.40600
C  30.93300 5.63700 34.15700
O  30.99400 6.72100 33.64100
O  30.74500 5.40400 35.58400
C  31.16000 6.57100 36.36200
H  37.92500 3.58100 33.88500
H  37.97500 1.75200 27.75000
H  31.61100 2.56500 27.29600
H  33.51600 5.00100 34.99400
H  35.98400 3.30300 35.54700
H  36.19400 6.03000 34.53400
H  36.89300 5.26200 35.92400
H  35.27600 5.94300 36.02400
H  33.17200 1.97900 35.07500
H  32.14300 3.10100 35.87800
H  34.58700 1.70100 36.82900
H  33.04600 2.06600 37.63100
H  39.84400 2.86600 33.56800
H  40.99000 3.10700 32.18300
H  40.45800 1.47900 32.66200
H  41.66400 0.46900 30.80400
H  41.97300 2.14200 30.54500
H  42.32600 1.15700 29.18200
H  36.07600 1.16200 25.99200
H  33.60900 2.38700 25.51400
H  37.13400 3.30900 25.19100
H  36.06700 4.13800 26.21600
H  35.40000 3.65100 24.73300
H  33.56000 0.03900 27.34000
H  34.47100 -0.36600 26.12400
H  31.72000 -0.36000 25.99600
H  32.80600 -0.72100 24.64400
H  32.12400 0.87900 24.82500
H  29.33000 2.45100 28.31300
H  28.84500 4.12000 28.58000
H  28.42900 2.83100 29.78900
H  30.81000 3.54300 34.15000
H  31.38400 6.20800 37.36500
H  30.28200 7.20600 36.48200
H  31.99800 7.08600 35.89300
Mg -4.06800 25.60500 25.93300
C  -2.73700 26.90000 28.91700
C  -6.18600 23.68500 27.76100
C  -4.70000 24.01200 23.18100
C  -1.42200 27.28800 24.22800
N  -4.42100 25.40100 28.11600
C  -3.81900 26.05300 29.09200
C  -4.60800 25.83000 30.39500
C  -5.45800 24.58300 30.08600
C  -5.40500 24.54000 28.55200
C  -4.98900 23.28300 30.72200
C  -5.54100 27.07500 30.64400
C  -5.97000 27.23600 32.15900
H  -5.53900 26.19400 33.21600
N  -5.37800 24.15100 25.48300
C  -6.21900 23.54300 26.34100
C  -7.08600 22.58800 25.63400
C  -6.74100 22.73200 24.22100
C  -5.55800 23.67200 24.24100
C  -8.19700 21.78800 26.22000
C  -7.26700 22.11000 22.90700
O  -6.97300 22.55800 21.83000
C  -8.50200 21.26900 23.03700
N  -3.19300 25.57800 23.96000
C  -3.61100 24.78000 23.04600
C  -2.84400 24.90000 21.75000
C  -1.87000 26.19400 22.02800
C  -2.15800 26.40300 23.51300
C  -2.17000 23.57700 21.24100
C  -2.26800 27.44100 21.10500
C  -1.17500 28.29300 20.51700
N  -2.50300 26.91800 26.39100
C  -1.59400 27.59500 25.58700
C  -0.75200 28.55600 26.36800
C  -1.19400 28.22700 27.69700
C  -2.22800 27.26100 27.65400
C  0.31100 29.47100 25.84800
C  -1.00300 28.59600 29.08700
O  -0.17000 29.34200 29.59700
C  -1.96000 27.73900 29.95800
C  -1.11600 26.87700 30.91800
O  -0.52000 25.83100 30.63400
O  -1.50600 27.24700 32.22600
C  -1.13600 26.28500 33.23200
H  -6.84200 23.00100 28.30400
H  -4.81300 23.42700 22.26600
H  -0.66600 27.93500 23.78000
H  -3.88700 25.66700 31.19500
H  -6.48400 24.77900 30.39700
H  -4.60100 23.47300 31.72300
H  -4.27300 22.82000 30.04200
H  -5.83400 22.60900 30.86000
H  -6.34800 27.02200 29.91300
H  -5.01700 28.01700 30.48400
H  -7.05600 27.30400 32.23100
H  -5.50400 28.20700 32.32900
H  -9.12200 22.21700 25.83400
H  -8.03400 21.80300 27.29700
H  -8.02900 20.73600 25.99000
H  -8.62200 20.75500 22.08300
H  -9.31000 21.96300 23.27200
H  -8.38900 20.48800 23.78900
H  -3.61200 25.10900 21.00500
H  -0.82900 25.88800 21.92700
H  -2.56100 23.32500 20.25500
H  -2.36800 22.85800 22.03700
H  -1.12100 23.78100 21.02900
H  -2.84600 28.22600 21.59200
H  -2.87500 27.08700 20.27200
H  -0.17300 27.90500 20.70100
H  -1.17200 29.28300 20.97400
H  -1.38900 28.35800 19.45000
H  0.72700 30.22300 26.51800
H  -0.10000 30.00700 24.99200
H  1.06100 28.73900 25.54800
H  -2.52800 28.45500 30.55200
H  -1.68900 25.35000 33.13600
H  -1.32100 26.65800 34.23900
H  -0.06300 26.09600 33.22000

