158

Mg 9.45100 4.21500 28.08500
C  10.66200 2.64000 30.92600
C  7.58700 6.33000 30.18800
C  8.17900 5.75200 25.38500
C  10.73400 1.69700 26.11600
N  9.15500 4.39500 30.29000
C  9.77300 3.66000 31.26100
C  9.38700 4.05500 32.71200
C  8.54100 5.37700 32.38500
C  8.42700 5.39500 30.83100
C  7.17700 5.52400 33.17000
C  10.55300 4.34000 33.71300
C  10.29200 5.26200 34.87100
H  10.76200 4.79500 36.22500
N  7.96800 5.82100 27.84100
C  7.33900 6.52800 28.81700
C  6.39600 7.40000 28.18900
C  6.66600 7.32300 26.82400
C  7.59800 6.25700 26.62100
C  5.48600 8.31200 29.00400
C  6.12800 8.21000 25.80000
O  6.38500 8.04400 24.59800
C  5.00500 9.17000 26.07900
N  9.48200 3.77300 26.01800
C  8.96000 4.61700 25.09700
C  9.37700 4.16500 23.70000
C  10.09100 2.78800 23.92400
C  10.17800 2.77500 25.44400
C  8.19100 4.14400 22.68500
C  11.50700 2.61500 23.18600
C  11.50800 1.55300 22.16500
N  10.50500 2.49200 28.42800
C  11.00200 1.58200 27.51000
C  11.88000 0.63600 28.18000
C  11.67500 0.98900 29.53500
C  10.88000 2.17900 29.62400
C  12.54300 -0.60200 27.56200
C  12.03600 0.58300 30.85400
O  12.65200 -0.34100 31.19900
C  11.38700 1.62500 31.87600
C  10.47500 0.91400 32.82200
O  9.37400 0.38000 32.56500
O  11.02900 0.97800 34.07300
C  10.28900 0.33600 35.12100
H  7.20000 7.03200 30.92900
H  7.88200 6.26800 24.46900
H  11.09300 0.88900 25.47500
H  8.82800 3.19700 33.08700
H  9.16500 6.23000 32.65200
H  6.93400 4.69800 33.83900
H  6.37300 5.55200 32.43500
H  7.23300 6.49900 33.65200
H  11.41300 4.63300 33.11100
H  10.89500 3.41500 34.17900
H  9.25700 5.60000 34.91400
H  10.91600 6.12100 34.62100
H  5.49400 7.98200 30.04300
H  4.48600 8.25600 28.57300
H  5.90800 9.31400 28.92600
H  4.09000 8.76500 26.51000
H  4.86900 9.61400 25.09200
H  5.30100 10.03200 26.67800
H  10.13900 4.92900 23.54900
H  9.36400 2.03200 23.62600
H  7.26500 4.00200 23.24300
H  8.21800 3.38000 21.90800
H  8.12400 5.07900 22.13000
H  12.35600 2.44600 23.84800
H  11.61200 3.56700 22.66600
H  11.25300 1.93100 21.17500
H  10.76200 0.77400 22.32400
H  12.45800 1.02000 22.12300
H  12.77700 -0.46900 26.50600
H  11.93500 -1.50600 27.60300
H  13.52100 -0.82300 27.99000
H  12.09700 2.22200 32.44800
H  10.23800 1.07900 35.91600
H  10.96200 -0.46400 35.43000
H  9.30700 -0.09700 34.93000
Mg 29.72300 57.95500 40.78400
C  27.01700 56.28000 39.36100
C  31.75300 55.65900 39.20200
C  32.41300 60.03300 41.20100
C  27.53200 60.64300 41.49900
N  29.37400 56.10400 39.55700
C  28.23200 55.63800 38.98800
C  28.42100 54.44700 38.14700
C  29.91200 54.03500 38.52700
C  30.40100 55.32300 39.14600
C  30.32200 52.76400 39.35700
C  28.21300 54.70400 36.61900
C  27.18400 53.82000 35.84200
H  26.30300 54.55600 34.89800
N  31.83600 57.79000 40.39100
C  32.40800 56.71500 39.74700
C  33.80100 56.91800 39.85400
C  34.08000 58.20000 40.46900
C  32.78500 58.75900 40.71700
C  34.79300 55.91700 39.27100
C  35.46400 58.74900 40.61400
O  36.48000 58.08400 40.31600
C  35.71500 60.03700 41.35000
N  29.95600 59.99700 41.26000
C  31.19600 60.58400 41.41500
C  31.00200 62.02700 41.81600
C  29.50000 62.21600 42.04600
C  28.93200 60.87300 41.57900
C  31.98600 62.52200 42.88200
C  28.75600 63.43300 41.38200
C  27.63400 64.08200 42.29000
N  27.72400 58.37900 40.63700
C  26.96300 59.44700 41.07900
C  25.54100 59.18800 40.77000
C  25.46800 57.88600 40.22900
C  26.85300 57.48100 40.09800
C  24.38700 60.16900 40.98400
C  24.58400 56.90400 39.67700
O  23.37500 56.89700 39.53200
C  25.58700 55.74700 39.13200
C  25.19100 54.52200 39.89800
O  24.99200 54.44500 41.07200
O  24.83400 53.47000 39.03400
C  24.22800 52.26700 39.74000
H  32.43600 54.94600 38.73400
H  33.24300 60.72200 41.37600
H  26.88800 61.48500 41.76100
H  27.75400 53.75500 38.66200
H  30.44100 53.94900 37.57800
H  30.82500 51.95200 38.83300
H  29.38700 52.33700 39.72000
H  30.97500 53.04000 40.18500
H  29.19000 54.69100 36.13600
H  28.00700 55.77300 36.56600
H  26.46500 53.36600 36.52400
H  27.76200 53.02800 35.36600
H  35.60700 55.87100 39.99500
H  35.12800 56.44700 38.37900
H  34.46800 54.90200 39.04300
H  35.37700 60.92800 40.82100
H  36.79400 60.01900 41.19600
H  35.40100 60.07000 42.39300
H  31.28500 62.63600 40.95700
H  29.26100 62.13300 43.10600
H  32.60000 63.26100 42.36900
H  32.65500 61.73200 43.22100
H  31.41800 62.98100 43.69200
H  28.35100 63.11700 40.42100
H  29.49900 64.18600 41.12000
H  27.95900 65.06800 42.62400
H  27.51300 63.59800 43.25900
H  26.63900 64.12900 41.84800
H  23.58100 59.74700 41.58300
H  23.97100 60.41200 40.00600
H  24.85200 60.98700 41.53400
H  25.34500 55.58200 38.08200
H  24.72000 51.46300 39.19200
H  23.18600 52.22900 39.42100
H  24.26300 52.22600 40.82900

