158

Mg 9.68400 49.06800 25.53100
C  7.77100 49.41600 28.42600
C  12.49100 49.90600 27.30900
C  11.49100 48.77100 22.63900
C  6.75700 48.42100 23.75700
N  10.04300 49.78200 27.55800
C  9.14500 49.64600 28.59000
C  9.82800 49.97500 29.94700
C  11.18100 50.47200 29.46800
C  11.28700 49.99500 28.04700
C  11.31300 52.02200 29.42900
C  9.79900 48.82300 30.94600
C  10.87500 48.76200 32.04100
H  10.52700 47.75200 33.14400
N  11.72800 49.27900 25.04700
C  12.76900 49.52000 25.97200
C  14.04700 49.43700 25.23900
C  13.71800 49.14700 23.89300
C  12.25100 49.02800 23.77900
C  15.43900 49.59200 25.89700
C  14.77600 48.88900 22.76800
O  14.49100 48.82300 21.57600
C  16.30600 48.75900 23.11300
N  9.22800 48.73500 23.49100
C  10.12700 48.69000 22.48300
C  9.46500 48.05800 21.20800
C  7.93500 48.04100 21.56200
C  7.99100 48.40400 23.01500
C  9.90300 48.69800 19.86100
C  7.27000 46.71300 21.23200
C  7.55500 45.54700 22.20800
N  7.62700 49.03500 25.94100
C  6.56100 48.71500 25.17400
C  5.35100 48.78200 25.89400
C  5.78800 49.04400 27.16700
C  7.14200 49.22700 27.16200
C  4.00100 48.31100 25.37700
C  5.34100 49.09800 28.51200
O  4.23400 48.86200 28.93500
C  6.58000 49.28100 29.47200
C  6.76300 48.02400 30.25000
O  7.45300 47.03300 29.98300
O  5.93700 48.02200 31.33300
C  6.10900 46.93400 32.39100
H  13.43600 50.02600 27.84300
H  12.02300 48.59800 21.70100
H  5.85300 48.23800 23.17200
H  9.37000 50.81500 30.46900
H  12.07800 50.06100 29.93000
H  10.71500 52.37600 28.58900
H  12.32100 52.38000 29.22000
H  11.02500 52.43500 30.39600
H  9.71100 47.92400 30.33600
H  8.92100 48.90500 31.58700
H  11.09900 49.76100 32.41600
H  11.78200 48.41700 31.54500
H  15.94400 48.62800 25.97100
H  15.43400 49.94500 26.92800
H  16.04000 50.34300 25.38500
H  16.54200 47.90100 23.74300
H  16.75000 49.71800 23.38200
H  16.76800 48.33700 22.22100
H  9.67000 46.99700 21.06300
H  7.23000 48.71500 21.07700
H  9.10400 49.30200 19.43200
H  10.29600 47.90000 19.23100
H  10.68600 49.39300 20.16500
H  7.60900 46.38100 20.25100
H  6.23200 46.99600 21.05600
H  8.25600 45.76900 23.01300
H  7.97900 44.65700 21.74300
H  6.57300 45.41500 22.66300
H  3.50700 49.07400 24.77600
H  3.30600 48.09900 26.19000
H  4.15500 47.44400 24.73500
H  6.28800 50.10700 30.12100
H  5.97800 47.38900 33.37300
H  7.18000 46.73800 32.35500
H  5.53800 46.06400 32.06700
Mg -4.52300 26.00600 25.92700
C  -2.96000 27.18300 28.90500
C  -6.45800 24.07400 27.82700
C  -5.46300 24.30400 23.16900
C  -2.12200 27.73600 24.09600
N  -4.60300 25.67300 28.10800
C  -4.02600 26.36200 29.16100
C  -4.69700 25.92700 30.51300
C  -5.59400 24.70300 30.14300
C  -5.58000 24.82900 28.60300
C  -5.01700 23.37600 30.70500
C  -5.52200 27.16200 31.06200
C  -5.34800 27.34900 32.60300
H  -4.81600 26.24800 33.50800
N  -5.93200 24.48200 25.49000
C  -6.61000 23.84900 26.44500
C  -7.55900 22.97300 25.79500
C  -7.15000 22.91600 24.40800
C  -6.16900 23.90100 24.24600
C  -8.52100 22.09500 26.59600
C  -7.71800 22.07800 23.27500
O  -7.20400 22.04100 22.11000
C  -8.81800 21.11800 23.47700
N  -3.84300 25.97100 23.91000
C  -4.37300 25.18300 22.92400
C  -3.52100 25.29400 21.66900
C  -2.63900 26.55900 21.88500
C  -2.86600 26.84600 23.38000
C  -2.89800 23.96000 21.23500
C  -3.11600 27.76100 20.98200
C  -2.08300 28.59500 20.10800
N  -2.96500 27.40200 26.34100
C  -2.12900 28.08500 25.47900
C  -1.29400 28.97200 26.24700
C  -1.54000 28.54500 27.59300
C  -2.61600 27.60800 27.58700
C  -0.41800 30.10700 25.67900
C  -1.17200 28.86100 28.94200
O  -0.33400 29.68900 29.34000
C  -2.08500 27.95900 29.86500
C  -1.22600 27.17700 30.77200
O  -0.36700 26.32400 30.50500
O  -1.52700 27.53400 32.01800
C  -0.76400 26.97300 33.12400
H  -7.14100 23.45200 28.41000
H  -5.69100 23.64300 22.33000
H  -1.38300 28.15300 23.40900
H  -3.91000 25.78600 31.25500
H  -6.60300 24.85700 30.52600
H  -3.97000 23.46500 30.99500
H  -5.06300 22.63500 29.90600
H  -5.66100 23.03300 31.51500
H  -6.52000 27.00100 30.65400
H  -5.09100 28.04300 30.58700
H  -6.26200 27.67400 33.10000
H  -4.63200 28.16300 32.71300
H  -8.05100 21.14100 26.83700
H  -9.38300 21.77100 26.01300
H  -8.81100 22.58000 27.52800
H  -9.09200 20.48600 22.63200
H  -9.65600 21.72100 23.82600
H  -8.52900 20.45400 24.29100
H  -4.20000 25.52400 20.84800
H  -1.62600 26.33500 21.55200
H  -1.82200 23.98800 21.40200
H  -3.15800 23.66200 20.21900
H  -3.20400 23.20100 21.95500
H  -3.64300 28.36900 21.71800
H  -3.84400 27.32900 20.29400
H  -1.25800 27.96700 19.76900
H  -1.83000 29.52600 20.61500
H  -2.49700 28.88000 19.14100
H  -0.33100 30.68300 26.60000
H  -1.01400 30.58600 24.90100
H  0.57200 29.76200 25.38000
H  -2.72400 28.67100 30.38800
H  -0.97800 25.91300 33.26200
H  -1.00400 27.47600 34.06100
H  0.28100 27.07600 32.83200

