158

Mg 24.54300 -6.77200 46.66500
C  27.00800 -4.39800 46.21800
C  22.71000 -5.25900 44.12300
C  22.47400 -9.38300 46.64300
C  26.91800 -8.54800 48.71800
N  24.96400 -5.13800 45.16500
C  26.03500 -4.28500 45.29400
C  25.87300 -3.14900 44.30200
C  24.37900 -3.35100 43.85800
C  23.98000 -4.71700 44.39500
C  23.33300 -2.26800 44.24500
C  27.00800 -3.41400 43.16100
C  27.91500 -2.15900 42.94200
H  27.95700 -1.80100 41.43700
N  22.74100 -7.16500 45.70300
C  22.13800 -6.40300 44.64200
C  20.88000 -7.04200 44.32900
C  20.83500 -8.21500 45.13800
C  22.04100 -8.29900 45.85400
C  19.81800 -6.53100 43.34700
C  19.59300 -9.05800 45.21700
O  18.70200 -8.92900 44.39600
C  19.38400 -10.03400 46.41300
N  24.66400 -8.71000 47.43600
C  23.68300 -9.59900 47.34800
C  23.96300 -10.88300 48.13300
C  25.36300 -10.56000 48.73500
C  25.72700 -9.13600 48.27400
C  22.85600 -11.19500 49.25000
C  26.37700 -11.60400 48.35500
C  27.16600 -12.17300 49.61900
N  26.57500 -6.59500 47.40100
C  27.34300 -7.29700 48.27800
C  28.54600 -6.49000 48.63200
C  28.43700 -5.35400 47.76300
C  27.25800 -5.47400 47.09700
C  29.57300 -6.95100 49.65400
C  29.18000 -4.15000 47.46200
O  30.20300 -3.69200 47.86400
C  28.20700 -3.45300 46.34500
C  27.81000 -2.18100 46.86700
O  27.16500 -1.97300 47.87500
O  28.29700 -1.20400 46.07500
C  27.70500 0.13200 46.21800
H  22.11700 -4.69100 43.40400
H  21.83700 -10.25800 46.49900
H  27.52600 -9.12300 49.42100
H  26.01600 -2.22200 44.85600
H  24.31700 -3.34400 42.77000
H  23.88600 -1.36400 44.50100
H  22.68900 -2.54000 45.08200
H  22.70900 -2.03800 43.38200
H  26.52500 -3.73700 42.23900
H  27.67400 -4.21300 43.48700
H  28.95500 -2.26300 43.25100
H  27.58500 -1.27300 43.48500
H  18.91600 -6.46700 43.95500
H  19.63000 -7.13800 42.46100
H  20.12900 -5.54500 43.00200
H  18.31200 -10.14400 46.57900
H  19.86100 -9.58000 47.28200
H  19.95900 -10.93700 46.21100
H  24.08300 -11.66000 47.37700
H  25.19700 -10.27200 49.77300
H  22.33200 -12.12900 49.04500
H  22.16000 -10.36400 49.36600
H  23.37300 -11.13900 50.20800
H  27.14000 -11.25400 47.65900
H  25.80900 -12.48700 48.06300
H  26.49100 -12.41300 50.44100
H  27.83900 -11.36000 49.89100
H  27.66500 -13.07200 49.25700
H  29.83000 -7.98000 49.40400
H  29.19600 -6.86200 50.67300
H  30.49100 -6.36500 49.60900
H  28.66200 -3.33800 45.36100
H  27.46300 0.51800 45.22800
H  28.40400 0.86200 46.62600
H  26.75900 0.13800 46.75900
Mg -2.19000 35.25900 26.74100
C  -3.74100 33.36800 29.22900
C  -0.63700 37.19300 29.13200
C  -0.87200 37.00200 24.32500
C  -4.18600 33.51000 24.31400
N  -2.22300 35.37500 28.93800
C  -2.95300 34.46500 29.70600
C  -2.69100 34.66500 31.20400
C  -1.83800 36.02900 31.10800
C  -1.60500 36.30200 29.63300
C  -2.30700 37.29600 31.90100
C  -1.95300 33.44400 31.85400
C  -2.58900 32.76900 33.07400
H  -1.73100 32.49600 34.35200
N  -0.83500 36.87400 26.73400
C  -0.27700 37.40800 27.77500
C  0.71300 38.39100 27.35300
C  0.62600 38.43200 25.95300
C  -0.37900 37.41400 25.58900
C  1.54800 39.27700 28.39900
C  1.34500 39.25900 24.88500
O  1.05400 39.29000 23.70700
C  2.42500 40.19200 25.32900
N  -2.63800 35.40000 24.65600
C  -1.89000 36.18500 23.85800
C  -2.47500 36.33200 22.50200
C  -3.28700 35.00300 22.44500
C  -3.53300 34.68200 23.91500
C  -3.27700 37.66400 22.31100
C  -2.68800 33.78300 21.71800
C  -1.24600 33.33500 22.21600
N  -3.60200 33.74900 26.76800
C  -4.21700 33.06100 25.70200
C  -4.90000 31.93500 26.21000
C  -4.73500 31.98200 27.63600
C  -3.93100 33.08200 27.91600
C  -5.73500 31.02000 25.38200
C  -5.16800 31.35300 28.83200
O  -5.83300 30.32400 28.97000
C  -4.57500 32.30600 29.96300
C  -5.74100 32.85700 30.76500
O  -6.55300 33.66300 30.33200
O  -5.75700 32.33500 31.99400
C  -6.79200 32.66200 33.00800
H  -0.03600 37.71900 29.87700
H  -0.52400 37.66500 23.53000
H  -4.50700 32.79500 23.55300
H  -3.69800 34.77000 31.60600
H  -0.77200 35.95600 31.31900
H  -1.52300 37.47800 32.63600
H  -3.29200 37.14100 32.34200
H  -2.31400 38.15200 31.22700
H  -0.99700 33.82800 32.20700
H  -1.85400 32.65000 31.11300
H  -2.94200 31.77800 32.79300
H  -3.51500 33.17200 33.48300
H  1.27800 40.30700 28.16400
H  2.61200 39.11100 28.23200
H  1.32200 39.06900 29.44500
H  2.98900 40.61400 24.49600
H  3.08000 39.69400 26.04300
H  1.85800 40.97400 25.83400
H  -1.64000 36.23500 21.80800
H  -4.26400 35.24200 22.02400
H  -3.35400 38.26000 23.22000
H  -4.31400 37.47800 22.03100
H  -2.72200 38.25900 21.58600
H  -2.57900 34.08000 20.67500
H  -3.45800 33.01600 21.62800
H  -0.70200 33.99200 22.89400
H  -0.66800 33.03400 21.34200
H  -1.39000 32.42600 22.80000
H  -6.03400 30.11100 25.90300
H  -5.23500 30.73600 24.45600
H  -6.69800 31.50000 25.20600
H  -3.94600 31.68400 30.59900
H  -7.22900 31.76300 33.44400
H  -7.67000 33.10700 32.54000
H  -6.30300 33.25800 33.77800

