158

Mg 41.38700 8.80100 29.95500
C  43.03900 10.05600 32.69800
C  39.09400 7.11200 31.95500
C  39.92500 7.42900 27.22600
C  43.86700 10.07100 27.84100
N  41.14100 8.55200 32.08500
C  41.83200 9.30700 33.03100
C  41.29900 9.03600 34.38700
C  40.19200 7.95100 34.11900
C  40.12100 7.84000 32.63300
C  40.35100 6.58400 34.95800
C  40.92000 10.34900 35.07600
C  40.66100 10.15700 36.57500
H  41.42800 11.07400 37.61700
N  39.64200 7.54000 29.63900
C  38.80100 7.04400 30.58000
C  37.68300 6.43600 29.92800
C  37.82100 6.52700 28.52600
C  39.19000 7.14500 28.42500
C  36.58800 5.65600 30.68900
C  36.83200 6.05800 27.47300
O  37.18700 6.08000 26.32000
C  35.39300 5.50300 27.80300
N  41.85000 8.63200 27.78300
C  41.08500 8.09400 26.89800
C  41.60100 8.38800 25.48300
C  42.92300 9.21500 25.69300
C  42.83700 9.39300 27.17600
C  41.79200 7.12300 24.58800
C  42.97600 10.56000 24.93600
C  44.12100 10.58700 23.92700
N  43.20300 9.83000 30.15800
C  44.08000 10.27500 29.19000
C  45.16900 10.85000 29.94300
C  44.79300 10.80000 31.29000
C  43.57700 10.16100 31.37000
C  46.31000 11.43700 29.24800
C  45.18600 11.22900 32.59800
O  46.22500 11.73900 33.03600
C  44.06500 10.72000 33.56300
C  44.68200 9.78200 34.57400
O  45.20600 8.70100 34.29600
O  44.74800 10.40800 35.79500
C  45.37000 9.58600 36.83700
H  38.51700 6.61200 32.73600
H  39.49200 7.03500 26.30500
H  44.63300 10.45100 27.16200
H  42.12100 8.60600 34.96000
H  39.21800 8.30100 34.46100
H  39.42500 6.46000 35.51900
H  41.10600 6.55100 35.74300
H  40.56500 5.79400 34.23800
H  40.02900 10.79800 34.63600
H  41.70800 11.08900 34.94200
H  40.76300 9.11400 36.87500
H  39.61100 10.36000 36.78400
H  36.62600 5.78900 31.77100
H  36.67700 4.59100 30.47400
H  35.59300 6.06700 30.51700
H  34.88400 5.17900 26.89400
H  34.87400 6.32600 28.29400
H  35.50300 4.57100 28.35700
H  40.84700 9.05800 25.07000
H  43.80100 8.59000 25.53400
H  41.71900 6.19900 25.16100
H  42.64900 7.16600 23.91500
H  40.91600 7.13200 23.94000
H  43.14900 11.35700 25.66000
H  42.04400 10.75500 24.40600
H  44.00000 11.29000 23.10300
H  44.30700 9.65100 23.39900
H  45.06900 10.90200 24.36100
H  46.78200 12.16000 29.91300
H  45.97700 12.03100 28.39700
H  47.05100 10.74000 28.85500
H  43.75000 11.59500 34.13100
H  46.44600 9.68900 36.97300
H  44.93400 8.58800 36.88800
H  45.07600 10.02000 37.79200
Mg -10.61300 16.71000 41.09500
C  -7.14900 16.33500 41.35700
C  -10.12300 20.04800 40.49600
C  -13.77500 16.93100 40.11900
C  -10.86400 13.15200 40.89900
N  -8.81800 18.04700 40.91000
C  -7.49700 17.64100 41.01100
C  -6.58200 18.87600 40.83000
C  -7.57800 20.07900 40.92500
C  -8.94400 19.36000 40.76100
C  -7.51200 20.94400 42.17600
C  -5.75700 18.79300 39.51700
C  -4.28600 18.34500 39.57700
H  -3.84100 17.01400 38.78800
N  -11.83800 18.36200 40.55400
C  -11.46200 19.63700 40.35700
C  -12.65000 20.40400 40.07300
C  -13.80400 19.57200 40.17400
C  -13.24400 18.21900 40.31100
C  -12.66100 21.80100 39.89300
C  -15.31900 20.00700 40.05900
O  -15.65900 21.18100 39.85400
C  -16.38100 18.93800 40.34300
N  -12.05800 15.18800 40.39200
C  -13.31100 15.57200 40.13200
C  -14.26300 14.38600 39.92500
C  -13.40100 13.21400 40.35500
C  -11.99600 13.86400 40.52100
C  -15.65800 14.42800 40.69600
C  -13.47900 11.94600 39.44700
C  -13.56100 10.48100 40.07000
N  -9.33500 14.99700 41.29400
C  -9.55400 13.67000 41.17100
C  -8.29800 12.95000 41.46400
C  -7.37800 14.03000 41.54400
C  -8.01700 15.22100 41.33000
C  -8.14100 11.44900 41.54900
C  -5.96800 14.22600 41.74600
O  -5.01400 13.41200 41.92600
C  -5.77600 15.70500 41.63000
C  -5.03600 16.11400 42.88100
O  -3.81900 16.12900 42.89500
O  -5.92200 16.55700 43.83100
C  -5.29200 17.24400 44.92800
H  -10.00600 21.13400 40.51800
H  -14.84000 17.01700 39.89500
H  -10.86600 12.06000 40.89000
H  -5.91300 19.02800 41.67600
H  -7.43000 20.68200 40.02900
H  -6.69200 21.66000 42.21000
H  -7.46000 20.40700 43.12400
H  -8.45800 21.48600 42.16200
H  -5.72600 19.77700 39.04900
H  -6.22000 18.09900 38.81600
H  -3.99700 18.22000 40.62100
H  -3.62000 19.08200 39.12900
H  -13.21600 21.99000 38.97400
H  -11.65200 22.21200 39.89100
H  -13.10600 22.36300 40.71400
H  -17.35800 19.34300 40.60500
H  -16.05800 18.24300 41.11800
H  -16.45800 18.38000 39.40900
H  -14.41100 14.44300 38.84700
H  -13.71200 12.87700 41.34400
H  -15.70400 13.65600 41.46400
H  -16.46800 14.25900 39.98600
H  -15.84000 15.43300 41.07600
H  -12.48400 11.86900 39.00900
H  -14.13000 12.05300 38.57800
H  -13.53700 10.62700 41.15000
H  -12.72500 9.89500 39.69000
H  -14.53600 10.03300 39.87600
H  -7.15200 11.27600 41.12500
H  -8.94000 11.08600 40.90200
H  -8.24700 11.18000 42.60000
H  -5.11300 15.97500 40.80800
H  -4.94100 16.44900 45.58600
H  -5.96700 17.95900 45.39900
H  -4.43500 17.82100 44.58200

