158

Mg 26.81500 -1.28800 29.39800
C  28.70000 -1.13500 32.24900
C  23.91800 -1.19500 31.29300
C  25.14500 -1.29500 26.48200
C  29.79800 -1.81400 27.53400
N  26.46600 -1.17800 31.53800
C  27.33200 -1.05700 32.57700
C  26.60400 -0.87800 34.00200
C  25.11900 -0.87400 33.56000
C  25.12700 -1.07600 32.00800
C  24.29400 -1.89700 34.40800
C  27.08900 0.33600 34.95500
C  26.65900 0.01900 36.41800
H  27.12900 0.91800 37.58400
N  24.88500 -1.25100 28.97800
C  23.78400 -1.32200 29.88400
C  22.63900 -1.39400 29.17100
C  22.93600 -1.29800 27.76700
C  24.38400 -1.20400 27.65800
C  21.32100 -1.67700 29.84400
C  22.01600 -1.32200 26.54500
O  22.39300 -1.01500 25.43200
C  20.46900 -1.66000 26.73700
N  27.41300 -1.56500 27.25500
C  26.52700 -1.42000 26.25600
C  27.25700 -1.45200 24.87600
C  28.70900 -1.35700 25.27200
C  28.71300 -1.55500 26.76800
C  26.83600 -2.61800 23.89600
C  29.35200 0.01100 25.03700
C  28.64100 1.29700 25.60700
N  28.78900 -1.65400 29.83600
C  29.86000 -1.87100 28.96600
C  31.08400 -1.89100 29.71400
C  30.67900 -1.58700 31.02400
C  29.29400 -1.44300 30.99000
C  32.51800 -2.03300 29.20600
C  31.09700 -1.34800 32.40700
O  32.22800 -1.42900 32.81300
C  29.85800 -0.92700 33.21700
C  29.78800 -1.84800 34.39900
O  29.52800 -3.05600 34.25200
O  30.10700 -1.13300 35.51600
C  30.23000 -1.93000 36.72700
H  23.01400 -1.01600 31.87800
H  24.65500 -1.26300 25.50600
H  30.68800 -1.91400 26.91000
H  26.79400 -1.77400 34.59200
H  24.68500 0.09000 33.82600
H  24.00300 -2.58400 33.61300
H  23.37600 -1.46700 34.80800
H  24.83600 -2.46000 35.16900
H  26.38700 1.16400 34.85200
H  28.14600 0.60000 34.92400
H  26.93500 -0.99800 36.69700
H  25.58000 0.17800 36.40600
H  20.66000 -0.91200 29.43600
H  21.33000 -1.59900 30.93200
H  21.02300 -2.66300 29.49000
H  20.07100 -2.03200 25.79300
H  20.03800 -0.74100 27.13400
H  20.23300 -2.47700 27.41900
H  26.96800 -0.55900 24.32100
H  29.31600 -2.20700 24.96200
H  26.08300 -3.23700 24.38300
H  27.70400 -3.24100 23.68100
H  26.37400 -2.20300 23.00100
H  29.49300 0.09400 23.96000
H  30.39600 0.00400 25.35400
H  29.40000 1.71200 26.27000
H  27.81800 0.96200 26.23900
H  28.32600 1.97200 24.81200
H  32.87100 -2.99900 29.56700
H  33.14500 -1.22800 29.58800
H  32.64800 -1.86400 28.13700
H  30.07500 0.12300 33.41500
H  30.08800 -3.00300 36.60400
H  29.48800 -1.57400 37.44100
H  31.27500 -1.80000 37.00900
Mg 40.74100 8.15600 29.53500
C  42.21800 9.91600 32.35400
C  38.48000 6.82900 31.77500
C  39.35500 6.40600 27.06400
C  43.58300 8.97300 27.77900
N  40.33400 8.43600 31.75200
C  41.04700 9.27200 32.68500
C  40.41800 9.15200 34.11800
C  39.35600 8.00900 33.94400
C  39.34700 7.74500 32.36800
C  39.62000 6.72400 34.78800
C  39.81000 10.54900 34.58700
C  39.32800 10.43400 36.08000
H  40.05500 11.35400 37.06000
N  39.06500 6.86200 29.37000
C  38.26300 6.52600 30.41200
C  37.17700 5.70600 29.91900
C  37.37800 5.57400 28.49300
C  38.59900 6.27400 28.26000
C  36.06600 5.17600 30.87000
C  36.53600 4.92200 27.42300
O  36.75400 4.91900 26.18200
C  35.25500 4.37200 27.82300
N  41.45300 7.67200 27.73200
C  40.62900 7.02200 26.82700
C  41.33200 6.87700 25.47000
C  42.44400 7.99000 25.57700
C  42.52400 8.22800 27.16100
C  41.95900 5.56500 25.11700
C  42.04100 9.22900 24.69400
C  41.20600 10.36000 25.32100
N  42.55100 9.24400 29.89900
C  43.61600 9.43900 29.11600
C  44.64400 10.18600 29.83500
C  44.19200 10.40700 31.13300
C  42.85200 9.81300 31.14000
C  45.92200 10.47400 29.15600
C  44.47000 10.87600 32.45300
O  45.45400 11.43100 32.94300
C  43.17300 10.55200 33.32400
C  43.59900 9.75600 34.51500
O  44.38700 8.85400 34.52700
O  43.10500 10.34000 35.66500
C  43.56200 9.82700 36.91900
H  37.75500 6.49500 32.52000
H  38.98400 5.92300 26.15800
H  44.41100 9.34900 27.17500
H  41.07800 8.79500 34.90800
H  38.38100 8.37400 34.26600
H  39.62200 5.81600 34.18500
H  38.84000 6.62200 35.54200
H  40.55000 6.81200 35.35100
H  38.86600 10.84600 34.13000
H  40.48200 11.38600 34.39600
H  39.47400 9.42300 36.46000
H  38.25400 10.60700 36.15100
H  35.27300 5.65800 30.29800
H  36.10400 5.38100 31.94000
H  35.88000 4.10400 30.80300
H  34.75200 5.24300 28.24300
H  35.47500 3.66400 28.62200
H  34.67200 3.95900 27.00000
H  40.56400 7.12600 24.73800
H  43.47000 7.75900 25.29200
H  41.68200 4.82400 25.86700
H  43.04300 5.53500 25.22400
H  41.68200 5.41200 24.07400
H  41.47600 8.88100 23.82900
H  42.93000 9.70700 24.28200
H  40.94400 10.26400 26.37400
H  40.25900 10.25800 24.79100
H  41.65600 11.32900 25.10500
H  46.23000 9.62000 28.55300
H  46.66900 10.60500 29.93900
H  45.97000 11.30400 28.45100
H  42.67900 11.45400 33.68400
H  43.88800 8.79300 36.80900
H  42.79900 9.81100 37.69700
H  44.49700 10.31900 37.18900

