158

Mg -1.67400 17.53500 26.29600
C  -1.78700 15.16800 28.84200
C  -2.39200 19.95000 28.69900
C  -2.02000 19.84600 23.86600
C  -1.68100 14.90700 23.98300
N  -2.17300 17.50300 28.39800
C  -1.92400 16.47400 29.28900
C  -2.35200 16.84000 30.71700
C  -2.79000 18.33900 30.60500
C  -2.45100 18.62200 29.11100
C  -4.31900 18.63700 30.83100
C  -1.42600 16.59900 31.89300
C  -2.22800 15.97100 33.05400
H  -1.32800 15.38100 34.13500
N  -2.02100 19.66600 26.27100
C  -2.23500 20.44200 27.35600
C  -2.28600 21.83800 26.95200
C  -2.15900 21.80500 25.53300
C  -2.15000 20.41100 25.16600
C  -2.47200 22.97000 27.86600
C  -2.04600 22.89900 24.58800
O  -2.08300 22.76800 23.41600
C  -1.62700 24.35000 25.09500
N  -2.06900 17.36400 24.21900
C  -1.98800 18.49700 23.47800
C  -1.80700 18.15000 21.98800
C  -1.54500 16.61100 22.00100
C  -1.75600 16.26900 23.48100
C  -3.09900 18.57300 21.19500
C  -0.14300 16.28400 21.45700
C  -0.06100 15.50900 20.14200
N  -1.70500 15.45700 26.34700
C  -1.69800 14.51700 25.34100
C  -1.61900 13.25000 25.94000
C  -1.60600 13.46000 27.32100
C  -1.67400 14.80000 27.52900
C  -1.53300 11.95300 25.17400
C  -1.44000 12.84700 28.56900
O  -1.33200 11.63700 28.86700
C  -1.66200 13.86600 29.63300
C  -0.43500 13.79500 30.49500
O  0.65700 14.27600 30.25300
O  -0.73100 12.99900 31.56000
C  0.35700 12.77500 32.60200
H  -2.45700 20.70800 29.48300
H  -2.00100 20.51600 23.00400
H  -1.67300 14.00400 23.36800
H  -3.31300 16.36700 30.92000
H  -2.18700 19.00300 31.22400
H  -4.89600 17.83000 31.28100
H  -4.77600 18.97900 29.90200
H  -4.35700 19.55400 31.41900
H  -1.13100 17.58500 32.25200
H  -0.53800 16.07000 31.54800
H  -2.95900 15.19800 32.81700
H  -2.74900 16.85000 33.43400
H  -2.81400 22.65800 28.85300
H  -3.18600 23.71100 27.50700
H  -1.50900 23.43300 28.08300
H  -0.61200 24.36800 25.49200
H  -2.31600 24.81300 25.80100
H  -1.60600 25.10800 24.31200
H  -1.00300 18.77600 21.60100
H  -2.30800 16.08000 21.43000
H  -3.76800 19.09100 21.88300
H  -3.54600 17.76000 20.62200
H  -2.87900 19.37600 20.49300
H  0.36900 15.62400 22.15800
H  0.45800 17.17600 21.28100
H  0.51300 16.01800 19.36700
H  -1.04000 15.29700 19.71300
H  0.51100 14.61200 20.38000
H  -0.61900 11.39400 25.37600
H  -1.58200 12.05900 24.09100
H  -2.40300 11.38600 25.50600
H  -2.48300 13.52300 30.26200
H  -0.07800 12.77600 33.60100
H  1.06200 13.60600 32.62300
H  1.00000 11.91700 32.40500
Mg 46.77800 23.79800 29.11800
C  47.40400 26.22900 31.72400
C  46.05100 21.50000 31.58200
C  46.44200 21.60000 26.66200
C  48.30100 26.02400 26.81500
N  46.73600 23.91300 31.42400
C  46.90100 25.02500 32.22000
C  46.36800 24.71200 33.64400
C  46.05200 23.08700 33.61100
C  46.38300 22.75500 32.10000
C  46.87900 22.28000 34.60200
C  45.06800 25.50500 33.96800
C  45.29100 26.50400 35.15100
H  45.88800 26.04200 36.56500
N  46.37600 21.83000 29.15300
C  46.05400 21.05600 30.24500
C  45.73400 19.71600 29.79100
C  45.88600 19.70100 28.35800
C  46.23100 21.08400 27.98900
C  45.17800 18.62200 30.79900
C  45.74100 18.58300 27.42300
O  45.94900 18.69100 26.19100
C  45.37300 17.19700 27.93700
N  47.37500 23.79300 27.12100
C  46.94700 22.82100 26.27600
C  47.26600 23.09200 24.82400
C  47.65900 24.65500 24.83600
C  47.73300 24.85900 26.33200
C  48.21700 22.05100 24.13100
C  46.75000 25.69800 24.08200
C  45.27500 25.86600 24.58000
N  47.68600 25.69600 29.21900
C  48.24500 26.45700 28.19900
C  48.60400 27.77200 28.70800
C  48.26000 27.74500 30.06500
C  47.71000 26.46300 30.32300
C  49.26900 28.89000 27.95200
C  48.24300 28.55200 31.29100
O  48.61900 29.70400 31.54700
C  47.65500 27.53400 32.39400
C  48.68500 27.43000 33.59900
O  49.74800 26.80900 33.61400
O  48.33800 28.29000 34.58000
C  49.32800 28.55700 35.63600
H  45.81500 20.74100 32.33100
H  46.18500 20.95300 25.82100
H  48.62300 26.73900 26.05600
H  47.17100 24.88100 34.36200
H  44.99600 22.94200 33.83800
H  47.43700 22.98100 35.22300
H  47.43600 21.52400 34.04800
H  46.16300 21.87700 35.31700
H  44.25900 24.84900 34.28800
H  44.78500 26.01500 33.04700
H  44.37200 27.06900 35.30900
H  46.09100 27.19300 34.87900
H  44.93500 19.00300 31.79100
H  45.91100 17.81600 30.79200
H  44.24200 18.24300 30.39000
H  45.31700 16.60100 27.02600
H  44.37600 17.28100 28.37000
H  45.99300 16.71600 28.69400
H  46.32900 22.95600 24.28400
H  48.68500 24.70300 24.47200
H  47.67900 21.57900 23.30800
H  48.44900 21.20100 24.77200
H  49.09600 22.57100 23.75100
H  46.64200 25.36400 23.05000
H  47.17000 26.70200 24.03300
H  45.03500 26.91400 24.76200
H  45.17100 25.22500 25.45400
H  44.53100 25.49300 23.87600
H  48.72300 29.82400 28.08400
H  49.33100 28.60100 26.90300
H  50.28300 29.06100 28.31300
H  46.68800 27.79000 32.82600
H  50.35200 28.21800 35.47700
H  48.93400 28.16300 36.57300
H  49.40500 29.64000 35.72800

