158

Mg 2.14300 -1.70100 43.81000
C  5.21700 -0.65800 43.27300
C  0.94300 0.90900 42.01000
C  -1.02800 -3.13200 43.65500
C  3.41700 -4.74400 44.93000
N  2.99200 -0.21600 42.48700
C  4.32200 0.07600 42.48600
C  4.67700 1.39900 41.73700
C  3.27600 2.06300 41.60700
C  2.37700 0.87700 42.00000
C  3.00700 3.39300 42.34200
C  5.37200 0.98800 40.38500
C  6.76400 1.56700 40.10500
H  6.93100 2.30400 38.74300
N  0.12400 -1.01800 43.15800
C  -0.04900 0.00200 42.35500
C  -1.45700 0.17900 42.11000
C  -2.05800 -0.91100 42.83300
C  -0.97200 -1.77300 43.23300
C  -2.10600 1.19500 41.21600
C  -3.53600 -1.09900 42.89400
O  -4.36200 -0.28800 42.51400
C  -4.17200 -2.36900 43.46300
N  1.37300 -3.62300 44.22200
C  -0.00400 -3.91500 44.11800
C  -0.20400 -5.41400 44.61000
C  1.28700 -5.94800 44.89500
C  2.05400 -4.68000 44.79800
C  -1.21600 -5.63100 45.70100
C  1.68600 -7.07900 43.82900
C  1.56500 -8.51200 44.33000
N  3.97400 -2.51600 44.20000
C  4.32000 -3.70900 44.68800
C  5.75600 -3.77300 44.95600
C  6.12800 -2.56400 44.39400
C  4.97700 -1.86200 43.98100
C  6.52000 -4.68000 45.80700
C  7.31400 -1.74100 44.15300
O  8.47500 -1.82800 44.45200
C  6.73800 -0.42100 43.41900
C  7.06300 0.81100 44.17300
O  6.51300 1.11700 45.23200
O  8.16500 1.42300 43.60200
C  8.81200 2.47100 44.41900
H  0.61300 1.84100 41.54600
H  -1.97100 -3.66500 43.51300
H  3.95500 -5.62600 45.28300
H  5.29800 2.09000 42.30700
H  3.06500 2.44300 40.60700
H  3.09400 4.24500 41.66800
H  3.90200 3.48800 42.95700
H  2.07900 3.47100 42.90900
H  4.78600 1.36400 39.54600
H  5.37700 -0.09400 40.25600
H  7.54000 0.82800 40.30200
H  6.89200 2.36400 40.83800
H  -2.74300 1.98000 41.62300
H  -2.64800 0.71900 40.39800
H  -1.43100 1.83000 40.64100
H  -4.10300 -3.29000 42.88500
H  -5.19100 -2.12000 43.75800
H  -3.69100 -2.68100 44.39000
H  -0.54500 -5.85200 43.67100
H  1.58000 -6.46900 45.80600
H  -0.83900 -6.16300 46.57400
H  -2.07500 -6.10400 45.22500
H  -1.59200 -4.65800 46.01700
H  2.67700 -6.79100 43.47900
H  1.14600 -6.98900 42.88600
H  2.52600 -9.00400 44.47400
H  1.07800 -8.98500 43.47700
H  1.01900 -8.55700 45.27200
H  7.53000 -4.27400 45.74800
H  6.64000 -5.67500 45.37800
H  6.02100 -4.61100 46.77400
H  7.25800 -0.27600 42.47300
H  9.84200 2.15400 44.58200
H  8.34300 2.80200 45.34600
H  8.77100 3.39600 43.84300
Mg -5.33700 25.11200 26.06600
C  -3.82500 26.28600 29.02600
C  -7.29600 23.02200 27.97400
C  -6.06200 23.30300 23.20600
C  -3.23200 27.12200 24.26000
N  -5.42300 24.56700 28.27000
C  -4.78900 25.30300 29.26200
C  -5.54500 25.06500 30.61000
C  -6.37500 23.78100 30.22900
C  -6.38500 23.76200 28.73200
C  -5.88500 22.50200 30.89200
C  -6.42800 26.33700 31.02700
C  -6.23500 26.64700 32.51000
H  -5.70000 25.59100 33.47800
N  -6.60900 23.52400 25.64100
C  -7.36800 22.79600 26.57700
C  -8.19500 21.91800 25.86000
C  -7.87300 21.94800 24.46500
C  -6.84200 22.96700 24.40100
C  -9.27400 21.06100 26.50000
C  -8.46300 21.11300 23.27100
O  -8.26300 21.39300 22.09500
C  -9.30400 19.97900 23.66600
N  -4.78900 25.16200 23.98400
C  -5.14600 24.32100 23.02900
C  -4.41700 24.67000 21.70200
C  -3.52600 25.98100 22.05000
C  -3.91600 26.13800 23.53800
C  -3.74000 23.51800 20.83500
C  -3.74000 27.19300 21.03900
C  -5.15800 27.77100 21.31000
N  -3.91700 26.52100 26.48600
C  -3.22200 27.32800 25.64100
C  -2.38100 28.21200 26.33600
C  -2.59500 27.81400 27.69900
C  -3.50900 26.76800 27.74600
C  -1.46400 29.30400 25.75800
C  -2.24400 28.12300 29.07000
O  -1.51700 28.97300 29.49200
C  -3.12100 27.13200 29.96400
C  -2.22700 26.31100 30.80300
O  -1.51900 25.37800 30.36700
O  -2.25700 26.81000 32.07000
C  -1.12600 26.37700 32.84400
H  -7.86100 22.39200 28.66400
H  -6.16700 22.68500 22.31200
H  -2.58000 27.79500 23.69900
H  -4.67000 24.81700 31.21100
H  -7.38700 23.79100 30.63200
H  -4.98300 22.62800 31.49100
H  -5.68600 21.80300 30.08000
H  -6.59300 22.05400 31.58900
H  -7.46500 26.13800 30.75500
H  -6.06600 27.17400 30.43000
H  -7.19000 27.02600 32.87600
H  -5.54900 27.48500 32.63800
H  -10.30000 21.11400 26.13400
H  -9.50700 21.29200 27.54000
H  -9.05500 19.99400 26.54200
H  -9.50500 19.47700 22.72000
H  -10.29800 20.29700 23.97900
H  -8.86800 19.28200 24.38200
H  -5.18000 25.01700 21.00500
H  -2.47900 25.68800 21.97000
H  -3.84000 22.59200 21.40000
H  -2.68400 23.72100 20.65300
H  -4.17600 23.44400 19.83900
H  -3.60600 26.75700 20.04900
H  -3.06700 28.02700 21.23300
H  -5.80600 27.11200 21.88900
H  -5.67400 27.93200 20.36300
H  -5.04400 28.79300 21.66900
H  -2.05700 30.14300 25.39500
H  -0.79600 28.98100 24.95900
H  -0.72000 29.47100 26.53800
H  -3.78700 27.73800 30.57700
H  -1.17300 26.95900 33.76500
H  -0.19700 26.67600 32.35800
H  -1.19600 25.30400 33.02000

