158

Mg 47.31700 25.05500 28.25300
C  47.81800 27.54600 30.66000
C  46.52600 22.81000 30.64800
C  46.95900 22.76600 25.87500
C  48.64600 27.44100 25.88800
N  47.30900 25.13000 30.34300
C  47.51800 26.28100 31.16400
C  47.24700 25.92900 32.61500
C  46.84400 24.46000 32.61100
C  46.92300 24.03800 31.10800
C  47.66600 23.53600 33.58200
C  46.29800 26.92900 33.37300
C  45.71700 26.42200 34.73300
H  46.68800 26.03400 35.84700
N  46.76800 23.08100 28.25300
C  46.45200 22.27000 29.31700
C  46.18500 20.90700 28.90700
C  46.31800 20.96100 27.43300
C  46.70300 22.27300 27.13100
C  46.05900 19.76200 29.88200
C  46.13800 19.75500 26.53100
O  46.39300 19.72800 25.35900
C  45.74100 18.43700 27.06400
N  47.97800 25.03500 26.26500
C  47.61000 23.98800 25.44900
C  47.75100 24.34300 23.97100
C  47.80900 25.88400 23.95900
C  48.19600 26.15400 25.43200
C  48.88400 23.53600 23.21400
C  46.57300 26.61900 23.52500
C  45.35000 26.55700 24.47800
N  48.19200 26.99800 28.22500
C  48.68400 27.80300 27.22400
C  49.00200 29.09900 27.73200
C  48.67700 29.08200 29.11800
C  48.25600 27.72500 29.32100
C  49.53000 30.29600 26.86800
C  48.73100 29.83600 30.39000
O  48.98100 31.00600 30.55700
C  48.21200 28.83000 31.39300
C  49.30600 28.66900 32.41400
O  50.49800 28.33700 32.24400
O  48.95600 29.24700 33.65300
C  49.82000 29.01200 34.87200
H  46.27500 22.16000 31.48900
H  46.87900 21.98900 25.11100
H  48.67900 28.19100 25.09500
H  48.25100 25.96200 33.04000
H  45.78200 24.38600 32.84400
H  48.51300 24.05200 34.03400
H  48.17800 22.74300 33.03700
H  47.11800 22.91500 34.29100
H  45.48400 27.28700 32.74200
H  46.83300 27.74400 33.86100
H  45.08200 25.54700 34.59300
H  44.97500 27.18900 34.95300
H  46.63100 18.88400 29.58200
H  45.04400 19.37600 29.79800
H  46.05300 19.94000 30.95700
H  45.21100 17.89200 26.28300
H  45.10300 18.47600 27.94600
H  46.73300 18.02200 27.24200
H  46.82000 24.06100 23.47800
H  48.60800 26.32800 23.36400
H  49.36900 22.85000 23.90800
H  49.61600 24.24800 22.83300
H  48.45600 22.87500 22.46000
H  46.38600 26.01500 22.63800
H  46.88200 27.59700 23.15600
H  44.36900 26.46200 24.01200
H  45.34700 27.37900 25.19300
H  45.59600 25.63800 25.01100
H  50.08300 30.90900 27.58000
H  48.64500 30.74000 26.41100
H  50.19800 29.88400 26.11200
H  47.36300 29.22000 31.95400
H  50.62000 29.75000 34.91900
H  50.32900 28.04900 34.91300
H  49.25200 29.14100 35.79300
Mg -4.59900 25.72200 25.99500
C  -2.81200 27.02200 28.55600
C  -6.46800 23.89700 28.10200
C  -6.46700 24.43400 23.33400
C  -2.49000 27.17800 23.65500
N  -4.71100 25.60600 28.03400
C  -3.88500 26.18300 28.92400
C  -4.29500 25.92500 30.39600
C  -5.36300 24.80100 30.25700
C  -5.49300 24.69000 28.67100
C  -4.94000 23.36200 30.90400
C  -4.97500 27.19700 31.14600
C  -5.43500 26.94600 32.54300
H  -4.86700 25.82500 33.46300
N  -6.13600 24.23700 25.75000
C  -6.84400 23.68400 26.77800
C  -7.99000 22.86000 26.30200
C  -7.92400 22.90500 24.85400
C  -6.80700 23.87500 24.59700
C  -8.93600 22.09900 27.23000
C  -8.81000 22.34000 23.74900
O  -8.49500 22.36000 22.57000
C  -10.05900 21.65600 24.04700
N  -4.47800 25.74600 23.77600
C  -5.44000 25.23500 22.93900
C  -5.23800 25.72700 21.52300
C  -3.97300 26.60300 21.62900
C  -3.63800 26.54700 23.13800
C  -5.14200 24.58800 20.44900
C  -3.89500 28.02100 20.96900
C  -4.20800 29.29400 21.74700
N  -2.80600 26.72100 26.03800
C  -2.06100 27.30300 24.99500
C  -1.03000 28.13200 25.54800
C  -1.25300 28.00800 26.94100
C  -2.40400 27.20300 27.17900
C  -0.29700 29.10600 24.77700
C  -0.87700 28.62400 28.28100
O  -0.08300 29.48700 28.53000
C  -1.92500 28.00600 29.28500
C  -1.21300 27.32500 30.34800
O  -0.51100 26.35700 30.18100
O  -1.41400 28.02400 31.55400
C  -0.70700 27.49400 32.72100
H  -7.17200 23.37600 28.75400
H  -7.11800 24.25700 22.47500
H  -1.94300 27.70400 22.87000
H  -3.50400 25.51700 31.02500
H  -6.34500 25.04100 30.66400
H  -4.88800 22.64200 30.08700
H  -5.66900 23.01800 31.63800
H  -4.05000 23.54900 31.50400
H  -5.85100 27.44900 30.54700
H  -4.28200 28.03800 31.13900
H  -6.49400 26.75100 32.37300
H  -5.24700 27.87700 33.07800
H  -8.60800 22.33000 28.24300
H  -8.99300 21.04100 26.97500
H  -9.91700 22.53300 27.03400
H  -10.39700 21.08500 23.18300
H  -10.82200 22.41400 24.22300
H  -9.93300 21.05800 24.95000
H  -6.18900 26.24700 21.41000
H  -3.19500 26.11300 21.04200
H  -6.17700 24.47600 20.12500
H  -4.81100 23.59600 20.75500
H  -4.61000 24.92900 19.56100
H  -4.55500 28.04300 20.10100
H  -2.91500 28.09400 20.49700
H  -4.33400 29.07800 22.80800
H  -5.19700 29.61100 21.41800
H  -3.44900 30.07400 21.68500
H  -0.24800 29.99700 25.40300
H  -0.66300 29.47100 23.81800
H  0.73900 28.78200 24.67300
H  -2.58800 28.76000 29.70800
H  0.33900 27.24600 32.54100
H  -1.20800 26.60300 33.09600
H  -0.74200 28.14700 33.59300

