158

Mg 1.11400 7.08100 25.40600
C  1.54500 8.62800 28.50000
C  0.93500 4.00300 27.11900
C  0.85700 5.53300 22.40000
C  1.45400 10.21000 23.83200
N  1.41300 6.40400 27.52800
C  1.32100 7.25200 28.65600
C  1.23900 6.51800 29.96100
C  1.33500 4.98300 29.51100
C  1.20200 5.09600 27.93100
C  2.68300 4.35500 29.96100
C  0.11900 6.93700 30.89300
C  0.55900 7.06400 32.31200
H  1.93700 6.47300 32.87000
N  0.90000 5.01000 24.80900
C  0.79200 3.95900 25.73600
C  0.48300 2.74500 24.91400
C  0.50200 3.15900 23.50100
C  0.75500 4.64400 23.52400
C  0.14700 1.39300 25.50300
C  0.30700 2.27700 22.22500
O  0.36500 2.81300 21.10700
C  -0.02200 0.80000 22.29500
N  1.37700 7.80400 23.46800
C  1.13000 6.95100 22.34400
C  1.01600 7.75100 21.06400
C  0.99900 9.19900 21.59800
C  1.28700 9.13300 23.04200
C  2.19800 7.51200 20.03500
C  -0.28700 9.96000 21.26300
C  -0.34300 10.49200 19.80900
N  1.65000 9.07600 25.95300
C  1.70600 10.21000 25.24100
C  1.91600 11.33800 26.13000
C  1.88400 10.74800 27.44200
C  1.65400 9.36700 27.26600
C  2.16600 12.82800 25.82900
C  1.95400 11.06500 28.89700
O  2.31500 12.08100 29.48500
C  1.72000 9.66400 29.66500
C  2.84300 9.49100 30.58500
O  4.01700 9.20600 30.33900
O  2.35100 10.03800 31.76000
C  3.42200 10.45200 32.68300
H  0.76400 3.06400 27.65000
H  0.82800 5.14600 21.37900
H  1.48600 11.22100 23.42100
H  2.18000 6.82100 30.42100
H  0.51700 4.36300 29.87700
H  3.33000 3.97100 29.17200
H  2.51500 3.47800 30.58500
H  3.35100 5.10300 30.38900
H  -0.62500 6.14800 30.78600
H  -0.36800 7.87300 30.61900
H  -0.28300 6.78200 32.94300
H  0.65400 8.13000 32.51800
H  0.98500 0.75200 25.23200
H  -0.82500 1.02200 25.17800
H  0.11300 1.45500 26.59100
H  0.74900 0.13100 22.67800
H  -0.21400 0.54500 21.25300
H  -0.96000 0.62800 22.82200
H  0.11200 7.64000 20.46500
H  1.83000 9.68000 21.08100
H  3.06600 8.15600 20.17700
H  1.85800 7.52100 18.99900
H  2.59800 6.51400 20.21000
H  -0.48600 10.77000 21.96500
H  -1.08200 9.22800 21.40900
H  0.64800 10.39600 19.36600
H  -0.75500 11.49800 19.88500
H  -0.96300 9.84700 19.18500
H  2.93300 13.31200 26.43400
H  1.26500 13.37900 26.09900
H  2.44500 12.94200 24.78100
H  0.74500 9.75800 30.14300
H  3.20800 11.46400 33.03000
H  4.42200 10.48200 32.25200
H  3.41700 9.81500 33.56800
Mg 25.16400 -7.81400 48.62300
C  27.52100 -5.53200 47.16500
C  23.14700 -7.04700 45.99400
C  23.53500 -10.31200 49.56800
C  27.90800 -8.69000 50.92400
N  25.34000 -6.34800 46.80900
C  26.32400 -5.49300 46.40600
C  25.91500 -4.66700 45.23100
C  24.39700 -5.00500 45.08500
C  24.28400 -6.21200 46.01800
C  23.36000 -3.96500 45.36800
C  26.74500 -5.13400 44.01000
C  27.48000 -4.02700 43.27300
H  27.28800 -3.80000 41.76900
N  23.56600 -8.62300 47.74800
C  22.83600 -8.17600 46.71900
C  21.63700 -9.01700 46.61800
C  21.81600 -10.09700 47.56600
C  22.98000 -9.74200 48.31900
C  20.58400 -8.77500 45.61600
C  20.98700 -11.25900 47.83600
O  20.01600 -11.48400 47.13700
C  21.24500 -12.40400 48.86900
N  25.77600 -9.31500 50.03200
C  24.70800 -10.16900 50.34800
C  25.07400 -11.00400 51.55900
C  26.56900 -10.73300 51.72500
C  26.79800 -9.49400 50.85700
C  24.18000 -10.68000 52.77400
C  27.56900 -11.83400 51.35300
C  28.73100 -12.03800 52.31000
N  27.25700 -7.21300 49.06400
C  28.20600 -7.68000 50.00000
C  29.41600 -6.88000 49.81300
C  29.15500 -6.01500 48.71100
C  27.84500 -6.26100 48.32100
C  30.67900 -7.01200 50.44800
C  29.74900 -5.00600 47.84300
O  30.87100 -4.53900 47.83600
C  28.68100 -4.56300 46.94000
C  28.27900 -3.25700 47.38300
O  27.87300 -2.95000 48.49900
O  28.37400 -2.28900 46.45000
C  28.04100 -0.95200 46.91300
H  22.28700 -6.67900 45.43100
H  22.77600 -10.85600 50.13400
H  28.79500 -8.97700 51.49300
H  26.04600 -3.66000 45.62600
H  24.28800 -5.37700 44.06700
H  22.74600 -3.89400 44.47000
H  23.92200 -3.03200 45.39800
H  22.88300 -4.22300 46.31400
H  26.10200 -5.64200 43.29100
H  27.49500 -5.87500 44.28600
H  28.52800 -4.30800 43.36700
H  27.20000 -3.12400 43.81600
H  20.51400 -7.71400 45.37600
H  19.58700 -8.92000 46.03400
H  20.72100 -9.38600 44.72500
H  22.22900 -12.86600 48.79600
H  20.53900 -13.16700 48.54100
H  20.87900 -12.07100 49.84000
H  24.90400 -12.07000 51.41000
H  26.81500 -10.50000 52.76100
H  23.97300 -11.59700 53.32500
H  23.22000 -10.38400 52.35000
H  24.64900 -9.90100 53.37500
H  28.11900 -11.48000 50.48100
H  26.99300 -12.75900 51.32800
H  29.39200 -12.80000 51.89900
H  28.18600 -12.34300 53.20300
H  29.27300 -11.10700 52.47600
H  31.33700 -6.37300 49.85800
H  30.97200 -8.05900 50.37700
H  30.63400 -6.76100 51.50700
H  28.90500 -4.42700 45.88200
H  28.82500 -0.54000 47.54800
H  27.05700 -0.86800 47.37500
H  28.14800 -0.34800 46.01300

