158

Mg 41.15000 9.05100 30.30200
C  43.14300 10.24600 32.81900
C  39.09100 7.67500 32.60100
C  39.51000 7.34100 27.76500
C  43.52900 10.05500 27.95600
N  41.19700 8.91500 32.55400
C  41.97600 9.63200 33.36000
C  41.52800 9.50100 34.78300
C  40.27100 8.55900 34.70000
C  40.16700 8.36500 33.17600
C  40.41100 7.19800 35.44600
C  41.27500 10.87700 35.41200
C  40.33800 10.95900 36.58800
H  40.78200 11.64300 37.88100
N  39.50300 7.80500 30.16400
C  38.71200 7.43300 31.26200
C  37.52700 6.76500 30.78500
C  37.58400 6.76800 29.39100
C  38.92000 7.28200 29.04600
C  36.55700 6.03200 31.70800
C  36.56600 6.23400 28.37800
O  36.76100 6.18800 27.20300
C  35.18800 5.94300 28.92900
N  41.42200 8.79300 28.15000
C  40.59500 8.08400 27.37700
C  41.09800 8.00400 25.97100
C  42.22100 9.10800 25.93900
C  42.41900 9.39100 27.47400
C  41.49700 6.59700 25.45800
C  41.93000 10.46600 25.15600
C  41.14800 11.56000 25.82500
N  43.01900 9.94300 30.36400
C  43.84900 10.33500 29.33000
C  45.03800 10.96800 29.82800
C  44.75000 11.01700 31.21600
C  43.60900 10.34100 31.45700
C  46.19800 11.49500 29.11500
C  45.28300 11.44900 32.48800
O  46.21300 12.16600 32.72200
C  44.32300 11.04600 33.54300
C  45.02100 10.23200 34.61800
O  45.65300 9.22200 34.41100
O  44.94300 10.89300 35.78100
C  45.80200 10.43300 36.87900
H  38.41500 7.25400 33.34800
H  38.96100 6.97100 26.89600
H  44.17700 10.47200 27.18100
H  42.39100 9.02600 35.24900
H  39.45200 9.17600 35.07000
H  39.78500 7.20000 36.33800
H  41.38400 7.09700 35.92600
H  40.32900 6.30400 34.82800
H  40.75800 11.54900 34.72700
H  42.27400 11.18800 35.71900
H  40.13000 9.94000 36.91500
H  39.43900 11.48400 36.26400
H  35.58700 6.51000 31.84900
H  36.90900 5.91200 32.73300
H  36.47600 5.01000 31.33700
H  34.83000 6.81600 29.47500
H  35.12200 5.08300 29.59600
H  34.50200 5.71900 28.11100
H  40.35000 8.37700 25.27200
H  43.19300 8.73700 25.61300
H  42.48100 6.51100 24.99600
H  40.74600 6.38300 24.69800
H  41.39100 5.84200 26.23600
H  41.35500 10.28400 24.24800
H  42.80000 10.91000 24.67300
H  40.96000 11.40100 26.88700
H  40.24000 11.76000 25.25700
H  41.79100 12.42900 25.68400
H  45.98200 12.56400 29.09400
H  46.35100 11.03000 28.14200
H  47.16500 11.19400 29.51800
H  43.83500 11.88900 34.03200
H  45.23100 10.40900 37.80800
H  46.61100 11.11800 37.13100
H  46.24200 9.44800 36.72700
Mg 48.99900 46.69300 43.45700
C  45.75000 46.96200 42.03500
C  49.21900 43.70000 41.80200
C  52.28200 46.81400 44.01500
C  48.66200 49.96800 44.61000
N  47.67000 45.48900 41.99900
C  46.37000 45.77700 41.54300
C  45.79000 44.74000 40.58100
C  46.91300 43.66200 40.72600
C  48.02900 44.33700 41.58500
C  46.43200 42.15300 41.15700
C  45.29900 45.25400 39.17400
C  44.09000 44.64400 38.43000
H  44.30900 43.78900 37.14600
N  50.52100 45.38200 43.06200
C  50.37500 44.13400 42.45300
C  51.74500 43.49900 42.49000
C  52.57000 44.36800 43.25300
C  51.80800 45.60500 43.47400
C  51.95200 42.06100 42.04100
C  53.97200 43.91600 43.68900
O  54.48500 42.84600 43.35800
C  54.85000 44.91500 44.57000
N  50.21700 48.15800 44.36400
C  51.58200 47.96300 44.42200
C  52.32900 49.27500 44.98100
C  51.09700 50.16800 45.37600
C  49.86100 49.39400 44.71700
C  53.36300 48.96300 46.02400
C  51.20300 51.66300 44.85800
C  50.97100 52.72300 45.93000
N  47.58300 48.24000 43.27100
C  47.55500 49.42900 43.96200
C  46.19600 49.92900 44.02000
C  45.42000 49.00900 43.18700
C  46.35100 48.05400 42.75500
C  45.70500 51.17100 44.69200
C  44.10600 48.67300 42.72500
O  43.03500 49.17400 42.98600
C  44.41800 47.55700 41.66000
C  43.30700 46.54700 41.59100
O  43.09100 45.78700 42.46500
O  42.40800 46.78500 40.63100
C  41.15900 46.01500 40.57300
H  49.32500 42.69000 41.40100
H  53.36700 46.94000 44.03900
H  48.55000 50.96900 45.03100
H  44.83700 44.45400 41.02600
H  47.37200 43.54800 39.74400
H  47.00900 41.86400 42.03600
H  46.76800 41.52200 40.33400
H  45.38100 41.89200 41.27700
H  46.12300 44.98900 38.51200
H  45.26400 46.34400 39.15300
H  43.58700 45.53800 38.06000
H  43.36200 44.17200 39.08900
H  52.47800 42.09300 41.08700
H  51.07700 41.41000 42.03900
H  52.52200 41.51300 42.79100
H  54.18000 45.33400 45.32100
H  55.42300 45.55000 43.89400
H  55.49200 44.29500 45.19500
H  52.80100 49.69200 44.09100
H  51.02400 50.13000 46.46300
H  53.63200 47.90700 46.02200
H  53.02600 49.09400 47.05200
H  54.28200 49.50300 45.79400
H  50.38800 51.68700 44.13300
H  52.06600 51.87600 44.22700
H  49.90000 52.91400 45.86000
H  51.50400 53.67100 46.00600
H  51.08600 52.14100 46.84500
H  44.63600 51.17800 44.90600
H  46.01000 52.00000 44.05300
H  46.26100 51.25500 45.62600
H  44.43300 47.87300 40.61700
H  40.87500 45.60500 41.54200
H  41.11600 45.17000 39.88500
H  40.37000 46.70400 40.27300

