158

Mg 36.44800 49.43500 24.35600
C  36.18300 47.79600 27.58000
C  35.13600 52.20800 25.78800
C  36.11600 50.84700 21.24700
C  37.36200 46.36900 22.97100
N  35.77500 49.95600 26.39900
C  35.91400 49.17200 27.56500
C  35.52000 49.99900 28.83400
C  35.05600 51.34900 28.15700
C  35.25900 51.18600 26.71500
C  33.60600 51.90900 28.62100
C  36.69500 50.22900 29.88100
C  36.30100 50.14000 31.38400
H  34.82600 50.25000 31.76700
N  35.78100 51.29000 23.60800
C  35.31300 52.31400 24.41000
C  35.02300 53.49000 23.57400
C  35.22700 53.05000 22.22600
C  35.70600 51.65300 22.30200
C  34.40800 54.80600 24.13000
C  35.11200 53.79400 20.89900
O  35.46500 53.32700 19.84600
C  34.38500 55.19800 20.88500
N  36.62800 48.70900 22.45900
C  36.48600 49.52100 21.30400
C  36.89800 48.79300 20.04500
C  37.52300 47.49100 20.59600
C  37.11000 47.50000 22.10500
C  35.60700 48.59700 19.22400
C  39.10800 47.43000 20.44400
C  40.07500 48.17200 21.47000
N  36.81600 47.50100 25.02500
C  37.24400 46.32900 24.38900
C  37.46500 45.30200 25.39400
C  37.04800 45.85200 26.56800
C  36.63700 47.15400 26.36200
C  37.82300 43.87600 25.10000
C  36.85000 45.48700 27.98700
O  37.03900 44.43300 28.58700
C  36.24400 46.73900 28.69900
C  34.91100 46.35300 29.37700
O  33.76400 46.57000 28.81300
O  35.11900 45.84900 30.61400
C  33.97800 45.41800 31.29300
H  34.62700 53.10700 26.14300
H  36.15400 51.23000 20.22500
H  37.73800 45.43200 22.55300
H  34.64200 49.49500 29.23800
H  35.73100 52.19500 28.27900
H  33.18000 51.23300 29.36200
H  33.06200 51.88300 27.67700
H  33.68400 52.97100 28.85800
H  37.17100 51.20900 29.89400
H  37.41400 49.51800 29.47500
H  36.92300 50.87800 31.89100
H  36.56900 49.16700 31.79600
H  33.32500 54.76900 24.01500
H  34.97600 55.65700 23.75500
H  34.54400 54.90400 25.20700
H  34.15400 55.45000 19.85000
H  35.09700 55.93900 21.24800
H  33.40700 55.12100 21.36100
H  37.56200 49.36900 19.40100
H  37.19500 46.58900 20.08000
H  34.73000 48.67400 19.86700
H  35.62700 47.61500 18.75100
H  35.48000 49.24900 18.35900
H  39.41600 47.88800 19.50400
H  39.41600 46.38600 20.38300
H  39.42600 48.24400 22.34400
H  40.57000 49.07100 21.10200
H  40.81500 47.43300 21.77700
H  38.85900 43.98500 24.77900
H  37.13400 43.42000 24.38900
H  37.80000 43.40600 26.08400
H  36.82600 47.06500 29.56200
H  34.21200 44.86300 32.20100
H  33.30900 44.83300 30.66100
H  33.26400 46.19500 31.56400
Mg 6.98100 54.88100 40.99900
C  6.42400 51.36200 41.24100
C  10.28100 54.09900 40.67700
C  7.42900 58.07400 40.18500
C  3.52600 55.23000 41.19100
N  8.19200 52.99000 40.76700
C  7.75900 51.68600 40.90100
C  8.92200 50.72800 40.70300
C  10.04100 51.68400 41.02700
C  9.49800 53.01800 40.85600
C  10.87700 51.46900 42.39400
C  8.88500 49.98200 39.32300
C  8.57900 50.91700 38.12900
H  7.34100 50.78700 37.34900
N  8.60000 55.96800 40.49900
C  9.91400 55.49600 40.47000
C  10.80400 56.55700 40.12900
C  10.01000 57.77200 40.06100
C  8.61900 57.33300 40.21000
C  12.29600 56.38900 39.78500
C  10.50400 59.19800 39.84600
O  11.73600 59.44600 39.89800
C  9.57000 60.43600 39.84600
N  5.71100 56.30200 40.55300
C  6.14500 57.59800 40.32500
C  4.98100 58.55700 40.32100
C  3.66000 57.64300 40.42600
C  4.31000 56.28500 40.77700
C  4.94900 59.67800 41.36700
C  2.74000 57.70700 39.20600
C  2.24100 59.15000 38.66200
N  5.29800 53.55900 41.15300
C  3.94200 53.90400 41.32400
C  3.20300 52.76200 41.79900
C  4.14200 51.71100 41.70400
C  5.41400 52.26700 41.38000
C  1.72200 52.65300 42.04100
C  4.33600 50.33200 41.98900
O  3.59300 49.48900 42.47000
C  5.82600 49.97900 41.57200
C  5.63500 49.02700 40.47300
O  5.21600 49.40800 39.35700
O  5.83100 47.73900 40.79200
C  5.87600 46.75500 39.69300
H  11.31300 53.78600 40.50500
H  7.50500 59.11700 39.87000
H  2.47300 55.43500 41.39400
H  8.75500 50.00100 41.49800
H  10.82300 51.79000 40.27500
H  11.93500 51.45500 42.13100
H  10.78100 50.44300 42.75000
H  10.61500 52.15300 43.20000
H  8.14100 49.18800 39.39000
H  9.85900 49.54000 39.11500
H  9.40800 50.84000 37.42500
H  8.60300 51.92200 38.55100
H  12.82800 55.94700 40.62800
H  12.71500 57.35700 39.50900
H  12.27000 55.77500 38.88400
H  8.96300 60.38600 38.94300
H  10.10100 61.38500 39.92900
H  8.94900 60.25200 40.72300
H  5.01900 59.05100 39.35000
H  3.01800 57.83500 41.28600
H  4.82200 60.67000 40.93400
H  5.94900 59.63800 41.80000
H  4.20300 59.61800 42.15900
H  1.84300 57.13300 39.43600
H  3.30600 57.22800 38.40700
H  2.64800 59.91800 39.32000
H  1.16000 59.26900 38.73500
H  2.45300 59.22300 37.59500
H  1.25000 52.13500 41.20700
H  1.32200 53.66300 42.13300
H  1.64800 52.04500 42.94300
H  6.21300 49.48200 42.46100
H  6.26200 45.85600 40.17500
H  6.44800 46.98100 38.79300
H  4.85400 46.48700 39.42400

