158

Mg 2.22900 -1.07600 44.08000
C  5.76100 -0.80400 43.29500
C  1.89000 1.86700 42.42800
C  -1.10600 -1.66600 44.04900
C  2.84400 -4.28800 45.19700
N  3.70000 0.34000 42.81300
C  5.09000 0.25300 42.70100
C  5.61500 1.40700 41.91100
C  4.39800 2.46100 41.97700
C  3.23500 1.53700 42.52800
C  4.71000 3.57400 42.90100
C  6.06100 0.95200 40.43900
C  7.49200 1.46000 39.94400
H  7.56500 2.20100 38.67200
N  0.57200 0.04600 43.55600
C  0.71700 1.20100 42.86000
C  -0.65200 1.72700 42.63900
C  -1.59100 0.76600 43.18700
C  -0.71300 -0.29500 43.67100
C  -0.93800 3.07400 41.96900
C  -3.10400 0.80200 43.17700
O  -3.59300 1.79500 42.63400
C  -3.99200 -0.23300 43.92500
N  1.04500 -2.83000 44.43300
C  -0.28700 -2.72400 44.39800
C  -0.91000 -3.95800 45.13400
C  0.31900 -4.91900 45.22600
C  1.46400 -4.00400 44.89500
C  -1.71100 -3.73000 46.39700
C  0.28600 -6.01600 44.10800
C  0.27900 -7.49600 44.52500
N  3.92700 -2.25300 44.36600
C  4.00000 -3.57500 44.81000
C  5.41000 -3.92200 44.91500
C  6.11500 -2.82900 44.34600
C  5.17900 -1.87700 44.01200
C  6.01200 -5.29300 45.32000
C  7.44700 -2.39300 43.96500
O  8.51800 -2.94300 44.04900
C  7.24500 -1.04700 43.24800
C  7.95700 0.04000 43.96300
O  7.62100 0.63700 45.00600
O  8.97600 0.43700 43.16800
C  9.70300 1.56700 43.64800
H  1.72500 2.84700 41.97500
H  -2.13300 -2.01200 43.91300
H  3.11900 -5.26100 45.60900
H  6.49700 1.70700 42.47600
H  4.11700 2.88200 41.01200
H  5.13400 4.36900 42.28700
H  5.33800 3.16900 43.69500
H  3.83700 3.97000 43.41900
H  5.31800 1.39400 39.77500
H  6.10400 -0.13500 40.38000
H  8.06100 0.53000 39.93900
H  7.94200 2.04300 40.74800
H  -1.94700 3.13000 41.56100
H  -0.20200 3.29600 41.19600
H  -0.88300 3.77500 42.80200
H  -4.85800 0.40300 44.11100
H  -3.52000 -0.49100 44.87300
H  -4.23900 -1.08300 43.28800
H  -1.61400 -4.42600 44.44600
H  0.51000 -5.39300 46.19000
H  -2.67100 -4.24300 46.33500
H  -1.86900 -2.66100 46.54100
H  -1.27100 -4.09500 47.32500
H  1.10400 -5.88400 43.40000
H  -0.54300 -5.69200 43.47800
H  -0.67300 -7.88300 44.16200
H  0.23900 -7.57800 45.61100
H  1.14700 -7.97900 44.07600
H  5.32600 -5.99100 45.79900
H  6.90700 -5.07800 45.90400
H  6.22000 -5.79900 44.37700
H  7.59100 -1.05800 42.21400
H  10.50600 1.78100 42.94300
H  10.08300 1.48100 44.66600
H  9.05800 2.44400 43.68200
Mg 1.04200 7.69600 25.88500
C  1.84600 9.98600 28.52600
C  1.26300 5.14200 28.11800
C  0.21700 5.67700 23.41000
C  1.44500 10.39300 23.72700
N  1.34600 7.66300 28.11700
C  1.67900 8.64400 29.02900
C  1.75700 8.11800 30.46300
C  1.66300 6.57800 30.28100
C  1.39900 6.40400 28.73700
C  3.03500 5.87200 30.56200
C  0.65300 8.78800 31.31800
C  0.86300 8.70400 32.84400
H  2.12300 8.00800 33.39000
N  0.82300 5.65600 25.79800
C  0.84600 4.80000 26.84400
C  0.56500 3.46500 26.38800
C  0.29900 3.60200 24.94900
C  0.40500 5.05300 24.65400
C  0.68200 2.20700 27.33100
C  -0.08700 2.52700 23.93100
O  0.02100 2.64700 22.70300
C  -0.38500 1.21400 24.42300
N  1.07300 7.96500 23.80400
C  0.47900 7.02200 23.06900
C  0.47000 7.46300 21.54700
C  0.81300 8.99600 21.68600
C  1.04800 9.17100 23.16800
C  1.38500 6.56100 20.65000
C  -0.31400 9.97300 21.10700
C  -1.67500 9.97300 21.77900
N  1.43400 9.85500 26.04000
C  1.59300 10.75000 25.06000
C  1.82400 12.05100 25.63300
C  2.02300 11.79000 26.97100
C  1.73900 10.41400 27.19800
C  2.04500 13.35900 24.89100
C  2.39500 12.42200 28.22600
O  2.79200 13.54800 28.55700
C  2.24300 11.25000 29.29800
C  3.58400 10.99500 29.93600
O  4.52900 10.48700 29.38300
O  3.58400 11.40700 31.21700
C  4.87500 11.33800 31.96700
H  1.41500 4.30500 28.80300
H  -0.08700 5.06700 22.55700
H  1.55100 11.18900 22.98700
H  2.69800 8.34600 30.96300
H  0.80000 6.20600 30.83300
H  3.50300 5.51600 29.64400
H  2.95100 4.95900 31.15300
H  3.72400 6.46600 31.16200
H  -0.32300 8.34600 31.11500
H  0.41100 9.80800 31.01900
H  0.02000 8.12200 33.21400
H  0.67400 9.71200 33.21400
H  -0.33400 1.91900 27.60300
H  1.06200 2.38400 28.33700
H  1.28700 1.42400 26.87400
H  0.49300 0.69200 24.80300
H  -0.93300 0.58300 23.72200
H  -1.10100 1.40000 25.22300
H  -0.55100 7.33100 21.19000
H  1.75900 9.28800 21.23100
H  1.73500 5.67600 21.18200
H  2.26500 7.13900 20.36600
H  0.81500 6.21600 19.78800
H  -0.52500 9.71600 20.06800
H  -0.04500 11.02900 21.13500
H  -1.69300 10.75100 22.54200
H  -1.75900 9.04900 22.35100
H  -2.45700 9.97900 21.01900
H  2.42500 13.44400 23.87200
H  2.70600 13.95600 25.52000
H  1.05700 13.82000 24.90100
H  1.45800 11.54100 29.99600
H  4.78700 12.10600 32.73500
H  5.64900 11.66100 31.27100
H  5.10800 10.33200 32.31700

