158

Mg 17.15500 -0.72200 28.37300
C  16.17100 1.03300 31.06500
C  19.38900 -2.41700 30.26700
C  18.39000 -2.11100 25.56500
C  15.26400 1.49500 26.33000
N  17.61600 -0.69600 30.45400
C  16.92200 -0.05900 31.39300
C  17.22000 -0.53400 32.86000
C  18.38100 -1.55800 32.58200
C  18.47200 -1.59600 31.02400
C  19.65400 -1.41800 33.49300
C  15.99500 -0.97000 33.65600
C  15.59000 -0.25200 34.98500
H  16.81600 -0.03900 35.92100
N  18.62300 -2.14700 28.00200
C  19.50500 -2.71700 28.90500
C  20.38700 -3.61300 28.20900
C  20.08900 -3.54000 26.84600
C  18.93500 -2.58600 26.73400
C  21.27800 -4.55700 28.98900
C  20.76600 -4.25000 25.69300
O  20.44100 -4.14300 24.52100
C  21.91300 -5.17300 25.87600
N  16.96700 -0.29600 26.16100
C  17.49500 -1.10900 25.21300
C  17.19900 -0.56300 23.78800
C  16.00800 0.38900 24.06500
C  16.05200 0.57400 25.61300
C  18.44300 0.00800 23.01600
C  14.62200 -0.01700 23.37200
C  13.57600 -0.67700 24.26200
N  15.89300 0.87200 28.63500
C  15.09800 1.60000 27.71400
C  14.37400 2.58800 28.45000
C  14.72200 2.35000 29.77900
C  15.72100 1.31700 29.85600
C  13.27600 3.57600 28.04100
C  14.48500 2.87400 31.10500
O  13.72900 3.68800 31.56500
C  15.46900 1.98500 32.05800
C  16.43300 2.84100 32.74700
O  17.44300 3.27600 32.25600
O  15.95900 3.14400 34.07100
C  16.68200 4.09800 34.87800
H  20.06100 -3.00200 30.89800
H  18.85900 -2.51800 24.66600
H  14.58500 2.06900 25.69600
H  17.63100 0.33500 33.37400
H  18.07100 -2.53800 32.94400
H  19.48700 -0.48400 34.03000
H  20.65200 -1.29600 33.07300
H  19.78500 -2.19700 34.24400
H  16.05100 -2.01800 33.95000
H  15.13800 -0.84300 32.99400
H  14.97100 -0.94500 35.55400
H  14.97800 0.64300 34.88000
H  21.33600 -5.55500 28.55400
H  20.92700 -4.61800 30.01900
H  22.33900 -4.30600 29.00500
H  22.53100 -4.71400 26.64800
H  22.46500 -5.32800 24.94900
H  21.55500 -6.14900 26.20300
H  16.81500 -1.34000 23.12800
H  16.20300 1.37000 23.63300
H  18.18400 0.99600 22.63400
H  18.62700 -0.73600 22.24100
H  19.35400 0.09000 23.60900
H  14.77500 -0.73300 22.56500
H  14.34400 0.96300 22.98500
H  14.10800 -1.09400 25.11800
H  13.16200 -1.53100 23.72600
H  12.77300 0.03400 24.45400
H  13.74200 4.44600 27.57800
H  12.67400 3.83800 28.91000
H  12.78800 3.07700 27.20400
H  14.90300 1.33700 32.72700
H  16.06500 4.95600 34.60900
H  17.71100 4.16100 34.52300
H  16.67600 3.74300 35.90800
Mg 26.47000 50.40300 26.66900
C  24.48500 51.98700 28.92500
C  28.87900 49.71600 29.12000
C  28.51000 49.31700 24.31300
C  24.20100 51.58300 24.08100
N  26.66300 50.78700 28.71300
C  25.63500 51.33800 29.46300
C  25.86200 51.08500 30.95400
C  27.28700 50.39400 31.05500
C  27.65700 50.29400 29.57100
C  28.37100 51.22400 31.91700
C  24.75400 50.21400 31.68300
C  24.10800 50.72000 32.95800
H  24.82100 51.25800 34.14700
N  28.43100 49.66900 26.70300
C  29.19100 49.44200 27.79200
C  30.43100 48.78700 27.36300
C  30.36800 48.71800 25.94700
C  29.07000 49.28300 25.55700
C  31.54400 48.19500 28.31300
C  31.34300 48.06800 24.94500
O  31.13400 47.92000 23.72500
C  32.61600 47.49600 25.46200
N  26.39100 50.46900 24.46800
C  27.32000 49.81600 23.78300
C  27.14700 50.11400 22.29700
C  25.61400 50.57400 22.19000
C  25.34200 50.92600 23.66900
C  28.12200 51.17600 21.68200
C  24.60700 49.42200 21.76200
C  24.59400 49.02800 20.24400
N  24.69700 51.63300 26.49400
C  23.87200 51.96000 25.39000
C  22.72300 52.66600 25.92200
C  22.92700 52.77900 27.27900
C  24.10700 52.10800 27.61000
C  21.62800 53.29400 25.02100
C  22.36500 53.23600 28.47900
O  21.33500 53.91600 28.72300
C  23.30400 52.65600 29.65600
C  23.73700 53.81000 30.50200
O  24.43900 54.74000 30.12000
O  22.98800 53.77600 31.71600
C  23.11500 55.06000 32.47500
H  29.56700 49.32700 29.87300
H  29.05500 48.82300 23.50600
H  23.47200 51.78400 23.29300
H  25.81000 52.03100 31.49300
H  27.20900 49.36000 31.39000
H  29.09800 51.59500 31.19500
H  28.88000 50.61600 32.66500
H  27.85600 51.97600 32.51400
H  25.29100 49.38200 32.13800
H  24.00700 49.80800 31.00000
H  23.53500 49.88100 33.35100
H  23.48200 51.50200 32.52800
H  31.71400 47.12500 28.19200
H  31.25500 48.23600 29.36300
H  32.51400 48.65000 28.11200
H  33.26500 47.18900 24.64200
H  32.39200 46.60100 26.04300
H  33.09900 48.32000 25.98700
H  27.27000 49.25100 21.64200
H  25.71900 51.41000 21.49900
H  28.85300 51.35400 22.47000
H  27.65000 52.14500 21.51900
H  28.58500 50.71500 20.81000
H  23.59600 49.65400 22.09500
H  24.89100 48.50000 22.26900
H  23.60100 49.31700 19.89900
H  24.85100 47.98000 20.09100
H  25.25200 49.59200 19.58400
H  21.26100 52.45300 24.43200
H  22.07700 53.95000 24.27500
H  20.88600 53.87100 25.57400
H  22.72700 51.92600 30.22400
H  23.47500 55.92700 31.92000
H  23.81600 54.77800 33.25900
H  22.21500 55.34300 33.02100

