158

Mg 17.02300 -1.84300 28.18000
C  15.90500 -0.20700 30.96100
C  19.47000 -3.43600 30.09800
C  18.11300 -3.39600 25.40200
C  14.93600 0.16200 26.23100
N  17.63100 -1.80800 30.36200
C  16.91300 -1.09100 31.25400
C  17.40000 -1.41700 32.64900
C  18.72700 -2.32100 32.32700
C  18.67100 -2.53000 30.81400
C  20.00500 -1.84600 32.97000
C  16.29800 -2.11500 33.49100
C  15.91200 -1.44800 34.80100
H  17.07800 -0.72200 35.55200
N  18.50000 -3.33600 27.81100
C  19.34100 -3.84300 28.73100
C  20.12800 -4.84300 28.11600
C  19.85000 -4.84900 26.73600
C  18.74700 -3.84700 26.59700
C  21.05700 -5.67900 28.95100
C  20.48000 -5.55300 25.59500
O  20.00100 -5.42400 24.48600
C  21.53100 -6.63400 25.76900
N  16.62900 -1.65800 26.10200
C  17.26000 -2.37200 25.12100
C  16.85400 -1.88300 23.73800
C  15.61700 -0.95000 24.08000
C  15.78700 -0.73200 25.56500
C  18.03200 -1.19800 23.04400
C  14.27500 -1.61600 23.68900
C  13.98600 -1.37400 22.20000
N  15.57500 -0.34500 28.48600
C  14.80700 0.41400 27.62700
C  13.97700 1.36000 28.39300
C  14.39200 1.16500 29.68000
C  15.37300 0.14200 29.66000
C  13.10100 2.37600 27.85400
C  14.23500 1.59200 31.04500
O  13.56700 2.47700 31.51300
C  15.25500 0.73300 31.90700
C  16.21500 1.73700 32.46900
O  17.19300 2.14200 31.88000
O  15.71600 2.21300 33.63800
C  16.52500 3.28300 34.21800
H  20.21200 -3.88800 30.76000
H  18.38900 -3.83600 24.44100
H  14.23900 0.82400 25.71200
H  17.64000 -0.45600 33.10500
H  18.59500 -3.33400 32.70800
H  19.81900 -0.97600 33.60000
H  20.66600 -1.56000 32.15200
H  20.40000 -2.67500 33.55700
H  16.75800 -3.07300 33.73300
H  15.38200 -2.31200 32.93200
H  15.66600 -2.39600 35.27800
H  14.97400 -0.90400 34.90800
H  20.68000 -6.03600 29.91000
H  21.82500 -4.97600 29.27400
H  21.52500 -6.46700 28.36200
H  22.43100 -6.27700 26.27000
H  21.81800 -7.05300 24.80400
H  21.02700 -7.44000 26.30200
H  16.53000 -2.78200 23.21400
H  15.68100 0.02700 23.60200
H  18.92400 -1.45200 23.61700
H  17.78000 -0.15200 22.87100
H  18.10700 -1.64400 22.05300
H  13.46400 -1.21700 24.29800
H  14.26300 -2.69400 23.85000
H  13.77400 -2.38000 21.83900
H  14.69500 -0.85000 21.55900
H  13.05900 -0.80000 22.20700
H  13.55400 2.71700 26.92300
H  13.23200 3.18200 28.57500
H  12.09400 2.02700 27.62300
H  14.61800 0.29900 32.67800
H  17.57800 3.02300 34.11200
H  16.40100 3.29200 35.30100
H  16.24900 4.25600 33.81100
Mg -11.08800 38.94500 41.36300
C  -8.74000 36.12100 40.96100
C  -9.04200 40.80000 39.51300
C  -13.63700 41.07800 40.99500
C  -13.36500 36.43500 42.38300
N  -9.17000 38.46500 40.21600
C  -8.40800 37.30800 40.24300
C  -7.10300 37.54400 39.51400
C  -7.15700 39.07100 39.09500
C  -8.53500 39.48900 39.67200
C  -5.96600 39.97600 39.61800
C  -7.05900 36.62600 38.26500
C  -5.72400 35.89100 38.20900
H  -4.95700 36.11900 36.93900
N  -11.19900 40.73700 40.47800
C  -10.22800 41.33900 39.84400
C  -10.61500 42.69700 39.51200
C  -11.98400 42.80600 39.83500
C  -12.35100 41.51400 40.48000
C  -9.73400 43.83200 38.79000
C  -12.87400 43.98600 39.55300
O  -12.40200 45.01700 38.97400
C  -14.31500 44.04400 39.81200
N  -13.21000 38.76900 41.67600
C  -14.02300 39.86000 41.54800
C  -15.50700 39.48800 41.96500
C  -15.36500 37.95200 42.36400
C  -13.91700 37.70400 42.13600
C  -16.14400 40.32100 43.15100
C  -16.30100 37.02700 41.59500
C  -17.06900 36.02600 42.55600
N  -11.14500 36.74700 41.72000
C  -12.10400 35.92700 42.20100
C  -11.57300 34.61900 42.47600
C  -10.33400 34.66600 41.97700
C  -10.05000 35.97500 41.51700
C  -12.37700 33.59200 43.10400
C  -9.13000 33.85800 41.81400
O  -8.96500 32.67600 41.99600
C  -8.07800 34.78700 41.05500
C  -6.72600 34.78500 41.70400
O  -5.83800 33.95100 41.61300
O  -6.55700 36.00900 42.38600
C  -5.25800 36.25900 43.14700
H  -8.28500 41.45700 39.07900
H  -14.54800 41.67300 40.90000
H  -14.04000 35.74700 42.89600
H  -6.17000 37.50400 40.07600
H  -7.20400 39.23000 38.01800
H  -6.41300 40.62000 40.37600
H  -5.56700 40.60700 38.82400
H  -5.10500 39.54800 40.13200
H  -7.34100 37.20400 37.38400
H  -7.87000 35.89800 38.24200
H  -5.92400 34.82700 38.32700
H  -5.05700 36.19300 39.01800
H  -10.16800 43.99300 37.80400
H  -8.71800 43.47500 38.62800
H  -9.65500 44.79700 39.29200
H  -14.31700 43.94200 40.89700
H  -14.83900 43.23000 39.31100
H  -14.73200 44.98600 39.45700
H  -16.20600 39.59300 41.13500
H  -15.53400 37.82300 43.43400
H  -16.51500 41.28600 42.80600
H  -15.54600 40.43600 44.05500
H  -16.90200 39.65600 43.56500
H  -15.79000 36.43300 40.83700
H  -17.05900 37.57700 41.03700
H  -17.00100 35.02500 42.13000
H  -18.01500 36.47600 42.85800
H  -16.55600 35.93200 43.51300
H  -13.04400 33.91300 43.90500
H  -11.60300 33.07200 43.66900
H  -12.78200 32.97100 42.30600
H  -8.06200 34.46900 40.01300
H  -5.24800 35.57700 43.99700
H  -5.04800 37.30200 43.38200
H  -4.51200 36.15600 42.35900

