158

Mg 34.25200 3.60400 30.08300
C  31.92200 4.56300 32.54900
C  36.64100 3.63400 32.46000
C  36.38700 2.69000 27.74300
C  31.52800 3.53400 27.64600
N  34.29100 4.12700 32.17300
C  33.19900 4.43700 33.02600
C  33.58300 4.39300 34.50600
C  35.11600 4.69700 34.35400
C  35.39800 4.06300 32.92400
C  35.51800 6.11300 34.28800
C  33.26500 2.99300 35.12000
C  32.94600 3.00300 36.65500
H  33.53300 4.14800 37.50100
N  36.24000 3.09700 30.15100
C  37.05200 3.20500 31.22900
C  38.34700 2.81500 30.86000
C  38.27100 2.41700 29.47600
C  36.92400 2.76900 29.01800
C  39.47300 2.62000 31.90100
C  39.39300 1.75600 28.63500
O  39.29800 1.62500 27.39900
C  40.75400 1.51300 29.23700
N  34.03300 3.31700 27.93700
C  35.09000 2.91800 27.21000
C  34.67500 2.55500 25.75400
C  33.15300 2.53000 25.83700
C  32.83500 3.17100 27.20400
C  35.17100 3.69500 24.77700
C  32.56600 1.07300 25.76600
C  31.86000 0.86700 24.41500
N  32.23100 3.95700 29.99200
C  31.23800 3.90700 28.97200
C  29.91500 4.22300 29.56700
C  30.15500 4.56600 30.84000
C  31.56000 4.30700 31.14600
C  28.57600 4.23400 28.88600
C  29.51000 4.95600 32.07000
O  28.31500 5.28100 32.18000
C  30.58900 5.06100 33.20500
C  30.64000 6.36800 33.86200
O  31.16700 7.36000 33.37000
O  30.19600 6.19700 35.13100
C  30.49400 7.22700 36.09800
H  37.35400 3.74300 33.28100
H  37.07400 2.43700 26.93300
H  30.70500 3.48500 26.92900
H  33.07500 5.10500 35.15700
H  35.63400 4.18400 35.16400
H  35.93800 6.39700 35.25400
H  34.67100 6.79800 34.26300
H  36.17000 6.38700 33.45900
H  34.06000 2.25600 35.00300
H  32.30100 2.60800 34.78600
H  33.38500 2.11100 37.10200
H  31.88900 2.93400 36.91200
H  40.51800 2.60000 31.59100
H  39.37100 1.72000 32.50700
H  39.46800 3.58700 32.40500
H  40.78600 0.80100 30.06100
H  41.31700 2.36700 29.61300
H  41.40700 1.05300 28.49500
H  35.16300 1.64400 25.40900
H  32.71200 3.19200 25.09200
H  35.47600 4.58400 25.33000
H  34.45400 3.99000 24.01100
H  36.03500 3.30200 24.24100
H  31.87600 0.80600 26.56600
H  33.45100 0.44400 25.85200
H  30.93500 0.34200 24.65200
H  32.50300 0.23400 23.80400
H  31.62500 1.74200 23.80900
H  28.59600 3.91600 27.84400
H  28.15100 5.23800 28.91100
H  27.92200 3.61800 29.50400
H  30.18600 4.40100 33.97300
H  30.81300 6.87700 37.08000
H  29.57400 7.74700 36.36500
H  31.19800 7.97200 35.72600
Mg 49.96300 46.55300 43.33200
C  46.73900 46.95900 42.34200
C  50.00800 43.45900 41.73800
C  53.25600 46.53200 43.67700
C  49.96900 49.99100 44.47600
N  48.58700 45.41800 42.09300
C  47.30300 45.77100 41.89600
C  46.54300 44.75900 41.04000
C  47.55100 43.56600 40.94800
C  48.77700 44.14200 41.66900
C  47.02300 42.22400 41.47200
C  45.98100 45.32700 39.67000
C  44.65900 44.74000 39.29700
H  44.61400 43.72200 38.09400
N  51.41300 45.12500 42.94400
C  51.22900 43.97000 42.24400
C  52.49500 43.26700 42.24300
C  53.47100 44.05700 42.94600
C  52.76200 45.29400 43.25700
C  52.65700 41.91200 41.48800
C  54.93900 43.80800 43.14300
O  55.41500 42.77900 42.72800
C  55.88300 44.69000 44.06700
N  51.44700 48.03400 44.03500
C  52.74400 47.75200 44.08800
C  53.51000 49.01600 44.60700
C  52.49600 50.15400 44.66300
C  51.19700 49.40500 44.38800
C  54.11600 48.71300 46.01200
C  52.77700 51.35900 43.66200
C  53.26100 52.64200 44.35200
N  48.61900 48.15600 43.51500
C  48.76500 49.46900 43.96600
C  47.44000 50.11200 43.93600
C  46.61900 49.15600 43.25900
C  47.43700 48.00700 43.03500
C  47.07600 51.38500 44.46600
C  45.29500 48.90800 42.70500
O  44.24800 49.61100 42.73600
C  45.30300 47.43800 42.17000
C  44.27500 46.69800 42.96600
O  44.15700 46.58400 44.19100
O  43.42100 46.05700 42.07100
C  42.57700 44.97100 42.54500
H  50.07900 42.51600 41.19300
H  54.34000 46.59800 43.78600
H  49.89900 51.05800 44.69900
H  45.65300 44.39800 41.55400
H  47.71600 43.40200 39.88300
H  46.06100 42.33300 41.97300
H  47.77300 41.74400 42.10100
H  46.89200 41.48700 40.68000
H  46.74500 45.10800 38.92400
H  45.99000 46.41700 39.69400
H  43.93800 45.55100 39.19400
H  44.21400 44.13300 40.08500
H  53.11700 42.12100 40.52200
H  51.72300 41.35100 41.46100
H  53.37700 41.27300 42.00000
H  56.50400 43.92800 44.53900
H  55.28500 45.14400 44.85800
H  56.48200 45.34900 43.44000
H  54.35000 49.21000 43.94000
H  52.45400 50.56500 45.67200
H  54.44100 49.59500 46.56500
H  54.94100 48.04000 45.77700
H  53.30700 48.23700 46.56500
H  51.80900 51.60900 43.22800
H  53.44800 51.03000 42.86800
H  54.34200 52.77900 44.32200
H  52.98000 52.54200 45.40000
H  52.82900 53.55400 43.94000
H  47.44200 52.21500 43.86100
H  47.39600 51.51800 45.49900
H  46.00000 51.53200 44.37600
H  45.00500 47.47900 41.12200
H  42.13700 45.08500 43.53600
H  43.14200 44.03900 42.54300
H  41.75000 44.83700 41.84700

