158

Mg 30.02500 57.82100 39.47800
C  27.44500 55.77500 38.13500
C  32.36100 55.47500 38.14300
C  32.43000 60.13800 39.78800
C  27.66100 60.32200 39.85700
N  29.92800 55.80000 38.22800
C  28.74400 55.21800 37.83200
C  29.10400 53.80400 37.29900
C  30.57900 53.64500 37.70300
C  31.02700 55.05200 38.00600
C  30.76800 52.74200 38.91100
C  28.73300 53.58200 35.85100
C  29.34500 54.41900 34.79000
H  28.45700 54.95000 33.76900
N  32.10600 57.71100 39.27400
C  32.88100 56.69200 38.74100
C  34.22000 57.10000 38.80200
C  34.35300 58.45600 39.40100
C  32.92700 58.85700 39.50200
C  35.34600 56.20300 38.35100
C  35.52200 59.26600 39.71500
O  36.65500 58.77800 39.43300
C  35.49500 60.65900 40.35400
N  29.99400 59.87100 39.99200
C  31.14200 60.59200 39.92600
C  30.97500 62.08500 40.15200
C  29.39500 62.16800 40.36100
C  29.00300 60.72100 40.04500
C  31.84900 62.80900 41.21000
C  28.73900 63.27400 39.47100
C  27.64600 64.05900 40.21300
N  27.95700 58.00500 39.24200
C  27.15600 59.05800 39.52000
C  25.76100 58.61800 39.26200
C  25.83700 57.31700 38.76400
C  27.17800 57.02600 38.71500
C  24.50300 59.45900 39.35900
C  25.04800 56.23900 38.20900
O  23.86100 56.21000 37.98900
C  26.05600 55.13600 37.90400
C  25.82600 53.87100 38.68900
O  26.37400 53.51500 39.74000
O  24.70700 53.21200 38.09400
C  24.09200 52.09000 38.86700
H  33.09600 54.80400 37.69200
H  33.12700 60.97900 39.79400
H  26.97500 61.15800 40.01400
H  28.47200 53.13600 37.88400
H  31.11800 53.28900 36.82600
H  31.01100 51.78900 38.44300
H  29.90600 52.49000 39.52900
H  31.50600 53.16500 39.59300
H  27.64700 53.60100 35.76100
H  28.78400 52.51000 35.65800
H  30.17000 53.84800 34.36500
H  29.76100 55.31800 35.24600
H  35.93200 55.79600 39.17600
H  35.90100 56.87200 37.69300
H  35.13500 55.28900 37.79500
H  36.38700 61.15700 40.73500
H  34.78000 60.72500 41.17400
H  35.28700 61.31000 39.50500
H  31.24900 62.54900 39.20400
H  29.01700 62.30000 41.37500
H  31.15800 63.16500 41.97400
H  32.30900 63.66900 40.72500
H  32.59200 62.15200 41.66400
H  28.25700 62.74000 38.65200
H  29.48000 64.03700 39.23200
H  28.02100 65.01500 40.57800
H  27.34000 63.43500 41.05200
H  26.78300 64.28800 39.58700
H  24.51500 60.15100 38.51700
H  24.42100 59.97300 40.31700
H  23.66400 58.78500 39.18900
H  25.86100 54.87100 36.86500
H  24.26900 52.33900 39.91300
H  24.64700 51.20100 38.56700
H  23.02200 52.08200 38.66000
Mg 6.03100 54.34200 39.77500
C  5.35500 50.82900 39.95700
C  9.42400 53.39700 39.22800
C  6.84200 57.46700 39.22600
C  2.71000 55.06600 39.76900
N  7.16100 52.24400 39.45100
C  6.77400 50.99300 39.72200
C  7.88800 49.98300 39.59100
C  9.11100 50.91700 39.77400
C  8.56000 52.30100 39.38700
C  9.83400 50.92900 41.16900
C  7.88400 49.27200 38.24700
C  7.60600 49.96100 36.90900
H  6.27000 49.63600 36.21000
N  7.89000 55.34500 39.42800
C  9.10200 54.78700 39.18800
C  10.03000 55.87800 39.02600
C  9.36200 57.08200 39.10200
C  8.00000 56.64100 39.23800
C  11.52400 55.68800 38.83900
C  9.99900 58.48700 39.01000
O  11.22500 58.60400 38.87200
C  9.25500 59.75100 39.19200
N  4.89900 56.01900 39.28000
C  5.44700 57.21400 39.27300
C  4.40100 58.35600 39.50700
C  3.09200 57.52600 39.58900
C  3.55800 56.07200 39.45400
C  4.74000 59.32900 40.70000
C  1.99100 58.07800 38.60100
C  2.07400 57.41900 37.21400
N  4.33000 53.27700 39.77100
C  3.02300 53.69100 39.90600
C  2.20500 52.57400 40.28300
C  3.03600 51.42500 40.23700
C  4.37800 51.92500 39.95900
C  0.70300 52.56700 40.25600
C  3.02500 50.01500 40.44300
O  2.16300 49.14500 40.62500
C  4.55000 49.59000 40.35400
C  4.54100 48.57500 39.29600
O  4.12300 48.67900 38.17900
O  4.92300 47.35200 39.79200
C  4.69400 46.16500 38.94200
H  10.47900 53.11800 39.20700
H  6.91900 58.55400 39.29600
H  1.68600 55.43400 39.85000
H  7.65100 49.29200 40.40000
H  9.84600 50.63200 39.02100
H  10.83700 50.51200 41.08900
H  9.28200 50.34900 41.90900
H  9.81500 51.95800 41.52900
H  7.17400 48.45500 38.38000
H  8.86100 48.78800 38.25100
H  8.40900 49.55700 36.29300
H  7.82500 51.01200 37.09900
H  11.76700 55.52600 37.78900
H  11.94000 54.88200 39.44300
H  12.11000 56.52300 39.22400
H  10.05900 60.48400 39.11700
H  8.79900 59.74300 40.18100
H  8.52700 59.73500 38.38100
H  4.43200 59.01500 38.64000
H  2.63600 57.56300 40.57800
H  3.97000 59.29000 41.47000
H  4.78200 60.35700 40.34000
H  5.67700 59.04300 41.17900
H  2.07200 59.16200 38.52800
H  0.96600 57.97900 38.95900
H  1.07200 56.99600 37.13800
H  2.82800 56.66600 36.98400
H  2.24200 58.19900 36.47200
H  0.38600 53.40300 40.87900
H  0.37900 51.69300 40.82100
H  0.40200 52.58000 39.20800
H  4.87400 49.19400 41.31700
H  5.63500 46.13800 38.39300
H  3.84300 46.30400 38.27600
H  4.49000 45.30900 39.58500

