158

Mg 8.27700 2.88900 27.45000
C  9.58400 1.35400 30.43500
C  6.19200 4.68100 29.47000
C  6.62100 3.80700 24.66500
C  9.97200 0.35000 25.67200
N  8.02900 3.12200 29.72400
C  8.69300 2.42800 30.69800
C  8.36900 3.04300 32.11600
C  7.21900 4.00700 31.75900
C  7.10300 3.91400 30.26500
C  5.85200 3.92300 32.56100
C  9.61700 3.61700 32.91200
C  9.26600 4.56000 33.97600
H  10.12700 4.41600 35.25500
N  6.63300 4.04800 27.10100
C  5.95800 4.74900 28.08900
C  5.03900 5.68100 27.41800
C  5.13500 5.42900 25.97100
C  6.20500 4.46000 25.81100
C  4.16200 6.67600 28.22900
C  4.35800 6.08300 24.84900
O  4.42100 5.80900 23.68600
C  3.30500 7.12800 25.24200
N  8.25500 2.19000 25.45500
C  7.52000 2.77400 24.45200
C  7.98800 2.24500 23.04900
C  9.18100 1.24900 23.47700
C  9.10200 1.17500 24.97200
C  6.90700 1.68500 22.18500
C  10.61400 1.59000 23.02200
C  11.42500 2.53900 23.82600
N  9.59900 1.30400 27.89000
C  10.13500 0.35800 27.03400
C  10.95900 -0.56200 27.79800
C  10.77700 -0.15400 29.12500
C  9.94000 0.90400 29.13500
C  11.65500 -1.74500 27.22200
C  11.16700 -0.56800 30.46500
O  11.85800 -1.54700 30.84100
C  10.40100 0.40400 31.33500
C  9.61800 -0.28300 32.33600
O  8.70600 -1.01300 32.14300
O  10.07800 0.10200 33.60000
C  9.29800 -0.53100 34.65100
H  5.69600 5.32100 30.20200
H  6.19700 4.09500 23.70100
H  10.63800 -0.31900 25.12300
H  8.02300 2.20100 32.71500
H  7.53400 5.00700 32.05800
H  5.01000 3.74900 31.89000
H  5.75400 4.84800 33.12900
H  5.99400 3.06400 33.21600
H  10.33500 4.06000 32.22200
H  10.09800 2.81900 33.47800
H  8.24200 4.31900 34.25900
H  9.31500 5.57900 33.59200
H  4.27600 7.68300 27.83000
H  4.33800 6.48600 29.28800
H  3.19000 6.21500 28.04800
H  2.58300 6.62200 25.88200
H  2.80900 7.38700 24.30600
H  3.81000 8.03600 25.57400
H  8.49200 3.12100 22.63900
H  9.08100 0.29000 22.96800
H  5.96300 1.46400 22.68300
H  7.06000 0.65600 21.86000
H  6.63000 2.30200 21.32900
H  10.50900 2.11700 22.07400
H  11.15600 0.66500 22.82900
H  10.94400 2.80300 24.76800
H  11.59800 3.51100 23.36400
H  12.40800 2.13700 24.07400
H  10.98300 -2.32300 26.58800
H  11.82200 -2.48100 28.00800
H  12.61600 -1.43600 26.81100
H  11.14600 1.04800 31.80100
H  9.08000 -1.57900 34.44700
H  8.32200 -0.06200 34.77300
H  9.89700 -0.43300 35.55700
Mg 1.04700 43.51600 25.91600
C  2.57300 43.78500 29.06800
C  -1.71500 42.08200 27.32700
C  0.05000 42.84400 22.85400
C  4.13200 44.68600 24.49300
N  0.49300 43.02200 28.00200
C  1.26600 43.26600 29.11400
C  0.46100 42.77600 30.39700
C  -0.82300 42.26000 29.74400
C  -0.69200 42.44200 28.29500
C  -1.11000 40.78100 30.09500
C  0.26000 43.95600 31.47900
C  -0.73600 43.74100 32.70800
H  -1.00900 42.36000 33.20500
N  -0.63900 42.71300 25.21400
C  -1.66200 42.16900 25.90400
C  -2.66000 41.62300 25.01700
C  -2.22300 41.94300 23.73000
C  -0.91900 42.57600 23.89100
C  -3.89200 41.02900 25.48700
C  -2.88400 41.53600 22.36000
O  -2.28200 41.66100 21.32000
C  -4.19800 40.83600 22.37100
N  2.03100 43.73700 23.96300
C  1.40400 43.27800 22.87200
C  2.08500 43.79900 21.60100
C  3.32000 44.58300 22.04600
C  3.14700 44.39000 23.60800
C  2.33100 42.65000 20.61500
C  3.40400 46.06600 21.52900
C  2.10400 46.92800 21.75100
N  2.97900 44.00700 26.60100
C  4.10000 44.42400 25.88100
C  5.25500 44.48500 26.79700
C  4.73100 44.29000 28.13100
C  3.30000 44.01800 27.92300
C  6.70700 44.72100 26.40400
C  4.95500 44.20600 29.51400
O  5.99200 44.47900 30.16400
C  3.61100 43.87900 30.14500
C  3.74000 42.71400 30.96000
O  3.90800 41.62700 30.48100
O  3.63200 42.90600 32.29100
C  3.43400 41.70400 33.07700
H  -2.59000 41.53400 27.68300
H  -0.26700 42.46000 21.88200
H  4.91400 45.31500 24.06200
H  1.14900 41.98800 30.70300
H  -1.68200 42.81300 30.12500
H  -2.07300 40.64400 30.58800
H  -0.32200 40.42500 30.75800
H  -1.06800 40.21700 29.16300
H  -0.08700 44.80000 30.88200
H  1.21100 44.29600 31.88900
H  -1.67300 44.28900 32.60900
H  -0.32200 44.17300 33.61900
H  -4.15700 41.30700 26.50700
H  -3.84000 39.94300 25.41900
H  -4.78200 41.30000 24.92000
H  -4.96200 41.56200 22.65000
H  -4.18900 39.95700 23.01500
H  -4.57600 40.36700 21.46200
H  1.34400 44.41100 21.08700
H  4.21300 44.07700 21.67900
H  2.27800 41.64400 21.03000
H  3.22900 42.91300 20.05500
H  1.58200 42.70500 19.82600
H  3.47400 46.04000 20.44100
H  4.21900 46.59400 22.02500
H  1.45200 46.30400 22.36300
H  1.51200 47.04900 20.84400
H  2.25900 47.90000 22.22100
H  7.27200 44.16000 27.14900
H  6.93400 45.78400 26.47400
H  6.87700 44.39700 25.37600
H  3.34700 44.65600 30.86300
H  4.31800 41.29200 33.56300
H  2.99000 40.93200 32.44800
H  2.62900 41.92900 33.77600

