158

Mg 30.56300 58.58900 41.31000
C  27.96400 56.59300 40.25400
C  32.80000 56.11800 40.31700
C  33.25300 60.76800 41.54600
C  28.33400 61.27300 41.40500
N  30.40500 56.64700 40.37900
C  29.23300 56.04700 40.16800
C  29.42200 54.75100 39.42100
C  30.84900 54.39100 39.91300
C  31.46000 55.78700 40.10000
C  31.13000 53.40000 41.12300
C  29.30200 54.76700 37.81800
C  28.24100 53.84800 37.07500
H  27.44600 54.58400 35.95700
N  32.75300 58.42200 41.08500
C  33.40500 57.27500 40.74200
C  34.83500 57.52500 40.77700
C  35.03100 58.87300 41.15600
C  33.66300 59.43600 41.23800
C  35.85300 56.47500 40.36500
C  36.25700 59.65500 41.29700
O  37.33100 59.06200 41.12000
C  36.43000 61.05500 41.74900
N  30.78500 60.71200 41.37200
C  31.95800 61.32800 41.49900
C  31.74600 62.90700 41.73000
C  30.21900 63.01100 41.79000
C  29.73700 61.54400 41.54900
C  32.37000 63.43600 43.07200
C  29.67900 63.92200 40.65300
C  30.21200 65.34100 40.55000
N  28.50900 58.92300 41.04200
C  27.72600 60.03400 41.10200
C  26.35900 59.61600 40.95400
C  26.40700 58.28600 40.60900
C  27.74900 57.90600 40.62300
C  25.05600 60.41600 41.02500
C  25.62000 57.15100 40.27600
O  24.42600 57.08200 40.09200
C  26.58100 56.01900 40.06000
C  26.39500 54.81300 40.86900
O  26.63100 54.70100 42.06000
O  25.88400 53.78600 40.12600
C  25.56000 52.54100 40.87900
H  33.41100 55.25400 40.04800
H  33.98800 61.57300 41.60600
H  27.61800 62.05300 41.67000
H  28.69500 54.03900 39.81300
H  31.40300 53.96800 39.07500
H  31.70900 53.83800 41.93600
H  31.64600 52.57200 40.63600
H  30.17700 53.07500 41.54200
H  30.24800 54.49800 37.34800
H  29.05200 55.78400 37.51600
H  27.50100 53.56200 37.82300
H  28.88000 53.07900 36.64100
H  36.07800 56.58600 39.30400
H  35.59600 55.43100 40.54400
H  36.74800 56.65700 40.96100
H  35.80900 61.11200 42.64300
H  36.15000 61.75900 40.96600
H  37.41800 61.28200 42.15100
H  32.23400 63.29000 40.83400
H  29.77100 63.46800 42.67300
H  32.71400 62.58200 43.65600
H  31.75200 64.09400 43.68200
H  33.24000 64.07300 42.91400
H  28.59800 63.93700 40.79000
H  29.86600 63.58400 39.63400
H  30.73000 65.55100 39.61400
H  30.88100 65.45400 41.40300
H  29.41000 66.06900 40.67900
H  24.39100 60.02900 40.25300
H  25.23900 61.43000 40.66900
H  24.55900 60.34800 41.99200
H  26.58700 55.78700 38.99500
H  26.40800 51.85700 40.83400
H  24.67800 52.04300 40.47800
H  25.23400 52.69800 41.90700
Mg -0.06200 43.61400 25.51000
C  2.05500 43.12500 28.21100
C  -2.52400 42.37700 27.39300
C  -2.07700 44.07000 22.84300
C  2.68300 44.07200 23.45600
N  -0.24700 42.90200 27.56200
C  0.73100 42.95000 28.55100
C  0.22300 42.56800 29.90500
C  -1.16700 41.97400 29.58900
C  -1.31200 42.41500 28.07100
C  -1.21200 40.42600 29.90500
C  0.13700 43.94600 30.72400
C  0.34000 43.93400 32.26800
H  0.28100 42.48500 32.92600
N  -2.02900 43.24800 25.18500
C  -2.91000 42.70400 26.07400
C  -4.17600 42.58300 25.45200
C  -4.16400 43.27700 24.18900
C  -2.70400 43.58400 24.03000
C  -5.44000 42.00700 26.19100
C  -5.21400 43.80600 23.33000
O  -5.04600 44.54300 22.38300
C  -6.59900 43.26800 23.48500
N  0.24500 43.97200 23.45400
C  -0.77400 44.38100 22.61400
C  -0.24800 44.85200 21.21700
C  1.29700 44.82100 21.49600
C  1.42600 44.21300 22.91400
C  -0.72600 43.88500 20.06300
C  2.16600 46.07800 21.33200
C  2.17000 47.17900 22.45800
N  1.96900 43.62200 25.73500
C  2.99700 43.74400 24.78400
C  4.29600 43.55300 25.47700
C  3.96900 43.28200 26.76400
C  2.53200 43.29300 26.88600
C  5.68700 43.72000 24.86100
C  4.57700 43.00800 28.08300
O  5.75900 42.84500 28.33900
C  3.28500 42.92600 29.05400
C  3.34100 41.64100 29.68000
O  2.70400 40.63100 29.39500
O  4.33600 41.67800 30.58800
C  4.94900 40.44400 30.97000
H  -3.26700 41.84100 27.98700
H  -2.74000 44.16900 21.98100
H  3.55400 44.24600 22.82100
H  0.79500 41.77200 30.38200
H  -1.91900 42.49000 30.18600
H  -2.14700 40.32800 30.45600
H  -0.46000 40.00900 30.57500
H  -1.23900 39.74000 29.05800
H  -0.84700 44.36800 30.52400
H  0.80300 44.67600 30.26400
H  -0.32100 44.57400 32.85200
H  1.36500 44.24000 32.48100
H  -5.10400 41.46900 27.07700
H  -5.78600 41.19500 25.55200
H  -6.28000 42.69800 26.26300
H  -7.06400 43.65100 24.39300
H  -6.53700 42.18300 23.39300
H  -7.23900 43.54500 22.64700
H  -0.50500 45.89300 21.02100
H  1.63700 44.09700 20.75500
H  0.12500 43.48900 19.50800
H  -1.37500 44.53300 19.47500
H  -1.23100 43.00700 20.46500
H  1.80700 46.49400 20.39100
H  3.20300 45.78100 21.18100
H  3.19200 47.37300 22.78100
H  1.50600 47.03500 23.31000
H  1.80200 48.08000 21.96600
H  5.75800 44.59100 24.21000
H  6.04500 42.85700 24.30000
H  6.35500 44.06500 25.65100
H  3.25200 43.66500 29.85500
H  4.81500 39.60000 30.29300
H  4.47800 40.11200 31.89600
H  6.02100 40.59500 31.09400

