158

Mg 53.57200 23.41400 44.63400
C  51.15800 25.78400 43.90600
C  51.69300 21.06700 43.00900
C  56.08200 21.08300 45.02000
C  55.78700 25.89400 45.33800
N  51.74500 23.42800 43.66800
C  50.91600 24.52200 43.39900
C  49.79700 24.17200 42.37300
C  49.76500 22.60700 42.59400
C  51.18600 22.36100 43.06600
C  48.66500 22.14600 43.51400
C  50.30000 24.44400 40.93100
C  49.33200 24.66200 39.78500
H  49.90200 25.20800 38.49300
N  53.82100 21.31900 44.28900
C  52.91600 20.56900 43.51800
C  53.38800 19.15600 43.54000
C  54.65100 19.13200 44.20400
C  54.90400 20.54000 44.57900
C  52.54200 18.05800 43.02000
C  55.43900 17.89800 44.32300
O  55.25900 16.85900 43.73400
C  56.72900 17.93600 45.25300
N  55.61600 23.42100 45.07400
C  56.49500 22.39600 45.27500
C  57.94100 22.85700 45.66500
C  57.79400 24.36900 45.51700
C  56.28100 24.58600 45.30400
C  58.54400 22.35600 46.99100
C  58.75400 25.09400 44.43300
C  58.98600 26.63800 44.36800
N  53.49000 25.45000 44.90200
C  54.47500 26.34300 45.15900
C  53.80500 27.65700 45.24300
C  52.58100 27.52600 44.69300
C  52.39600 26.11600 44.57200
C  54.44900 28.95100 45.69900
C  51.27400 28.17000 44.31000
O  50.92100 29.36500 44.41100
C  50.30800 27.09900 43.80200
C  49.90100 27.58200 42.46300
O  50.52500 27.88000 41.46300
O  48.55900 27.63900 42.49300
C  47.76600 27.91300 41.28000
H  51.14600 20.30600 42.45000
H  56.86200 20.32700 44.91100
H  56.43600 26.73400 45.59400
H  48.85200 24.62700 42.66900
H  49.74800 22.17300 41.59400
H  47.90100 22.90300 43.69200
H  48.97000 21.69600 44.45900
H  48.08400 21.45700 42.90200
H  50.95800 23.60800 40.69400
H  50.93400 25.33100 40.93900
H  48.51800 25.28000 40.16200
H  49.00400 23.62900 39.66700
H  52.50000 17.22800 43.72400
H  52.78900 17.63700 42.04500
H  51.47500 18.27300 43.07500
H  56.45200 18.60200 46.07000
H  57.63000 18.13600 44.67300
H  56.72500 16.92500 45.66000
H  58.58000 22.55300 44.83600
H  57.93000 24.93600 46.43800
H  58.02800 22.85800 47.80900
H  59.59600 22.61100 47.12000
H  58.45800 21.27100 47.05100
H  58.27400 24.87600 43.47800
H  59.67000 24.51600 44.31700
H  59.97100 26.97200 44.69200
H  58.39400 26.95300 45.22800
H  58.73500 27.03400 43.38400
H  55.30600 29.27900 45.11100
H  54.68300 29.08900 46.75500
H  53.71400 29.70000 45.40400
H  49.41100 27.07100 44.42000
H  48.19500 27.45900 40.38800
H  47.58200 28.98700 41.23400
H  46.87000 27.32400 41.47400
Mg 35.92000 49.35100 25.01200
C  36.36700 47.43200 27.90200
C  34.69900 51.83400 26.86000
C  35.54600 51.06100 22.07500
C  37.01100 46.53800 23.19700
N  35.50700 49.58600 27.20300
C  35.82900 48.68100 28.21600
C  35.52800 49.32300 29.53200
C  34.92600 50.72900 29.14600
C  35.00200 50.67800 27.65900
C  33.45800 51.12100 29.70200
C  36.78200 49.41700 30.47400
C  36.77600 48.87600 31.89500
H  35.58000 49.16900 32.79900
N  35.13400 51.19100 24.51300
C  34.68900 52.12300 25.48100
C  34.29900 53.29900 24.83200
C  34.54100 53.12300 23.43100
C  35.16600 51.78100 23.28200
C  33.79800 54.49400 25.62000
C  34.46100 54.08200 22.32100
O  35.02900 53.80100 21.27400
C  33.89600 55.57900 22.46400
N  36.30700 48.89300 22.98000
C  36.05700 49.74200 21.94500
C  36.26400 49.08000 20.53700
C  36.82800 47.62300 20.91700
C  36.75800 47.70200 22.46800
C  35.05600 49.07200 19.61300
C  38.30000 47.33900 20.31700
C  39.43900 48.19000 20.80200
N  36.55100 47.36400 25.38900
C  36.87100 46.33700 24.51000
C  37.26300 45.15900 25.27300
C  37.09500 45.57400 26.60500
C  36.61200 46.91300 26.59000
C  37.68400 43.79200 24.81300
C  37.28500 45.18100 28.00000
O  37.70200 44.11400 28.47100
C  36.82700 46.40000 28.91500
C  35.74000 45.78000 29.75500
O  34.57800 45.55800 29.47700
O  36.22500 45.59200 31.01500
C  35.32100 44.97000 31.99000
H  34.33900 52.65900 27.47800
H  35.35700 51.50300 21.09500
H  37.24900 45.57200 22.74700
H  34.83400 48.75800 30.15400
H  35.46600 51.51200 29.67800
H  33.15200 50.43200 30.48900
H  32.64800 51.08100 28.97400
H  33.43100 52.04000 30.28700
H  37.06100 50.47100 30.47500
H  37.64600 48.94700 30.00500
H  37.68100 49.28400 32.34600
H  36.89900 47.80500 31.73500
H  32.96600 55.00500 25.13600
H  34.65000 55.16900 25.69900
H  33.42200 54.38200 26.63700
H  34.15600 56.08900 23.39200
H  32.80700 55.61000 22.45200
H  34.27600 56.25800 21.70000
H  37.02100 49.62700 19.97600
H  36.05000 46.95000 20.55600
H  34.51900 48.12600 19.54500
H  35.28100 49.39000 18.59500
H  34.34500 49.80400 19.99600
H  38.15000 47.58300 19.26500
H  38.44900 46.26400 20.41500
H  39.98900 48.52400 19.92200
H  40.16000 47.69600 21.45300
H  39.00600 49.12700 21.15000
H  38.19400 43.91200 23.85700
H  36.81100 43.17100 24.61200
H  38.28400 43.34600 25.60600
H  37.60600 46.67700 29.62500
H  34.38300 45.48200 32.20800
H  35.95800 44.80000 32.85800
H  35.17400 43.97800 31.56400

