158

Mg -0.12700 7.52500 26.59600
C  0.56200 9.54300 29.43800
C  -0.32100 4.80200 28.72900
C  -0.58600 5.55100 23.94600
C  0.53400 10.21900 24.55100
N  -0.09400 7.29400 28.82500
C  0.14700 8.21200 29.81000
C  0.06900 7.70600 31.16900
C  -0.10300 6.11200 30.92100
C  -0.28200 6.07600 29.35600
C  0.95900 5.13000 31.48700
C  -1.00000 8.41200 32.02700
C  -0.76900 8.57000 33.53300
H  0.43000 8.07100 34.26000
N  -0.39000 5.45000 26.33200
C  -0.37300 4.49500 27.30100
C  -0.49700 3.20000 26.65500
C  -0.66900 3.40800 25.27400
C  -0.59900 4.89700 25.13300
C  -0.41100 1.97800 27.43900
C  -1.04000 2.35500 24.18600
O  -1.23500 2.79400 23.05700
C  -1.28200 0.87600 24.51000
N  -0.06400 7.87600 24.55400
C  -0.35900 6.88900 23.58400
C  -0.28500 7.40900 22.10600
C  -0.19900 8.94000 22.42200
C  0.14700 9.03700 23.94600
C  0.80200 6.66100 21.30600
C  -1.46300 9.77300 22.08300
C  -1.29400 10.76500 20.87600
N  0.49200 9.47000 26.89400
C  0.69000 10.42200 25.90600
C  1.23300 11.57200 26.58100
C  1.29700 11.27200 27.95000
C  0.74200 9.98700 28.10100
C  1.70500 12.75300 25.93700
C  1.63700 11.78100 29.23000
O  2.20200 12.85000 29.57500
C  1.16200 10.67000 30.27700
C  2.31400 10.21900 31.15600
O  3.07700 9.36900 30.82900
O  2.53300 11.00300 32.20500
C  3.63600 10.80000 33.14800
H  -0.47500 3.88200 29.29700
H  -0.83200 4.98100 23.04800
H  0.77200 11.09200 23.94100
H  1.02000 7.83900 31.68500
H  -1.09800 5.84800 31.28100
H  0.42200 4.31800 31.97800
H  1.54700 5.69600 32.20900
H  1.60800 4.87200 30.65000
H  -1.95600 7.94900 31.78200
H  -1.04600 9.39800 31.56400
H  -1.67700 8.19400 34.00300
H  -0.74600 9.64100 33.73300
H  -0.15700 1.08900 26.86200
H  -1.36100 1.78700 27.93700
H  0.41200 2.17400 28.12700
H  -1.68400 0.39100 23.62100
H  -1.98400 0.76300 25.33600
H  -0.39100 0.32800 24.81900
H  -1.19900 7.19400 21.55200
H  0.63000 9.37900 21.86700
H  1.11500 5.74600 21.81000
H  1.71900 7.24800 21.24900
H  0.58200 6.31700 20.29600
H  -1.53200 10.47200 22.91700
H  -2.42800 9.27600 21.98700
H  -0.79300 10.23300 20.06700
H  -0.75400 11.69700 21.04400
H  -2.29800 11.03900 20.55400
H  1.02300 13.05600 25.14300
H  2.72700 12.62200 25.58100
H  1.70300 13.62700 26.58900
H  0.31800 11.04400 30.85600
H  4.10000 11.78700 33.14700
H  4.34600 10.11100 32.69200
H  3.32300 10.51700 34.15300
Mg 40.23500 9.84500 29.07600
C  42.23800 11.05100 31.78400
C  38.07800 8.58700 31.38200
C  38.45100 8.75600 26.42200
C  42.84200 10.63700 26.88800
N  40.23000 9.74200 31.35600
C  41.06900 10.42600 32.24500
C  40.51800 10.28000 33.67100
C  39.17000 9.50900 33.52700
C  39.18600 9.25100 32.03100
C  39.00600 8.17800 34.34900
C  40.45000 11.67100 34.42300
C  39.49400 11.85100 35.66400
H  40.30600 12.42800 36.94700
N  38.47500 8.89200 28.92900
C  37.76900 8.36300 29.99600
C  36.56400 7.66000 29.49800
C  36.50400 7.82900 28.06300
C  37.81900 8.54000 27.73700
C  35.56600 7.00600 30.35800
C  35.55700 7.27800 27.02100
O  35.67000 7.52800 25.82800
C  34.40100 6.45900 27.60100
N  40.65000 9.54400 26.95300
C  39.71400 9.21000 26.08300
C  40.19700 9.39000 24.58700
C  41.61000 9.99300 24.84000
C  41.70900 10.09800 26.32500
C  40.07300 8.15200 23.72400
C  42.00500 11.34700 24.06400
C  41.52800 12.66500 24.62900
N  42.14600 10.54600 29.24200
C  43.06500 10.93700 28.25300
C  44.09700 11.77000 28.84900
C  43.76800 11.81200 30.14100
C  42.61200 11.04900 30.38000
C  45.30800 12.32300 28.27100
C  44.30500 12.31200 31.42600
O  45.38900 12.75400 31.68900
C  43.25400 11.93200 32.52200
C  43.92900 11.19600 33.58100
O  44.40100 10.08500 33.51100
O  44.02800 12.01700 34.66700
C  44.55900 11.39500 35.86800
H  37.25600 8.30900 32.04400
H  37.73400 8.62700 25.60900
H  43.59000 10.82700 26.11500
H  41.23900 9.59800 34.12100
H  38.33100 10.17500 33.72900
H  38.23600 8.27100 35.11500
H  39.95600 8.00900 34.85700
H  38.98500 7.26600 33.75200
H  40.06900 12.45000 33.76300
H  41.47000 12.02600 34.57400
H  39.03100 10.89400 35.90100
H  38.64200 12.49400 35.44100
H  34.54500 7.38700 30.37400
H  35.78600 7.08400 31.42200
H  35.55500 5.94300 30.11600
H  33.70500 6.97600 28.26200
H  34.85200 5.61300 28.12100
H  33.76900 6.10100 26.78900
H  39.49900 10.13200 24.20000
H  42.37800 9.27100 24.56200
H  41.06400 7.89000 23.35200
H  39.50300 8.34600 22.81600
H  39.72100 7.33400 24.35200
H  41.58200 11.26100 23.06300
H  43.09500 11.32500 24.08600
H  40.95300 12.51700 25.54300
H  40.96400 13.24700 23.90000
H  42.43800 13.23900 24.80400
H  45.52700 13.28700 28.73000
H  45.35000 12.38100 27.18400
H  46.10800 11.67700 28.63100
H  42.90600 12.92800 32.79700
H  44.32800 10.33900 36.00500
H  44.29900 11.99700 36.73900
H  45.64300 11.48600 35.79600

