158

Mg 53.40600 24.07600 44.29800
C  50.85000 26.03300 43.23600
C  51.95300 21.41200 42.59800
C  56.42500 22.28900 44.29100
C  55.22000 26.92400 45.22500
N  51.70000 23.85600 42.84900
C  50.77100 24.80400 42.66100
C  49.61100 24.19700 41.79100
C  49.76000 22.67300 42.05800
C  51.20800 22.61300 42.53500
C  48.81200 21.96500 43.09500
C  49.58700 24.69900 40.34000
C  48.20700 25.08600 39.73200
H  47.53800 23.77400 39.10400
N  54.01200 22.10500 43.62200
C  53.27700 21.18400 42.99300
C  53.99700 19.92900 42.89700
C  55.22500 20.09300 43.53500
C  55.26200 21.58000 43.89100
C  53.49500 18.70300 42.22600
C  56.22300 18.98800 43.73700
O  56.12600 17.87000 43.26200
C  57.50600 19.21500 44.60500
N  55.55400 24.50400 44.81600
C  56.63000 23.60400 44.62500
C  57.98100 24.36700 44.72300
C  57.53800 25.78200 45.14300
C  55.98600 25.78000 45.10400
C  59.07300 23.72500 45.49800
C  58.16600 26.95700 44.29500
C  58.82200 28.10200 45.04500
N  53.11100 26.05700 44.34700
C  53.82200 27.09800 44.83900
C  52.96400 28.28500 44.95600
C  51.80800 27.96400 44.31200
C  51.94300 26.60200 43.90200
C  53.25200 29.53000 45.64100
C  50.43000 28.36900 44.03300
O  49.82000 29.37700 44.22200
C  49.79500 27.07000 43.24100
C  49.37200 27.61300 42.02200
O  50.03400 28.00000 41.04000
O  47.99800 27.83200 42.21800
C  47.19000 28.34300 41.08300
H  51.41800 20.49200 42.35500
H  57.37300 21.74700 44.29000
H  55.75600 27.84500 45.46200
H  48.68400 24.63700 42.16000
H  49.85300 21.99800 41.20700
H  49.15200 22.05300 44.12700
H  48.54000 20.97100 42.74200
H  47.90300 22.55300 42.96900
H  49.87700 23.81100 39.77800
H  50.24000 25.55600 40.17400
H  48.24400 25.95500 39.07500
H  47.51200 25.36400 40.52400
H  54.15100 18.33100 41.43900
H  52.59900 18.86000 41.62600
H  53.18200 17.91300 42.90800
H  58.04800 18.32000 44.91000
H  57.07800 19.68900 45.48900
H  58.22600 19.77200 44.00600
H  58.32000 24.41000 43.68800
H  57.82700 25.92100 46.18400
H  58.74300 22.80500 45.97900
H  59.53700 24.43400 46.18400
H  59.92900 23.44900 44.88300
H  57.50100 27.37500 43.53900
H  58.97300 26.54000 43.69300
H  58.50400 28.00400 46.08300
H  58.60700 29.10400 44.67300
H  59.91200 28.08400 45.06300
H  53.47700 30.27600 44.87900
H  54.13300 29.40300 46.27000
H  52.40900 29.94200 46.19500
H  48.94200 26.76400 43.84600
H  47.72500 28.37600 40.13400
H  46.75000 29.33100 41.21700
H  46.46300 27.53100 41.05200
Mg 47.32500 45.17000 43.14500
C  43.89400 44.74800 42.65500
C  47.81000 41.90300 42.21700
C  50.54900 45.88400 43.36000
C  46.67400 48.69400 43.54200
N  45.94300 43.60300 42.26400
C  44.59700 43.58800 42.34700
C  44.01100 42.17800 42.10300
C  45.29000 41.26800 42.09700
C  46.42400 42.30700 42.24800
C  45.19500 40.05100 43.07400
C  43.20400 42.06800 40.83100
C  43.71800 42.80500 39.59300
H  43.52100 42.11200 38.24400
N  49.02500 43.95900 42.85900
C  49.04800 42.58900 42.46200
C  50.43900 42.13000 42.57000
C  51.28500 43.30300 42.84400
C  50.34200 44.50800 42.96400
C  50.72900 40.65100 42.29600
C  52.78100 43.29600 42.94800
O  53.38900 42.25400 42.65800
C  53.47100 44.57000 43.28400
N  48.45200 46.99900 43.51200
C  49.76000 46.98000 43.63500
C  50.31000 48.41500 43.94100
C  48.97300 49.28800 44.03700
C  47.95900 48.25800 43.66300
C  51.24700 48.49100 45.23000
C  49.00800 50.58100 43.10800
C  48.27800 51.82600 43.77200
N  45.66900 46.58100 42.95800
C  45.53500 47.87000 43.29900
C  44.15100 48.27900 43.35000
C  43.47600 47.08400 43.11700
C  44.42000 46.06800 42.90300
C  43.62800 49.61600 43.78700
C  42.17000 46.40400 43.03000
O  41.05900 46.79100 43.17000
C  42.34600 44.86000 42.76100
C  41.73200 44.14100 43.89400
O  40.69400 43.56700 43.75900
O  42.51900 44.19800 45.03800
C  41.99500 43.61600 46.20300
H  47.92700 40.83000 42.05200
H  51.55900 46.17800 43.65600
H  46.40900 49.74300 43.69000
H  43.38800 41.93300 42.96400
H  45.42900 40.71300 41.16900
H  44.18300 39.67900 42.91100
H  45.46600 40.33600 44.09000
H  45.82800 39.29400 42.61200
H  42.15300 42.23500 41.06500
H  43.25400 41.01900 40.54100
H  44.74700 43.16000 39.65100
H  43.10000 43.70200 39.63600
H  50.29600 40.21600 43.19700
H  51.79800 40.44300 42.34200
H  50.25800 40.30200 41.37800
H  53.25000 45.26000 42.47000
H  54.53100 44.46900 43.51600
H  52.98500 44.84000 44.22200
H  50.83100 48.70400 43.02800
H  48.70200 49.55700 45.05800
H  52.27700 48.75600 44.99400
H  51.38800 47.59100 45.82800
H  50.91100 49.16100 46.02100
H  48.55800 50.33200 42.14700
H  50.07400 50.73400 42.93800
H  48.94100 52.68900 43.83400
H  47.85200 51.53400 44.73200
H  47.49900 52.04400 43.04000
H  43.19500 49.41300 44.76600
H  42.85500 49.95700 43.09800
H  44.32300 50.45300 43.84600
H  41.89600 44.66200 41.78800
H  42.60500 43.98500 47.02800
H  41.99100 42.52600 46.19300
H  40.96500 43.93300 46.37000

