158

Mg 35.84400 1.66300 29.80300
C  33.28100 2.86100 31.88600
C  37.95500 1.63300 32.51100
C  38.24800 0.74200 27.66600
C  33.49700 1.78500 27.03600
N  35.63100 2.29500 31.93900
C  34.45800 2.48900 32.61700
C  34.58100 2.19900 34.12800
C  36.08000 2.09600 34.33200
C  36.63400 2.04800 32.86100
C  36.74500 3.06300 35.29500
C  33.83000 0.92300 34.61600
C  33.28800 0.95900 36.13200
H  33.83800 2.02700 37.09600
N  37.87600 1.20800 30.07500
C  38.51900 1.18500 31.27600
C  39.84800 0.81900 30.97500
C  39.98600 0.56500 29.60900
C  38.71600 0.84400 29.01900
C  40.94600 0.74300 32.07300
C  41.16300 0.16200 28.84400
O  41.04800 -0.27100 27.69800
C  42.52300 0.05800 29.46100
N  35.88200 1.35400 27.65500
C  37.05200 1.00800 27.03000
C  36.83600 0.88500 25.52700
C  35.29400 1.05200 25.31800
C  34.81600 1.41200 26.71300
C  37.63700 2.01500 24.70000
C  34.51800 -0.14000 24.75300
C  34.17900 -1.13400 25.78400
N  33.79900 2.25000 29.38700
C  33.03500 2.26700 28.24400
C  31.73800 2.72600 28.65200
C  31.78400 2.99100 30.02200
C  33.10000 2.70300 30.46200
C  30.55500 2.80100 27.67700
C  30.95800 3.36000 31.21800
O  29.80600 3.72600 31.27100
C  31.94300 3.17000 32.47400
C  31.87500 4.36300 33.43500
O  31.91200 5.54200 33.15500
O  31.54600 3.90300 34.68900
C  31.12200 4.81900 35.70900
H  38.58300 1.42400 33.38000
H  39.01000 0.50600 26.91900
H  32.77600 1.79700 26.21700
H  34.22500 3.09700 34.63300
H  36.31700 1.09400 34.69000
H  37.40100 2.61300 36.04100
H  35.96200 3.67300 35.74500
H  37.49400 3.75500 34.91100
H  34.49600 0.06200 34.55500
H  32.92200 0.77300 34.03200
H  33.63400 -0.00300 36.50900
H  32.20400 0.85000 36.10400
H  41.29600 -0.24200 32.38300
H  40.58500 1.24200 32.97300
H  41.76600 1.31000 31.63100
H  42.80300 0.96300 30.00000
H  43.26000 -0.23200 28.71200
H  42.45600 -0.76800 30.16900
H  37.16700 -0.06800 25.11400
H  35.06700 1.88900 24.65700
H  38.51300 1.78700 24.09400
H  38.06100 2.71100 25.42500
H  36.91000 2.54400 24.08400
H  35.05300 -0.47400 23.86400
H  33.57900 0.29600 24.41200
H  34.64600 -2.04400 25.41000
H  33.10900 -1.21600 25.97100
H  34.79800 -0.98800 26.67000
H  30.34600 1.83800 27.21000
H  30.89000 3.41900 26.84400
H  29.68100 3.25300 28.14600
H  31.44600 2.37200 33.02500
H  30.66500 4.38200 36.59700
H  30.37800 5.38700 35.15100
H  32.02300 5.34700 36.02000
Mg 6.70100 56.63600 40.98300
C  5.50400 53.53900 40.96900
C  9.60400 55.59600 39.41100
C  7.54600 59.90700 40.25500
C  3.64700 57.78200 42.39900
N  7.50900 54.79000 40.42500
C  6.81700 53.57600 40.45200
C  7.61600 52.45600 39.86400
C  9.04600 53.06700 39.84900
C  8.73100 54.58200 39.86600
C  10.01700 52.72100 41.14200
C  7.04600 52.09500 38.41900
C  7.43400 50.66100 38.06400
H  7.61600 50.31500 36.52800
N  8.34200 57.61000 39.98600
C  9.48600 56.99700 39.46800
C  10.32900 57.94700 38.85400
C  9.80900 59.25100 39.17400
C  8.49300 58.95200 39.80300
C  11.62300 57.62300 38.19100
C  10.47900 60.63900 39.01500
O  11.53600 60.74400 38.40900
C  9.89500 61.88500 39.52200
N  5.57600 58.50200 41.09100
C  6.27300 59.73500 40.87200
C  5.45300 60.95300 41.27500
C  4.18500 60.25800 41.94900
C  4.46100 58.75400 41.79600
C  6.17700 62.07100 42.10800
C  2.84000 60.79600 41.46300
C  1.76800 60.94900 42.67200
N  4.93600 55.79800 41.71800
C  3.82500 56.37400 42.23400
C  2.89600 55.38300 42.63900
C  3.56600 54.20200 42.24000
C  4.70000 54.54400 41.53700
C  1.50300 55.63300 43.19000
C  3.48200 52.72400 42.11800
O  2.57800 51.94100 42.47000
C  4.68800 52.25100 41.26200
C  4.18700 51.64600 40.04900
O  3.40000 52.18500 39.34200
O  4.64800 50.40300 39.89300
C  4.09700 49.82500 38.68200
H  10.47900 55.11900 38.96400
H  7.77900 60.95500 40.05200
H  2.76800 58.22900 42.86700
H  7.48200 51.53500 40.43100
H  9.53800 52.80700 38.91100
H  9.59000 51.85900 41.65500
H  10.15000 53.58800 41.78800
H  11.00800 52.57600 40.71300
H  7.45600 52.73600 37.63800
H  5.95900 52.17300 38.41000
H  6.64800 49.99400 38.41900
H  8.32200 50.31100 38.59000
H  12.48900 58.16200 38.57500
H  11.55600 58.01400 37.17600
H  11.77200 56.55200 38.06200
H  9.54800 61.79800 40.55100
H  9.07100 62.14900 38.85800
H  10.65300 62.66800 39.48900
H  5.16500 61.40700 40.32700
H  4.36100 60.38600 43.01700
H  7.22800 61.89500 42.33500
H  5.62700 62.24500 43.03400
H  6.10800 63.05800 41.65100
H  2.47000 60.14900 40.66800
H  2.83200 61.80900 41.06000
H  1.42300 61.95500 42.91000
H  2.18200 60.51600 43.58300
H  0.92900 60.27300 42.50600
H  1.00500 56.42500 42.63000
H  1.52100 55.97600 44.22400
H  0.91000 54.71800 43.18200
H  5.35600 51.49600 41.67600
H  4.64300 48.89400 38.52800
H  4.17500 50.43000 37.77900
H  3.05000 49.60000 38.88500

