158

Mg 23.93300 -8.33000 47.48100
C  26.81700 -6.25100 46.39400
C  22.38400 -7.16100 44.65800
C  21.75100 -10.64400 47.93900
C  26.12200 -9.79600 49.70000
N  24.56200 -6.81300 45.78000
C  25.68200 -6.05200 45.60000
C  25.58400 -5.06900 44.42500
C  24.09100 -5.37900 43.98300
C  23.62600 -6.45900 44.88500
C  23.22600 -4.17700 43.93800
C  26.58000 -5.47100 43.19300
C  27.41100 -4.25800 42.61200
H  27.16800 -3.89300 41.22100
N  22.23800 -8.69400 46.59700
C  21.77800 -8.13400 45.43800
C  20.44500 -8.57400 45.21700
C  20.19800 -9.61800 46.11800
C  21.45900 -9.72600 46.93500
C  19.49000 -8.04900 44.12000
C  18.88600 -10.42800 46.32900
O  17.99100 -10.19900 45.60000
C  18.62800 -11.30300 47.48700
N  23.92400 -9.93500 48.82000
C  22.85000 -10.80800 48.78500
C  23.02200 -11.88800 49.79900
C  24.52100 -11.66400 50.28500
C  24.86200 -10.40900 49.51700
C  21.92700 -11.94400 50.90200
C  25.53400 -12.77800 49.84400
C  26.38200 -13.48900 50.87600
N  26.03000 -8.19300 47.91100
C  26.69500 -8.80000 48.93000
C  27.98100 -8.27000 49.10300
C  28.04000 -7.18900 48.21000
C  26.85000 -7.24700 47.41600
C  29.13100 -8.81100 50.01400
C  28.82000 -6.05000 47.73100
O  29.92500 -5.70400 48.16800
C  28.14200 -5.47600 46.42600
C  27.90100 -3.99600 46.56600
O  26.93200 -3.43700 47.15500
O  28.73300 -3.26700 45.79300
C  28.41300 -1.87400 45.59800
H  21.85600 -6.77400 43.78400
H  20.89800 -11.30300 48.11600
H  26.73900 -10.33500 50.42200
H  25.72500 -4.00300 44.60100
H  24.11100 -5.86900 43.01000
H  22.33100 -4.33100 44.54100
H  22.79800 -3.98600 42.95400
H  23.75700 -3.29600 44.29900
H  26.00800 -5.89900 42.37000
H  27.31900 -6.22200 43.47100
H  28.44300 -4.58900 42.72500
H  27.46100 -3.40500 43.28800
H  19.78400 -7.09000 43.69300
H  18.45900 -8.02900 44.47500
H  19.67400 -8.71600 43.27900
H  18.87100 -10.87900 48.46100
H  19.23200 -12.20900 47.44000
H  17.59400 -11.63500 47.58000
H  22.93400 -12.84700 49.28900
H  24.53600 -11.60700 51.37300
H  22.29900 -11.52000 51.83500
H  21.67500 -13.00300 50.96600
H  21.01700 -11.37400 50.71900
H  26.21300 -12.51500 49.03300
H  24.90800 -13.49800 49.31700
H  25.89200 -14.38300 51.26100
H  26.67700 -12.85200 51.71000
H  27.37600 -13.67500 50.46800
H  29.23000 -9.89400 49.94700
H  29.16300 -8.35800 51.00600
H  30.05400 -8.43400 49.57400
H  28.77900 -5.80200 45.60300
H  28.56200 -1.68900 44.53400
H  28.88700 -1.11100 46.21400
H  27.34500 -1.74900 45.77300
Mg 35.80700 49.00800 24.65300
C  35.60400 47.23900 27.85100
C  34.31900 51.68700 26.17100
C  35.22000 50.19100 21.58700
C  36.64400 45.84700 23.21600
N  35.19600 49.45800 26.77600
C  35.16400 48.58700 27.91400
C  34.83300 49.31200 29.19500
C  34.22500 50.68100 28.56200
C  34.60700 50.64400 27.06800
C  32.71200 50.95600 28.70000
C  35.97100 49.47600 30.17900
C  35.92700 48.80600 31.56300
H  34.88800 49.48000 32.50400
N  34.94200 50.79800 23.99000
C  34.43900 51.78000 24.75100
C  34.04200 52.93500 23.87200
C  34.28900 52.49700 22.52900
C  34.92400 51.13000 22.62200
C  33.55900 54.22900 24.39600
C  33.97200 53.26900 21.19100
O  34.27400 52.88300 20.07000
C  33.32100 54.62900 21.23800
N  35.77700 47.98500 22.67300
C  35.58400 48.78700 21.57100
C  35.82700 48.01600 20.28700
C  36.50700 46.70200 20.82500
C  36.25700 46.80100 22.34600
C  34.57200 47.72100 19.33000
C  37.93800 46.35300 20.39600
C  39.15300 46.85000 21.29200
N  36.11700 47.01100 25.33300
C  36.51400 45.81700 24.63200
C  36.85300 44.77500 25.55400
C  36.42000 45.25800 26.77800
C  36.01400 46.61500 26.64500
C  37.45500 43.47600 25.25600
C  36.30500 44.88900 28.19100
O  36.47100 43.81300 28.72100
C  35.82400 46.19700 28.90800
C  34.63400 45.82400 29.70100
O  33.45900 46.09900 29.46500
O  35.05500 45.15800 30.78400
C  34.09900 44.77300 31.67100
H  33.94900 52.56800 26.69800
H  35.12800 50.66200 20.60600
H  36.93600 44.87000 22.82700
H  34.10200 48.66200 29.67700
H  34.72000 51.54000 29.01500
H  32.26800 50.13400 29.26100
H  32.35600 51.13000 27.68500
H  32.53900 51.94700 29.12000
H  36.10100 50.55300 30.29100
H  36.89400 49.19900 29.67100
H  36.93600 48.82300 31.97500
H  35.60300 47.77800 31.39600
H  34.18500 55.09800 24.19400
H  33.49200 54.19100 25.48300
H  32.63300 54.60600 23.96100
H  32.29300 54.45300 21.55500
H  33.35400 55.08000 20.24600
H  33.77600 55.45100 21.79100
H  36.48800 48.54700 19.60200
H  35.89500 45.87300 20.47200
H  34.58000 46.70800 18.92800
H  34.46400 48.48400 18.55900
H  33.63200 47.87300 19.86000
H  38.18000 46.67300 19.38300
H  38.02000 45.26700 20.35900
H  38.93400 47.03000 22.34500
H  39.44500 47.83400 20.92600
H  39.93100 46.08600 21.29600
H  38.26300 43.66700 24.55000
H  36.74500 42.93900 24.62700
H  37.78800 42.98600 26.17100
H  36.62700 46.48800 29.58500
H  33.35000 44.18600 31.14100
H  33.65100 45.68600 32.06300
H  34.57200 44.25300 32.50400

