158

Mg 43.98100 3.46100 47.84900
C  41.38300 5.92400 46.85400
C  41.61200 1.14300 47.24100
C  46.34300 1.36100 47.83800
C  46.19000 6.25800 47.54700
N  41.79700 3.60000 47.01700
C  40.96500 4.64100 46.90100
C  39.52900 4.21700 46.62900
C  39.53700 2.70900 47.16300
C  41.04300 2.44000 47.13700
C  38.88500 2.50700 48.55400
C  39.13000 4.32400 45.15500
C  37.64900 4.42300 44.87900
H  37.20800 5.39700 43.80100
N  43.95300 1.52900 47.74000
C  42.90600 0.70500 47.48500
C  43.31500 -0.68800 47.58500
C  44.71600 -0.68400 47.84800
C  45.11300 0.78500 47.83500
C  42.39200 -1.84400 47.30400
C  45.65100 -1.90300 48.03900
O  45.16000 -3.03600 47.84400
C  47.04900 -1.85700 48.52500
N  45.97100 3.80100 47.60500
C  46.74900 2.67400 47.66300
C  48.22200 3.02600 47.90900
C  48.19500 4.59800 47.87900
C  46.76900 4.97200 47.61000
C  48.84900 2.36600 49.14300
C  49.27800 5.26900 46.93100
C  50.06800 6.56000 47.42600
N  43.86700 5.69700 47.44000
C  44.84600 6.64700 47.34500
C  44.28800 8.02100 47.11200
C  42.94500 7.77900 47.03800
C  42.72400 6.34100 47.06500
C  44.87500 9.29700 47.00800
C  41.63000 8.38200 46.82200
O  41.24900 9.57000 46.75500
C  40.58600 7.20200 46.68300
C  39.47600 7.39700 47.62000
O  39.52700 7.36600 48.81700
O  38.31100 7.61900 46.97900
C  37.07100 7.66000 47.79200
H  40.85600 0.39200 47.00000
H  47.13800 0.61400 47.88400
H  46.92600 7.06400 47.58900
H  38.82600 4.83400 47.18900
H  39.16900 1.98200 46.43900
H  38.12200 1.73200 48.49100
H  38.20400 3.26300 48.94500
H  39.69600 2.30700 49.25500
H  39.51100 3.41000 44.70200
H  39.61400 5.16500 44.65900
H  36.98900 4.61800 45.72400
H  37.43200 3.40600 44.55300
H  42.18200 -2.03400 46.25100
H  41.42100 -1.65600 47.76300
H  42.71800 -2.75900 47.79900
H  47.64600 -1.92800 47.61600
H  47.16700 -2.73500 49.15900
H  47.17600 -0.94500 49.10900
H  48.63600 2.71000 46.95100
H  48.45700 4.90500 48.89100
H  49.34800 3.09000 49.78700
H  49.45200 1.52700 48.79700
H  48.06000 1.88800 49.72300
H  48.73100 5.66800 46.07600
H  50.02900 4.52700 46.66200
H  51.12200 6.32100 47.56700
H  49.65200 7.02300 48.32000
H  50.06500 7.35200 46.67700
H  45.83900 9.40700 46.51200
H  45.14000 9.76900 47.95400
H  44.20700 9.98500 46.49100
H  40.24600 7.20000 45.64800
H  37.01100 6.84300 48.51100
H  36.26700 7.38200 47.11100
H  36.92400 8.59300 48.33700
Mg 48.03600 14.98000 28.58100
C  45.60500 14.83300 31.03400
C  50.03900 16.97600 30.42600
C  50.18300 15.30800 25.85700
C  45.92100 12.89500 26.57800
N  47.87200 15.86300 30.44300
C  46.79800 15.61900 31.39400
C  47.17100 16.20600 32.78800
C  48.51300 17.01900 32.49200
C  48.83400 16.67600 31.01900
C  48.27900 18.56100 32.56800
C  47.41000 15.13000 33.89400
C  46.73600 15.37100 35.25200
H  47.56000 15.67700 36.52000
N  49.91200 15.91600 28.14300
C  50.58500 16.66300 29.11400
C  51.84900 17.06000 28.55000
C  51.84500 16.70400 27.18000
C  50.60100 15.93900 27.05500
C  52.87500 17.78700 29.36200
C  52.95400 16.81500 26.15000
O  52.94500 16.33600 25.04300
C  54.22500 17.65900 26.43500
N  47.91100 14.36800 26.43700
C  48.99400 14.50600 25.59600
C  48.70500 13.78300 24.23800
C  47.30900 13.15400 24.48600
C  47.03000 13.43300 25.98100
C  48.61100 14.74100 23.00600
C  47.21100 11.64200 24.09600
C  48.05200 10.64800 24.97400
N  46.22400 13.97800 28.71500
C  45.40500 13.28100 27.79000
C  44.12000 13.00000 28.44300
C  44.21100 13.59200 29.69800
C  45.44300 14.22100 29.79000
C  42.99200 12.12300 27.93000
C  43.48400 13.80800 30.92700
O  42.36100 13.46000 31.18800
C  44.38700 14.66900 31.80400
C  43.75500 15.94900 32.08700
O  43.36900 16.76000 31.32300
O  43.87400 16.21700 33.40400
C  43.40300 17.53000 33.91200
H  50.62900 17.68700 31.00800
H  50.92900 15.46800 25.07600
H  45.27500 12.20700 26.02900
H  46.35400 16.87700 33.05400
H  49.34800 16.69400 33.11300
H  47.23500 18.87400 32.56000
H  48.82000 19.14300 31.82200
H  48.69200 18.76400 33.55600
H  48.48800 14.99800 33.98000
H  47.12300 14.13600 33.55100
H  46.14800 14.49300 35.52000
H  45.98300 16.15800 35.20300
H  52.46700 18.22900 30.27100
H  53.24900 18.65900 28.82600
H  53.73100 17.19300 29.68400
H  54.84800 17.29200 27.25100
H  53.92000 18.69100 26.60900
H  54.80400 17.67900 25.51200
H  49.45400 13.08700 23.85800
H  46.49300 13.63900 23.95000
H  49.42500 14.55300 22.30600
H  48.71100 15.81100 23.18800
H  47.68300 14.59500 22.45200
H  47.48600 11.61900 23.04200
H  46.15800 11.36400 24.08700
H  48.48100 11.16800 25.83100
H  48.81200 10.23700 24.31000
H  47.45100 9.86500 25.43800
H  43.36900 11.47300 27.14000
H  42.18100 12.71700 27.50800
H  42.73200 11.43900 28.73800
H  44.63300 14.05500 32.67000
H  43.15000 17.25000 34.93500
H  42.52400 17.86600 33.36200
H  44.19300 18.27700 33.99500

