158

Mg 29.64400 58.73100 40.03400
C  26.85600 56.83500 38.80300
C  31.70100 56.13900 38.98700
C  32.29600 60.75700 40.12600
C  27.49100 61.46400 40.54000
N  29.30900 56.84000 38.65400
C  28.06100 56.18100 38.54300
C  28.25500 54.62800 38.27200
C  29.77500 54.44600 38.67100
C  30.29800 55.86700 38.85800
C  29.94500 53.39900 39.86800
C  27.81200 54.18000 36.88000
C  28.50000 54.91200 35.74500
H  27.56700 55.75900 34.76800
N  31.76600 58.46100 39.71100
C  32.38800 57.33000 39.27400
C  33.84300 57.54800 39.22400
C  34.02700 58.92800 39.56400
C  32.64200 59.46700 39.79700
C  34.76300 56.36500 38.87800
C  35.41300 59.57000 39.77500
O  36.40300 58.89000 39.62800
C  35.66600 61.04600 40.14400
N  29.83500 60.75200 40.40700
C  31.09400 61.38300 40.43300
C  30.95000 62.85600 40.88100
C  29.40000 63.11600 40.98300
C  28.87700 61.70200 40.61900
C  31.73400 63.37400 42.12000
C  28.74100 64.18100 40.05200
C  27.53500 64.97400 40.69100
N  27.48200 59.06500 39.98800
C  26.82500 60.19400 40.18500
C  25.40100 59.92100 40.03400
C  25.37500 58.63700 39.42400
C  26.64600 58.13300 39.39700
C  24.26400 60.84200 40.41500
C  24.46500 57.59500 38.87800
O  23.26500 57.68100 38.61200
C  25.42200 56.36400 38.52100
C  24.92300 55.16000 39.31600
O  25.51800 54.65500 40.25900
O  23.72700 54.73300 38.81400
C  23.04800 53.59200 39.48400
H  32.37700 55.30800 38.77500
H  33.13500 61.45500 40.17300
H  26.76200 62.20700 40.86900
H  27.62900 54.10000 38.99100
H  30.27400 54.11700 37.76000
H  30.56700 52.54900 39.58500
H  28.97400 52.94200 40.05800
H  30.36700 53.79900 40.78900
H  26.74100 54.32600 36.74300
H  27.97300 53.11900 36.68800
H  29.05400 54.19200 35.14300
H  29.26500 55.54300 36.19700
H  34.67600 55.97400 37.86500
H  34.64600 55.53700 39.57700
H  35.83200 56.58100 38.86700
H  35.46600 61.57000 39.20900
H  36.71600 61.11800 40.42500
H  35.10900 61.39400 41.01400
H  31.14300 63.43600 39.97900
H  29.08500 63.27100 42.01500
H  32.44700 62.59700 42.39600
H  31.03200 63.56800 42.93100
H  32.23000 64.31700 41.89000
H  28.32100 63.59500 39.23400
H  29.60100 64.81300 39.83400
H  26.56600 64.79600 40.22200
H  27.86000 66.01400 40.66900
H  27.23900 64.66700 41.69400
H  24.51300 61.46500 41.27400
H  23.48600 60.09500 40.56700
H  24.03900 61.54400 39.61200
H  25.13900 56.11200 37.49900
H  22.98100 53.75100 40.56000
H  23.40900 52.62100 39.14600
H  22.07700 53.56500 38.98900
Mg -11.03900 16.81600 40.93700
C  -7.44400 16.81200 40.93900
C  -10.74900 20.26300 40.35100
C  -14.37900 16.99600 40.69800
C  -11.12800 13.44500 41.15500
N  -9.23000 18.38200 40.45100
C  -7.89100 18.09600 40.58500
C  -7.01400 19.39000 40.30200
C  -8.12000 20.49200 40.61700
C  -9.43800 19.70300 40.46000
C  -8.04200 21.19000 41.99600
C  -6.39300 19.41500 38.84900
C  -4.82200 19.03500 38.77200
H  -4.38800 17.98100 37.66200
N  -12.36800 18.38200 40.53700
C  -12.06300 19.66300 40.29500
C  -13.30000 20.39400 40.07300
C  -14.37900 19.48700 40.09600
C  -13.73700 18.21800 40.47200
C  -13.28400 21.83300 39.52900
C  -15.84600 19.73900 39.64800
O  -16.12200 20.78400 39.20800
C  -16.91000 18.73700 39.90000
N  -12.48700 15.43400 40.82300
C  -13.80500 15.72100 40.90400
C  -14.63300 14.45200 40.92200
C  -13.62100 13.36600 41.19800
C  -12.31800 14.11600 41.09100
C  -15.90000 14.36300 41.94700
C  -13.73500 12.18500 40.19200
C  -13.48700 10.79000 40.77200
N  -9.63400 15.37500 40.97100
C  -9.80700 14.02500 41.10200
C  -8.53800 13.39100 41.25100
C  -7.58300 14.49000 41.12900
C  -8.31000 15.65000 41.01900
C  -8.26900 11.88300 41.45500
C  -6.14600 14.69000 41.21200
O  -5.17900 13.91600 41.33300
C  -5.96900 16.24900 41.10200
C  -5.26700 16.75000 42.29300
O  -4.03600 16.99000 42.26700
O  -6.13300 16.88300 43.38900
C  -5.41400 17.32600 44.62100
H  -10.62300 21.34800 40.34300
H  -15.45500 16.97000 40.88600
H  -11.09200 12.37700 41.38200
H  -6.23100 19.54700 41.04400
H  -8.05300 21.24100 39.82900
H  -8.84300 20.87600 42.66500
H  -8.13200 22.26600 41.85100
H  -7.04200 21.14300 42.42800
H  -6.60700 20.42800 38.51100
H  -6.85300 18.66100 38.20900
H  -4.60100 18.63700 39.76300
H  -4.37600 20.02300 38.66200
H  -13.13500 21.71300 38.45600
H  -12.47700 22.43000 39.95400
H  -14.22400 22.32800 39.77000
H  -17.91800 19.11200 39.72400
H  -16.72200 18.57600 40.96100
H  -16.63800 17.83600 39.35000
H  -14.91200 14.37200 39.87200
H  -13.57500 13.07300 42.24600
H  -16.78200 14.23500 41.31900
H  -15.97800 15.33700 42.43100
H  -15.84700 13.58000 42.70300
H  -13.02000 12.44100 39.41100
H  -14.73900 12.14300 39.77000
H  -14.44100 10.38600 41.10800
H  -12.75200 10.73800 41.57600
H  -13.11300 10.16200 39.96300
H  -7.38900 11.77400 42.09100
H  -8.24200 11.43200 40.46300
H  -9.09400 11.51400 42.06500
H  -5.27200 16.52500 40.31100
H  -4.57100 16.64700 44.74900
H  -5.98000 17.27200 45.55100
H  -5.08200 18.35800 44.50300

