158

Mg 1.58900 7.61600 25.43800
C  1.68200 9.21200 28.35300
C  1.53400 4.50600 27.10300
C  1.30300 5.83000 22.41800
C  2.34800 10.33300 23.63400
N  1.52700 6.91700 27.58500
C  1.54300 7.83500 28.61900
C  1.62500 7.04800 29.97600
C  1.79500 5.56400 29.49500
C  1.59600 5.63200 27.97000
C  3.17500 4.92400 29.79800
C  0.44400 7.32200 30.86200
C  0.53300 7.05200 32.35900
H  1.96200 6.72400 33.09700
N  1.33400 5.49600 24.84600
C  1.42700 4.42500 25.70500
C  1.40500 3.21300 24.97800
C  1.27200 3.55300 23.56200
C  1.29600 4.99400 23.54200
C  1.65800 1.83700 25.60300
C  1.07500 2.67800 22.31000
O  1.10000 3.11800 21.18600
C  1.12000 1.13600 22.62500
N  1.43400 8.01200 23.34100
C  1.36000 7.17800 22.30600
C  1.60700 7.90600 20.93700
C  1.69600 9.38900 21.34200
C  1.88500 9.24200 22.85500
C  2.89000 7.36600 20.17800
C  0.52600 10.35200 20.90000
C  -0.82500 10.13700 21.71900
N  1.94400 9.37700 25.87300
C  2.31600 10.43600 25.07000
C  2.42600 11.66600 25.76500
C  2.18300 11.31500 27.13400
C  1.87800 9.87500 27.07200
C  2.73000 13.01400 25.12200
C  2.12700 11.69000 28.46600
O  2.29900 12.85200 28.88700
C  1.78500 10.36900 29.32000
C  2.87600 10.26300 30.31600
O  3.99500 9.74800 30.10500
O  2.49700 10.83400 31.54100
C  3.63900 10.79800 32.47500
H  1.35700 3.66300 27.77400
H  1.28100 5.35600 21.43400
H  2.57900 11.27500 23.13300
H  2.38100 7.53100 30.59500
H  1.08800 5.00600 30.11000
H  3.02000 3.94000 30.24200
H  3.81500 5.53200 30.43700
H  3.65300 4.97900 28.82000
H  -0.42200 6.72500 30.57500
H  0.12000 8.34800 30.69000
H  -0.22200 6.33500 32.68200
H  0.21300 7.97100 32.84900
H  2.48800 1.36500 25.07900
H  0.73200 1.26600 25.66600
H  2.02100 1.80800 26.63100
H  0.35000 0.79400 23.31700
H  2.06100 0.87400 23.10900
H  0.99100 0.66700 21.65000
H  0.72500 7.59200 20.37900
H  2.62200 9.76300 20.90600
H  3.65300 6.88700 20.79200
H  3.37100 8.18100 19.63800
H  2.58300 6.59400 19.47200
H  0.28800 10.04000 19.88400
H  0.90400 11.37000 20.80600
H  -0.68800 9.39300 22.50400
H  -1.69700 9.96300 21.08900
H  -1.02800 11.11300 22.16000
H  3.75600 13.27600 25.38000
H  1.91500 13.57000 25.58500
H  2.50800 13.14700 24.06300
H  0.83000 10.50100 29.82800
H  4.51400 11.27000 32.02700
H  3.93600 9.75900 32.61500
H  3.54200 11.12300 33.51100
Mg -9.75100 40.12900 41.50900
C  -8.57800 36.85100 40.61800
C  -6.82600 41.38900 40.33700
C  -11.19600 43.09800 41.67400
C  -12.85500 38.69200 42.25700
N  -7.95300 39.20500 40.49400
C  -7.64800 37.85300 40.38400
C  -6.28400 37.71200 39.74100
C  -5.60100 39.07700 40.08000
C  -6.88000 39.96400 40.40100
C  -4.64100 39.08800 41.28700
C  -6.41600 37.41400 38.16800
C  -5.59900 36.32000 37.51300
H  -4.40700 36.81500 36.60700
N  -9.01100 41.97100 41.29300
C  -7.85200 42.30700 40.67700
C  -7.84700 43.75000 40.61800
C  -9.00000 44.27500 41.18600
C  -9.82800 43.10900 41.40900
C  -6.64500 44.43600 40.12000
C  -9.30100 45.74600 41.32400
O  -8.39300 46.55300 41.05200
C  -10.61600 46.24400 41.89000
N  -11.81900 40.80400 42.08800
C  -12.10800 42.12600 42.02900
C  -13.64300 42.31400 42.12000
C  -14.11100 40.92000 42.60500
C  -12.89300 40.06300 42.30700
C  -14.20000 43.46500 43.08100
C  -15.29800 40.41900 41.81500
C  -16.22800 39.42500 42.53200
N  -10.51000 38.17400 41.57200
C  -11.80900 37.77900 41.90300
C  -11.90100 36.34100 41.87900
C  -10.66200 35.95400 41.34300
C  -9.84200 37.12300 41.12100
C  -13.23900 35.59100 42.23900
C  -9.83700 34.80200 40.91600
O  -10.09600 33.58900 40.97500
C  -8.52100 35.35900 40.46400
C  -7.42300 34.75600 41.20100
O  -7.28600 34.87500 42.39600
O  -6.47800 34.14700 40.35500
C  -5.36700 33.70800 41.11800
H  -5.92700 41.84800 39.91900
H  -11.66200 44.08500 41.70500
H  -13.83900 38.31200 42.54000
H  -5.81700 36.92600 40.33300
H  -5.07200 39.44700 39.20300
H  -4.64400 38.10400 41.75500
H  -4.88300 39.77900 42.09400
H  -3.63000 39.26900 40.92000
H  -6.06000 38.34000 37.71500
H  -7.43700 37.23500 37.83100
H  -6.33600 35.71900 36.98000
H  -5.20100 35.74400 38.34800
H  -6.81500 44.62800 39.06100
H  -5.73500 43.85000 40.25100
H  -6.41600 45.38000 40.61600
H  -10.67100 45.94600 42.93700
H  -11.51100 46.00700 41.31400
H  -10.52000 47.32600 41.97400
H  -13.90500 42.57100 41.09400
H  -14.19400 40.89600 43.69200
H  -13.40000 43.82100 43.73100
H  -14.89800 43.02000 43.78900
H  -14.61600 44.31600 42.54100
H  -14.93300 39.90800 40.92400
H  -15.87200 41.25200 41.40900
H  -17.30200 39.58100 42.43200
H  -15.92100 39.38200 43.57700
H  -15.95100 38.50900 42.00900
H  -13.82600 35.31600 41.36300
H  -13.87800 36.20400 42.87400
H  -12.97900 34.63200 42.68600
H  -8.41900 35.10900 39.40800
H  -4.80900 34.50400 41.61200
H  -4.75700 33.07700 40.47200
H  -5.70700 32.97700 41.85100

