158

Mg -1.74100 16.77900 26.25100
C  -2.46600 14.34300 28.66400
C  -2.49000 19.19700 28.38400
C  -1.82700 18.92900 23.56400
C  -1.19100 14.09400 23.97200
N  -2.65600 16.70800 28.23400
C  -2.62600 15.67400 29.13100
C  -2.71500 16.21700 30.58700
C  -2.88100 17.76100 30.38700
C  -2.75800 17.89400 28.86400
C  -4.01500 18.46500 30.99100
C  -1.52800 15.79000 31.55000
C  -1.20000 16.64200 32.79100
H  -0.86200 15.76200 34.06400
N  -2.02700 18.77300 25.97500
C  -2.33100 19.63600 26.98700
C  -2.34500 21.02000 26.54000
C  -2.10800 20.91700 25.11100
C  -1.99700 19.54000 24.81900
C  -2.49700 22.19200 27.56800
C  -1.95900 21.97100 24.15100
O  -1.95000 21.74200 22.92900
C  -1.79600 23.32000 24.59400
N  -1.66000 16.51900 24.03000
C  -1.65400 17.58000 23.17600
C  -1.35800 17.20300 21.75000
C  -0.97400 15.65900 21.93300
C  -1.17200 15.37500 23.45700
C  -2.52900 17.48500 20.79600
C  0.49200 15.31700 21.59300
C  1.59300 15.73500 22.59700
N  -1.85200 14.62400 26.22700
C  -1.57900 13.74200 25.28000
C  -1.79600 12.40600 25.72000
C  -2.07200 12.56100 27.09600
C  -2.10800 13.96500 27.36500
C  -1.69700 11.12400 24.84400
C  -2.39900 11.86800 28.33500
O  -2.52600 10.67500 28.60100
C  -2.48300 12.96800 29.45000
C  -1.19800 12.75900 30.20000
O  -0.08600 13.02000 29.80800
O  -1.54700 12.23400 31.41900
C  -0.38000 11.97700 32.28200
H  -2.59200 20.00100 29.11700
H  -1.71900 19.51100 22.64700
H  -0.91100 13.31800 23.25700
H  -3.66500 15.75000 30.84700
H  -2.09800 18.40700 30.78400
H  -3.77000 19.17700 31.77900
H  -4.75500 17.78700 31.41800
H  -4.49100 19.13500 30.27600
H  -0.57200 15.73700 31.02900
H  -1.78600 14.82400 31.98300
H  -1.94400 17.39000 33.06600
H  -0.23400 17.07600 32.53400
H  -2.93300 21.84800 28.50600
H  -3.04800 23.04100 27.16300
H  -1.51100 22.51100 27.90600
H  -1.37500 23.87200 23.75300
H  -1.07500 23.36400 25.40900
H  -2.72200 23.78300 24.93400
H  -0.50900 17.81200 21.44100
H  -1.67600 15.02700 21.38800
H  -3.34200 17.88800 21.39900
H  -2.89300 16.58800 20.29600
H  -2.21000 18.18700 20.02600
H  0.76300 15.80000 20.65400
H  0.61200 14.25100 21.39600
H  2.01800 14.85000 23.07200
H  1.29800 16.42300 23.38900
H  2.39300 16.24100 22.05800
H  -2.62800 10.72600 24.44000
H  -1.15700 10.43600 25.49400
H  -1.05700 11.28700 23.97600
H  -3.32800 12.96600 30.13900
H  -0.87600 11.61100 33.18100
H  0.27700 12.84700 32.28300
H  0.14800 11.07300 31.97900
Mg 25.81200 0.77600 29.31200
C  27.73300 0.55500 32.15900
C  22.99100 0.99600 30.99300
C  24.01500 0.25600 26.32400
C  28.73300 0.08500 27.37900
N  25.40500 0.56100 31.34700
C  26.32000 0.64400 32.40100
C  25.59400 0.65500 33.76400
C  24.07900 0.77300 33.28700
C  24.14800 0.74700 31.77900
C  23.05300 -0.27000 33.81700
C  26.20500 2.02800 34.40200
C  25.29700 2.91300 35.19600
H  26.02500 3.40800 36.55300
N  23.78300 0.71800 28.73300
C  22.76400 0.84600 29.62400
C  21.46700 0.52900 28.98400
C  21.78200 0.26600 27.60300
C  23.18300 0.45900 27.49500
C  20.16700 0.46600 29.73600
C  20.86700 -0.03800 26.42100
O  21.22600 -0.36700 25.25600
C  19.36500 -0.06600 26.66200
N  26.30000 0.31800 27.11800
C  25.37700 0.12900 26.14900
C  25.99600 0.00100 24.72800
C  27.54800 0.13300 25.09000
C  27.57600 0.19800 26.62500
C  25.61800 -1.24900 23.81800
C  28.32400 1.24700 24.39000
C  28.27200 2.64000 24.99800
N  27.78600 0.43700 29.61000
C  28.85900 0.18400 28.77400
C  30.07600 0.02900 29.55700
C  29.65200 0.20600 30.89100
C  28.26600 0.38600 30.88400
C  31.40800 -0.34900 28.94600
C  30.15100 0.24900 32.21500
O  31.25800 0.05000 32.62400
C  28.93100 0.57300 33.09500
C  28.76200 -0.41600 34.29100
O  28.14600 -1.42500 34.31000
O  29.41100 0.17700 35.33900
C  29.35900 -0.59700 36.57900
H  22.12100 1.25800 31.59800
H  23.40900 0.34500 25.42000
H  29.63000 -0.16700 26.80900
H  25.77400 -0.23100 34.37300
H  23.63700 1.74700 33.49400
H  22.66200 -0.84900 32.97900
H  22.28600 0.41300 34.18400
H  23.58100 -0.82500 34.59200
H  26.49000 2.73200 33.62100
H  26.97400 1.74200 35.12000
H  24.51200 2.23000 35.52100
H  24.90900 3.68200 34.52800
H  20.24500 0.86000 30.74900
H  19.92500 -0.58100 29.91900
H  19.35300 0.93300 29.18200
H  18.88800 -0.24200 25.69800
H  19.04200 0.91700 27.00600
H  19.07200 -0.90900 27.28800
H  25.71300 0.88000 24.14800
H  27.93800 -0.82700 24.75300
H  26.35300 -2.05200 23.87500
H  25.47300 -0.92500 22.78700
H  24.65700 -1.65200 24.14000
H  28.04800 1.18000 23.33700
H  29.36800 0.93400 24.39700
H  27.38600 3.07300 24.53500
H  29.12300 3.31400 24.90000
H  28.04100 2.66800 26.06300
H  32.29200 0.28800 28.93700
H  31.24100 -0.90000 28.02000
H  31.73200 -1.24700 29.47200
H  29.07100 1.58000 33.48800
H  29.43700 -1.68400 36.57900
H  28.45000 -0.38100 37.14000
H  30.21500 -0.33100 37.19900

