158

Mg 2.51900 -1.96500 44.54900
C  5.62100 -1.04100 43.35800
C  1.04300 0.27700 42.32700
C  -0.37000 -3.34800 45.20000
C  4.18000 -4.59400 46.38500
N  3.24500 -0.66200 42.84300
C  4.57300 -0.32800 42.71400
C  4.76400 0.78700 41.70900
C  3.29200 1.34300 41.56800
C  2.44100 0.31100 42.28400
C  3.04100 2.72300 42.12700
C  5.43200 0.28200 40.42600
C  6.76700 0.90900 40.01000
H  6.75000 1.80600 38.74800
N  0.54700 -1.50100 43.91000
C  0.18100 -0.58300 43.05000
C  -1.27500 -0.54000 43.02200
C  -1.71500 -1.58100 43.85800
C  -0.48000 -2.21100 44.39600
C  -2.05100 0.37300 42.19800
C  -3.09600 -1.89100 44.24900
O  -4.04800 -1.27300 43.77300
C  -3.50200 -2.94500 45.24800
N  2.02900 -3.74300 45.67900
C  0.70700 -4.05700 45.74200
C  0.49200 -5.37200 46.50800
C  1.98900 -5.85300 46.84400
C  2.80700 -4.67700 46.28700
C  -0.41600 -5.22100 47.79500
C  2.31700 -7.27400 46.23000
C  2.05600 -8.54500 47.01600
N  4.47900 -2.62500 44.93200
C  4.97100 -3.70200 45.65900
C  6.45900 -3.63000 45.60100
C  6.74700 -2.57200 44.76400
C  5.48700 -2.06500 44.32200
C  7.37700 -4.68300 46.23300
C  7.77000 -1.76800 44.15900
O  9.02900 -1.80800 44.27900
C  7.00100 -0.68000 43.34500
C  7.40700 0.64700 43.91500
O  6.72900 1.32000 44.66200
O  8.60500 1.03700 43.36100
C  9.10700 2.22300 44.04000
H  0.54300 1.09700 41.80600
H  -1.31400 -3.88100 45.33100
H  4.67900 -5.30500 47.04700
H  5.39600 1.59100 42.08700
H  2.87100 1.46900 40.57000
H  3.89300 3.32500 41.81200
H  3.02800 2.66500 43.21500
H  2.11100 3.05700 41.66600
H  4.82400 0.80200 39.68600
H  5.26800 -0.79500 40.39600
H  7.42400 0.04000 39.97200
H  7.11100 1.59700 40.78300
H  -1.59400 1.35600 42.08400
H  -3.00800 0.61700 42.65900
H  -2.34300 -0.07300 41.24800
H  -2.92900 -2.65000 46.12700
H  -3.35400 -3.98500 44.96100
H  -4.56000 -2.86200 45.49900
H  -0.02400 -5.96600 45.75400
H  2.08400 -6.04000 47.91300
H  -0.72300 -4.18700 47.95600
H  0.10700 -5.44400 48.72600
H  -1.23500 -5.93400 47.88600
H  3.32000 -7.29000 45.80300
H  1.56600 -7.30800 45.44100
H  1.50300 -8.15000 47.86800
H  2.96200 -9.07700 47.30700
H  1.46400 -9.24300 46.42500
H  6.98600 -4.90000 47.22700
H  8.36100 -4.22300 46.14100
H  7.29500 -5.61400 45.67200
H  7.40600 -0.75300 42.33600
H  9.22600 2.08000 45.11400
H  8.58100 3.13500 43.76100
H  10.11600 2.27800 43.63000
Mg 24.01600 -6.70400 47.58300
C  26.12200 -4.12400 46.43300
C  21.66000 -5.57000 45.39300
C  22.16700 -9.39000 48.40200
C  26.79800 -8.11600 49.23800
N  23.95700 -5.05200 46.06700
C  24.85500 -4.09400 45.87300
C  24.35200 -3.03900 44.79000
C  22.77600 -3.41600 44.65000
C  22.76300 -4.71900 45.45000
C  21.83300 -2.33000 45.32900
C  25.15300 -3.11800 43.54800
C  25.69900 -1.82400 42.93800
H  25.05700 -1.40700 41.58000
N  22.10600 -7.30400 47.12400
C  21.38000 -6.78300 46.04600
C  20.06700 -7.55500 45.92000
C  20.15100 -8.57100 46.93800
C  21.49700 -8.42200 47.58800
C  18.89700 -7.10400 45.08000
C  19.06500 -9.60200 47.26000
O  18.08000 -9.59800 46.50200
C  19.23300 -10.56900 48.42200
N  24.33300 -8.47300 48.71000
C  23.48200 -9.42000 48.92200
C  23.92500 -10.46900 49.96400
C  25.45500 -10.07300 50.15500
C  25.58800 -8.82800 49.32600
C  23.03700 -10.51000 51.27400
C  26.51800 -11.05200 49.76600
C  26.58100 -11.43100 48.29800
N  26.08700 -6.29100 47.79800
C  27.02300 -6.88300 48.59900
C  28.23100 -6.05300 48.54500
C  27.96900 -4.97200 47.70300
C  26.61000 -5.17200 47.26800
C  29.53100 -6.23600 49.17600
C  28.40100 -3.73800 47.13100
O  29.48000 -3.08600 47.23100
C  27.24900 -3.19200 46.19100
C  26.95200 -1.85700 46.62200
O  26.13600 -1.56500 47.50900
O  27.77000 -0.96100 46.00500
C  27.64000 0.48100 46.38300
H  20.97200 -5.27300 44.59800
H  21.70000 -10.37300 48.48800
H  27.49500 -8.57500 49.94200
H  24.48500 -2.07600 45.28400
H  22.40900 -3.68100 43.65800
H  22.52300 -1.67700 45.86300
H  21.16100 -2.71300 46.09700
H  21.40400 -1.65600 44.58700
H  24.53400 -3.56100 42.76900
H  25.96800 -3.83400 43.65800
H  26.75200 -2.08300 42.82400
H  25.58100 -0.95400 43.58500
H  18.40200 -7.90500 44.53000
H  19.17200 -6.39400 44.30100
H  18.14800 -6.55100 45.64700
H  18.27200 -11.05800 48.58500
H  19.40600 -10.12500 49.40200
H  19.92200 -11.36700 48.14500
H  23.98400 -11.45600 49.50600
H  25.56900 -9.95100 51.23300
H  22.68800 -11.49100 51.59400
H  22.15000 -9.88100 51.19100
H  23.62900 -10.20100 52.13500
H  26.25900 -11.98700 50.26300
H  27.49900 -10.78900 50.16100
H  26.85900 -12.48200 48.21000
H  27.40300 -10.90600 47.81300
H  25.62500 -11.21700 47.82000
H  29.92400 -5.31900 49.61500
H  30.22400 -6.62100 48.42900
H  29.59700 -6.98500 49.96500
H  27.65100 -3.13800 45.17900
H  27.79200 1.14900 45.53500
H  28.30800 0.68900 47.21800
H  26.67100 0.89800 46.65700

