158

Mg 9.12400 3.16300 27.23700
C  10.50500 1.55800 30.07900
C  7.36000 5.31900 29.37400
C  7.59700 4.39700 24.57300
C  10.53600 0.53800 25.19400
N  8.95000 3.34800 29.48600
C  9.62100 2.62400 30.41700
C  9.35800 3.19900 31.79400
C  8.30200 4.32500 31.55600
C  8.21500 4.36500 30.02300
C  6.89500 4.21100 32.29500
C  10.62400 3.66700 32.61200
C  10.34200 4.55600 33.83200
H  10.97500 4.18300 35.15900
N  7.86000 4.82000 26.97800
C  7.21700 5.57100 27.98300
C  6.35300 6.55200 27.33700
C  6.39400 6.27300 25.92000
C  7.32500 5.14900 25.80000
C  5.48000 7.56300 28.10500
C  5.67700 6.86000 24.72500
O  5.69600 6.40700 23.56500
C  4.66800 7.95100 24.98100
N  9.17300 2.55600 25.17400
C  8.30500 3.19200 24.33900
C  8.30000 2.48900 22.94400
C  9.34900 1.39800 23.07300
C  9.73100 1.50400 24.57900
C  6.91900 2.05500 22.34300
C  10.67000 1.72000 22.24100
C  10.95200 0.82400 20.97800
N  10.30100 1.36600 27.50800
C  10.88000 0.49300 26.59700
C  11.70800 -0.46600 27.32300
C  11.67100 0.00700 28.66400
C  10.73800 1.09400 28.73700
C  12.42400 -1.67900 26.81400
C  12.19500 -0.24000 30.00400
O  13.00400 -1.08600 30.46100
C  11.43300 0.74600 30.94900
C  10.73400 0.05800 32.09700
O  9.62100 -0.41800 32.06500
O  11.46500 0.05500 33.38200
C  10.74900 -0.39100 34.49400
H  7.08900 6.19200 29.97200
H  7.18300 4.77300 23.63500
H  10.87200 -0.29300 24.57100
H  8.87900 2.33600 32.25700
H  8.74500 5.29100 31.79600
H  6.85500 3.69400 33.25400
H  6.28400 3.63900 31.59700
H  6.57600 5.22700 32.52900
H  11.24800 4.18800 31.88600
H  11.23000 2.82300 32.94000
H  9.28100 4.48300 34.06900
H  10.57400 5.60600 33.65000
H  5.80500 8.59300 27.96000
H  5.59000 7.44200 29.18300
H  4.47800 7.32800 27.74600
H  4.03600 7.49000 25.74000
H  4.06500 8.18900 24.10500
H  5.13900 8.83700 25.40800
H  8.54300 3.22100 22.17400
H  9.01300 0.37300 22.91600
H  6.97700 0.99200 22.11200
H  6.56000 2.55400 21.44300
H  6.15500 2.19800 23.10800
H  11.51100 1.71400 22.93400
H  10.62500 2.73400 21.84400
H  11.99100 0.49800 21.02100
H  10.81000 1.41600 20.07300
H  10.37300 -0.09900 21.00200
H  12.67400 -2.28000 27.68800
H  13.32500 -1.31100 26.32300
H  11.70400 -2.21400 26.19400
H  12.22000 1.38300 31.35100
H  9.98700 0.37300 34.64500
H  11.24500 -0.38400 35.46500
H  10.23600 -1.33000 34.28500
Mg -9.03500 41.15900 42.46100
C  -8.39400 37.84600 41.59800
C  -6.34400 42.22800 40.83900
C  -10.47800 44.26900 42.47600
C  -12.19400 39.91900 43.84800
N  -7.63300 40.18300 41.20200
C  -7.49100 38.76100 41.09600
C  -6.21600 38.53800 40.29100
C  -5.41600 39.85600 40.56100
C  -6.53700 40.82100 40.85800
C  -4.34500 39.88900 41.69200
C  -6.60900 38.23700 38.76400
C  -6.04400 36.89800 38.20400
H  -5.07300 37.08700 37.05900
N  -8.39600 42.97800 41.86500
C  -7.24100 43.22900 41.14100
C  -7.20700 44.64200 40.75800
C  -8.31200 45.27700 41.38700
C  -9.15400 44.19000 41.91200
C  -6.13300 45.34500 39.85000
C  -8.61100 46.79500 41.31200
O  -7.90900 47.55600 40.57800
C  -9.69700 47.38300 42.00700
N  -11.10500 41.94100 42.95100
C  -11.28300 43.29600 42.96000
C  -12.59100 43.65000 43.69000
C  -13.17800 42.29400 44.17900
C  -12.09200 41.28100 43.62000
C  -12.35500 44.78600 44.72600
C  -14.63100 42.11200 43.53300
C  -15.60700 42.76100 44.44100
N  -10.01400 39.35000 42.87700
C  -11.25600 38.99700 43.45100
C  -11.30400 37.52400 43.62800
C  -10.25200 37.11900 42.87500
C  -9.56300 38.20300 42.34900
C  -12.46400 36.68500 44.24900
C  -9.69700 35.87700 42.28700
O  -9.98200 34.71000 42.35200
C  -8.49200 36.36500 41.39900
C  -7.26300 35.66500 41.88300
O  -6.66500 35.91700 42.86800
O  -6.99400 34.62200 41.07200
C  -6.05900 33.52100 41.52100
H  -5.31500 42.53400 40.63900
H  -11.04300 45.19400 42.34200
H  -13.05900 39.48700 44.35500
H  -5.63800 37.75800 40.78700
H  -4.90000 40.08200 39.62800
H  -4.56700 40.79300 42.26000
H  -3.33300 39.94600 41.29000
H  -4.56100 38.98300 42.25700
H  -6.27500 39.11100 38.20400
H  -7.68000 38.34700 38.59600
H  -6.97800 36.42800 37.89500
H  -5.60400 36.31400 39.01200
H  -6.52900 45.84700 38.96700
H  -5.38600 44.58800 39.61500
H  -5.59400 46.02000 40.51600
H  -9.61000 48.46400 42.11700
H  -9.60800 46.99200 43.02100
H  -10.63300 47.07400 41.54200
H  -13.24800 44.14700 42.97600
H  -13.30300 42.19100 45.25700
H  -11.38300 45.27300 44.65200
H  -12.38900 44.27900 45.69000
H  -13.19100 45.48400 44.67000
H  -14.63100 41.02200 43.54300
H  -14.69000 42.49000 42.51300
H  -16.46800 43.07400 43.85000
H  -15.15700 43.53300 45.06500
H  -15.88300 41.96900 45.13600
H  -12.06400 35.73500 44.60200
H  -13.18100 36.29000 43.52900
H  -12.98600 37.30000 44.98200
H  -8.72000 36.00200 40.39600
H  -6.70700 32.80300 42.02300
H  -5.33700 33.90800 42.24000
H  -5.43300 33.04700 40.76500

