158

Mg 24.71000 -6.72600 47.32300
C  27.15900 -4.59500 46.19500
C  22.69900 -5.92100 44.75100
C  22.47500 -9.34800 48.24700
C  27.17700 -8.24800 49.42700
N  25.02500 -5.58600 45.41200
C  25.97800 -4.57200 45.31800
C  25.80200 -3.77500 44.01600
C  24.26900 -4.16600 43.61200
C  23.96500 -5.31600 44.64300
C  23.16100 -3.11800 43.53800
C  26.78700 -3.94400 42.85400
C  27.58900 -2.64600 42.53500
H  27.49400 -2.20300 41.10400
N  22.74600 -7.50200 46.70800
C  22.10500 -6.98900 45.60600
C  20.87900 -7.64500 45.45900
C  20.72000 -8.55300 46.51400
C  21.98900 -8.48700 47.29100
C  19.92400 -7.42300 44.39300
C  19.42600 -9.48300 46.76800
O  18.46500 -9.53100 46.02400
C  19.38000 -10.25100 48.06300
N  24.81600 -8.44700 48.59600
C  23.81900 -9.38300 48.83200
C  24.37400 -10.65400 49.44700
C  25.78100 -10.27500 49.84900
C  25.94700 -8.82500 49.33200
C  23.47100 -11.17700 50.58600
C  26.84300 -11.23800 49.20800
C  27.78400 -11.88200 50.31600
N  26.63400 -6.35600 47.92500
C  27.48900 -6.97600 48.77800
C  28.67800 -6.21600 48.91100
C  28.62100 -5.24700 47.94700
C  27.34900 -5.41500 47.33800
C  29.83800 -6.50800 49.82500
C  29.23200 -4.12900 47.20800
O  30.35300 -3.67300 47.35200
C  28.38500 -3.64900 46.08400
C  28.06200 -2.21300 46.17500
O  28.78100 -1.36400 45.62300
O  27.01600 -1.92600 46.97700
C  26.91100 -0.47700 47.13800
H  21.94200 -5.50700 44.08200
H  21.82900 -10.15600 48.59700
H  27.96500 -8.69900 50.03400
H  25.80100 -2.74700 44.38000
H  24.20000 -4.72300 42.67700
H  23.60000 -2.12100 43.50900
H  22.46100 -3.20200 44.36900
H  22.58100 -3.26900 42.62700
H  26.33800 -4.36500 41.95300
H  27.51100 -4.71100 43.12800
H  28.60600 -2.57400 42.91900
H  27.11800 -1.81800 43.06500
H  19.88500 -6.43000 43.94700
H  18.91200 -7.50500 44.78900
H  20.04900 -8.17100 43.60900
H  19.95400 -11.16200 48.23400
H  18.33000 -10.50400 48.20500
H  19.63800 -9.44600 48.75000
H  24.39100 -11.40900 48.66200
H  25.76900 -10.14100 50.93100
H  22.70000 -11.87600 50.26200
H  23.01400 -10.41200 51.21400
H  24.00800 -11.76400 51.33100
H  27.47300 -10.66300 48.52900
H  26.39500 -11.99400 48.56200
H  27.87800 -12.95000 50.12400
H  27.46200 -11.69900 51.34100
H  28.81500 -11.53000 50.30100
H  30.18700 -7.47900 49.47500
H  29.46900 -6.58000 50.84800
H  30.57100 -5.70200 49.78100
H  28.96300 -3.95200 45.21100
H  26.16500 -0.29600 47.91200
H  26.47600 0.07100 46.30200
H  27.89400 -0.08800 47.40600
Mg 41.70700 42.12700 26.00000
C  40.98700 44.36100 28.77100
C  42.71700 39.94100 28.38800
C  42.67300 40.22600 23.52300
C  40.90500 44.67400 23.84600
N  41.94300 42.19700 28.42400
C  41.49600 43.13200 29.27500
C  41.71000 42.68300 30.76300
C  42.06200 41.19000 30.57600
C  42.17100 41.06100 29.08100
C  43.25700 40.59500 31.44400
C  40.46900 43.15100 31.63700
C  40.13500 42.41100 32.94900
H  41.16800 42.67400 34.08300
N  42.47600 40.25100 25.94000
C  42.92100 39.58000 27.04800
C  43.52700 38.33300 26.62200
C  43.41100 38.35100 25.18900
C  42.83300 39.58200 24.77500
C  44.17500 37.23800 27.52800
C  43.82300 37.32700 24.12500
O  43.56800 37.52300 22.94300
C  44.51200 36.14300 24.56000
N  41.89100 42.50100 23.98900
C  42.07200 41.44400 23.10100
C  42.04600 41.88200 21.56200
C  41.14900 43.14100 21.81800
C  41.35500 43.48000 23.25900
C  43.38200 42.18400 20.84700
C  39.65300 43.03700 21.30300
C  38.85300 41.76700 21.50800
N  41.14200 44.11600 26.24500
C  40.81200 45.03100 25.22400
C  40.34900 46.30600 25.82400
C  40.42400 46.06400 27.20000
C  40.94400 44.73600 27.39300
C  39.98400 47.56000 25.08700
C  40.12600 46.69600 28.47800
O  39.60200 47.81300 28.70100
C  40.47200 45.56700 29.52400
C  41.35700 46.10600 30.57000
O  42.58600 46.24000 30.41800
O  40.64700 46.47700 31.64600
C  41.39300 46.68900 32.86900
H  42.93300 39.11200 29.06600
H  43.03900 39.68100 22.65000
H  40.58000 45.42600 23.12500
H  42.62400 43.22400 31.00600
H  41.13000 40.66600 30.78900
H  43.92700 40.01000 30.81500
H  42.83900 39.86400 32.13600
H  43.77400 41.43000 31.91700
H  39.56000 43.02500 31.04900
H  40.43900 44.19800 31.94100
H  40.00100 41.33000 32.91900
H  39.18000 42.87000 33.20500
H  45.16100 37.12500 27.07600
H  43.71600 36.26700 27.34100
H  44.10400 37.39000 28.60500
H  44.69000 35.53400 23.67400
H  43.88100 35.64800 25.29800
H  45.45100 36.47200 25.00700
H  41.47100 41.16500 20.97700
H  41.52900 44.06800 21.38800
H  43.73700 43.14300 21.22500
H  43.37700 42.12900 19.75900
H  44.14700 41.44700 21.09200
H  39.81400 43.13100 20.22900
H  39.20400 43.97400 21.63300
H  37.85500 42.10700 21.78500
H  39.37000 41.20500 22.28500
H  38.83700 41.28500 20.53000
H  39.31300 47.19300 24.31000
H  40.93900 47.92700 24.71200
H  39.64700 48.26100 25.85100
H  39.56600 45.29000 30.06400
H  41.14200 45.80800 33.45900
H  40.93000 47.50300 33.42700
H  42.45900 46.87500 32.73800

