158

Mg 53.55700 24.22700 43.85900
C  50.58500 26.22000 43.51500
C  51.68300 21.56400 42.72300
C  56.34400 22.53800 43.35700
C  55.25700 27.08400 44.46300
N  51.38100 23.91200 43.18200
C  50.35200 24.86800 43.06300
C  49.18700 24.29700 42.20500
C  49.48700 22.78700 42.44800
C  50.95000 22.70500 42.72500
C  48.66300 22.05500 43.56600
C  49.11600 24.74000 40.66800
C  50.52100 24.96600 39.87100
H  50.39500 25.69600 38.59400
N  53.89000 22.27600 43.33100
C  53.01700 21.31400 43.01700
C  53.59500 20.05700 42.91100
C  55.02000 20.30400 42.97100
C  55.15400 21.73600 43.26900
C  52.82000 18.77500 42.76300
C  56.05500 19.24600 42.81900
O  55.83700 18.04900 42.67100
C  57.48800 19.61300 42.69900
N  55.63800 24.77800 43.58500
C  56.57100 23.91600 43.62800
C  57.93300 24.61700 43.79600
C  57.51400 26.11400 44.11300
C  56.03700 26.01200 44.06300
C  58.91000 24.02400 44.84300
C  58.02300 27.16500 43.11600
C  58.72400 28.42200 43.70000
N  53.02300 26.13900 44.24700
C  53.85900 27.20600 44.59200
C  53.11600 28.38100 44.86200
C  51.83800 28.03200 44.38900
C  51.84600 26.65500 44.05900
C  53.67400 29.50900 45.49700
C  50.53500 28.53000 44.14100
O  50.08000 29.66000 44.25900
C  49.62200 27.34000 43.68400
C  48.74900 27.76400 42.63000
O  49.09600 28.40600 41.64300
O  47.41800 27.32700 42.85100
C  46.32900 27.67600 41.88400
H  51.05900 20.69800 42.49200
H  57.26000 21.94400 43.34400
H  55.82400 27.92900 44.85900
H  48.15500 24.46400 42.51500
H  49.29800 22.32800 41.47700
H  48.05400 22.70500 44.19500
H  49.29800 21.59000 44.32000
H  48.03400 21.30200 43.09000
H  48.50100 25.63800 40.61300
H  48.42500 24.05500 40.17600
H  50.78500 23.94200 39.60500
H  51.40400 25.19500 40.46700
H  52.70200 18.67100 41.68500
H  51.81400 18.71700 43.17800
H  53.26300 17.89300 43.22600
H  58.04000 19.84700 43.60900
H  57.51200 20.46900 42.02400
H  57.98400 18.83300 42.12200
H  58.28900 24.53800 42.76900
H  57.85900 26.42400 45.09900
H  59.90100 24.11300 44.39900
H  58.66200 23.02000 45.18800
H  58.85000 24.67700 45.71400
H  57.23400 27.46700 42.42700
H  58.82500 26.63000 42.60600
H  58.26700 29.34900 43.35400
H  59.74200 28.30200 43.33000
H  58.76600 28.41400 44.79000
H  54.43800 30.01400 44.90600
H  54.02800 29.08800 46.43900
H  52.85400 30.21900 45.60000
H  49.05000 27.39600 44.61000
H  46.62100 27.29600 40.90500
H  46.24900 28.74400 41.68000
H  45.40800 27.26600 42.29800
Mg -11.75200 17.16000 42.03700
C  -8.56100 15.73200 41.65900
C  -10.54500 20.15500 40.78400
C  -14.85300 18.04200 41.49600
C  -12.88300 13.76700 42.44800
N  -9.74900 17.85100 41.32100
C  -8.60100 17.13800 41.29400
C  -7.43200 18.01400 40.77800
C  -8.09400 19.46800 41.05300
C  -9.57100 19.10800 40.97200
C  -7.75000 20.21600 42.31500
C  -7.13100 17.69200 39.32000
C  -5.71300 17.35800 38.99700
H  -5.01200 18.12100 37.89500
N  -12.56500 18.90900 41.36100
C  -11.91500 20.07200 41.01600
C  -12.86700 21.16000 40.85500
C  -14.14400 20.57200 40.97900
C  -13.87000 19.10500 41.27800
C  -12.48400 22.53900 40.39900
C  -15.49900 21.26900 40.90300
O  -15.62000 22.52000 40.78000
C  -16.79400 20.53900 40.92300
N  -13.58000 16.06500 41.99400
C  -14.72000 16.70400 41.80300
C  -15.96800 15.84800 41.98100
C  -15.40200 14.44200 42.28900
C  -13.86600 14.74600 42.33400
C  -16.97000 16.45300 42.98900
C  -15.86300 13.35200 41.26600
C  -16.79300 12.27100 41.78900
N  -10.87500 15.17500 42.22900
C  -11.50600 13.94000 42.49900
C  -10.41000 12.90800 42.67600
C  -9.23200 13.60000 42.37400
C  -9.59500 14.91700 42.10900
C  -10.61400 11.49100 42.96500
C  -7.81500 13.37700 42.27500
O  -7.05800 12.39800 42.42000
C  -7.32400 14.76700 41.73800
C  -6.36800 15.33900 42.65500
O  -6.68300 15.80400 43.72800
O  -5.08400 15.28100 42.20300
C  -4.03000 15.86400 43.16100
H  -10.09500 21.12700 40.57100
H  -15.89700 18.22800 41.23200
H  -13.03100 12.68700 42.38100
H  -6.60400 17.94200 41.48300
H  -7.76900 20.13700 40.25500
H  -6.81000 20.71600 42.08300
H  -7.53900 19.56800 43.16600
H  -8.52200 20.95600 42.52700
H  -7.43700 18.52600 38.68800
H  -7.76400 16.86600 38.99400
H  -5.65500 16.27300 38.91900
H  -5.09900 17.54800 39.87800
H  -12.41700 22.38300 39.32300
H  -11.48400 22.72700 40.79000
H  -13.18200 23.28000 40.78800
H  -17.54900 21.32100 41.01100
H  -16.80300 19.93800 41.83200
H  -16.88400 20.08100 39.93800
H  -16.49500 15.87800 41.02700
H  -15.64900 14.17800 43.31700
H  -17.99200 16.46300 42.61000
H  -16.71600 17.48600 43.22800
H  -16.99000 15.94500 43.95400
H  -14.99900 12.84800 40.83200
H  -16.39000 13.82400 40.43700
H  -17.06800 12.46000 42.82600
H  -16.31200 11.30000 41.90900
H  -17.75300 12.24400 41.27300
H  -9.89700 11.18500 43.72700
H  -10.69500 10.91800 42.04100
H  -11.61000 11.43400 43.40400
H  -6.80700 14.66700 40.78400
H  -4.00600 16.95000 43.25000
H  -3.11300 15.36000 42.85400
H  -4.29000 15.51100 44.15900

